MODEL 1
REMARK VINA RESULT:      -5.4      0.000      0.000
REMARK  2 active torsions:
REMARK  status: ('A' for Active; 'I' for Inactive)
REMARK    1  A    between atoms: C6_6  and  C8_8 
REMARK    2  A    between atoms: C8_8  and  N10_10 
ROOT
HETATM    1  N9  UNL     1     -32.189   9.197   1.059  1.00 20.00     0.068 N 
HETATM    2  N10 UNL     1     -31.965   7.417   2.628  1.00 20.00    -0.111 NA
HETATM    3  N11 UNL     1     -32.087   8.342   1.807  1.00 20.00    -0.167 NA
ENDROOT
BRANCH   2   4
HETATM    4  C8  UNL     1     -32.962   6.343   2.527  1.00 20.00     0.227 C 
BRANCH   4   5
HETATM    5  C6  UNL     1     -33.599   6.038   3.841  1.00 20.00    -0.035 A 
HETATM    6  C3  UNL     1     -34.474   4.958   3.958  1.00 20.00     0.009 A 
HETATM    7  C1  UNL     1     -35.069   4.674   5.187  1.00 20.00     0.001 A 
HETATM    8  C2  UNL     1     -34.790   5.469   6.298  1.00 20.00     0.007 A 
HETATM    9  C5  UNL     1     -33.915   6.549   6.181  1.00 20.00    -0.061 A 
HETATM   10  C4  UNL     1     -33.319   6.834   4.952  1.00 20.00     0.015 A 
HETATM   11  C7  UNL     1     -33.615   7.397   7.371  1.00 20.00     0.048 C 
ENDBRANCH   4   5
ENDBRANCH   2   4
TORSDOF 2
ENDMDL
MODEL 2
REMARK VINA RESULT:      -5.1      0.662      2.048
REMARK  2 active torsions:
REMARK  status: ('A' for Active; 'I' for Inactive)
REMARK    1  A    between atoms: C6_6  and  C8_8 
REMARK    2  A    between atoms: C8_8  and  N10_10 
ROOT
HETATM    1  N9  UNL     1     -32.522   9.606   1.116  1.00 20.00     0.068 N 
HETATM    2  N10 UNL     1     -31.816   7.998   2.727  1.00 20.00    -0.111 NA
HETATM    3  N11 UNL     1     -32.189   8.832   1.885  1.00 20.00    -0.167 NA
ENDROOT
BRANCH   2   4
HETATM    4  C8  UNL     1     -32.548   6.724   2.725  1.00 20.00     0.227 C 
BRANCH   4   5
HETATM    5  C6  UNL     1     -33.180   6.434   4.045  1.00 20.00    -0.035 A 
HETATM    6  C3  UNL     1     -32.973   7.296   5.122  1.00 20.00     0.009 A 
HETATM    7  C1  UNL     1     -33.564   7.023   6.356  1.00 20.00     0.001 A 
HETATM    8  C2  UNL     1     -34.362   5.891   6.512  1.00 20.00     0.007 A 
HETATM    9  C5  UNL     1     -34.569   5.029   5.435  1.00 20.00    -0.061 A 
HETATM   10  C4  UNL     1     -33.979   5.300   4.201  1.00 20.00     0.015 A 
HETATM   11  C7  UNL     1     -35.425   3.819   5.603  1.00 20.00     0.048 C 
ENDBRANCH   4   5
ENDBRANCH   2   4
TORSDOF 2
ENDMDL
MODEL 3
REMARK VINA RESULT:      -4.5     11.740     12.436
REMARK  2 active torsions:
REMARK  status: ('A' for Active; 'I' for Inactive)
REMARK    1  A    between atoms: C6_6  and  C8_8 
REMARK    2  A    between atoms: C8_8  and  N10_10 
ROOT
HETATM    1  N9  UNL     1     -40.253  14.344  -4.597  1.00 20.00     0.068 N 
HETATM    2  N10 UNL     1     -38.010  14.324  -3.794  1.00 20.00    -0.111 NA
HETATM    3  N11 UNL     1     -39.178  14.337  -4.218  1.00 20.00    -0.167 NA
ENDROOT
BRANCH   2   4
HETATM    4  C8  UNL     1     -36.982  14.758  -4.750  1.00 20.00     0.227 C 
BRANCH   4   5
HETATM    5  C6  UNL     1     -35.727  15.193  -4.071  1.00 20.00    -0.035 A 
HETATM    6  C3  UNL     1     -34.503  15.084  -4.731  1.00 20.00     0.009 A 
HETATM    7  C1  UNL     1     -33.330  15.490  -4.095  1.00 20.00     0.001 A 
HETATM    8  C2  UNL     1     -33.381  16.006  -2.800  1.00 20.00     0.007 A 
HETATM    9  C5  UNL     1     -34.605  16.115  -2.140  1.00 20.00    -0.061 A 
HETATM   10  C4  UNL     1     -35.778  15.709  -2.775  1.00 20.00     0.015 A 
HETATM   11  C7  UNL     1     -34.658  16.669  -0.756  1.00 20.00     0.048 C 
ENDBRANCH   4   5
ENDBRANCH   2   4
TORSDOF 2
ENDMDL
MODEL 4
REMARK VINA RESULT:      -4.5     10.653     11.498
REMARK  2 active torsions:
REMARK  status: ('A' for Active; 'I' for Inactive)
REMARK    1  A    between atoms: C6_6  and  C8_8 
REMARK    2  A    between atoms: C8_8  and  N10_10 
ROOT
HETATM    1  N9  UNL     1     -41.629   0.229  -4.260  1.00 20.00     0.068 N 
HETATM    2  N10 UNL     1     -41.167   2.385  -3.357  1.00 20.00    -0.111 NA
HETATM    3  N11 UNL     1     -41.414   1.261  -3.826  1.00 20.00    -0.167 NA
ENDROOT
BRANCH   2   4
HETATM    4  C8  UNL     1     -42.285   3.048  -2.673  1.00 20.00     0.227 C 
BRANCH   4   5
HETATM    5  C6  UNL     1     -41.917   4.403  -2.170  1.00 20.00    -0.035 A 
HETATM    6  C3  UNL     1     -41.021   4.533  -1.109  1.00 20.00     0.009 A 
HETATM    7  C1  UNL     1     -40.678   5.801  -0.639  1.00 20.00     0.001 A 
HETATM    8  C2  UNL     1     -41.229   6.937  -1.230  1.00 20.00     0.007 A 
HETATM    9  C5  UNL     1     -42.125   6.807  -2.291  1.00 20.00    -0.061 A 
HETATM   10  C4  UNL     1     -42.469   5.540  -2.762  1.00 20.00     0.015 A 
HETATM   11  C7  UNL     1     -42.712   8.023  -2.924  1.00 20.00     0.048 C 
ENDBRANCH   4   5
ENDBRANCH   2   4
TORSDOF 2
ENDMDL
MODEL 5
REMARK VINA RESULT:      -4.5     11.130     12.607
REMARK  2 active torsions:
REMARK  status: ('A' for Active; 'I' for Inactive)
REMARK    1  A    between atoms: C6_6  and  C8_8 
REMARK    2  A    between atoms: C8_8  and  N10_10 
ROOT
HETATM    1  N9  UNL     1     -34.343  17.754   0.422  1.00 20.00     0.068 N 
HETATM    2  N10 UNL     1     -34.699  16.221  -1.368  1.00 20.00    -0.111 NA
HETATM    3  N11 UNL     1     -34.508  17.022  -0.438  1.00 20.00    -0.167 NA
ENDROOT
BRANCH   2   4
HETATM    4  C8  UNL     1     -33.720  16.272  -2.461  1.00 20.00     0.227 C 
BRANCH   4   5
HETATM    5  C6  UNL     1     -34.123  15.425  -3.621  1.00 20.00    -0.035 A 
HETATM    6  C3  UNL     1     -34.468  14.089  -3.422  1.00 20.00     0.009 A 
HETATM    7  C1  UNL     1     -34.844  13.297  -4.508  1.00 20.00     0.001 A 
HETATM    8  C2  UNL     1     -34.875  13.842  -5.791  1.00 20.00     0.007 A 
HETATM    9  C5  UNL     1     -34.530  15.179  -5.990  1.00 20.00    -0.061 A 
HETATM   10  C4  UNL     1     -34.154  15.971  -4.905  1.00 20.00     0.015 A 
HETATM   11  C7  UNL     1     -34.567  15.761  -7.362  1.00 20.00     0.048 C 
ENDBRANCH   4   5
ENDBRANCH   2   4
TORSDOF 2
ENDMDL
MODEL 6
REMARK VINA RESULT:      -4.4     11.141     12.215
REMARK  2 active torsions:
REMARK  status: ('A' for Active; 'I' for Inactive)
REMARK    1  A    between atoms: C6_6  and  C8_8 
REMARK    2  A    between atoms: C8_8  and  N10_10 
ROOT
HETATM    1  N9  UNL     1     -37.080  14.420  -4.259  1.00 20.00     0.068 N 
HETATM    2  N10 UNL     1     -35.167  13.004  -4.144  1.00 20.00    -0.111 NA
HETATM    3  N11 UNL     1     -36.161  13.747  -4.205  1.00 20.00    -0.167 NA
ENDROOT
BRANCH   2   4
HETATM    4  C8  UNL     1     -33.870  13.658  -4.360  1.00 20.00     0.227 C 
BRANCH   4   5
HETATM    5  C6  UNL     1     -33.862  15.070  -3.878  1.00 20.00    -0.035 A 
HETATM    6  C3  UNL     1     -33.595  16.110  -4.768  1.00 20.00     0.009 A 
HETATM    7  C1  UNL     1     -33.587  17.429  -4.315  1.00 20.00     0.001 A 
HETATM    8  C2  UNL     1     -33.847  17.708  -2.974  1.00 20.00     0.007 A 
HETATM    9  C5  UNL     1     -34.115  16.668  -2.084  1.00 20.00    -0.061 A 
HETATM   10  C4  UNL     1     -34.123  15.349  -2.535  1.00 20.00     0.015 A 
HETATM   11  C7  UNL     1     -34.396  16.969  -0.650  1.00 20.00     0.048 C 
ENDBRANCH   4   5
ENDBRANCH   2   4
TORSDOF 2
ENDMDL
MODEL 7
REMARK VINA RESULT:      -4.4     11.299     12.648
REMARK  2 active torsions:
REMARK  status: ('A' for Active; 'I' for Inactive)
REMARK    1  A    between atoms: C6_6  and  C8_8 
REMARK    2  A    between atoms: C8_8  and  N10_10 
ROOT
HETATM    1  N9  UNL     1     -35.202  17.860   1.293  1.00 20.00     0.068 N 
HETATM    2  N10 UNL     1     -34.682  16.536  -0.619  1.00 20.00    -0.111 NA
HETATM    3  N11 UNL     1     -34.949  17.231   0.376  1.00 20.00    -0.167 NA
ENDROOT
BRANCH   2   4
HETATM    4  C8  UNL     1     -33.785  17.155  -1.603  1.00 20.00     0.227 C 
BRANCH   4   5
HETATM    5  C6  UNL     1     -33.898  16.520  -2.948  1.00 20.00    -0.035 A 
HETATM    6  C3  UNL     1     -33.552  17.240  -4.091  1.00 20.00     0.009 A 
HETATM    7  C1  UNL     1     -33.659  16.645  -5.348  1.00 20.00     0.001 A 
HETATM    8  C2  UNL     1     -34.110  15.330  -5.462  1.00 20.00     0.007 A 
HETATM    9  C5  UNL     1     -34.455  14.610  -4.319  1.00 20.00    -0.061 A 
HETATM   10  C4  UNL     1     -34.349  15.204  -3.062  1.00 20.00     0.015 A 
HETATM   11  C7  UNL     1     -34.934  13.203  -4.442  1.00 20.00     0.048 C 
ENDBRANCH   4   5
ENDBRANCH   2   4
TORSDOF 2
ENDMDL
MODEL 8
REMARK VINA RESULT:      -4.4     11.357     11.947
REMARK  2 active torsions:
REMARK  status: ('A' for Active; 'I' for Inactive)
REMARK    1  A    between atoms: C6_6  and  C8_8 
REMARK    2  A    between atoms: C8_8  and  N10_10 
ROOT
HETATM    1  N9  UNL     1     -33.541  18.442   0.867  1.00 20.00     0.068 N 
HETATM    2  N10 UNL     1     -34.567  17.000  -0.728  1.00 20.00    -0.111 NA
HETATM    3  N11 UNL     1     -34.027  17.752   0.100  1.00 20.00    -0.167 NA
ENDROOT
BRANCH   2   4
HETATM    4  C8  UNL     1     -33.758  16.670  -1.909  1.00 20.00     0.227 C 
BRANCH   4   5
HETATM    5  C6  UNL     1     -34.396  15.622  -2.756  1.00 20.00    -0.035 A 
HETATM    6  C3  UNL     1     -33.619  14.605  -3.310  1.00 20.00     0.009 A 
HETATM    7  C1  UNL     1     -34.217  13.625  -4.103  1.00 20.00     0.001 A 
HETATM    8  C2  UNL     1     -35.590  13.661  -4.341  1.00 20.00     0.007 A 
HETATM    9  C5  UNL     1     -36.367  14.678  -3.786  1.00 20.00    -0.061 A 
HETATM   10  C4  UNL     1     -35.771  15.659  -2.994  1.00 20.00     0.015 A 
HETATM   11  C7  UNL     1     -37.837  14.715  -4.039  1.00 20.00     0.048 C 
ENDBRANCH   4   5
ENDBRANCH   2   4
TORSDOF 2
ENDMDL
MODEL 9
REMARK VINA RESULT:      -4.4     11.614     12.231
REMARK  2 active torsions:
REMARK  status: ('A' for Active; 'I' for Inactive)
REMARK    1  A    between atoms: C6_6  and  C8_8 
REMARK    2  A    between atoms: C8_8  and  N10_10 
ROOT
HETATM    1  N9  UNL     1     -39.857  16.128  -2.739  1.00 20.00     0.068 N 
HETATM    2  N10 UNL     1     -38.527  14.379  -3.660  1.00 20.00    -0.111 NA
HETATM    3  N11 UNL     1     -39.217  15.295  -3.184  1.00 20.00    -0.167 NA
ENDROOT
BRANCH   2   4
HETATM    4  C8  UNL     1     -37.544  14.785  -4.673  1.00 20.00     0.227 C 
BRANCH   4   5
HETATM    5  C6  UNL     1     -36.147  14.743  -4.153  1.00 20.00    -0.035 A 
HETATM    6  C3  UNL     1     -35.263  13.763  -4.606  1.00 20.00     0.009 A 
HETATM    7  C1  UNL     1     -33.957  13.725  -4.118  1.00 20.00     0.001 A 
HETATM    8  C2  UNL     1     -33.534  14.665  -3.180  1.00 20.00     0.007 A 
HETATM    9  C5  UNL     1     -34.417  15.645  -2.727  1.00 20.00    -0.061 A 
HETATM   10  C4  UNL     1     -35.724  15.685  -3.214  1.00 20.00     0.015 A 
HETATM   11  C7  UNL     1     -33.963  16.652  -1.725  1.00 20.00     0.048 C 
ENDBRANCH   4   5
ENDBRANCH   2   4
TORSDOF 2
ENDMDL
