MODEL 1
REMARK VINA RESULT:      -4.8      0.000      0.000
REMARK  1 active torsions:
REMARK  status: ('A' for Active; 'I' for Inactive)
REMARK    1  A    between atoms: C6_6  and  S8_8 
ROOT
HETATM    1  C1  UNL     1     -35.139   4.816   6.063  1.00 20.00     0.000 A 
HETATM    2  C2  UNL     1     -34.308   5.878   6.421  1.00 20.00     0.001 A 
HETATM    3  C3  UNL     1     -35.252   4.439   4.725  1.00 20.00     0.001 A 
HETATM    4  C4  UNL     1     -33.589   6.561   5.440  1.00 20.00     0.018 A 
HETATM    5  C5  UNL     1     -34.533   5.122   3.745  1.00 20.00     0.018 A 
HETATM    6  C6  UNL     1     -33.702   6.184   4.102  1.00 20.00    -0.000 A 
ENDROOT
BRANCH   6   7
HETATM    7  S8  UNL     1     -32.785   7.057   2.849  1.00 20.00    -0.134 SA
HETATM    8  C7  UNL     1     -31.368   7.593   3.831  1.00 20.00     0.095 C 
ENDBRANCH   6   7
TORSDOF 1
ENDMDL
MODEL 2
REMARK VINA RESULT:      -4.8      0.004      1.708
REMARK  1 active torsions:
REMARK  status: ('A' for Active; 'I' for Inactive)
REMARK    1  A    between atoms: C6_6  and  S8_8 
ROOT
HETATM    1  C1  UNL     1     -35.139   4.816   6.064  1.00 20.00     0.000 A 
HETATM    2  C2  UNL     1     -35.251   4.438   4.725  1.00 20.00     0.001 A 
HETATM    3  C3  UNL     1     -34.308   5.877   6.422  1.00 20.00     0.001 A 
HETATM    4  C4  UNL     1     -34.531   5.122   3.746  1.00 20.00     0.018 A 
HETATM    5  C5  UNL     1     -33.589   6.561   5.443  1.00 20.00     0.018 A 
HETATM    6  C6  UNL     1     -33.700   6.184   4.104  1.00 20.00    -0.000 A 
ENDROOT
BRANCH   6   7
HETATM    7  S8  UNL     1     -32.780   7.058   2.853  1.00 20.00    -0.134 SA
HETATM    8  C7  UNL     1     -31.367   7.596   3.839  1.00 20.00     0.095 C 
ENDBRANCH   6   7
TORSDOF 1
ENDMDL
MODEL 3
REMARK VINA RESULT:      -3.7      9.696     10.896
REMARK  1 active torsions:
REMARK  status: ('A' for Active; 'I' for Inactive)
REMARK    1  A    between atoms: C6_6  and  S8_8 
ROOT
HETATM    1  C1  UNL     1     -41.017   6.920  -1.005  1.00 20.00     0.000 A 
HETATM    2  C2  UNL     1     -41.924   7.164  -2.037  1.00 20.00     0.001 A 
HETATM    3  C3  UNL     1     -40.699   5.609  -0.651  1.00 20.00     0.001 A 
HETATM    4  C4  UNL     1     -42.512   6.097  -2.715  1.00 20.00     0.018 A 
HETATM    5  C5  UNL     1     -41.288   4.542  -1.330  1.00 20.00     0.018 A 
HETATM    6  C6  UNL     1     -42.195   4.786  -2.361  1.00 20.00    -0.000 A 
ENDROOT
BRANCH   6   7
HETATM    7  S8  UNL     1     -42.947   3.422  -3.227  1.00 20.00    -0.134 SA
HETATM    8  C7  UNL     1     -41.526   2.314  -3.338  1.00 20.00     0.095 C 
ENDBRANCH   6   7
TORSDOF 1
ENDMDL
MODEL 4
REMARK VINA RESULT:      -3.7      9.647     10.816
REMARK  1 active torsions:
REMARK  status: ('A' for Active; 'I' for Inactive)
REMARK    1  A    between atoms: C6_6  and  S8_8 
ROOT
HETATM    1  C1  UNL     1     -40.988   6.953  -0.977  1.00 20.00     0.000 A 
HETATM    2  C2  UNL     1     -40.685   5.648  -0.589  1.00 20.00     0.001 A 
HETATM    3  C3  UNL     1     -41.884   7.180  -2.022  1.00 20.00     0.001 A 
HETATM    4  C4  UNL     1     -41.279   4.570  -1.245  1.00 20.00     0.018 A 
HETATM    5  C5  UNL     1     -42.477   6.102  -2.678  1.00 20.00     0.018 A 
HETATM    6  C6  UNL     1     -42.174   4.796  -2.290  1.00 20.00    -0.000 A 
ENDROOT
BRANCH   6   7
HETATM    7  S8  UNL     1     -42.932   3.419  -3.129  1.00 20.00    -0.134 SA
HETATM    8  C7  UNL     1     -41.487   2.353  -3.323  1.00 20.00     0.095 C 
ENDBRANCH   6   7
TORSDOF 1
ENDMDL
MODEL 5
REMARK VINA RESULT:      -3.7     11.973     12.332
REMARK  1 active torsions:
REMARK  status: ('A' for Active; 'I' for Inactive)
REMARK    1  A    between atoms: C6_6  and  S8_8 
ROOT
HETATM    1  C1  UNL     1     -35.174  13.385  -4.358  1.00 20.00     0.000 A 
HETATM    2  C2  UNL     1     -36.140  14.277  -3.893  1.00 20.00     0.001 A 
HETATM    3  C3  UNL     1     -33.821  13.645  -4.138  1.00 20.00     0.001 A 
HETATM    4  C4  UNL     1     -35.753  15.428  -3.207  1.00 20.00     0.018 A 
HETATM    5  C5  UNL     1     -33.434  14.796  -3.453  1.00 20.00     0.018 A 
HETATM    6  C6  UNL     1     -34.401  15.688  -2.987  1.00 20.00    -0.000 A 
ENDROOT
BRANCH   6   7
HETATM    7  S8  UNL     1     -33.906  17.160  -2.113  1.00 20.00    -0.134 SA
HETATM    8  C7  UNL     1     -34.678  16.833  -0.514  1.00 20.00     0.095 C 
ENDBRANCH   6   7
TORSDOF 1
ENDMDL
MODEL 6
REMARK VINA RESULT:      -3.7     11.981     12.321
REMARK  1 active torsions:
REMARK  status: ('A' for Active; 'I' for Inactive)
REMARK    1  A    between atoms: C6_6  and  S8_8 
ROOT
HETATM    1  C1  UNL     1     -35.185  13.415  -4.360  1.00 20.00     0.000 A 
HETATM    2  C2  UNL     1     -33.831  13.665  -4.134  1.00 20.00     0.001 A 
HETATM    3  C3  UNL     1     -36.147  14.309  -3.889  1.00 20.00     0.001 A 
HETATM    4  C4  UNL     1     -33.439  14.810  -3.440  1.00 20.00     0.018 A 
HETATM    5  C5  UNL     1     -35.755  15.453  -3.194  1.00 20.00     0.018 A 
HETATM    6  C6  UNL     1     -34.402  15.703  -2.969  1.00 20.00    -0.000 A 
ENDROOT
BRANCH   6   7
HETATM    7  S8  UNL     1     -33.902  17.165  -2.080  1.00 20.00    -0.134 SA
HETATM    8  C7  UNL     1     -34.691  16.835  -0.490  1.00 20.00     0.095 C 
ENDBRANCH   6   7
TORSDOF 1
ENDMDL
MODEL 7
REMARK VINA RESULT:      -3.6     12.180     13.714
REMARK  1 active torsions:
REMARK  status: ('A' for Active; 'I' for Inactive)
REMARK    1  A    between atoms: C6_6  and  S8_8 
ROOT
HETATM    1  C1  UNL     1     -33.074  15.027  -3.602  1.00 20.00     0.000 A 
HETATM    2  C2  UNL     1     -33.154  16.084  -4.509  1.00 20.00     0.001 A 
HETATM    3  C3  UNL     1     -33.728  13.825  -3.871  1.00 20.00     0.001 A 
HETATM    4  C4  UNL     1     -33.887  15.937  -5.687  1.00 20.00     0.018 A 
HETATM    5  C5  UNL     1     -34.461  13.679  -5.049  1.00 20.00     0.018 A 
HETATM    6  C6  UNL     1     -34.541  14.735  -5.957  1.00 20.00    -0.000 A 
ENDROOT
BRANCH   6   7
HETATM    7  S8  UNL     1     -35.478  14.548  -7.461  1.00 20.00    -0.134 SA
HETATM    8  C7  UNL     1     -37.057  15.236  -6.919  1.00 20.00     0.095 C 
ENDBRANCH   6   7
TORSDOF 1
ENDMDL
MODEL 8
REMARK VINA RESULT:      -3.6      9.696     10.624
REMARK  1 active torsions:
REMARK  status: ('A' for Active; 'I' for Inactive)
REMARK    1  A    between atoms: C6_6  and  S8_8 
ROOT
HETATM    1  C1  UNL     1     -40.741   4.669  -0.963  1.00 20.00     0.000 A 
HETATM    2  C2  UNL     1     -40.660   5.964  -0.451  1.00 20.00     0.001 A 
HETATM    3  C3  UNL     1     -41.606   4.391  -2.022  1.00 20.00     0.001 A 
HETATM    4  C4  UNL     1     -41.442   6.981  -0.997  1.00 20.00     0.018 A 
HETATM    5  C5  UNL     1     -42.389   5.408  -2.568  1.00 20.00     0.018 A 
HETATM    6  C6  UNL     1     -42.307   6.703  -2.056  1.00 20.00    -0.000 A 
ENDROOT
BRANCH   6   7
HETATM    7  S8  UNL     1     -43.308   8.001  -2.753  1.00 20.00    -0.134 SA
HETATM    8  C7  UNL     1     -42.410   8.280  -4.294  1.00 20.00     0.095 C 
ENDBRANCH   6   7
TORSDOF 1
ENDMDL
MODEL 9
REMARK VINA RESULT:      -3.5     12.280     13.828
REMARK  1 active torsions:
REMARK  status: ('A' for Active; 'I' for Inactive)
REMARK    1  A    between atoms: C6_6  and  S8_8 
ROOT
HETATM    1  C1  UNL     1     -33.571  13.701  -3.813  1.00 20.00     0.000 A 
HETATM    2  C2  UNL     1     -34.409  13.462  -4.903  1.00 20.00     0.001 A 
HETATM    3  C3  UNL     1     -33.001  14.961  -3.636  1.00 20.00     0.001 A 
HETATM    4  C4  UNL     1     -34.677  14.483  -5.814  1.00 20.00     0.018 A 
HETATM    5  C5  UNL     1     -33.269  15.983  -4.546  1.00 20.00     0.018 A 
HETATM    6  C6  UNL     1     -34.107  15.744  -5.636  1.00 20.00    -0.000 A 
ENDROOT
BRANCH   6   7
HETATM    7  S8  UNL     1     -34.448  17.049  -6.800  1.00 20.00    -0.134 SA
HETATM    8  C7  UNL     1     -33.681  18.434  -5.933  1.00 20.00     0.095 C 
ENDBRANCH   6   7
TORSDOF 1
ENDMDL
