MODEL 1
REMARK VINA RESULT:      -6.2      0.000      0.000
REMARK  4 active torsions:
REMARK  status: ('A' for Active; 'I' for Inactive)
REMARK    1  A    between atoms: C6_6  and  C8_8 
REMARK    2  A    between atoms: C8_8  and  C10_10 
REMARK    3  A    between atoms: C9_9  and  C11_11 
REMARK    4  A    between atoms: C10_10  and  C11_11 
ROOT
HETATM    1  C1  UNL     1     -35.021   4.731   6.618  1.00 20.00     0.000 A 
HETATM    2  C2  UNL     1     -35.229   4.003   5.447  1.00 20.00     0.001 A 
HETATM    3  C3  UNL     1     -34.357   5.957   6.569  1.00 20.00     0.001 A 
HETATM    4  C4  UNL     1     -34.774   4.501   4.226  1.00 20.00     0.007 A 
HETATM    5  C5  UNL     1     -33.902   6.455   5.348  1.00 20.00     0.007 A 
HETATM    6  C6  UNL     1     -34.110   5.727   4.177  1.00 20.00    -0.058 A 
ENDROOT
BRANCH   6   7
HETATM    7  C8  UNL     1     -33.620   6.261   2.866  1.00 20.00     0.038 C 
BRANCH   7   8
HETATM    8  C10 UNL     1     -32.105   6.489   2.828  1.00 20.00     0.005 C 
BRANCH   8   9
HETATM    9  C11 UNL     1     -31.718   7.970   2.763  1.00 20.00    -0.000 C 
BRANCH   9  10
HETATM   10  C9  UNL     1     -31.835   8.510   1.337  1.00 20.00    -0.005 C 
HETATM   11  C7  UNL     1     -32.481   9.887   1.313  1.00 20.00     0.005 C 
ENDBRANCH   9  10
ENDBRANCH   8   9
ENDBRANCH   7   8
ENDBRANCH   6   7
TORSDOF 4
ENDMDL
MODEL 2
REMARK VINA RESULT:      -6.2      0.063      1.458
REMARK  4 active torsions:
REMARK  status: ('A' for Active; 'I' for Inactive)
REMARK    1  A    between atoms: C6_6  and  C8_8 
REMARK    2  A    between atoms: C8_8  and  C10_10 
REMARK    3  A    between atoms: C9_9  and  C11_11 
REMARK    4  A    between atoms: C10_10  and  C11_11 
ROOT
HETATM    1  C1  UNL     1     -35.021   4.711   6.662  1.00 20.00     0.000 A 
HETATM    2  C2  UNL     1     -34.364   5.939   6.598  1.00 20.00     0.001 A 
HETATM    3  C3  UNL     1     -35.247   3.979   5.496  1.00 20.00     0.001 A 
HETATM    4  C4  UNL     1     -33.934   6.437   5.369  1.00 20.00     0.007 A 
HETATM    5  C5  UNL     1     -34.817   4.476   4.266  1.00 20.00     0.007 A 
HETATM    6  C6  UNL     1     -34.160   5.705   4.203  1.00 20.00    -0.058 A 
ENDROOT
BRANCH   6   7
HETATM    7  C8  UNL     1     -33.699   6.240   2.881  1.00 20.00     0.038 C 
BRANCH   7   8
HETATM    8  C10 UNL     1     -32.182   6.437   2.799  1.00 20.00     0.005 C 
BRANCH   8   9
HETATM    9  C11 UNL     1     -31.765   7.910   2.768  1.00 20.00    -0.000 C 
BRANCH   9  10
HETATM   10  C9  UNL     1     -31.813   8.470   1.346  1.00 20.00    -0.005 C 
HETATM   11  C7  UNL     1     -32.468   9.842   1.308  1.00 20.00     0.005 C 
ENDBRANCH   9  10
ENDBRANCH   8   9
ENDBRANCH   7   8
ENDBRANCH   6   7
TORSDOF 4
ENDMDL
MODEL 3
REMARK VINA RESULT:      -5.0     11.106     11.998
REMARK  4 active torsions:
REMARK  status: ('A' for Active; 'I' for Inactive)
REMARK    1  A    between atoms: C6_6  and  C8_8 
REMARK    2  A    between atoms: C8_8  and  C10_10 
REMARK    3  A    between atoms: C9_9  and  C11_11 
REMARK    4  A    between atoms: C10_10  and  C11_11 
ROOT
HETATM    1  C1  UNL     1     -35.092  13.343  -4.425  1.00 20.00     0.000 A 
HETATM    2  C2  UNL     1     -33.744  13.528  -4.119  1.00 20.00     0.001 A 
HETATM    3  C3  UNL     1     -36.045  14.244  -3.951  1.00 20.00     0.001 A 
HETATM    4  C4  UNL     1     -33.349  14.614  -3.338  1.00 20.00     0.007 A 
HETATM    5  C5  UNL     1     -35.650  15.330  -3.171  1.00 20.00     0.007 A 
HETATM    6  C6  UNL     1     -34.302  15.515  -2.864  1.00 20.00    -0.058 A 
ENDROOT
BRANCH   6   7
HETATM    7  C8  UNL     1     -33.879  16.682  -2.024  1.00 20.00     0.038 C 
BRANCH   7   8
HETATM    8  C10 UNL     1     -34.589  16.747  -0.669  1.00 20.00     0.005 C 
BRANCH   8   9
HETATM    9  C11 UNL     1     -34.156  17.945   0.183  1.00 20.00    -0.000 C 
BRANCH   9  10
HETATM   10  C9  UNL     1     -33.008  18.708  -0.478  1.00 20.00    -0.005 C 
HETATM   11  C7  UNL     1     -31.847  18.911   0.484  1.00 20.00     0.005 C 
ENDBRANCH   9  10
ENDBRANCH   8   9
ENDBRANCH   7   8
ENDBRANCH   6   7
TORSDOF 4
ENDMDL
MODEL 4
REMARK VINA RESULT:      -5.0     11.285     12.044
REMARK  4 active torsions:
REMARK  status: ('A' for Active; 'I' for Inactive)
REMARK    1  A    between atoms: C6_6  and  C8_8 
REMARK    2  A    between atoms: C8_8  and  C10_10 
REMARK    3  A    between atoms: C9_9  and  C11_11 
REMARK    4  A    between atoms: C10_10  and  C11_11 
ROOT
HETATM    1  C1  UNL     1     -35.198  13.474  -4.475  1.00 20.00     0.000 A 
HETATM    2  C2  UNL     1     -36.112  14.328  -3.860  1.00 20.00     0.001 A 
HETATM    3  C3  UNL     1     -33.830  13.655  -4.275  1.00 20.00     0.001 A 
HETATM    4  C4  UNL     1     -35.658  15.364  -3.044  1.00 20.00     0.007 A 
HETATM    5  C5  UNL     1     -33.376  14.690  -3.459  1.00 20.00     0.007 A 
HETATM    6  C6  UNL     1     -34.290  15.545  -2.844  1.00 20.00    -0.058 A 
ENDROOT
BRANCH   6   7
HETATM    7  C8  UNL     1     -33.801  16.658  -1.968  1.00 20.00     0.038 C 
BRANCH   7   8
HETATM    8  C10 UNL     1     -34.665  16.878  -0.722  1.00 20.00     0.005 C 
BRANCH   8   9
HETATM    9  C11 UNL     1     -34.081  17.915   0.243  1.00 20.00    -0.000 C 
BRANCH   9  10
HETATM   10  C9  UNL     1     -32.957  18.714  -0.418  1.00 20.00    -0.005 C 
HETATM   11  C7  UNL     1     -31.830  19.005   0.561  1.00 20.00     0.005 C 
ENDBRANCH   9  10
ENDBRANCH   8   9
ENDBRANCH   7   8
ENDBRANCH   6   7
TORSDOF 4
ENDMDL
MODEL 5
REMARK VINA RESULT:      -4.8     10.998     12.133
REMARK  4 active torsions:
REMARK  status: ('A' for Active; 'I' for Inactive)
REMARK    1  A    between atoms: C6_6  and  C8_8 
REMARK    2  A    between atoms: C8_8  and  C10_10 
REMARK    3  A    between atoms: C9_9  and  C11_11 
REMARK    4  A    between atoms: C10_10  and  C11_11 
ROOT
HETATM    1  C1  UNL     1     -33.611  18.942   1.355  1.00 20.00     0.000 A 
HETATM    2  C2  UNL     1     -34.754  18.150   1.463  1.00 20.00     0.001 A 
HETATM    3  C3  UNL     1     -32.796  18.839   0.228  1.00 20.00     0.001 A 
HETATM    4  C4  UNL     1     -35.082  17.256   0.445  1.00 20.00     0.007 A 
HETATM    5  C5  UNL     1     -33.123  17.945  -0.790  1.00 20.00     0.007 A 
HETATM    6  C6  UNL     1     -34.266  17.154  -0.682  1.00 20.00    -0.058 A 
ENDROOT
BRANCH   6   7
HETATM    7  C8  UNL     1     -34.617  16.192  -1.777  1.00 20.00     0.038 C 
BRANCH   7   8
HETATM    8  C10 UNL     1     -33.751  16.352  -3.030  1.00 20.00     0.005 C 
BRANCH   8   9
HETATM    9  C11 UNL     1     -33.283  15.016  -3.616  1.00 20.00    -0.000 C 
BRANCH   9  10
HETATM   10  C9  UNL     1     -34.376  13.951  -3.508  1.00 20.00    -0.005 C 
HETATM   11  C7  UNL     1     -34.583  13.229  -4.830  1.00 20.00     0.005 C 
ENDBRANCH   9  10
ENDBRANCH   8   9
ENDBRANCH   7   8
ENDBRANCH   6   7
TORSDOF 4
ENDMDL
MODEL 6
REMARK VINA RESULT:      -4.8     10.986     12.151
REMARK  4 active torsions:
REMARK  status: ('A' for Active; 'I' for Inactive)
REMARK    1  A    between atoms: C6_6  and  C8_8 
REMARK    2  A    between atoms: C8_8  and  C10_10 
REMARK    3  A    between atoms: C9_9  and  C11_11 
REMARK    4  A    between atoms: C10_10  and  C11_11 
ROOT
HETATM    1  C1  UNL     1     -33.496  18.903   1.352  1.00 20.00     0.000 A 
HETATM    2  C2  UNL     1     -32.711  18.770   0.207  1.00 20.00     0.001 A 
HETATM    3  C3  UNL     1     -34.669  18.160   1.483  1.00 20.00     0.001 A 
HETATM    4  C4  UNL     1     -33.098  17.893  -0.806  1.00 20.00     0.007 A 
HETATM    5  C5  UNL     1     -35.057  17.284   0.470  1.00 20.00     0.007 A 
HETATM    6  C6  UNL     1     -34.271  17.150  -0.674  1.00 20.00    -0.058 A 
ENDROOT
BRANCH   6   7
HETATM    7  C8  UNL     1     -34.689  16.209  -1.763  1.00 20.00     0.038 C 
BRANCH   7   8
HETATM    8  C10 UNL     1     -33.876  16.368  -3.052  1.00 20.00     0.005 C 
BRANCH   8   9
HETATM    9  C11 UNL     1     -33.299  15.046  -3.569  1.00 20.00    -0.000 C 
BRANCH   9  10
HETATM   10  C9  UNL     1     -34.342  13.929  -3.516  1.00 20.00    -0.005 C 
HETATM   11  C7  UNL     1     -34.527  13.274  -4.877  1.00 20.00     0.005 C 
ENDBRANCH   9  10
ENDBRANCH   8   9
ENDBRANCH   7   8
ENDBRANCH   6   7
TORSDOF 4
ENDMDL
MODEL 7
REMARK VINA RESULT:      -4.7     11.087     12.508
REMARK  4 active torsions:
REMARK  status: ('A' for Active; 'I' for Inactive)
REMARK    1  A    between atoms: C6_6  and  C8_8 
REMARK    2  A    between atoms: C8_8  and  C10_10 
REMARK    3  A    between atoms: C9_9  and  C11_11 
REMARK    4  A    between atoms: C10_10  and  C11_11 
ROOT
HETATM    1  C1  UNL     1     -34.825  13.807  -5.828  1.00 20.00     0.000 A 
HETATM    2  C2  UNL     1     -34.445  15.128  -6.064  1.00 20.00     0.001 A 
HETATM    3  C3  UNL     1     -34.819  13.300  -4.529  1.00 20.00     0.001 A 
HETATM    4  C4  UNL     1     -34.060  15.943  -5.000  1.00 20.00     0.007 A 
HETATM    5  C5  UNL     1     -34.434  14.115  -3.465  1.00 20.00     0.007 A 
HETATM    6  C6  UNL     1     -34.054  15.436  -3.701  1.00 20.00    -0.058 A 
ENDROOT
BRANCH   6   7
HETATM    7  C8  UNL     1     -33.638  16.311  -2.557  1.00 20.00     0.038 C 
BRANCH   7   8
HETATM    8  C10 UNL     1     -34.652  16.335  -1.409  1.00 20.00     0.005 C 
BRANCH   8   9
HETATM    9  C11 UNL     1     -34.335  17.393  -0.346  1.00 20.00    -0.000 C 
BRANCH   9  10
HETATM   10  C9  UNL     1     -33.227  18.336  -0.817  1.00 20.00    -0.005 C 
HETATM   11  C7  UNL     1     -32.331  18.763   0.336  1.00 20.00     0.005 C 
ENDBRANCH   9  10
ENDBRANCH   8   9
ENDBRANCH   7   8
ENDBRANCH   6   7
TORSDOF 4
ENDMDL
MODEL 8
REMARK VINA RESULT:      -4.5     11.248     12.480
REMARK  4 active torsions:
REMARK  status: ('A' for Active; 'I' for Inactive)
REMARK    1  A    between atoms: C6_6  and  C8_8 
REMARK    2  A    between atoms: C8_8  and  C10_10 
REMARK    3  A    between atoms: C9_9  and  C11_11 
REMARK    4  A    between atoms: C10_10  and  C11_11 
ROOT
HETATM    1  C1  UNL     1     -35.200  13.480  -4.659  1.00 20.00     0.000 A 
HETATM    2  C2  UNL     1     -36.264  14.232  -4.162  1.00 20.00     0.001 A 
HETATM    3  C3  UNL     1     -33.906  13.706  -4.189  1.00 20.00     0.001 A 
HETATM    4  C4  UNL     1     -36.034  15.211  -3.195  1.00 20.00     0.007 A 
HETATM    5  C5  UNL     1     -33.677  14.685  -3.222  1.00 20.00     0.007 A 
HETATM    6  C6  UNL     1     -34.741  15.437  -2.725  1.00 20.00    -0.058 A 
ENDROOT
BRANCH   6   7
HETATM    7  C8  UNL     1     -34.493  16.489  -1.688  1.00 20.00     0.038 C 
BRANCH   7   8
HETATM    8  C10 UNL     1     -33.768  17.724  -2.232  1.00 20.00     0.005 C 
BRANCH   8   9
HETATM    9  C11 UNL     1     -34.476  18.360  -3.432  1.00 20.00    -0.000 C 
BRANCH   9  10
HETATM   10  C9  UNL     1     -33.530  18.487  -4.628  1.00 20.00    -0.005 C 
HETATM   11  C7  UNL     1     -33.834  17.444  -5.692  1.00 20.00     0.005 C 
ENDBRANCH   9  10
ENDBRANCH   8   9
ENDBRANCH   7   8
ENDBRANCH   6   7
TORSDOF 4
ENDMDL
MODEL 9
REMARK VINA RESULT:      -4.5     10.992     12.770
REMARK  4 active torsions:
REMARK  status: ('A' for Active; 'I' for Inactive)
REMARK    1  A    between atoms: C6_6  and  C8_8 
REMARK    2  A    between atoms: C8_8  and  C10_10 
REMARK    3  A    between atoms: C9_9  and  C11_11 
REMARK    4  A    between atoms: C10_10  and  C11_11 
ROOT
HETATM    1  C1  UNL     1     -34.406  13.244  -4.841  1.00 20.00     0.000 A 
HETATM    2  C2  UNL     1     -34.991  14.185  -5.688  1.00 20.00     0.001 A 
HETATM    3  C3  UNL     1     -33.546  13.660  -3.825  1.00 20.00     0.001 A 
HETATM    4  C4  UNL     1     -34.718  15.541  -5.518  1.00 20.00     0.007 A 
HETATM    5  C5  UNL     1     -33.273  15.017  -3.655  1.00 20.00     0.007 A 
HETATM    6  C6  UNL     1     -33.858  15.957  -4.502  1.00 20.00    -0.058 A 
ENDROOT
BRANCH   6   7
HETATM    7  C8  UNL     1     -33.563  17.415  -4.320  1.00 20.00     0.038 C 
BRANCH   7   8
HETATM    8  C10 UNL     1     -34.407  18.076  -3.226  1.00 20.00     0.005 C 
BRANCH   8   9
HETATM    9  C11 UNL     1     -33.569  18.646  -2.077  1.00 20.00    -0.000 C 
BRANCH   9  10
HETATM   10  C9  UNL     1     -33.480  17.658  -0.913  1.00 20.00    -0.005 C 
HETATM   11  C7  UNL     1     -34.741  16.816  -0.800  1.00 20.00     0.005 C 
ENDBRANCH   9  10
ENDBRANCH   8   9
ENDBRANCH   7   8
ENDBRANCH   6   7
TORSDOF 4
ENDMDL
