MODEL 1
REMARK VINA RESULT:      -5.5      0.000      0.000
REMARK  1 active torsions:
REMARK  status: ('A' for Active; 'I' for Inactive)
REMARK    1  A    between atoms: C4_4  and  C7_7 
ROOT
HETATM    1  C1  UNL     1     -35.140   4.099   5.946  1.00 20.00     0.006 A 
HETATM    2  C2  UNL     1     -34.545   5.152   6.641  1.00 20.00     0.043 A 
HETATM    3  C3  UNL     1     -35.210   4.133   4.553  1.00 20.00     0.043 A 
HETATM    4  C4  UNL     1     -34.087   6.273   4.550  1.00 20.00     0.029 A 
HETATM    5  C5  UNL     1     -34.018   6.239   5.942  1.00 20.00     0.126 A 
HETATM    6  C6  UNL     1     -34.683   5.221   3.855  1.00 20.00     0.126 A 
HETATM    7  F8  UNL     1     -33.447   7.246   6.619  1.00 20.00    -0.205 F 
HETATM    8  F9  UNL     1     -34.754   5.245   2.517  1.00 20.00    -0.205 F 
ENDROOT
BRANCH   4   9
HETATM    9  C7  UNL     1     -33.524   7.435   3.804  1.00 20.00     0.130 C 
HETATM   10 BR10 UNL     1     -31.801   6.946   3.044  1.00 20.00    -0.091 Br
ENDBRANCH   4   9
TORSDOF 1
ENDMDL
MODEL 2
REMARK VINA RESULT:      -5.5      0.008      2.616
REMARK  1 active torsions:
REMARK  status: ('A' for Active; 'I' for Inactive)
REMARK    1  A    between atoms: C4_4  and  C7_7 
ROOT
HETATM    1  C1  UNL     1     -35.136   4.092   5.943  1.00 20.00     0.006 A 
HETATM    2  C2  UNL     1     -35.203   4.126   4.550  1.00 20.00     0.043 A 
HETATM    3  C3  UNL     1     -34.545   5.147   6.639  1.00 20.00     0.043 A 
HETATM    4  C4  UNL     1     -34.090   6.271   4.548  1.00 20.00     0.029 A 
HETATM    5  C5  UNL     1     -34.680   5.216   3.853  1.00 20.00     0.126 A 
HETATM    6  C6  UNL     1     -34.022   6.236   5.941  1.00 20.00     0.126 A 
HETATM    7  F8  UNL     1     -34.749   5.240   2.514  1.00 20.00    -0.205 F 
HETATM    8  F9  UNL     1     -33.456   7.245   6.618  1.00 20.00    -0.205 F 
ENDROOT
BRANCH   4   9
HETATM    9  C7  UNL     1     -33.531   7.435   3.803  1.00 20.00     0.130 C 
HETATM   10 BR10 UNL     1     -31.804   6.955   3.048  1.00 20.00    -0.091 Br
ENDBRANCH   4   9
TORSDOF 1
ENDMDL
MODEL 3
REMARK VINA RESULT:      -4.5     12.149     12.640
REMARK  1 active torsions:
REMARK  status: ('A' for Active; 'I' for Inactive)
REMARK    1  A    between atoms: C4_4  and  C7_7 
ROOT
HETATM    1  C1  UNL     1     -35.189  13.259  -4.468  1.00 20.00     0.006 A 
HETATM    2  C2  UNL     1     -36.128  14.222  -4.098  1.00 20.00     0.043 A 
HETATM    3  C3  UNL     1     -33.834  13.471  -4.214  1.00 20.00     0.043 A 
HETATM    4  C4  UNL     1     -34.357  15.610  -3.218  1.00 20.00     0.029 A 
HETATM    5  C5  UNL     1     -35.711  15.398  -3.472  1.00 20.00     0.126 A 
HETATM    6  C6  UNL     1     -33.418  14.647  -3.589  1.00 20.00     0.126 A 
HETATM    7  F8  UNL     1     -36.621  16.318  -3.121  1.00 20.00    -0.205 F 
HETATM    8  F9  UNL     1     -32.114  14.843  -3.349  1.00 20.00    -0.205 F 
ENDROOT
BRANCH   4   9
HETATM    9  C7  UNL     1     -33.911  16.867  -2.550  1.00 20.00     0.130 C 
HETATM   10 BR10 UNL     1     -34.539  16.882  -0.708  1.00 20.00    -0.091 Br
ENDBRANCH   4   9
TORSDOF 1
ENDMDL
MODEL 4
REMARK VINA RESULT:      -4.5     12.134     12.614
REMARK  1 active torsions:
REMARK  status: ('A' for Active; 'I' for Inactive)
REMARK    1  A    between atoms: C4_4  and  C7_7 
ROOT
HETATM    1  C1  UNL     1     -35.175  13.259  -4.416  1.00 20.00     0.006 A 
HETATM    2  C2  UNL     1     -33.819  13.480  -4.174  1.00 20.00     0.043 A 
HETATM    3  C3  UNL     1     -36.115  14.224  -4.054  1.00 20.00     0.043 A 
HETATM    4  C4  UNL     1     -34.342  15.632  -3.208  1.00 20.00     0.029 A 
HETATM    5  C5  UNL     1     -33.403  14.667  -3.570  1.00 20.00     0.126 A 
HETATM    6  C6  UNL     1     -35.699  15.411  -3.450  1.00 20.00     0.126 A 
HETATM    7  F8  UNL     1     -32.098  14.870  -3.341  1.00 20.00    -0.205 F 
HETATM    8  F9  UNL     1     -36.608  16.332  -3.105  1.00 20.00    -0.205 F 
ENDROOT
BRANCH   4   9
HETATM    9  C7  UNL     1     -33.898  16.901  -2.563  1.00 20.00     0.130 C 
HETATM   10 BR10 UNL     1     -34.482  16.926  -0.707  1.00 20.00    -0.091 Br
ENDBRANCH   4   9
TORSDOF 1
ENDMDL
MODEL 5
REMARK VINA RESULT:      -4.3     12.383     13.763
REMARK  1 active torsions:
REMARK  status: ('A' for Active; 'I' for Inactive)
REMARK    1  A    between atoms: C4_4  and  C7_7 
ROOT
HETATM    1  C1  UNL     1     -34.817  14.578  -6.793  1.00 20.00     0.006 A 
HETATM    2  C2  UNL     1     -34.922  13.748  -5.676  1.00 20.00     0.043 A 
HETATM    3  C3  UNL     1     -34.203  15.826  -6.679  1.00 20.00     0.043 A 
HETATM    4  C4  UNL     1     -33.798  15.412  -4.332  1.00 20.00     0.029 A 
HETATM    5  C5  UNL     1     -34.412  14.165  -4.447  1.00 20.00     0.126 A 
HETATM    6  C6  UNL     1     -33.694  16.243  -5.448  1.00 20.00     0.126 A 
HETATM    7  F8  UNL     1     -34.518  13.360  -3.379  1.00 20.00    -0.205 F 
HETATM    8  F9  UNL     1     -33.106  17.443  -5.348  1.00 20.00    -0.205 F 
ENDROOT
BRANCH   4   9
HETATM    9  C7  UNL     1     -33.254  15.858  -3.018  1.00 20.00     0.130 C 
HETATM   10 BR10 UNL     1     -34.722  16.338  -1.835  1.00 20.00    -0.091 Br
ENDBRANCH   4   9
TORSDOF 1
ENDMDL
MODEL 6
REMARK VINA RESULT:      -4.3     12.386     13.744
REMARK  1 active torsions:
REMARK  status: ('A' for Active; 'I' for Inactive)
REMARK    1  A    between atoms: C4_4  and  C7_7 
ROOT
HETATM    1  C1  UNL     1     -34.817  14.585  -6.795  1.00 20.00     0.006 A 
HETATM    2  C2  UNL     1     -34.201  15.831  -6.678  1.00 20.00     0.043 A 
HETATM    3  C3  UNL     1     -34.923  13.751  -5.681  1.00 20.00     0.043 A 
HETATM    4  C4  UNL     1     -33.799  15.413  -4.333  1.00 20.00     0.029 A 
HETATM    5  C5  UNL     1     -33.693  16.245  -5.447  1.00 20.00     0.126 A 
HETATM    6  C6  UNL     1     -34.413  14.166  -4.450  1.00 20.00     0.126 A 
HETATM    7  F8  UNL     1     -33.103  17.445  -5.344  1.00 20.00    -0.205 F 
HETATM    8  F9  UNL     1     -34.520  13.359  -3.385  1.00 20.00    -0.205 F 
ENDROOT
BRANCH   4   9
HETATM    9  C7  UNL     1     -33.255  15.855  -3.016  1.00 20.00     0.130 C 
HETATM   10 BR10 UNL     1     -34.723  16.339  -1.835  1.00 20.00    -0.091 Br
ENDBRANCH   4   9
TORSDOF 1
ENDMDL
MODEL 7
REMARK VINA RESULT:      -4.3     12.529     14.059
REMARK  1 active torsions:
REMARK  status: ('A' for Active; 'I' for Inactive)
REMARK    1  A    between atoms: C4_4  and  C7_7 
ROOT
HETATM    1  C1  UNL     1     -33.160  15.332  -3.589  1.00 20.00     0.006 A 
HETATM    2  C2  UNL     1     -33.253  16.318  -4.571  1.00 20.00     0.043 A 
HETATM    3  C3  UNL     1     -33.720  14.073  -3.808  1.00 20.00     0.043 A 
HETATM    4  C4  UNL     1     -34.465  14.786  -5.994  1.00 20.00     0.029 A 
HETATM    5  C5  UNL     1     -33.905  16.044  -5.774  1.00 20.00     0.126 A 
HETATM    6  C6  UNL     1     -34.374  13.801  -5.011  1.00 20.00     0.126 A 
HETATM    7  F8  UNL     1     -33.990  16.999  -6.712  1.00 20.00    -0.205 F 
HETATM    8  F9  UNL     1     -34.909  12.589  -5.213  1.00 20.00    -0.205 F 
ENDROOT
BRANCH   4   9
HETATM    9  C7  UNL     1     -35.163  14.494  -7.279  1.00 20.00     0.130 C 
HETATM   10 BR10 UNL     1     -36.958  15.244  -7.229  1.00 20.00    -0.091 Br
ENDBRANCH   4   9
TORSDOF 1
ENDMDL
MODEL 8
REMARK VINA RESULT:      -4.3     12.529     14.102
REMARK  1 active torsions:
REMARK  status: ('A' for Active; 'I' for Inactive)
REMARK    1  A    between atoms: C4_4  and  C7_7 
ROOT
HETATM    1  C1  UNL     1     -33.168  15.331  -3.558  1.00 20.00     0.006 A 
HETATM    2  C2  UNL     1     -33.730  14.077  -3.798  1.00 20.00     0.043 A 
HETATM    3  C3  UNL     1     -33.248  16.329  -4.529  1.00 20.00     0.043 A 
HETATM    4  C4  UNL     1     -34.454  14.819  -5.980  1.00 20.00     0.029 A 
HETATM    5  C5  UNL     1     -34.373  13.821  -5.009  1.00 20.00     0.126 A 
HETATM    6  C6  UNL     1     -33.891  16.073  -5.741  1.00 20.00     0.126 A 
HETATM    7  F8  UNL     1     -34.909  12.613  -5.231  1.00 20.00    -0.205 F 
HETATM    8  F9  UNL     1     -33.963  17.037  -6.668  1.00 20.00    -0.205 F 
ENDROOT
BRANCH   4   9
HETATM    9  C7  UNL     1     -35.141  14.546  -7.275  1.00 20.00     0.130 C 
HETATM   10 BR10 UNL     1     -36.957  15.239  -7.207  1.00 20.00    -0.091 Br
ENDBRANCH   4   9
TORSDOF 1
ENDMDL
MODEL 9
REMARK VINA RESULT:      -4.2      2.076      4.076
REMARK  1 active torsions:
REMARK  status: ('A' for Active; 'I' for Inactive)
REMARK    1  A    between atoms: C4_4  and  C7_7 
ROOT
HETATM    1  C1  UNL     1     -31.821   7.334   3.527  1.00 20.00     0.006 A 
HETATM    2  C2  UNL     1     -32.414   6.495   2.584  1.00 20.00     0.043 A 
HETATM    3  C3  UNL     1     -32.384   7.465   4.797  1.00 20.00     0.043 A 
HETATM    4  C4  UNL     1     -34.133   5.916   4.179  1.00 20.00     0.029 A 
HETATM    5  C5  UNL     1     -33.570   5.786   2.911  1.00 20.00     0.126 A 
HETATM    6  C6  UNL     1     -33.540   6.756   5.123  1.00 20.00     0.126 A 
HETATM    7  F8  UNL     1     -34.133   4.982   1.997  1.00 20.00    -0.205 F 
HETATM    8  F9  UNL     1     -34.074   6.887   6.345  1.00 20.00    -0.205 F 
ENDROOT
BRANCH   4   9
HETATM    9  C7  UNL     1     -35.369   5.158   4.529  1.00 20.00     0.130 C 
HETATM   10 BR10 UNL     1     -34.971   3.881   5.941  1.00 20.00    -0.091 Br
ENDBRANCH   4   9
TORSDOF 1
ENDMDL
