MODEL 1
REMARK VINA RESULT:      -3.5      0.000      0.000
REMARK  1 active torsions:
REMARK  status: ('A' for Active; 'I' for Inactive)
REMARK    1  A    between atoms: C4_4  and  S6_6 
ROOT
HETATM    1  C1  UNL     1     -35.348   4.610   4.906  1.00 20.00     0.009 A 
HETATM    2  C2  UNL     1     -34.573   5.107   3.818  1.00 20.00     0.026 A 
HETATM    3  C3  UNL     1     -35.001   5.202   6.101  1.00 20.00     0.051 A 
HETATM    4  C4  UNL     1     -33.664   6.060   4.223  1.00 20.00     0.038 A 
HETATM    5  S5  UNL     1     -33.746   6.350   5.908  1.00 20.00    -0.095 SA
ENDROOT
BRANCH   4   6
HETATM    6  S6  UNL     1     -32.532   6.911   3.188  1.00 20.00    -0.136 SA
HETATM    7  H10 UNL     1     -33.337   7.917   2.798  1.00 20.00     0.107 HD
ENDBRANCH   4   6
TORSDOF 1
ENDMDL
MODEL 2
REMARK VINA RESULT:      -3.1      1.130      2.294
REMARK  1 active torsions:
REMARK  status: ('A' for Active; 'I' for Inactive)
REMARK    1  A    between atoms: C4_4  and  S6_6 
ROOT
HETATM    1  C1  UNL     1     -35.214   4.393   4.907  1.00 20.00     0.009 A 
HETATM    2  C2  UNL     1     -34.819   5.116   6.070  1.00 20.00     0.026 A 
HETATM    3  C3  UNL     1     -34.759   4.987   3.749  1.00 20.00     0.051 A 
HETATM    4  C4  UNL     1     -34.076   6.233   5.757  1.00 20.00     0.038 A 
HETATM    5  S5  UNL     1     -33.859   6.408   4.067  1.00 20.00    -0.095 SA
ENDROOT
BRANCH   4   6
HETATM    6  S6  UNL     1     -33.403   7.377   6.903  1.00 20.00    -0.136 SA
HETATM    7  H10 UNL     1     -34.479   8.175   7.042  1.00 20.00     0.107 HD
ENDBRANCH   4   6
TORSDOF 1
ENDMDL
MODEL 3
REMARK VINA RESULT:      -2.9      9.608     10.067
REMARK  1 active torsions:
REMARK  status: ('A' for Active; 'I' for Inactive)
REMARK    1  A    between atoms: C4_4  and  S6_6 
ROOT
HETATM    1  C1  UNL     1     -40.663   5.922  -0.356  1.00 20.00     0.009 A 
HETATM    2  C2  UNL     1     -41.119   7.011  -1.153  1.00 20.00     0.026 A 
HETATM    3  C3  UNL     1     -41.108   4.708  -0.835  1.00 20.00     0.051 A 
HETATM    4  C4  UNL     1     -41.895   6.589  -2.211  1.00 20.00     0.038 A 
HETATM    5  S5  UNL     1     -42.071   4.886  -2.239  1.00 20.00    -0.095 SA
ENDROOT
BRANCH   4   6
HETATM    6  S6  UNL     1     -42.640   7.620  -3.419  1.00 20.00    -0.136 SA
HETATM    7  H10 UNL     1     -41.760   7.423  -4.418  1.00 20.00     0.107 HD
ENDBRANCH   4   6
TORSDOF 1
ENDMDL
MODEL 4
REMARK VINA RESULT:      -2.9      1.752      2.159
REMARK  1 active torsions:
REMARK  status: ('A' for Active; 'I' for Inactive)
REMARK    1  A    between atoms: C4_4  and  S6_6 
ROOT
HETATM    1  C1  UNL     1     -34.714   5.332   3.536  1.00 20.00     0.009 A 
HETATM    2  C2  UNL     1     -34.054   6.396   4.217  1.00 20.00     0.026 A 
HETATM    3  C3  UNL     1     -35.217   4.392   4.410  1.00 20.00     0.051 A 
HETATM    4  C4  UNL     1     -34.080   6.230   5.585  1.00 20.00     0.038 A 
HETATM    5  S5  UNL     1     -34.894   4.795   6.042  1.00 20.00    -0.095 SA
ENDROOT
BRANCH   4   6
HETATM    6  S6  UNL     1     -33.381   7.319   6.769  1.00 20.00    -0.136 SA
HETATM    7  H10 UNL     1     -34.127   8.408   6.501  1.00 20.00     0.107 HD
ENDBRANCH   4   6
TORSDOF 1
ENDMDL
MODEL 5
REMARK VINA RESULT:      -2.9      9.535     10.046
REMARK  1 active torsions:
REMARK  status: ('A' for Active; 'I' for Inactive)
REMARK    1  A    between atoms: C4_4  and  S6_6 
ROOT
HETATM    1  C1  UNL     1     -40.773   6.341  -0.406  1.00 20.00     0.009 A 
HETATM    2  C2  UNL     1     -40.835   4.980  -0.822  1.00 20.00     0.026 A 
HETATM    3  C3  UNL     1     -41.545   7.161  -1.202  1.00 20.00     0.051 A 
HETATM    4  C4  UNL     1     -41.652   4.810  -1.919  1.00 20.00     0.038 A 
HETATM    5  S5  UNL     1     -42.338   6.288  -2.443  1.00 20.00    -0.095 SA
ENDROOT
BRANCH   4   6
HETATM    6  S6  UNL     1     -41.989   3.290  -2.727  1.00 20.00    -0.136 SA
HETATM    7  H10 UNL     1     -40.967   3.299  -3.602  1.00 20.00     0.107 HD
ENDBRANCH   4   6
TORSDOF 1
ENDMDL
MODEL 6
REMARK VINA RESULT:      -2.8     12.499     13.347
REMARK  1 active torsions:
REMARK  status: ('A' for Active; 'I' for Inactive)
REMARK    1  A    between atoms: C4_4  and  S6_6 
ROOT
HETATM    1  C1  UNL     1     -33.625  13.658  -3.758  1.00 20.00     0.009 A 
HETATM    2  C2  UNL     1     -33.261  15.035  -3.794  1.00 20.00     0.026 A 
HETATM    3  C3  UNL     1     -34.445  13.312  -4.810  1.00 20.00     0.051 A 
HETATM    4  C4  UNL     1     -33.814  15.689  -4.874  1.00 20.00     0.038 A 
HETATM    5  S5  UNL     1     -34.770  14.644  -5.836  1.00 20.00    -0.095 SA
ENDROOT
BRANCH   4   6
HETATM    6  S6  UNL     1     -33.602  17.384  -5.272  1.00 20.00    -0.136 SA
HETATM    7  H10 UNL     1     -32.675  17.247  -6.239  1.00 20.00     0.107 HD
ENDBRANCH   4   6
TORSDOF 1
ENDMDL
MODEL 7
REMARK VINA RESULT:      -2.8     12.640     13.343
REMARK  1 active torsions:
REMARK  status: ('A' for Active; 'I' for Inactive)
REMARK    1  A    between atoms: C4_4  and  S6_6 
ROOT
HETATM    1  C1  UNL     1     -33.612  13.814  -3.725  1.00 20.00     0.009 A 
HETATM    2  C2  UNL     1     -34.394  13.484  -4.870  1.00 20.00     0.026 A 
HETATM    3  C3  UNL     1     -33.196  15.128  -3.744  1.00 20.00     0.051 A 
HETATM    4  C4  UNL     1     -34.546  14.558  -5.719  1.00 20.00     0.038 A 
HETATM    5  S5  UNL     1     -33.747  15.956  -5.137  1.00 20.00    -0.095 SA
ENDROOT
BRANCH   4   6
HETATM    6  S6  UNL     1     -35.439  14.559  -7.229  1.00 20.00    -0.136 SA
HETATM    7  H10 UNL     1     -34.511  13.972  -8.009  1.00 20.00     0.107 HD
ENDBRANCH   4   6
TORSDOF 1
ENDMDL
MODEL 8
REMARK VINA RESULT:      -2.7     12.263     12.585
REMARK  1 active torsions:
REMARK  status: ('A' for Active; 'I' for Inactive)
REMARK    1  A    between atoms: C4_4  and  S6_6 
ROOT
HETATM    1  C1  UNL     1     -33.685  13.633  -4.004  1.00 20.00     0.009 A 
HETATM    2  C2  UNL     1     -35.090  13.456  -4.166  1.00 20.00     0.026 A 
HETATM    3  C3  UNL     1     -33.367  14.916  -3.614  1.00 20.00     0.051 A 
HETATM    4  C4  UNL     1     -35.792  14.610  -3.892  1.00 20.00     0.038 A 
HETATM    5  S5  UNL     1     -34.759  15.899  -3.444  1.00 20.00    -0.095 SA
ENDROOT
BRANCH   4   6
HETATM    6  S6  UNL     1     -37.533  14.799  -3.973  1.00 20.00    -0.136 SA
HETATM    7  H10 UNL     1     -37.887  13.571  -3.551  1.00 20.00     0.107 HD
ENDBRANCH   4   6
TORSDOF 1
ENDMDL
MODEL 9
REMARK VINA RESULT:      -2.7     12.223     12.576
REMARK  1 active torsions:
REMARK  status: ('A' for Active; 'I' for Inactive)
REMARK    1  A    between atoms: C4_4  and  S6_6 
ROOT
HETATM    1  C1  UNL     1     -33.815  13.669  -4.026  1.00 20.00     0.009 A 
HETATM    2  C2  UNL     1     -33.852  14.900  -3.310  1.00 20.00     0.026 A 
HETATM    3  C3  UNL     1     -35.059  13.308  -4.498  1.00 20.00     0.051 A 
HETATM    4  C4  UNL     1     -35.122  15.434  -3.262  1.00 20.00     0.038 A 
HETATM    5  S5  UNL     1     -36.262  14.451  -4.076  1.00 20.00    -0.095 SA
ENDROOT
BRANCH   4   6
HETATM    6  S6  UNL     1     -35.580  16.934  -2.478  1.00 20.00    -0.136 SA
HETATM    7  H10 UNL     1     -34.556  17.700  -2.900  1.00 20.00     0.107 HD
ENDBRANCH   4   6
TORSDOF 1
ENDMDL
