MODEL 1
REMARK VINA RESULT:      -3.6      0.000      0.000
REMARK  1 active torsions:
REMARK  status: ('A' for Active; 'I' for Inactive)
REMARK    1  A    between atoms: C6_6  and  S8_8 
ROOT
HETATM    1  C1  UNL     1     -35.154   4.094   4.455  1.00 20.00     0.001 A 
HETATM    2  C2  UNL     1     -35.315   4.253   5.831  1.00 20.00     0.001 A 
HETATM    3  C3  UNL     1     -34.372   4.997   3.734  1.00 20.00     0.021 A 
HETATM    4  C4  UNL     1     -34.695   5.317   6.487  1.00 20.00     0.019 A 
HETATM    5  C5  UNL     1     -33.752   6.060   4.390  1.00 20.00     0.028 A 
HETATM    6  C6  UNL     1     -33.914   6.220   5.767  1.00 20.00     0.015 A 
HETATM    7  S7  UNL     1     -32.756   7.180   3.365  1.00 20.00    -0.051 SA
ENDROOT
BRANCH   6   8
HETATM    8  S8  UNL     1     -33.171   7.545   6.729  1.00 20.00    -0.142 SA
HETATM    9  H13 UNL     1     -34.006   8.514   6.330  1.00 20.00     0.107 HD
ENDBRANCH   6   8
TORSDOF 1
ENDMDL
MODEL 2
REMARK VINA RESULT:      -3.6      0.031      2.413
REMARK  1 active torsions:
REMARK  status: ('A' for Active; 'I' for Inactive)
REMARK    1  A    between atoms: C6_6  and  S8_8 
ROOT
HETATM    1  C1  UNL     1     -35.312   4.251   5.802  1.00 20.00     0.001 A 
HETATM    2  C2  UNL     1     -35.129   4.107   4.427  1.00 20.00     0.001 A 
HETATM    3  C3  UNL     1     -34.706   5.308   6.480  1.00 20.00     0.021 A 
HETATM    4  C4  UNL     1     -34.339   5.021   3.729  1.00 20.00     0.019 A 
HETATM    5  C5  UNL     1     -33.916   6.222   5.782  1.00 20.00     0.028 A 
HETATM    6  C6  UNL     1     -33.732   6.078   4.407  1.00 20.00     0.015 A 
HETATM    7  S7  UNL     1     -33.171   7.562   6.754  1.00 20.00    -0.051 SA
ENDROOT
BRANCH   6   8
HETATM    8  S8  UNL     1     -32.740   7.184   3.394  1.00 20.00    -0.142 SA
HETATM    9  H13 UNL     1     -33.757   7.713   2.701  1.00 20.00     0.107 HD
ENDBRANCH   6   8
TORSDOF 1
ENDMDL
MODEL 3
REMARK VINA RESULT:      -3.5     12.615     13.108
REMARK  1 active torsions:
REMARK  status: ('A' for Active; 'I' for Inactive)
REMARK    1  A    between atoms: C6_6  and  S8_8 
ROOT
HETATM    1  C1  UNL     1     -33.052  14.687  -3.541  1.00 20.00     0.001 A 
HETATM    2  C2  UNL     1     -33.779  13.630  -4.090  1.00 20.00     0.001 A 
HETATM    3  C3  UNL     1     -33.714  15.821  -3.072  1.00 20.00     0.021 A 
HETATM    4  C4  UNL     1     -35.169  13.709  -4.170  1.00 20.00     0.019 A 
HETATM    5  C5  UNL     1     -35.104  15.899  -3.152  1.00 20.00     0.028 A 
HETATM    6  C6  UNL     1     -35.832  14.843  -3.702  1.00 20.00     0.015 A 
HETATM    7  S7  UNL     1     -35.873  17.416  -2.515  1.00 20.00    -0.051 SA
ENDROOT
BRANCH   6   8
HETATM    8  S8  UNL     1     -37.623  14.820  -3.863  1.00 20.00    -0.142 SA
HETATM    9  H13 UNL     1     -37.817  13.640  -3.259  1.00 20.00     0.107 HD
ENDBRANCH   6   8
TORSDOF 1
ENDMDL
MODEL 4
REMARK VINA RESULT:      -3.5     13.127     14.227
REMARK  1 active torsions:
REMARK  status: ('A' for Active; 'I' for Inactive)
REMARK    1  A    between atoms: C6_6  and  S8_8 
ROOT
HETATM    1  C1  UNL     1     -33.601  13.761  -3.903  1.00 20.00     0.001 A 
HETATM    2  C2  UNL     1     -33.028  14.984  -3.555  1.00 20.00     0.001 A 
HETATM    3  C3  UNL     1     -34.375  13.657  -5.059  1.00 20.00     0.021 A 
HETATM    4  C4  UNL     1     -33.230  16.104  -4.362  1.00 20.00     0.019 A 
HETATM    5  C5  UNL     1     -34.576  14.776  -5.867  1.00 20.00     0.028 A 
HETATM    6  C6  UNL     1     -34.004  16.000  -5.518  1.00 20.00     0.015 A 
HETATM    7  S7  UNL     1     -35.598  14.539  -7.349  1.00 20.00    -0.051 SA
ENDROOT
BRANCH   6   8
HETATM    8  S8  UNL     1     -34.188  17.515  -6.469  1.00 20.00    -0.142 SA
HETATM    9  H13 UNL     1     -34.437  18.322  -5.429  1.00 20.00     0.107 HD
ENDBRANCH   6   8
TORSDOF 1
ENDMDL
MODEL 5
REMARK VINA RESULT:      -3.5     12.597     13.012
REMARK  1 active torsions:
REMARK  status: ('A' for Active; 'I' for Inactive)
REMARK    1  A    between atoms: C6_6  and  S8_8 
ROOT
HETATM    1  C1  UNL     1     -33.802  13.615  -4.062  1.00 20.00     0.001 A 
HETATM    2  C2  UNL     1     -33.079  14.679  -3.522  1.00 20.00     0.001 A 
HETATM    3  C3  UNL     1     -35.191  13.691  -4.152  1.00 20.00     0.021 A 
HETATM    4  C4  UNL     1     -33.746  15.818  -3.072  1.00 20.00     0.019 A 
HETATM    5  C5  UNL     1     -35.859  14.830  -3.702  1.00 20.00     0.028 A 
HETATM    6  C6  UNL     1     -35.136  15.894  -3.162  1.00 20.00     0.015 A 
HETATM    7  S7  UNL     1     -37.667  14.831  -3.863  1.00 20.00    -0.051 SA
ENDROOT
BRANCH   6   8
HETATM    8  S8  UNL     1     -35.874  17.414  -2.547  1.00 20.00    -0.142 SA
HETATM    9  H13 UNL     1     -35.375  18.222  -3.492  1.00 20.00     0.107 HD
ENDBRANCH   6   8
TORSDOF 1
ENDMDL
MODEL 6
REMARK VINA RESULT:      -3.5     13.138     14.296
REMARK  1 active torsions:
REMARK  status: ('A' for Active; 'I' for Inactive)
REMARK    1  A    between atoms: C6_6  and  S8_8 
ROOT
HETATM    1  C1  UNL     1     -33.093  14.958  -3.549  1.00 20.00     0.001 A 
HETATM    2  C2  UNL     1     -33.661  13.743  -3.931  1.00 20.00     0.001 A 
HETATM    3  C3  UNL     1     -33.280  16.094  -4.337  1.00 20.00     0.021 A 
HETATM    4  C4  UNL     1     -34.416  13.664  -5.100  1.00 20.00     0.019 A 
HETATM    5  C5  UNL     1     -34.036  16.015  -5.506  1.00 20.00     0.028 A 
HETATM    6  C6  UNL     1     -34.603  14.799  -5.889  1.00 20.00     0.015 A 
HETATM    7  S7  UNL     1     -34.221  17.548  -6.462  1.00 20.00    -0.051 SA
ENDROOT
BRANCH   6   8
HETATM    8  S8  UNL     1     -35.595  14.563  -7.370  1.00 20.00    -0.142 SA
HETATM    9  H13 UNL     1     -36.653  14.009  -6.761  1.00 20.00     0.107 HD
ENDBRANCH   6   8
TORSDOF 1
ENDMDL
MODEL 7
REMARK VINA RESULT:      -3.5      9.949     10.866
REMARK  1 active torsions:
REMARK  status: ('A' for Active; 'I' for Inactive)
REMARK    1  A    between atoms: C6_6  and  S8_8 
ROOT
HETATM    1  C1  UNL     1     -40.619   5.203  -0.458  1.00 20.00     0.001 A 
HETATM    2  C2  UNL     1     -40.700   6.592  -0.553  1.00 20.00     0.001 A 
HETATM    3  C3  UNL     1     -41.364   4.399  -1.320  1.00 20.00     0.021 A 
HETATM    4  C4  UNL     1     -41.529   7.177  -1.510  1.00 20.00     0.019 A 
HETATM    5  C5  UNL     1     -42.193   4.985  -2.277  1.00 20.00     0.028 A 
HETATM    6  C6  UNL     1     -42.276   6.374  -2.372  1.00 20.00     0.015 A 
HETATM    7  S7  UNL     1     -43.122   3.853  -3.351  1.00 20.00    -0.051 SA
ENDROOT
BRANCH   6   8
HETATM    8  S8  UNL     1     -43.303   7.251  -3.559  1.00 20.00    -0.142 SA
HETATM    9  H13 UNL     1     -44.298   6.354  -3.594  1.00 20.00     0.107 HD
ENDBRANCH   6   8
TORSDOF 1
ENDMDL
MODEL 8
REMARK VINA RESULT:      -3.4      9.953     10.881
REMARK  1 active torsions:
REMARK  status: ('A' for Active; 'I' for Inactive)
REMARK    1  A    between atoms: C6_6  and  S8_8 
ROOT
HETATM    1  C1  UNL     1     -40.700   6.633  -0.557  1.00 20.00     0.001 A 
HETATM    2  C2  UNL     1     -40.622   5.245  -0.453  1.00 20.00     0.001 A 
HETATM    3  C3  UNL     1     -41.529   7.216  -1.516  1.00 20.00     0.021 A 
HETATM    4  C4  UNL     1     -41.372   4.438  -1.309  1.00 20.00     0.019 A 
HETATM    5  C5  UNL     1     -42.279   6.409  -2.372  1.00 20.00     0.028 A 
HETATM    6  C6  UNL     1     -42.200   5.020  -2.269  1.00 20.00     0.015 A 
HETATM    7  S7  UNL     1     -43.326   7.262  -3.586  1.00 20.00    -0.051 SA
ENDROOT
BRANCH   6   8
HETATM    8  S8  UNL     1     -43.112   3.871  -3.309  1.00 20.00    -0.142 SA
HETATM    9  H13 UNL     1     -43.415   4.747  -4.277  1.00 20.00     0.107 HD
ENDBRANCH   6   8
TORSDOF 1
ENDMDL
MODEL 9
REMARK VINA RESULT:      -3.4     12.620     13.808
REMARK  1 active torsions:
REMARK  status: ('A' for Active; 'I' for Inactive)
REMARK    1  A    between atoms: C6_6  and  S8_8 
ROOT
HETATM    1  C1  UNL     1     -34.921  13.371  -4.533  1.00 20.00     0.001 A 
HETATM    2  C2  UNL     1     -34.815  13.851  -5.838  1.00 20.00     0.001 A 
HETATM    3  C3  UNL     1     -34.651  14.214  -3.456  1.00 20.00     0.021 A 
HETATM    4  C4  UNL     1     -34.437  15.174  -6.066  1.00 20.00     0.019 A 
HETATM    5  C5  UNL     1     -34.273  15.537  -3.683  1.00 20.00     0.028 A 
HETATM    6  C6  UNL     1     -34.165  16.017  -4.988  1.00 20.00     0.015 A 
HETATM    7  S7  UNL     1     -33.943  16.553  -2.215  1.00 20.00    -0.051 SA
ENDROOT
BRANCH   6   8
HETATM    8  S8  UNL     1     -33.688  17.697  -5.416  1.00 20.00    -0.142 SA
HETATM    9  H13 UNL     1     -34.327  18.302  -4.405  1.00 20.00     0.107 HD
ENDBRANCH   6   8
TORSDOF 1
ENDMDL
