MODEL 1
REMARK VINA RESULT:      -4.9      0.000      0.000
REMARK  1 active torsions:
REMARK  status: ('A' for Active; 'I' for Inactive)
REMARK    1  A    between atoms: C4_4  and  C6_6 
ROOT
HETATM    1  C1  UNL     1     -35.159   4.743   6.085  1.00 20.00     0.027 A 
HETATM    2  C2  UNL     1     -34.947   4.603   4.693  1.00 20.00     0.034 A 
HETATM    3  C3  UNL     1     -34.428   5.841   6.474  1.00 20.00     0.142 A 
HETATM    4  C4  UNL     1     -34.102   5.626   4.330  1.00 20.00     0.052 A 
HETATM    5  O7  UNL     1     -33.781   6.386   5.410  1.00 20.00    -0.327 OA
ENDROOT
BRANCH   4   6
HETATM    6  C6  UNL     1     -33.508   6.032   3.048  1.00 20.00     0.060 C 
HETATM    7  C5  UNL     1     -32.221   6.851   3.214  1.00 20.00     0.012 C 
ENDBRANCH   4   6
TORSDOF 1
ENDMDL
MODEL 2
REMARK VINA RESULT:      -4.6      0.979      1.415
REMARK  1 active torsions:
REMARK  status: ('A' for Active; 'I' for Inactive)
REMARK    1  A    between atoms: C4_4  and  C6_6 
ROOT
HETATM    1  C1  UNL     1     -34.636   5.443   6.477  1.00 20.00     0.027 A 
HETATM    2  C2  UNL     1     -33.902   6.328   5.652  1.00 20.00     0.034 A 
HETATM    3  C3  UNL     1     -35.095   4.443   5.651  1.00 20.00     0.142 A 
HETATM    4  C4  UNL     1     -33.964   5.806   4.381  1.00 20.00     0.052 A 
HETATM    5  O7  UNL     1     -34.690   4.657   4.372  1.00 20.00    -0.327 OA
ENDROOT
BRANCH   4   6
HETATM    6  C6  UNL     1     -33.416   6.241   3.088  1.00 20.00     0.060 C 
HETATM    7  C5  UNL     1     -32.045   6.920   3.213  1.00 20.00     0.012 C 
ENDBRANCH   4   6
TORSDOF 1
ENDMDL
MODEL 3
REMARK VINA RESULT:      -4.2      0.861      3.170
REMARK  1 active torsions:
REMARK  status: ('A' for Active; 'I' for Inactive)
REMARK    1  A    between atoms: C4_4  and  C6_6 
ROOT
HETATM    1  C1  UNL     1     -33.450   5.923   2.547  1.00 20.00     0.027 A 
HETATM    2  C2  UNL     1     -34.379   5.456   3.508  1.00 20.00     0.034 A 
HETATM    3  C3  UNL     1     -32.511   6.648   3.244  1.00 20.00     0.142 A 
HETATM    4  C4  UNL     1     -33.941   5.929   4.723  1.00 20.00     0.052 A 
HETATM    5  O7  UNL     1     -32.803   6.657   4.571  1.00 20.00    -0.327 OA
ENDROOT
BRANCH   4   6
HETATM    6  C6  UNL     1     -34.453   5.801   6.095  1.00 20.00     0.060 C 
HETATM    7  C5  UNL     1     -35.080   4.428   6.377  1.00 20.00     0.012 C 
ENDBRANCH   4   6
TORSDOF 1
ENDMDL
MODEL 4
REMARK VINA RESULT:      -4.1      1.327      3.387
REMARK  1 active torsions:
REMARK  status: ('A' for Active; 'I' for Inactive)
REMARK    1  A    between atoms: C4_4  and  C6_6 
ROOT
HETATM    1  C1  UNL     1     -32.339   6.935   3.704  1.00 20.00     0.027 A 
HETATM    2  C2  UNL     1     -33.266   6.559   4.705  1.00 20.00     0.034 A 
HETATM    3  C3  UNL     1     -32.703   6.250   2.568  1.00 20.00     0.142 A 
HETATM    4  C4  UNL     1     -34.131   5.672   4.109  1.00 20.00     0.052 A 
HETATM    5  O7  UNL     1     -33.795   5.478   2.806  1.00 20.00    -0.327 OA
ENDROOT
BRANCH   4   6
HETATM    6  C6  UNL     1     -35.301   4.926   4.597  1.00 20.00     0.060 C 
HETATM    7  C5  UNL     1     -35.081   4.302   5.982  1.00 20.00     0.012 C 
ENDBRANCH   4   6
TORSDOF 1
ENDMDL
MODEL 5
REMARK VINA RESULT:      -3.7      1.305      3.155
REMARK  1 active torsions:
REMARK  status: ('A' for Active; 'I' for Inactive)
REMARK    1  A    between atoms: C4_4  and  C6_6 
ROOT
HETATM    1  C1  UNL     1     -33.167   6.010   2.758  1.00 20.00     0.027 A 
HETATM    2  C2  UNL     1     -32.906   6.471   4.071  1.00 20.00     0.034 A 
HETATM    3  C3  UNL     1     -34.336   5.290   2.832  1.00 20.00     0.142 A 
HETATM    4  C4  UNL     1     -33.935   6.001   4.852  1.00 20.00     0.052 A 
HETATM    5  O7  UNL     1     -34.811   5.279   4.105  1.00 20.00    -0.327 OA
ENDROOT
BRANCH   4   6
HETATM    6  C6  UNL     1     -34.249   6.127   6.282  1.00 20.00     0.060 C 
HETATM    7  C5  UNL     1     -33.563   7.329   6.946  1.00 20.00     0.012 C 
ENDBRANCH   4   6
TORSDOF 1
ENDMDL
MODEL 6
REMARK VINA RESULT:      -3.7     12.048     12.427
REMARK  1 active torsions:
REMARK  status: ('A' for Active; 'I' for Inactive)
REMARK    1  A    between atoms: C4_4  and  C6_6 
ROOT
HETATM    1  C1  UNL     1     -34.787  13.319  -4.365  1.00 20.00     0.027 A 
HETATM    2  C2  UNL     1     -33.752  14.035  -3.717  1.00 20.00     0.034 A 
HETATM    3  C3  UNL     1     -35.942  14.031  -4.141  1.00 20.00     0.142 A 
HETATM    4  C4  UNL     1     -34.349  15.133  -3.144  1.00 20.00     0.052 A 
HETATM    5  O7  UNL     1     -35.684  15.139  -3.398  1.00 20.00    -0.327 OA
ENDROOT
BRANCH   4   6
HETATM    6  C6  UNL     1     -33.833  16.253  -2.344  1.00 20.00     0.060 C 
HETATM    7  C5  UNL     1     -34.640  16.498  -1.061  1.00 20.00     0.012 C 
ENDBRANCH   4   6
TORSDOF 1
ENDMDL
MODEL 7
REMARK VINA RESULT:      -3.4      1.412      2.535
REMARK  1 active torsions:
REMARK  status: ('A' for Active; 'I' for Inactive)
REMARK    1  A    between atoms: C4_4  and  C6_6 
ROOT
HETATM    1  C1  UNL     1     -35.195   4.171   4.361  1.00 20.00     0.027 A 
HETATM    2  C2  UNL     1     -35.094   4.453   5.744  1.00 20.00     0.034 A 
HETATM    3  C3  UNL     1     -34.679   5.267   3.710  1.00 20.00     0.142 A 
HETATM    4  C4  UNL     1     -34.524   5.701   5.839  1.00 20.00     0.052 A 
HETATM    5  O7  UNL     1     -34.268   6.204   4.603  1.00 20.00    -0.327 OA
ENDROOT
BRANCH   4   6
HETATM    6  C6  UNL     1     -34.157   6.553   6.979  1.00 20.00     0.060 C 
HETATM    7  C5  UNL     1     -33.046   7.558   6.646  1.00 20.00     0.012 C 
ENDBRANCH   4   6
TORSDOF 1
ENDMDL
MODEL 8
REMARK VINA RESULT:      -3.3      9.899     10.423
REMARK  1 active torsions:
REMARK  status: ('A' for Active; 'I' for Inactive)
REMARK    1  A    between atoms: C4_4  and  C6_6 
ROOT
HETATM    1  C1  UNL     1     -40.679   6.149  -0.347  1.00 20.00     0.027 A 
HETATM    2  C2  UNL     1     -41.401   7.078  -1.134  1.00 20.00     0.034 A 
HETATM    3  C3  UNL     1     -40.849   4.925  -0.949  1.00 20.00     0.142 A 
HETATM    4  C4  UNL     1     -41.960   6.354  -2.161  1.00 20.00     0.052 A 
HETATM    5  O7  UNL     1     -41.628   5.040  -2.056  1.00 20.00    -0.327 OA
ENDROOT
BRANCH   4   6
HETATM    6  C6  UNL     1     -42.812   6.721  -3.302  1.00 20.00     0.060 C 
HETATM    7  C5  UNL     1     -42.445   8.079  -3.915  1.00 20.00     0.012 C 
ENDBRANCH   4   6
TORSDOF 1
ENDMDL
MODEL 9
REMARK VINA RESULT:      -3.3      9.493     10.152
REMARK  1 active torsions:
REMARK  status: ('A' for Active; 'I' for Inactive)
REMARK    1  A    between atoms: C4_4  and  C6_6 
ROOT
HETATM    1  C1  UNL     1     -40.757   6.053  -0.183  1.00 20.00     0.027 A 
HETATM    2  C2  UNL     1     -41.178   4.759  -0.572  1.00 20.00     0.034 A 
HETATM    3  C3  UNL     1     -41.120   6.897  -1.206  1.00 20.00     0.142 A 
HETATM    4  C4  UNL     1     -41.770   4.905  -1.805  1.00 20.00     0.052 A 
HETATM    5  O7  UNL     1     -41.738   6.205  -2.199  1.00 20.00    -0.327 OA
ENDROOT
BRANCH   4   6
HETATM    6  C6  UNL     1     -42.401   3.958  -2.735  1.00 20.00     0.060 C 
HETATM    7  C5  UNL     1     -41.522   2.736  -3.039  1.00 20.00     0.012 C 
ENDBRANCH   4   6
TORSDOF 1
ENDMDL
