MODEL 1
REMARK VINA RESULT:      -6.0      0.000      0.000
REMARK  5 active torsions:
REMARK  status: ('A' for Active; 'I' for Inactive)
REMARK    1  A    between atoms: C6_6  and  C8_8 
REMARK    2  A    between atoms: C8_8  and  C10_10 
REMARK    3  A    between atoms: C9_9  and  C11_11 
REMARK    4  A    between atoms: C10_10  and  C12_12 
REMARK    5  A    between atoms: C11_11  and  C12_12 
ROOT
HETATM    1  C1  UNL     1     -35.034   4.692   6.585  1.00 20.00     0.000 A 
HETATM    2  C2  UNL     1     -35.232   3.998   5.391  1.00 20.00     0.001 A 
HETATM    3  C3  UNL     1     -34.374   5.920   6.577  1.00 20.00     0.001 A 
HETATM    4  C4  UNL     1     -34.771   4.533   4.189  1.00 20.00     0.007 A 
HETATM    5  C5  UNL     1     -33.912   6.455   5.374  1.00 20.00     0.007 A 
HETATM    6  C6  UNL     1     -34.110   5.761   4.180  1.00 20.00    -0.058 A 
ENDROOT
BRANCH   6   7
HETATM    7  C8  UNL     1     -33.614   6.336   2.890  1.00 20.00     0.038 C 
BRANCH   7   8
HETATM    8  C10 UNL     1     -32.093   6.511   2.894  1.00 20.00     0.005 C 
BRANCH   8   9
HETATM    9  C12 UNL     1     -31.702   7.969   2.645  1.00 20.00     0.000 C 
BRANCH   9  10
HETATM   10  C11 UNL     1     -31.649   8.282   1.149  1.00 20.00    -0.000 C 
BRANCH  10  11
HETATM   11  C9  UNL     1     -32.400   9.573   0.825  1.00 20.00    -0.005 C 
HETATM   12  C7  UNL     1     -32.862  10.281   2.088  1.00 20.00     0.005 C 
ENDBRANCH  10  11
ENDBRANCH   9  10
ENDBRANCH   8   9
ENDBRANCH   7   8
ENDBRANCH   6   7
TORSDOF 5
ENDMDL
MODEL 2
REMARK VINA RESULT:      -4.9     10.708     11.906
REMARK  5 active torsions:
REMARK  status: ('A' for Active; 'I' for Inactive)
REMARK    1  A    between atoms: C6_6  and  C8_8 
REMARK    2  A    between atoms: C8_8  and  C10_10 
REMARK    3  A    between atoms: C9_9  and  C11_11 
REMARK    4  A    between atoms: C10_10  and  C12_12 
REMARK    5  A    between atoms: C11_11  and  C12_12 
ROOT
HETATM    1  C1  UNL     1     -33.617  18.827   1.297  1.00 20.00     0.000 A 
HETATM    2  C2  UNL     1     -32.789  18.757   0.176  1.00 20.00     0.001 A 
HETATM    3  C3  UNL     1     -34.755  18.025   1.376  1.00 20.00     0.001 A 
HETATM    4  C4  UNL     1     -33.098  17.883  -0.865  1.00 20.00     0.007 A 
HETATM    5  C5  UNL     1     -35.064  17.150   0.334  1.00 20.00     0.007 A 
HETATM    6  C6  UNL     1     -34.236  17.079  -0.787  1.00 20.00    -0.058 A 
ENDROOT
BRANCH   6   7
HETATM    7  C8  UNL     1     -34.570  16.141  -1.905  1.00 20.00     0.038 C 
BRANCH   7   8
HETATM    8  C10 UNL     1     -33.678  16.374  -3.126  1.00 20.00     0.005 C 
BRANCH   8   9
HETATM    9  C12 UNL     1     -33.277  15.050  -3.780  1.00 20.00     0.000 C 
BRANCH   9  10
HETATM   10  C11 UNL     1     -34.318  13.961  -3.516  1.00 20.00    -0.000 C 
BRANCH  10  11
HETATM   11  C9  UNL     1     -34.724  13.255  -4.809  1.00 20.00    -0.005 C 
HETATM   12  C7  UNL     1     -34.800  14.227  -5.975  1.00 20.00     0.005 C 
ENDBRANCH  10  11
ENDBRANCH   9  10
ENDBRANCH   8   9
ENDBRANCH   7   8
ENDBRANCH   6   7
TORSDOF 5
ENDMDL
MODEL 3
REMARK VINA RESULT:      -4.9     10.743     11.921
REMARK  5 active torsions:
REMARK  status: ('A' for Active; 'I' for Inactive)
REMARK    1  A    between atoms: C6_6  and  C8_8 
REMARK    2  A    between atoms: C8_8  and  C10_10 
REMARK    3  A    between atoms: C9_9  and  C11_11 
REMARK    4  A    between atoms: C10_10  and  C12_12 
REMARK    5  A    between atoms: C11_11  and  C12_12 
ROOT
HETATM    1  C1  UNL     1     -33.613  19.006   1.439  1.00 20.00     0.000 A 
HETATM    2  C2  UNL     1     -34.758  18.218   1.566  1.00 20.00     0.001 A 
HETATM    3  C3  UNL     1     -32.805  18.885   0.309  1.00 20.00     0.001 A 
HETATM    4  C4  UNL     1     -35.093  17.310   0.562  1.00 20.00     0.007 A 
HETATM    5  C5  UNL     1     -33.140  17.978  -0.695  1.00 20.00     0.007 A 
HETATM    6  C6  UNL     1     -34.285  17.189  -0.568  1.00 20.00    -0.058 A 
ENDROOT
BRANCH   6   7
HETATM    7  C8  UNL     1     -34.644  16.214  -1.646  1.00 20.00     0.038 C 
BRANCH   7   8
HETATM    8  C10 UNL     1     -33.871  16.487  -2.939  1.00 20.00     0.005 C 
BRANCH   8   9
HETATM    9  C12 UNL     1     -33.308  15.194  -3.531  1.00 20.00     0.000 C 
BRANCH   9  10
HETATM   10  C11 UNL     1     -34.332  14.059  -3.465  1.00 20.00    -0.000 C 
BRANCH  10  11
HETATM   11  C9  UNL     1     -34.458  13.346  -4.811  1.00 20.00    -0.005 C 
HETATM   12  C7  UNL     1     -34.794  14.320  -5.928  1.00 20.00     0.005 C 
ENDBRANCH  10  11
ENDBRANCH   9  10
ENDBRANCH   8   9
ENDBRANCH   7   8
ENDBRANCH   6   7
TORSDOF 5
ENDMDL
MODEL 4
REMARK VINA RESULT:      -4.8      0.725      5.580
REMARK  5 active torsions:
REMARK  status: ('A' for Active; 'I' for Inactive)
REMARK    1  A    between atoms: C6_6  and  C8_8 
REMARK    2  A    between atoms: C8_8  and  C10_10 
REMARK    3  A    between atoms: C9_9  and  C11_11 
REMARK    4  A    between atoms: C10_10  and  C12_12 
REMARK    5  A    between atoms: C11_11  and  C12_12 
ROOT
HETATM    1  C1  UNL     1     -32.238   9.911   0.736  1.00 20.00     0.000 A 
HETATM    2  C2  UNL     1     -31.789   8.670   0.282  1.00 20.00     0.001 A 
HETATM    3  C3  UNL     1     -32.700  10.051   2.044  1.00 20.00     0.001 A 
HETATM    4  C4  UNL     1     -31.801   7.570   1.138  1.00 20.00     0.007 A 
HETATM    5  C5  UNL     1     -32.712   8.950   2.900  1.00 20.00     0.007 A 
HETATM    6  C6  UNL     1     -32.263   7.708   2.447  1.00 20.00    -0.058 A 
ENDROOT
BRANCH   6   7
HETATM    7  C8  UNL     1     -32.277   6.527   3.366  1.00 20.00     0.038 C 
BRANCH   7   8
HETATM    8  C10 UNL     1     -33.409   5.555   3.024  1.00 20.00     0.005 C 
BRANCH   8   9
HETATM    9  C12 UNL     1     -34.672   5.870   3.829  1.00 20.00     0.000 C 
BRANCH   9  10
HETATM   10  C11 UNL     1     -35.171   4.637   4.584  1.00 20.00    -0.000 C 
BRANCH  10  11
HETATM   11  C9  UNL     1     -34.693   4.643   6.036  1.00 20.00    -0.005 C 
HETATM   12  C7  UNL     1     -34.274   6.035   6.479  1.00 20.00     0.005 C 
ENDBRANCH  10  11
ENDBRANCH   9  10
ENDBRANCH   8   9
ENDBRANCH   7   8
ENDBRANCH   6   7
TORSDOF 5
ENDMDL
MODEL 5
REMARK VINA RESULT:      -4.7     10.654     12.936
REMARK  5 active torsions:
REMARK  status: ('A' for Active; 'I' for Inactive)
REMARK    1  A    between atoms: C6_6  and  C8_8 
REMARK    2  A    between atoms: C8_8  and  C10_10 
REMARK    3  A    between atoms: C9_9  and  C11_11 
REMARK    4  A    between atoms: C10_10  and  C12_12 
REMARK    5  A    between atoms: C11_11  and  C12_12 
ROOT
HETATM    1  C1  UNL     1     -36.397  16.389  -7.378  1.00 20.00     0.000 A 
HETATM    2  C2  UNL     1     -35.226  15.755  -7.793  1.00 20.00     0.001 A 
HETATM    3  C3  UNL     1     -37.008  16.013  -6.182  1.00 20.00     0.001 A 
HETATM    4  C4  UNL     1     -34.666  14.745  -7.013  1.00 20.00     0.007 A 
HETATM    5  C5  UNL     1     -36.447  15.003  -5.400  1.00 20.00     0.007 A 
HETATM    6  C6  UNL     1     -35.276  14.368  -5.816  1.00 20.00    -0.058 A 
ENDROOT
BRANCH   6   7
HETATM    7  C8  UNL     1     -34.676  13.283  -4.977  1.00 20.00     0.038 C 
BRANCH   7   8
HETATM    8  C10 UNL     1     -34.256  13.798  -3.599  1.00 20.00     0.005 C 
BRANCH   8   9
HETATM    9  C12 UNL     1     -33.149  14.849  -3.714  1.00 20.00     0.000 C 
BRANCH   9  10
HETATM   10  C11 UNL     1     -33.520  16.132  -2.968  1.00 20.00    -0.000 C 
BRANCH  10  11
HETATM   11  C9  UNL     1     -34.764  15.931  -2.102  1.00 20.00    -0.005 C 
HETATM   12  C7  UNL     1     -34.649  16.674  -0.781  1.00 20.00     0.005 C 
ENDBRANCH  10  11
ENDBRANCH   9  10
ENDBRANCH   8   9
ENDBRANCH   7   8
ENDBRANCH   6   7
TORSDOF 5
ENDMDL
MODEL 6
REMARK VINA RESULT:      -4.7     10.670     13.024
REMARK  5 active torsions:
REMARK  status: ('A' for Active; 'I' for Inactive)
REMARK    1  A    between atoms: C6_6  and  C8_8 
REMARK    2  A    between atoms: C8_8  and  C10_10 
REMARK    3  A    between atoms: C9_9  and  C11_11 
REMARK    4  A    between atoms: C10_10  and  C12_12 
REMARK    5  A    between atoms: C11_11  and  C12_12 
ROOT
HETATM    1  C1  UNL     1     -36.068  16.766  -7.257  1.00 20.00     0.000 A 
HETATM    2  C2  UNL     1     -36.759  16.324  -6.127  1.00 20.00     0.001 A 
HETATM    3  C3  UNL     1     -34.897  16.122  -7.654  1.00 20.00     0.001 A 
HETATM    4  C4  UNL     1     -36.278  15.238  -5.397  1.00 20.00     0.007 A 
HETATM    5  C5  UNL     1     -34.415  15.036  -6.924  1.00 20.00     0.007 A 
HETATM    6  C6  UNL     1     -35.106  14.594  -5.794  1.00 20.00    -0.058 A 
ENDROOT
BRANCH   6   7
HETATM    7  C8  UNL     1     -34.588  13.428  -5.010  1.00 20.00     0.038 C 
BRANCH   7   8
HETATM    8  C10 UNL     1     -34.176  13.836  -3.594  1.00 20.00     0.005 C 
BRANCH   8   9
HETATM    9  C12 UNL     1     -33.065  14.888  -3.622  1.00 20.00     0.000 C 
BRANCH   9  10
HETATM   10  C11 UNL     1     -33.483  16.158  -2.879  1.00 20.00    -0.000 C 
BRANCH  10  11
HETATM   11  C9  UNL     1     -34.736  15.922  -2.036  1.00 20.00    -0.005 C 
HETATM   12  C7  UNL     1     -34.683  16.699  -0.731  1.00 20.00     0.005 C 
ENDBRANCH  10  11
ENDBRANCH   9  10
ENDBRANCH   8   9
ENDBRANCH   7   8
ENDBRANCH   6   7
TORSDOF 5
ENDMDL
MODEL 7
REMARK VINA RESULT:      -4.7     10.780     12.306
REMARK  5 active torsions:
REMARK  status: ('A' for Active; 'I' for Inactive)
REMARK    1  A    between atoms: C6_6  and  C8_8 
REMARK    2  A    between atoms: C8_8  and  C10_10 
REMARK    3  A    between atoms: C9_9  and  C11_11 
REMARK    4  A    between atoms: C10_10  and  C12_12 
REMARK    5  A    between atoms: C11_11  and  C12_12 
ROOT
HETATM    1  C1  UNL     1     -34.934  13.302  -4.540  1.00 20.00     0.000 A 
HETATM    2  C2  UNL     1     -36.060  14.053  -4.196  1.00 20.00     0.001 A 
HETATM    3  C3  UNL     1     -33.691  13.619  -3.994  1.00 20.00     0.001 A 
HETATM    4  C4  UNL     1     -35.940  15.120  -3.307  1.00 20.00     0.007 A 
HETATM    5  C5  UNL     1     -33.572  14.687  -3.104  1.00 20.00     0.007 A 
HETATM    6  C6  UNL     1     -34.697  15.437  -2.761  1.00 20.00    -0.058 A 
ENDROOT
BRANCH   6   7
HETATM    7  C8  UNL     1     -34.568  16.584  -1.806  1.00 20.00     0.038 C 
BRANCH   7   8
HETATM    8  C10 UNL     1     -33.668  17.688  -2.364  1.00 20.00     0.005 C 
BRANCH   8   9
HETATM    9  C12 UNL     1     -34.370  18.463  -3.480  1.00 20.00     0.000 C 
BRANCH   9  10
HETATM   10  C11 UNL     1     -33.668  18.261  -4.824  1.00 20.00    -0.000 C 
BRANCH  10  11
HETATM   11  C9  UNL     1     -34.611  17.643  -5.856  1.00 20.00    -0.005 C 
HETATM   12  C7  UNL     1     -34.043  16.355  -6.430  1.00 20.00     0.005 C 
ENDBRANCH  10  11
ENDBRANCH   9  10
ENDBRANCH   8   9
ENDBRANCH   7   8
ENDBRANCH   6   7
TORSDOF 5
ENDMDL
MODEL 8
REMARK VINA RESULT:      -4.7     10.731     12.701
REMARK  5 active torsions:
REMARK  status: ('A' for Active; 'I' for Inactive)
REMARK    1  A    between atoms: C6_6  and  C8_8 
REMARK    2  A    between atoms: C8_8  and  C10_10 
REMARK    3  A    between atoms: C9_9  and  C11_11 
REMARK    4  A    between atoms: C10_10  and  C12_12 
REMARK    5  A    between atoms: C11_11  and  C12_12 
ROOT
HETATM    1  C1  UNL     1     -34.464  13.191  -4.719  1.00 20.00     0.000 A 
HETATM    2  C2  UNL     1     -33.527  13.716  -3.828  1.00 20.00     0.001 A 
HETATM    3  C3  UNL     1     -35.043  14.012  -5.686  1.00 20.00     0.001 A 
HETATM    4  C4  UNL     1     -33.169  15.060  -3.905  1.00 20.00     0.007 A 
HETATM    5  C5  UNL     1     -34.685  15.357  -5.764  1.00 20.00     0.007 A 
HETATM    6  C6  UNL     1     -33.747  15.882  -4.873  1.00 20.00    -0.058 A 
ENDROOT
BRANCH   6   7
HETATM    7  C8  UNL     1     -33.364  17.327  -4.956  1.00 20.00     0.038 C 
BRANCH   7   8
HETATM    8  C10 UNL     1     -34.531  18.246  -4.585  1.00 20.00     0.005 C 
BRANCH   8   9
HETATM    9  C12 UNL     1     -34.908  18.093  -3.110  1.00 20.00     0.000 C 
BRANCH   9  10
HETATM   10  C11 UNL     1     -33.765  18.533  -2.194  1.00 20.00    -0.000 C 
BRANCH  10  11
HETATM   11  C9  UNL     1     -33.596  17.574  -1.016  1.00 20.00    -0.005 C 
HETATM   12  C7  UNL     1     -34.700  16.529  -0.986  1.00 20.00     0.005 C 
ENDBRANCH  10  11
ENDBRANCH   9  10
ENDBRANCH   8   9
ENDBRANCH   7   8
ENDBRANCH   6   7
TORSDOF 5
ENDMDL
MODEL 9
REMARK VINA RESULT:      -4.6     10.718     12.629
REMARK  5 active torsions:
REMARK  status: ('A' for Active; 'I' for Inactive)
REMARK    1  A    between atoms: C6_6  and  C8_8 
REMARK    2  A    between atoms: C8_8  and  C10_10 
REMARK    3  A    between atoms: C9_9  and  C11_11 
REMARK    4  A    between atoms: C10_10  and  C12_12 
REMARK    5  A    between atoms: C11_11  and  C12_12 
ROOT
HETATM    1  C1  UNL     1     -32.921  14.770  -3.417  1.00 20.00     0.000 A 
HETATM    2  C2  UNL     1     -33.657  15.907  -3.082  1.00 20.00     0.001 A 
HETATM    3  C3  UNL     1     -33.573  13.631  -3.888  1.00 20.00     0.001 A 
HETATM    4  C4  UNL     1     -35.044  15.905  -3.219  1.00 20.00     0.007 A 
HETATM    5  C5  UNL     1     -34.961  13.629  -4.026  1.00 20.00     0.007 A 
HETATM    6  C6  UNL     1     -35.697  14.766  -3.691  1.00 20.00    -0.058 A 
ENDROOT
BRANCH   6   7
HETATM    7  C8  UNL     1     -37.187  14.763  -3.838  1.00 20.00     0.038 C 
BRANCH   7   8
HETATM    8  C10 UNL     1     -37.662  15.830  -4.826  1.00 20.00     0.005 C 
BRANCH   8   9
HETATM    9  C12 UNL     1     -37.113  15.568  -6.230  1.00 20.00     0.000 C 
BRANCH   9  10
HETATM   10  C11 UNL     1     -36.212  16.712  -6.698  1.00 20.00    -0.000 C 
BRANCH  10  11
HETATM   11  C9  UNL     1     -34.797  16.219  -6.997  1.00 20.00    -0.005 C 
HETATM   12  C7  UNL     1     -34.795  14.763  -7.433  1.00 20.00     0.005 C 
ENDBRANCH  10  11
ENDBRANCH   9  10
ENDBRANCH   8   9
ENDBRANCH   7   8
ENDBRANCH   6   7
TORSDOF 5
ENDMDL
