MODEL 1
REMARK VINA RESULT:      -4.3      0.000      0.000
REMARK  3 active torsions:
REMARK  status: ('A' for Active; 'I' for Inactive)
REMARK    1  A    between atoms: C4_4  and  S10_10 
REMARK    2  A    between atoms: C5_5  and  C7_7 
REMARK    3  A    between atoms: C7_7  and  S10_10 
ROOT
HETATM    1  C1  UNL     1     -34.760  17.049  -0.365  1.00 20.00     0.009 A 
HETATM    2  C2  UNL     1     -34.569  16.225  -1.511  1.00 20.00     0.026 A 
HETATM    3  C3  UNL     1     -34.284  18.327  -0.560  1.00 20.00     0.051 A 
HETATM    4  C4  UNL     1     -33.954  16.906  -2.540  1.00 20.00     0.041 A 
HETATM    5  S9  UNL     1     -33.610  18.530  -2.121  1.00 20.00    -0.095 SA
ENDROOT
BRANCH   4   6
HETATM    6  S10 UNL     1     -33.544  16.241  -4.126  1.00 20.00    -0.115 SA
BRANCH   6   7
HETATM    7  C7  UNL     1     -33.586  14.474  -3.750  1.00 20.00     0.157 C 
BRANCH   7   8
HETATM    8  C5  UNL     1     -34.453  13.717  -4.727  1.00 20.00     0.132 C 
HETATM    9  C6  UNL     1     -34.704  14.424  -6.019  1.00 20.00     0.091 C 
HETATM   10  O8  UNL     1     -34.942  12.610  -4.542  1.00 20.00    -0.298 OA
ENDBRANCH   7   8
ENDBRANCH   6   7
ENDBRANCH   4   6
TORSDOF 3
ENDMDL
MODEL 2
REMARK VINA RESULT:      -4.2      1.407      1.671
REMARK  3 active torsions:
REMARK  status: ('A' for Active; 'I' for Inactive)
REMARK    1  A    between atoms: C4_4  and  S10_10 
REMARK    2  A    between atoms: C5_5  and  C7_7 
REMARK    3  A    between atoms: C7_7  and  S10_10 
ROOT
HETATM    1  C1  UNL     1     -34.810  17.224  -0.043  1.00 20.00     0.009 A 
HETATM    2  C2  UNL     1     -34.491  16.525  -1.243  1.00 20.00     0.026 A 
HETATM    3  C3  UNL     1     -35.810  18.152  -0.233  1.00 20.00     0.051 A 
HETATM    4  C4  UNL     1     -35.262  16.945  -2.306  1.00 20.00     0.041 A 
HETATM    5  S9  UNL     1     -36.362  18.178  -1.854  1.00 20.00    -0.095 SA
ENDROOT
BRANCH   4   6
HETATM    6  S10 UNL     1     -35.176  16.327  -3.960  1.00 20.00    -0.115 SA
BRANCH   6   7
HETATM    7  C7  UNL     1     -35.840  14.665  -3.712  1.00 20.00     0.157 C 
BRANCH   7   8
HETATM    8  C5  UNL     1     -34.821  13.603  -4.046  1.00 20.00     0.132 C 
HETATM    9  C6  UNL     1     -33.409  13.966  -3.721  1.00 20.00     0.091 C 
HETATM   10  O8  UNL     1     -35.062  12.511  -4.543  1.00 20.00    -0.298 OA
ENDBRANCH   7   8
ENDBRANCH   6   7
ENDBRANCH   4   6
TORSDOF 3
ENDMDL
MODEL 3
REMARK VINA RESULT:      -4.0     11.247     11.842
REMARK  3 active torsions:
REMARK  status: ('A' for Active; 'I' for Inactive)
REMARK    1  A    between atoms: C4_4  and  S10_10 
REMARK    2  A    between atoms: C5_5  and  C7_7 
REMARK    3  A    between atoms: C7_7  and  S10_10 
ROOT
HETATM    1  C1  UNL     1     -34.296   6.080   6.481  1.00 20.00     0.009 A 
HETATM    2  C2  UNL     1     -33.493   6.554   5.403  1.00 20.00     0.026 A 
HETATM    3  C3  UNL     1     -35.115   5.041   6.098  1.00 20.00     0.051 A 
HETATM    4  C4  UNL     1     -33.729   5.857   4.238  1.00 20.00     0.041 A 
HETATM    5  S9  UNL     1     -34.915   4.639   4.446  1.00 20.00    -0.095 SA
ENDROOT
BRANCH   4   6
HETATM    6  S10 UNL     1     -32.937   6.136   2.682  1.00 20.00    -0.115 SA
BRANCH   6   7
HETATM    7  C7  UNL     1     -32.087   7.691   3.034  1.00 20.00     0.157 C 
BRANCH   7   8
HETATM    8  C5  UNL     1     -32.028   8.581   1.816  1.00 20.00     0.132 C 
HETATM    9  C6  UNL     1     -32.739   9.888   1.961  1.00 20.00     0.091 C 
HETATM   10  O8  UNL     1     -31.461   8.319   0.764  1.00 20.00    -0.298 OA
ENDBRANCH   7   8
ENDBRANCH   6   7
ENDBRANCH   4   6
TORSDOF 3
ENDMDL
MODEL 4
REMARK VINA RESULT:      -3.8      1.321      1.499
REMARK  3 active torsions:
REMARK  status: ('A' for Active; 'I' for Inactive)
REMARK    1  A    between atoms: C4_4  and  S10_10 
REMARK    2  A    between atoms: C5_5  and  C7_7 
REMARK    3  A    between atoms: C7_7  and  S10_10 
ROOT
HETATM    1  C1  UNL     1     -34.937  17.054  -1.000  1.00 20.00     0.009 A 
HETATM    2  C2  UNL     1     -34.113  16.193  -1.781  1.00 20.00     0.026 A 
HETATM    3  C3  UNL     1     -35.568  18.006  -1.770  1.00 20.00     0.051 A 
HETATM    4  C4  UNL     1     -34.147  16.519  -3.119  1.00 20.00     0.041 A 
HETATM    5  S9  UNL     1     -35.168  17.859  -3.429  1.00 20.00    -0.095 SA
ENDROOT
BRANCH   4   6
HETATM    6  S10 UNL     1     -33.267  15.695  -4.412  1.00 20.00    -0.115 SA
BRANCH   6   7
HETATM    7  C7  UNL     1     -34.649  14.981  -5.331  1.00 20.00     0.157 C 
BRANCH   7   8
HETATM    8  C5  UNL     1     -35.378  13.937  -4.519  1.00 20.00     0.132 C 
HETATM    9  C6  UNL     1     -36.739  14.344  -4.055  1.00 20.00     0.091 C 
HETATM   10  O8  UNL     1     -34.949  12.828  -4.229  1.00 20.00    -0.298 OA
ENDBRANCH   7   8
ENDBRANCH   6   7
ENDBRANCH   4   6
TORSDOF 3
ENDMDL
MODEL 5
REMARK VINA RESULT:      -3.8     11.236     11.786
REMARK  3 active torsions:
REMARK  status: ('A' for Active; 'I' for Inactive)
REMARK    1  A    between atoms: C4_4  and  S10_10 
REMARK    2  A    between atoms: C5_5  and  C7_7 
REMARK    3  A    between atoms: C7_7  and  S10_10 
ROOT
HETATM    1  C1  UNL     1     -35.182   4.833   5.764  1.00 20.00     0.009 A 
HETATM    2  C2  UNL     1     -34.764   4.838   4.401  1.00 20.00     0.026 A 
HETATM    3  C3  UNL     1     -34.541   5.802   6.505  1.00 20.00     0.051 A 
HETATM    4  C4  UNL     1     -33.821   5.812   4.153  1.00 20.00     0.041 A 
HETATM    5  S9  UNL     1     -33.442   6.713   5.560  1.00 20.00    -0.095 SA
ENDROOT
BRANCH   4   6
HETATM    6  S10 UNL     1     -33.056   6.144   2.594  1.00 20.00    -0.115 SA
BRANCH   6   7
HETATM    7  C7  UNL     1     -32.142   7.648   3.004  1.00 20.00     0.157 C 
BRANCH   7   8
HETATM    8  C5  UNL     1     -32.023   8.569   1.814  1.00 20.00     0.132 C 
HETATM    9  C6  UNL     1     -32.770   9.857   1.942  1.00 20.00     0.091 C 
HETATM   10  O8  UNL     1     -31.383   8.343   0.795  1.00 20.00    -0.298 OA
ENDBRANCH   7   8
ENDBRANCH   6   7
ENDBRANCH   4   6
TORSDOF 3
ENDMDL
MODEL 6
REMARK VINA RESULT:      -3.7      2.073      4.701
REMARK  3 active torsions:
REMARK  status: ('A' for Active; 'I' for Inactive)
REMARK    1  A    between atoms: C4_4  and  S10_10 
REMARK    2  A    between atoms: C5_5  and  C7_7 
REMARK    3  A    between atoms: C7_7  and  S10_10 
ROOT
HETATM    1  C1  UNL     1     -35.493  14.501  -7.776  1.00 20.00     0.009 A 
HETATM    2  C2  UNL     1     -34.351  15.005  -7.088  1.00 20.00     0.026 A 
HETATM    3  C3  UNL     1     -36.666  15.042  -7.297  1.00 20.00     0.051 A 
HETATM    4  C4  UNL     1     -34.695  15.913  -6.111  1.00 20.00     0.041 A 
HETATM    5  S9  UNL     1     -36.389  16.153  -6.024  1.00 20.00    -0.095 SA
ENDROOT
BRANCH   4   6
HETATM    6  S10 UNL     1     -33.573  16.764  -5.041  1.00 20.00    -0.115 SA
BRANCH   6   7
HETATM    7  C7  UNL     1     -32.937  15.373  -4.079  1.00 20.00     0.157 C 
BRANCH   7   8
HETATM    8  C5  UNL     1     -34.043  14.648  -3.350  1.00 20.00     0.132 C 
HETATM    9  C6  UNL     1     -34.873  15.511  -2.456  1.00 20.00     0.091 C 
HETATM   10  O8  UNL     1     -34.296  13.454  -3.438  1.00 20.00    -0.298 OA
ENDBRANCH   7   8
ENDBRANCH   6   7
ENDBRANCH   4   6
TORSDOF 3
ENDMDL
MODEL 7
REMARK VINA RESULT:      -3.7     13.100     14.237
REMARK  3 active torsions:
REMARK  status: ('A' for Active; 'I' for Inactive)
REMARK    1  A    between atoms: C4_4  and  S10_10 
REMARK    2  A    between atoms: C5_5  and  C7_7 
REMARK    3  A    between atoms: C7_7  and  S10_10 
ROOT
HETATM    1  C1  UNL     1     -40.683   5.848  -0.426  1.00 20.00     0.009 A 
HETATM    2  C2  UNL     1     -41.222   4.674  -1.029  1.00 20.00     0.026 A 
HETATM    3  C3  UNL     1     -41.117   6.997  -1.050  1.00 20.00     0.051 A 
HETATM    4  C4  UNL     1     -42.049   4.972  -2.090  1.00 20.00     0.041 A 
HETATM    5  S9  UNL     1     -42.171   6.659  -2.357  1.00 20.00    -0.095 SA
ENDROOT
BRANCH   4   6
HETATM    6  S10 UNL     1     -42.910   3.800  -3.096  1.00 20.00    -0.115 SA
BRANCH   6   7
HETATM    7  C7  UNL     1     -41.654   2.508  -3.223  1.00 20.00     0.157 C 
BRANCH   7   8
HETATM    8  C5  UNL     1     -41.984   1.516  -4.312  1.00 20.00     0.132 C 
HETATM    9  C6  UNL     1     -41.680   0.092  -3.973  1.00 20.00     0.091 C 
HETATM   10  O8  UNL     1     -42.463   1.785  -5.405  1.00 20.00    -0.298 OA
ENDBRANCH   7   8
ENDBRANCH   6   7
ENDBRANCH   4   6
TORSDOF 3
ENDMDL
MODEL 8
REMARK VINA RESULT:      -3.7      2.255      4.510
REMARK  3 active torsions:
REMARK  status: ('A' for Active; 'I' for Inactive)
REMARK    1  A    between atoms: C4_4  and  S10_10 
REMARK    2  A    between atoms: C5_5  and  C7_7 
REMARK    3  A    between atoms: C7_7  and  S10_10 
ROOT
HETATM    1  C1  UNL     1     -33.421  13.637  -3.776  1.00 20.00     0.009 A 
HETATM    2  C2  UNL     1     -33.019  15.004  -3.740  1.00 20.00     0.026 A 
HETATM    3  C3  UNL     1     -34.657  13.476  -4.362  1.00 20.00     0.051 A 
HETATM    4  C4  UNL     1     -33.964  15.835  -4.301  1.00 20.00     0.041 A 
HETATM    5  S9  UNL     1     -35.329  14.968  -4.866  1.00 20.00    -0.095 SA
ENDROOT
BRANCH   4   6
HETATM    6  S10 UNL     1     -33.844  17.592  -4.451  1.00 20.00    -0.115 SA
BRANCH   6   7
HETATM    7  C7  UNL     1     -33.795  18.057  -2.706  1.00 20.00     0.157 C 
BRANCH   7   8
HETATM    8  C5  UNL     1     -34.984  17.514  -1.952  1.00 20.00     0.132 C 
HETATM    9  C6  UNL     1     -34.641  16.689  -0.754  1.00 20.00     0.091 C 
HETATM   10  O8  UNL     1     -36.159  17.696  -2.240  1.00 20.00    -0.298 OA
ENDBRANCH   7   8
ENDBRANCH   6   7
ENDBRANCH   4   6
TORSDOF 3
ENDMDL
MODEL 9
REMARK VINA RESULT:      -3.6      2.712      4.937
REMARK  3 active torsions:
REMARK  status: ('A' for Active; 'I' for Inactive)
REMARK    1  A    between atoms: C4_4  and  S10_10 
REMARK    2  A    between atoms: C5_5  and  C7_7 
REMARK    3  A    between atoms: C7_7  and  S10_10 
ROOT
HETATM    1  C1  UNL     1     -35.156  13.349  -4.308  1.00 20.00     0.009 A 
HETATM    2  C2  UNL     1     -35.891  14.472  -3.830  1.00 20.00     0.026 A 
HETATM    3  C3  UNL     1     -33.795  13.558  -4.252  1.00 20.00     0.051 A 
HETATM    4  C4  UNL     1     -35.064  15.497  -3.426  1.00 20.00     0.041 A 
HETATM    5  S9  UNL     1     -33.409  15.104  -3.625  1.00 20.00    -0.095 SA
ENDROOT
BRANCH   4   6
HETATM    6  S10 UNL     1     -35.584  17.055  -2.771  1.00 20.00    -0.115 SA
BRANCH   6   7
HETATM    7  C7  UNL     1     -33.980  17.779  -2.363  1.00 20.00     0.157 C 
BRANCH   7   8
HETATM    8  C5  UNL     1     -33.741  17.799  -0.873  1.00 20.00     0.132 C 
HETATM    9  C6  UNL     1     -34.823  17.169  -0.057  1.00 20.00     0.091 C 
HETATM   10  O8  UNL     1     -32.763  18.274  -0.311  1.00 20.00    -0.298 OA
ENDBRANCH   7   8
ENDBRANCH   6   7
ENDBRANCH   4   6
TORSDOF 3
ENDMDL
