MODEL 1
REMARK VINA RESULT:      -5.2      0.000      0.000
REMARK  0 active torsions:
REMARK  status: ('A' for Active; 'I' for Inactive)
ROOT
HETATM    1  C1  UNL     1     -34.294   5.836   6.459  1.00 20.00    -0.030 C 
HETATM    2  C2  UNL     1     -33.763   6.601   5.494  1.00 20.00    -0.030 C 
HETATM    3  C3  UNL     1     -35.125   4.620   6.175  1.00 20.00     0.026 C 
HETATM    4  C4  UNL     1     -33.973   6.340   4.033  1.00 20.00     0.026 C 
HETATM    5  C5  UNL     1     -35.037   4.156   4.719  1.00 20.00     0.004 C 
HETATM    6  C6  UNL     1     -35.098   5.339   3.756  1.00 20.00     0.004 C 
ENDROOT
TORSDOF 0
ENDMDL
MODEL 2
REMARK VINA RESULT:      -5.1      0.056      2.082
REMARK  0 active torsions:
REMARK  status: ('A' for Active; 'I' for Inactive)
ROOT
HETATM    1  C1  UNL     1     -33.710   6.609   5.452  1.00 20.00    -0.030 C 
HETATM    2  C2  UNL     1     -34.260   5.883   6.437  1.00 20.00    -0.030 C 
HETATM    3  C3  UNL     1     -33.938   6.322   3.998  1.00 20.00     0.026 C 
HETATM    4  C4  UNL     1     -35.132   4.690   6.186  1.00 20.00     0.026 C 
HETATM    5  C5  UNL     1     -35.094   5.351   3.750  1.00 20.00     0.004 C 
HETATM    6  C6  UNL     1     -35.066   4.190   4.740  1.00 20.00     0.004 C 
ENDROOT
TORSDOF 0
ENDMDL
MODEL 3
REMARK VINA RESULT:      -5.0      0.579      1.087
REMARK  0 active torsions:
REMARK  status: ('A' for Active; 'I' for Inactive)
ROOT
HETATM    1  C1  UNL     1     -33.716   6.543   5.690  1.00 20.00    -0.030 C 
HETATM    2  C2  UNL     1     -33.641   6.496   4.351  1.00 20.00    -0.030 C 
HETATM    3  C3  UNL     1     -34.516   5.567   6.500  1.00 20.00     0.026 C 
HETATM    4  C4  UNL     1     -34.376   5.484   3.525  1.00 20.00     0.026 C 
HETATM    5  C5  UNL     1     -34.962   4.342   5.699  1.00 20.00     0.004 C 
HETATM    6  C6  UNL     1     -35.458   4.737   4.310  1.00 20.00     0.004 C 
ENDROOT
TORSDOF 0
ENDMDL
MODEL 4
REMARK VINA RESULT:      -5.0      0.512      2.084
REMARK  0 active torsions:
REMARK  status: ('A' for Active; 'I' for Inactive)
ROOT
HETATM    1  C1  UNL     1     -35.059   4.233   5.759  1.00 20.00    -0.030 C 
HETATM    2  C2  UNL     1     -35.271   4.385   4.443  1.00 20.00    -0.030 C 
HETATM    3  C3  UNL     1     -34.264   5.206   6.577  1.00 20.00     0.026 C 
HETATM    4  C4  UNL     1     -34.708   5.524   3.649  1.00 20.00     0.026 C 
HETATM    5  C5  UNL     1     -34.002   6.529   5.854  1.00 20.00     0.004 C 
HETATM    6  C6  UNL     1     -33.617   6.297   4.395  1.00 20.00     0.004 C 
ENDROOT
TORSDOF 0
ENDMDL
MODEL 5
REMARK VINA RESULT:      -5.0      0.505      2.688
REMARK  0 active torsions:
REMARK  status: ('A' for Active; 'I' for Inactive)
ROOT
HETATM    1  C1  UNL     1     -35.298   4.424   4.439  1.00 20.00    -0.030 C 
HETATM    2  C2  UNL     1     -35.089   4.275   5.756  1.00 20.00    -0.030 C 
HETATM    3  C3  UNL     1     -34.704   5.545   3.638  1.00 20.00     0.026 C 
HETATM    4  C4  UNL     1     -34.270   5.232   6.568  1.00 20.00     0.026 C 
HETATM    5  C5  UNL     1     -33.597   6.296   4.380  1.00 20.00     0.004 C 
HETATM    6  C6  UNL     1     -33.977   6.545   5.838  1.00 20.00     0.004 C 
ENDROOT
TORSDOF 0
ENDMDL
MODEL 6
REMARK VINA RESULT:      -4.6      0.348      2.081
REMARK  0 active torsions:
REMARK  status: ('A' for Active; 'I' for Inactive)
ROOT
HETATM    1  C1  UNL     1     -34.675   5.333   3.673  1.00 20.00    -0.030 C 
HETATM    2  C2  UNL     1     -34.101   6.431   4.187  1.00 20.00    -0.030 C 
HETATM    3  C3  UNL     1     -35.154   4.188   4.516  1.00 20.00     0.026 C 
HETATM    4  C4  UNL     1     -33.849   6.612   5.653  1.00 20.00     0.026 C 
HETATM    5  C5  UNL     1     -35.226   4.526   6.006  1.00 20.00     0.004 C 
HETATM    6  C6  UNL     1     -33.999   5.317   6.455  1.00 20.00     0.004 C 
ENDROOT
TORSDOF 0
ENDMDL
MODEL 7
REMARK VINA RESULT:      -3.4     12.216     12.848
REMARK  0 active torsions:
REMARK  status: ('A' for Active; 'I' for Inactive)
ROOT
HETATM    1  C1  UNL     1     -35.456  15.542  -3.012  1.00 20.00    -0.030 C 
HETATM    2  C2  UNL     1     -35.835  14.489  -3.752  1.00 20.00    -0.030 C 
HETATM    3  C3  UNL     1     -34.019  15.879  -2.744  1.00 20.00     0.026 C 
HETATM    4  C4  UNL     1     -34.864  13.521  -4.357  1.00 20.00     0.026 C 
HETATM    5  C5  UNL     1     -33.043  15.118  -3.645  1.00 20.00     0.004 C 
HETATM    6  C6  UNL     1     -33.448  13.653  -3.789  1.00 20.00     0.004 C 
ENDROOT
TORSDOF 0
ENDMDL
MODEL 8
REMARK VINA RESULT:      -3.4      8.404      9.693
REMARK  0 active torsions:
REMARK  status: ('A' for Active; 'I' for Inactive)
ROOT
HETATM    1  C1  UNL     1     -41.172   7.150  -0.922  1.00 20.00    -0.030 C 
HETATM    2  C2  UNL     1     -41.916   7.107  -2.037  1.00 20.00    -0.030 C 
HETATM    3  C3  UNL     1     -40.663   5.921  -0.229  1.00 20.00     0.026 C 
HETATM    4  C4  UNL     1     -42.343   5.825  -2.687  1.00 20.00     0.026 C 
HETATM    5  C5  UNL     1     -40.790   4.654  -1.078  1.00 20.00     0.004 C 
HETATM    6  C6  UNL     1     -42.138   4.599  -1.793  1.00 20.00     0.004 C 
ENDROOT
TORSDOF 0
ENDMDL
MODEL 9
REMARK VINA RESULT:      -3.4      8.418      9.783
REMARK  0 active torsions:
REMARK  status: ('A' for Active; 'I' for Inactive)
ROOT
HETATM    1  C1  UNL     1     -41.909   7.148  -2.031  1.00 20.00    -0.030 C 
HETATM    2  C2  UNL     1     -41.182   7.169  -0.904  1.00 20.00    -0.030 C 
HETATM    3  C3  UNL     1     -42.336   5.878  -2.706  1.00 20.00     0.026 C 
HETATM    4  C4  UNL     1     -40.692   5.927  -0.222  1.00 20.00     0.026 C 
HETATM    5  C5  UNL     1     -42.150   4.638  -1.830  1.00 20.00     0.004 C 
HETATM    6  C6  UNL     1     -40.813   4.674  -1.093  1.00 20.00     0.004 C 
ENDROOT
TORSDOF 0
ENDMDL
