MODEL 1
REMARK VINA RESULT:      -6.1      0.000      0.000
REMARK  0 active torsions:
REMARK  status: ('A' for Active; 'I' for Inactive)
ROOT
HETATM    1  C1  UNL     1     -35.302   4.307   5.775  1.00 20.00     0.001 A 
HETATM    2  C2  UNL     1     -34.797   5.228   6.697  1.00 20.00     0.003 A 
HETATM    3  C3  UNL     1     -34.968   4.389   4.416  1.00 20.00     0.014 A 
HETATM    4  C4  UNL     1     -33.943   6.260   6.298  1.00 20.00     0.038 A 
HETATM    5  C5  UNL     1     -33.554   5.833   2.754  1.00 20.00     0.046 A 
HETATM    6  C6  UNL     1     -34.112   5.420   3.992  1.00 20.00     0.000 A 
HETATM    7  C7  UNL     1     -33.631   6.316   4.942  1.00 20.00     0.086 A 
HETATM    8  C8  UNL     1     -32.781   6.938   3.026  1.00 20.00     0.050 A 
HETATM    9  C9  UNL     1     -31.955   7.816   2.185  1.00 20.00     0.077 C 
HETATM   10  O10 UNL     1     -32.821   7.240   4.350  1.00 20.00    -0.315 OA
ENDROOT
TORSDOF 0
ENDMDL
MODEL 2
REMARK VINA RESULT:      -4.6     10.137     11.098
REMARK  0 active torsions:
REMARK  status: ('A' for Active; 'I' for Inactive)
ROOT
HETATM    1  C1  UNL     1     -40.793   6.513  -0.404  1.00 20.00     0.001 A 
HETATM    2  C2  UNL     1     -41.565   7.396  -1.164  1.00 20.00     0.003 A 
HETATM    3  C3  UNL     1     -40.797   5.137  -0.671  1.00 20.00     0.014 A 
HETATM    4  C4  UNL     1     -42.364   6.940  -2.215  1.00 20.00     0.038 A 
HETATM    5  C5  UNL     1     -41.868   3.384  -2.293  1.00 20.00     0.046 A 
HETATM    6  C6  UNL     1     -41.596   4.656  -1.723  1.00 20.00     0.000 A 
HETATM    7  C7  UNL     1     -42.349   5.568  -2.456  1.00 20.00     0.086 A 
HETATM    8  C8  UNL     1     -42.756   3.602  -3.321  1.00 20.00     0.050 A 
HETATM    9  C9  UNL     1     -43.413   2.708  -4.284  1.00 20.00     0.077 C 
HETATM   10  O10 UNL     1     -43.054   4.923  -3.428  1.00 20.00    -0.315 OA
ENDROOT
TORSDOF 0
ENDMDL
MODEL 3
REMARK VINA RESULT:      -4.5     11.856     13.918
REMARK  0 active torsions:
REMARK  status: ('A' for Active; 'I' for Inactive)
ROOT
HETATM    1  C1  UNL     1     -34.330  13.352  -4.726  1.00 20.00     0.001 A 
HETATM    2  C2  UNL     1     -33.460  13.814  -3.735  1.00 20.00     0.003 A 
HETATM    3  C3  UNL     1     -34.775  14.200  -5.749  1.00 20.00     0.014 A 
HETATM    4  C4  UNL     1     -33.002  15.134  -3.730  1.00 20.00     0.038 A 
HETATM    5  C5  UNL     1     -34.537  16.666  -6.593  1.00 20.00     0.046 A 
HETATM    6  C6  UNL     1     -34.329  15.533  -5.763  1.00 20.00     0.000 A 
HETATM    7  C7  UNL     1     -33.463  15.954  -4.759  1.00 20.00     0.086 A 
HETATM    8  C8  UNL     1     -33.794  17.688  -6.048  1.00 20.00     0.050 A 
HETATM    9  C9  UNL     1     -33.588  19.092  -6.430  1.00 20.00     0.077 C 
HETATM   10  O10 UNL     1     -33.139  17.266  -4.934  1.00 20.00    -0.315 OA
ENDROOT
TORSDOF 0
ENDMDL
MODEL 4
REMARK VINA RESULT:      -4.5     11.569     12.705
REMARK  0 active torsions:
REMARK  status: ('A' for Active; 'I' for Inactive)
ROOT
HETATM    1  C1  UNL     1     -33.142  15.123  -3.464  1.00 20.00     0.001 A 
HETATM    2  C2  UNL     1     -33.395  13.812  -3.877  1.00 20.00     0.003 A 
HETATM    3  C3  UNL     1     -34.192  16.021  -3.229  1.00 20.00     0.014 A 
HETATM    4  C4  UNL     1     -34.700  13.350  -4.067  1.00 20.00     0.038 A 
HETATM    5  C5  UNL     1     -36.805  16.153  -3.288  1.00 20.00     0.046 A 
HETATM    6  C6  UNL     1     -35.514  15.578  -3.415  1.00 20.00     0.000 A 
HETATM    7  C7  UNL     1     -35.722  14.265  -3.826  1.00 20.00     0.086 A 
HETATM    8  C8  UNL     1     -37.704  15.167  -3.624  1.00 20.00     0.050 A 
HETATM    9  C9  UNL     1     -39.171  15.128  -3.691  1.00 20.00     0.077 C 
HETATM   10  O10 UNL     1     -37.057  14.018  -3.953  1.00 20.00    -0.315 OA
ENDROOT
TORSDOF 0
ENDMDL
MODEL 5
REMARK VINA RESULT:      -4.4      9.989     10.928
REMARK  0 active torsions:
REMARK  status: ('A' for Active; 'I' for Inactive)
ROOT
HETATM    1  C1  UNL     1     -42.244   7.711  -1.520  1.00 20.00     0.001 A 
HETATM    2  C2  UNL     1     -41.182   7.241  -0.743  1.00 20.00     0.003 A 
HETATM    3  C3  UNL     1     -42.929   6.860  -2.398  1.00 20.00     0.014 A 
HETATM    4  C4  UNL     1     -40.767   5.908  -0.813  1.00 20.00     0.038 A 
HETATM    5  C5  UNL     1     -42.945   4.377  -3.223  1.00 20.00     0.046 A 
HETATM    6  C6  UNL     1     -42.527   5.516  -2.485  1.00 20.00     0.000 A 
HETATM    7  C7  UNL     1     -41.466   5.087  -1.695  1.00 20.00     0.086 A 
HETATM    8  C8  UNL     1     -42.122   3.343  -2.838  1.00 20.00     0.050 A 
HETATM    9  C9  UNL     1     -42.041   1.929  -3.228  1.00 20.00     0.077 C 
HETATM   10  O10 UNL     1     -41.221   3.764  -1.912  1.00 20.00    -0.315 OA
ENDROOT
TORSDOF 0
ENDMDL
MODEL 6
REMARK VINA RESULT:      -4.4     11.963     13.166
REMARK  0 active torsions:
REMARK  status: ('A' for Active; 'I' for Inactive)
ROOT
HETATM    1  C1  UNL     1     -34.868  13.783  -5.200  1.00 20.00     0.001 A 
HETATM    2  C2  UNL     1     -34.342  14.752  -6.058  1.00 20.00     0.003 A 
HETATM    3  C3  UNL     1     -34.964  14.014  -3.821  1.00 20.00     0.014 A 
HETATM    4  C4  UNL     1     -33.894  15.984  -5.573  1.00 20.00     0.038 A 
HETATM    5  C5  UNL     1     -34.444  15.847  -2.026  1.00 20.00     0.046 A 
HETATM    6  C6  UNL     1     -34.517  15.246  -3.311  1.00 20.00     0.000 A 
HETATM    7  C7  UNL     1     -34.000  16.184  -4.198  1.00 20.00     0.086 A 
HETATM    8  C8  UNL     1     -33.895  17.095  -2.213  1.00 20.00     0.050 A 
HETATM    9  C9  UNL     1     -33.563  18.192  -1.294  1.00 20.00     0.077 C 
HETATM   10  O10 UNL     1     -33.621  17.309  -3.527  1.00 20.00    -0.315 OA
ENDROOT
TORSDOF 0
ENDMDL
MODEL 7
REMARK VINA RESULT:      -4.4     11.699     13.063
REMARK  0 active torsions:
REMARK  status: ('A' for Active; 'I' for Inactive)
ROOT
HETATM    1  C1  UNL     1     -34.440  14.653  -6.144  1.00 20.00     0.001 A 
HETATM    2  C2  UNL     1     -34.860  13.649  -5.267  1.00 20.00     0.003 A 
HETATM    3  C3  UNL     1     -34.039  15.908  -5.666  1.00 20.00     0.014 A 
HETATM    4  C4  UNL     1     -34.895  13.860  -3.886  1.00 20.00     0.038 A 
HETATM    5  C5  UNL     1     -33.754  17.234  -3.428  1.00 20.00     0.046 A 
HETATM    6  C6  UNL     1     -34.068  16.143  -4.280  1.00 20.00     0.000 A 
HETATM    7  C7  UNL     1     -34.492  15.117  -3.441  1.00 20.00     0.086 A 
HETATM    8  C8  UNL     1     -34.004  16.807  -2.143  1.00 20.00     0.050 A 
HETATM    9  C9  UNL     1     -33.881  17.455  -0.830  1.00 20.00     0.077 C 
HETATM   10  O10 UNL     1     -34.453  15.525  -2.141  1.00 20.00    -0.315 OA
ENDROOT
TORSDOF 0
ENDMDL
MODEL 8
REMARK VINA RESULT:      -4.4     11.822     12.549
REMARK  0 active torsions:
REMARK  status: ('A' for Active; 'I' for Inactive)
ROOT
HETATM    1  C1  UNL     1     -33.916  13.454  -4.317  1.00 20.00     0.001 A 
HETATM    2  C2  UNL     1     -35.298  13.464  -4.524  1.00 20.00     0.003 A 
HETATM    3  C3  UNL     1     -33.297  14.435  -3.529  1.00 20.00     0.014 A 
HETATM    4  C4  UNL     1     -36.110  14.447  -3.954  1.00 20.00     0.038 A 
HETATM    5  C5  UNL     1     -33.865  16.562  -2.114  1.00 20.00     0.046 A 
HETATM    6  C6  UNL     1     -34.095  15.435  -2.946  1.00 20.00     0.000 A 
HETATM    7  C7  UNL     1     -35.467  15.409  -3.177  1.00 20.00     0.086 A 
HETATM    8  C8  UNL     1     -35.094  17.140  -1.895  1.00 20.00     0.050 A 
HETATM    9  C9  UNL     1     -35.526  18.317  -1.130  1.00 20.00     0.077 C 
HETATM   10  O10 UNL     1     -36.072  16.448  -2.536  1.00 20.00    -0.315 OA
ENDROOT
TORSDOF 0
ENDMDL
MODEL 9
REMARK VINA RESULT:      -4.3     11.894     14.020
REMARK  0 active torsions:
REMARK  status: ('A' for Active; 'I' for Inactive)
ROOT
HETATM    1  C1  UNL     1     -33.679  13.672  -3.792  1.00 20.00     0.001 A 
HETATM    2  C2  UNL     1     -34.505  13.220  -4.825  1.00 20.00     0.003 A 
HETATM    3  C3  UNL     1     -33.221  14.997  -3.761  1.00 20.00     0.014 A 
HETATM    4  C4  UNL     1     -34.903  14.070  -5.860  1.00 20.00     0.038 A 
HETATM    5  C5  UNL     1     -33.370  17.231  -5.115  1.00 20.00     0.046 A 
HETATM    6  C6  UNL     1     -33.608  15.869  -4.793  1.00 20.00     0.000 A 
HETATM    7  C7  UNL     1     -34.431  15.380  -5.803  1.00 20.00     0.086 A 
HETATM    8  C8  UNL     1     -34.054  17.479  -6.283  1.00 20.00     0.050 A 
HETATM    9  C9  UNL     1     -34.207  18.677  -7.120  1.00 20.00     0.077 C 
HETATM   10  O10 UNL     1     -34.700  16.362  -6.709  1.00 20.00    -0.315 OA
ENDROOT
TORSDOF 0
ENDMDL
