MODEL 1
REMARK VINA RESULT:      -5.4      0.000      0.000
REMARK  1 active torsions:
REMARK  status: ('A' for Active; 'I' for Inactive)
REMARK    1  A    between atoms: C6_6  and  O8_8 
ROOT
HETATM    1  C1  UNL     1     -35.123   4.707   6.043  1.00 20.00     0.000 A 
HETATM    2  C2  UNL     1     -35.289   4.408   4.690  1.00 20.00     0.003 A 
HETATM    3  C3  UNL     1     -34.322   5.781   6.426  1.00 20.00     0.003 A 
HETATM    4  C4  UNL     1     -34.655   5.185   3.721  1.00 20.00     0.037 A 
HETATM    5  C5  UNL     1     -33.687   6.558   5.457  1.00 20.00     0.037 A 
HETATM    6  C6  UNL     1     -33.853   6.260   4.105  1.00 20.00     0.068 A 
ENDROOT
BRANCH   6   7
HETATM    7  O8  UNL     1     -33.231   7.017   3.160  1.00 20.00    -0.356 OA
HETATM    8  C7  UNL     1     -31.834   7.250   3.331  1.00 20.00     0.210 C 
ENDBRANCH   6   7
TORSDOF 1
ENDMDL
MODEL 2
REMARK VINA RESULT:      -5.4      0.020      1.708
REMARK  1 active torsions:
REMARK  status: ('A' for Active; 'I' for Inactive)
REMARK    1  A    between atoms: C6_6  and  O8_8 
ROOT
HETATM    1  C1  UNL     1     -35.122   4.691   6.031  1.00 20.00     0.000 A 
HETATM    2  C2  UNL     1     -34.323   5.768   6.416  1.00 20.00     0.003 A 
HETATM    3  C3  UNL     1     -35.292   4.398   4.678  1.00 20.00     0.003 A 
HETATM    4  C4  UNL     1     -33.693   6.550   5.448  1.00 20.00     0.037 A 
HETATM    5  C5  UNL     1     -34.663   5.180   3.710  1.00 20.00     0.037 A 
HETATM    6  C6  UNL     1     -33.863   6.257   4.096  1.00 20.00     0.068 A 
ENDROOT
BRANCH   6   7
HETATM    7  O8  UNL     1     -33.251   7.021   3.151  1.00 20.00    -0.356 OA
HETATM    8  C7  UNL     1     -31.858   7.275   3.324  1.00 20.00     0.210 C 
ENDBRANCH   6   7
TORSDOF 1
ENDMDL
MODEL 3
REMARK VINA RESULT:      -4.0      1.424      2.346
REMARK  1 active torsions:
REMARK  status: ('A' for Active; 'I' for Inactive)
REMARK    1  A    between atoms: C6_6  and  O8_8 
ROOT
HETATM    1  C1  UNL     1     -35.323   4.274   4.443  1.00 20.00     0.000 A 
HETATM    2  C2  UNL     1     -34.762   5.268   3.642  1.00 20.00     0.003 A 
HETATM    3  C3  UNL     1     -35.118   4.293   5.823  1.00 20.00     0.003 A 
HETATM    4  C4  UNL     1     -33.997   6.281   4.220  1.00 20.00     0.037 A 
HETATM    5  C5  UNL     1     -34.353   5.305   6.401  1.00 20.00     0.037 A 
HETATM    6  C6  UNL     1     -33.792   6.300   5.599  1.00 20.00     0.068 A 
ENDROOT
BRANCH   6   7
HETATM    7  O8  UNL     1     -33.043   7.286   6.163  1.00 20.00    -0.356 OA
HETATM    8  C7  UNL     1     -33.474   7.784   7.429  1.00 20.00     0.210 C 
ENDBRANCH   6   7
TORSDOF 1
ENDMDL
MODEL 4
REMARK VINA RESULT:      -4.0      1.452      2.572
REMARK  1 active torsions:
REMARK  status: ('A' for Active; 'I' for Inactive)
REMARK    1  A    between atoms: C6_6  and  O8_8 
ROOT
HETATM    1  C1  UNL     1     -35.346   4.287   4.433  1.00 20.00     0.000 A 
HETATM    2  C2  UNL     1     -35.122   4.255   5.809  1.00 20.00     0.003 A 
HETATM    3  C3  UNL     1     -34.791   5.306   3.659  1.00 20.00     0.003 A 
HETATM    4  C4  UNL     1     -34.342   5.242   6.412  1.00 20.00     0.037 A 
HETATM    5  C5  UNL     1     -34.011   6.293   4.262  1.00 20.00     0.037 A 
HETATM    6  C6  UNL     1     -33.787   6.261   5.638  1.00 20.00     0.068 A 
ENDROOT
BRANCH   6   7
HETATM    7  O8  UNL     1     -33.028   7.226   6.226  1.00 20.00    -0.356 OA
HETATM    8  C7  UNL     1     -33.543   7.824   7.413  1.00 20.00     0.210 C 
ENDBRANCH   6   7
TORSDOF 1
ENDMDL
MODEL 5
REMARK VINA RESULT:      -3.9     11.891     12.454
REMARK  1 active torsions:
REMARK  status: ('A' for Active; 'I' for Inactive)
REMARK    1  A    between atoms: C6_6  and  O8_8 
ROOT
HETATM    1  C1  UNL     1     -33.273  14.812  -3.541  1.00 20.00     0.000 A 
HETATM    2  C2  UNL     1     -33.734  13.654  -4.168  1.00 20.00     0.003 A 
HETATM    3  C3  UNL     1     -34.183  15.729  -3.015  1.00 20.00     0.003 A 
HETATM    4  C4  UNL     1     -35.103  13.413  -4.268  1.00 20.00     0.037 A 
HETATM    5  C5  UNL     1     -35.553  15.487  -3.116  1.00 20.00     0.037 A 
HETATM    6  C6  UNL     1     -36.013  14.329  -3.743  1.00 20.00     0.068 A 
ENDROOT
BRANCH   6   7
HETATM    7  O8  UNL     1     -37.351  14.096  -3.843  1.00 20.00    -0.356 OA
HETATM    8  C7  UNL     1     -38.220  15.212  -3.661  1.00 20.00     0.210 C 
ENDBRANCH   6   7
TORSDOF 1
ENDMDL
MODEL 6
REMARK VINA RESULT:      -3.9     11.932     12.561
REMARK  1 active torsions:
REMARK  status: ('A' for Active; 'I' for Inactive)
REMARK    1  A    between atoms: C6_6  and  O8_8 
ROOT
HETATM    1  C1  UNL     1     -33.320  14.796  -3.542  1.00 20.00     0.000 A 
HETATM    2  C2  UNL     1     -34.203  15.713  -2.970  1.00 20.00     0.003 A 
HETATM    3  C3  UNL     1     -33.813  13.668  -4.197  1.00 20.00     0.003 A 
HETATM    4  C4  UNL     1     -35.579  15.501  -3.056  1.00 20.00     0.037 A 
HETATM    5  C5  UNL     1     -35.189  13.457  -4.282  1.00 20.00     0.037 A 
HETATM    6  C6  UNL     1     -36.072  14.374  -3.711  1.00 20.00     0.068 A 
ENDROOT
BRANCH   6   7
HETATM    7  O8  UNL     1     -37.415  14.165  -3.793  1.00 20.00    -0.356 OA
HETATM    8  C7  UNL     1     -38.256  15.313  -3.703  1.00 20.00     0.210 C 
ENDBRANCH   6   7
TORSDOF 1
ENDMDL
MODEL 7
REMARK VINA RESULT:      -3.9      9.712     10.741
REMARK  1 active torsions:
REMARK  status: ('A' for Active; 'I' for Inactive)
REMARK    1  A    between atoms: C6_6  and  O8_8 
ROOT
HETATM    1  C1  UNL     1     -40.681   5.741  -0.458  1.00 20.00     0.000 A 
HETATM    2  C2  UNL     1     -41.044   7.042  -0.805  1.00 20.00     0.003 A 
HETATM    3  C3  UNL     1     -41.148   4.663  -1.209  1.00 20.00     0.003 A 
HETATM    4  C4  UNL     1     -41.875   7.265  -1.903  1.00 20.00     0.037 A 
HETATM    5  C5  UNL     1     -41.979   4.886  -2.307  1.00 20.00     0.037 A 
HETATM    6  C6  UNL     1     -42.343   6.187  -2.654  1.00 20.00     0.068 A 
ENDROOT
BRANCH   6   7
HETATM    7  O8  UNL     1     -43.155   6.403  -3.724  1.00 20.00    -0.356 OA
HETATM    8  C7  UNL     1     -43.341   7.756  -4.135  1.00 20.00     0.210 C 
ENDBRANCH   6   7
TORSDOF 1
ENDMDL
MODEL 8
REMARK VINA RESULT:      -3.8      9.366     10.475
REMARK  1 active torsions:
REMARK  status: ('A' for Active; 'I' for Inactive)
REMARK    1  A    between atoms: C6_6  and  O8_8 
ROOT
HETATM    1  C1  UNL     1     -41.078   7.062  -0.855  1.00 20.00     0.000 A 
HETATM    2  C2  UNL     1     -41.947   7.245  -1.931  1.00 20.00     0.003 A 
HETATM    3  C3  UNL     1     -40.669   5.777  -0.500  1.00 20.00     0.003 A 
HETATM    4  C4  UNL     1     -42.404   6.143  -2.653  1.00 20.00     0.037 A 
HETATM    5  C5  UNL     1     -41.127   4.675  -1.222  1.00 20.00     0.037 A 
HETATM    6  C6  UNL     1     -41.995   4.858  -2.299  1.00 20.00     0.068 A 
ENDROOT
BRANCH   6   7
HETATM    7  O8  UNL     1     -42.443   3.782  -3.001  1.00 20.00    -0.356 OA
HETATM    8  C7  UNL     1     -41.568   2.660  -3.098  1.00 20.00     0.210 C 
ENDBRANCH   6   7
TORSDOF 1
ENDMDL
MODEL 9
REMARK VINA RESULT:      -3.8      1.129      2.166
REMARK  1 active torsions:
REMARK  status: ('A' for Active; 'I' for Inactive)
REMARK    1  A    between atoms: C6_6  and  O8_8 
ROOT
HETATM    1  C1  UNL     1     -34.787   5.359   6.735  1.00 20.00     0.000 A 
HETATM    2  C2  UNL     1     -34.004   6.465   6.401  1.00 20.00     0.003 A 
HETATM    3  C3  UNL     1     -35.173   4.454   5.747  1.00 20.00     0.003 A 
HETATM    4  C4  UNL     1     -33.607   6.664   5.080  1.00 20.00     0.037 A 
HETATM    5  C5  UNL     1     -34.775   4.654   4.425  1.00 20.00     0.037 A 
HETATM    6  C6  UNL     1     -33.992   5.759   4.091  1.00 20.00     0.068 A 
ENDROOT
BRANCH   6   7
HETATM    7  O8  UNL     1     -33.607   5.954   2.801  1.00 20.00    -0.356 OA
HETATM    8  C7  UNL     1     -33.995   4.963   1.851  1.00 20.00     0.210 C 
ENDBRANCH   6   7
TORSDOF 1
ENDMDL
