MODEL 1
REMARK VINA RESULT:      -5.9      0.000      0.000
REMARK  2 active torsions:
REMARK  status: ('A' for Active; 'I' for Inactive)
REMARK    1  A    between atoms: C6_6  and  C9_9 
REMARK    2  A    between atoms: C9_9  and  C10_10 
ROOT
HETATM    1  C1  UNL     1     -35.129   4.901   6.296  1.00 20.00     0.000 A 
HETATM    2  C2  UNL     1     -35.254   4.246   5.070  1.00 20.00     0.001 A 
HETATM    3  C3  UNL     1     -34.317   6.029   6.403  1.00 20.00     0.001 A 
HETATM    4  C4  UNL     1     -34.567   4.719   3.953  1.00 20.00     0.007 A 
HETATM    5  C5  UNL     1     -33.629   6.503   5.286  1.00 20.00     0.007 A 
HETATM    6  C6  UNL     1     -33.754   5.848   4.061  1.00 20.00    -0.058 A 
ENDROOT
BRANCH   6   7
HETATM    7  C9  UNL     1     -33.009   6.361   2.852  1.00 20.00     0.042 C 
BRANCH   7   8
HETATM    8  C10 UNL     1     -32.353   7.740   3.064  1.00 20.00    -0.019 C 
HETATM    9  C7  UNL     1     -31.030   7.635   3.826  1.00 20.00     0.010 C 
HETATM   10  C8  UNL     1     -32.115   8.414   1.711  1.00 20.00     0.010 C 
ENDBRANCH   7   8
ENDBRANCH   6   7
TORSDOF 2
ENDMDL
MODEL 2
REMARK VINA RESULT:      -5.9      0.010      1.528
REMARK  2 active torsions:
REMARK  status: ('A' for Active; 'I' for Inactive)
REMARK    1  A    between atoms: C6_6  and  C9_9 
REMARK    2  A    between atoms: C9_9  and  C10_10 
ROOT
HETATM    1  C1  UNL     1     -35.128   4.893   6.300  1.00 20.00     0.000 A 
HETATM    2  C2  UNL     1     -34.321   6.026   6.407  1.00 20.00     0.001 A 
HETATM    3  C3  UNL     1     -35.246   4.235   5.076  1.00 20.00     0.001 A 
HETATM    4  C4  UNL     1     -33.632   6.500   5.291  1.00 20.00     0.007 A 
HETATM    5  C5  UNL     1     -34.559   4.709   3.959  1.00 20.00     0.007 A 
HETATM    6  C6  UNL     1     -33.752   5.842   4.067  1.00 20.00    -0.058 A 
ENDROOT
BRANCH   6   7
HETATM    7  C9  UNL     1     -33.007   6.355   2.858  1.00 20.00     0.042 C 
BRANCH   7   8
HETATM    8  C10 UNL     1     -32.356   7.737   3.067  1.00 20.00    -0.019 C 
HETATM    9  C7  UNL     1     -31.034   7.639   3.830  1.00 20.00     0.010 C 
HETATM   10  C8  UNL     1     -32.121   8.409   1.713  1.00 20.00     0.010 C 
ENDBRANCH   7   8
ENDBRANCH   6   7
TORSDOF 2
ENDMDL
MODEL 3
REMARK VINA RESULT:      -4.9     11.411     12.099
REMARK  2 active torsions:
REMARK  status: ('A' for Active; 'I' for Inactive)
REMARK    1  A    between atoms: C6_6  and  C9_9 
REMARK    2  A    between atoms: C9_9  and  C10_10 
ROOT
HETATM    1  C1  UNL     1     -34.568  13.472  -4.329  1.00 20.00     0.000 A 
HETATM    2  C2  UNL     1     -35.855  13.959  -4.097  1.00 20.00     0.001 A 
HETATM    3  C3  UNL     1     -33.466  14.136  -3.792  1.00 20.00     0.001 A 
HETATM    4  C4  UNL     1     -36.039  15.108  -3.330  1.00 20.00     0.007 A 
HETATM    5  C5  UNL     1     -33.649  15.286  -3.024  1.00 20.00     0.007 A 
HETATM    6  C6  UNL     1     -34.935  15.772  -2.793  1.00 20.00    -0.058 A 
ENDROOT
BRANCH   6   7
HETATM    7  C9  UNL     1     -35.133  17.017  -1.962  1.00 20.00     0.042 C 
BRANCH   7   8
HETATM    8  C10 UNL     1     -34.256  17.066  -0.695  1.00 20.00    -0.019 C 
HETATM    9  C7  UNL     1     -33.196  18.167  -0.774  1.00 20.00     0.010 C 
HETATM   10  C8  UNL     1     -35.137  17.286   0.537  1.00 20.00     0.010 C 
ENDBRANCH   7   8
ENDBRANCH   6   7
TORSDOF 2
ENDMDL
MODEL 4
REMARK VINA RESULT:      -4.8     11.334     12.624
REMARK  2 active torsions:
REMARK  status: ('A' for Active; 'I' for Inactive)
REMARK    1  A    between atoms: C6_6  and  C9_9 
REMARK    2  A    between atoms: C9_9  and  C10_10 
ROOT
HETATM    1  C1  UNL     1     -34.814  13.847  -5.900  1.00 20.00     0.000 A 
HETATM    2  C2  UNL     1     -34.917  13.315  -4.614  1.00 20.00     0.001 A 
HETATM    3  C3  UNL     1     -34.360  15.154  -6.079  1.00 20.00     0.001 A 
HETATM    4  C4  UNL     1     -34.566  14.089  -3.509  1.00 20.00     0.007 A 
HETATM    5  C5  UNL     1     -34.010  15.929  -4.974  1.00 20.00     0.007 A 
HETATM    6  C6  UNL     1     -34.113  15.396  -3.689  1.00 20.00    -0.058 A 
ENDROOT
BRANCH   6   7
HETATM    7  C9  UNL     1     -33.733  16.236  -2.493  1.00 20.00     0.042 C 
BRANCH   7   8
HETATM    8  C10 UNL     1     -34.901  16.502  -1.522  1.00 20.00    -0.019 C 
HETATM    9  C7  UNL     1     -34.435  17.192  -0.239  1.00 20.00     0.010 C 
HETATM   10  C8  UNL     1     -35.962  17.362  -2.213  1.00 20.00     0.010 C 
ENDBRANCH   7   8
ENDBRANCH   6   7
TORSDOF 2
ENDMDL
MODEL 5
REMARK VINA RESULT:      -4.8     11.261     12.606
REMARK  2 active torsions:
REMARK  status: ('A' for Active; 'I' for Inactive)
REMARK    1  A    between atoms: C6_6  and  C9_9 
REMARK    2  A    between atoms: C9_9  and  C10_10 
ROOT
HETATM    1  C1  UNL     1     -34.808  13.751  -5.791  1.00 20.00     0.000 A 
HETATM    2  C2  UNL     1     -34.401  15.066  -6.022  1.00 20.00     0.001 A 
HETATM    3  C3  UNL     1     -34.868  13.260  -4.488  1.00 20.00     0.001 A 
HETATM    4  C4  UNL     1     -34.056  15.888  -4.950  1.00 20.00     0.007 A 
HETATM    5  C5  UNL     1     -34.522  14.081  -3.415  1.00 20.00     0.007 A 
HETATM    6  C6  UNL     1     -34.116  15.395  -3.647  1.00 20.00    -0.058 A 
ENDROOT
BRANCH   6   7
HETATM    7  C9  UNL     1     -33.741  16.284  -2.485  1.00 20.00     0.042 C 
BRANCH   7   8
HETATM    8  C10 UNL     1     -34.900  16.545  -1.502  1.00 20.00    -0.019 C 
HETATM    9  C7  UNL     1     -34.429  17.274  -0.241  1.00 20.00     0.010 C 
HETATM   10  C8  UNL     1     -35.991  17.366  -2.193  1.00 20.00     0.010 C 
ENDBRANCH   7   8
ENDBRANCH   6   7
TORSDOF 2
ENDMDL
MODEL 6
REMARK VINA RESULT:      -4.8      9.909     11.424
REMARK  2 active torsions:
REMARK  status: ('A' for Active; 'I' for Inactive)
REMARK    1  A    between atoms: C6_6  and  C9_9 
REMARK    2  A    between atoms: C9_9  and  C10_10 
ROOT
HETATM    1  C1  UNL     1     -41.037   6.840  -0.880  1.00 20.00     0.000 A 
HETATM    2  C2  UNL     1     -41.932   7.136  -1.910  1.00 20.00     0.001 A 
HETATM    3  C3  UNL     1     -40.694   5.514  -0.616  1.00 20.00     0.001 A 
HETATM    4  C4  UNL     1     -42.481   6.107  -2.674  1.00 20.00     0.007 A 
HETATM    5  C5  UNL     1     -41.243   4.485  -1.380  1.00 20.00     0.007 A 
HETATM    6  C6  UNL     1     -42.137   4.782  -2.409  1.00 20.00    -0.058 A 
ENDROOT
BRANCH   6   7
HETATM    7  C9  UNL     1     -42.731   3.667  -3.236  1.00 20.00     0.042 C 
BRANCH   7   8
HETATM    8  C10 UNL     1     -42.170   2.272  -2.896  1.00 20.00    -0.019 C 
HETATM    9  C7  UNL     1     -43.281   1.265  -2.589  1.00 20.00     0.010 C 
HETATM   10  C8  UNL     1     -41.318   1.759  -4.059  1.00 20.00     0.010 C 
ENDBRANCH   7   8
ENDBRANCH   6   7
TORSDOF 2
ENDMDL
MODEL 7
REMARK VINA RESULT:      -4.7     11.371     12.438
REMARK  2 active torsions:
REMARK  status: ('A' for Active; 'I' for Inactive)
REMARK    1  A    between atoms: C6_6  and  C9_9 
REMARK    2  A    between atoms: C9_9  and  C10_10 
ROOT
HETATM    1  C1  UNL     1     -33.499  18.640   1.043  1.00 20.00     0.000 A 
HETATM    2  C2  UNL     1     -34.656  17.866   1.147  1.00 20.00     0.001 A 
HETATM    3  C3  UNL     1     -32.733  18.593  -0.120  1.00 20.00     0.001 A 
HETATM    4  C4  UNL     1     -35.045  17.047   0.088  1.00 20.00     0.007 A 
HETATM    5  C5  UNL     1     -33.121  17.773  -1.180  1.00 20.00     0.007 A 
HETATM    6  C6  UNL     1     -34.277  17.001  -1.076  1.00 20.00    -0.058 A 
ENDROOT
BRANCH   6   7
HETATM    7  C9  UNL     1     -34.697  16.114  -2.223  1.00 20.00     0.042 C 
BRANCH   7   8
HETATM    8  C10 UNL     1     -33.534  15.691  -3.142  1.00 20.00    -0.019 C 
HETATM    9  C7  UNL     1     -33.620  14.214  -3.534  1.00 20.00     0.010 C 
HETATM   10  C8  UNL     1     -33.527  16.559  -4.402  1.00 20.00     0.010 C 
ENDBRANCH   7   8
ENDBRANCH   6   7
TORSDOF 2
ENDMDL
MODEL 8
REMARK VINA RESULT:      -4.6     11.488     12.465
REMARK  2 active torsions:
REMARK  status: ('A' for Active; 'I' for Inactive)
REMARK    1  A    between atoms: C6_6  and  C9_9 
REMARK    2  A    between atoms: C9_9  and  C10_10 
ROOT
HETATM    1  C1  UNL     1     -33.983  18.427   1.453  1.00 20.00     0.000 A 
HETATM    2  C2  UNL     1     -32.947  18.780   0.588  1.00 20.00     0.001 A 
HETATM    3  C3  UNL     1     -34.968  17.534   1.032  1.00 20.00     0.001 A 
HETATM    4  C4  UNL     1     -32.896  18.240  -0.697  1.00 20.00     0.007 A 
HETATM    5  C5  UNL     1     -34.919  16.995  -0.253  1.00 20.00     0.007 A 
HETATM    6  C6  UNL     1     -33.883  17.348  -1.117  1.00 20.00    -0.058 A 
ENDROOT
BRANCH   6   7
HETATM    7  C9  UNL     1     -33.829  16.764  -2.509  1.00 20.00     0.042 C 
BRANCH   7   8
HETATM    8  C10 UNL     1     -34.582  15.426  -2.651  1.00 20.00    -0.019 C 
HETATM    9  C7  UNL     1     -35.959  15.607  -3.294  1.00 20.00     0.010 C 
HETATM   10  C8  UNL     1     -33.749  14.450  -3.486  1.00 20.00     0.010 C 
ENDBRANCH   7   8
ENDBRANCH   6   7
TORSDOF 2
ENDMDL
MODEL 9
REMARK VINA RESULT:      -4.6     11.387     12.492
REMARK  2 active torsions:
REMARK  status: ('A' for Active; 'I' for Inactive)
REMARK    1  A    between atoms: C6_6  and  C9_9 
REMARK    2  A    between atoms: C9_9  and  C10_10 
ROOT
HETATM    1  C1  UNL     1     -34.060  18.453   0.641  1.00 20.00     0.000 A 
HETATM    2  C2  UNL     1     -34.806  17.287   0.462  1.00 20.00     0.001 A 
HETATM    3  C3  UNL     1     -33.294  18.957  -0.409  1.00 20.00     0.001 A 
HETATM    4  C4  UNL     1     -34.786  16.628  -0.766  1.00 20.00     0.007 A 
HETATM    5  C5  UNL     1     -33.273  18.298  -1.638  1.00 20.00     0.007 A 
HETATM    6  C6  UNL     1     -34.019  17.133  -1.816  1.00 20.00    -0.058 A 
ENDROOT
BRANCH   6   7
HETATM    7  C9  UNL     1     -33.996  16.419  -3.147  1.00 20.00     0.042 C 
BRANCH   7   8
HETATM    8  C10 UNL     1     -34.424  14.940  -3.067  1.00 20.00    -0.019 C 
HETATM    9  C7  UNL     1     -35.777  14.698  -3.739  1.00 20.00     0.010 C 
HETATM   10  C8  UNL     1     -33.359  14.057  -3.721  1.00 20.00     0.010 C 
ENDBRANCH   7   8
ENDBRANCH   6   7
TORSDOF 2
ENDMDL
