MODEL 1
REMARK VINA RESULT:      -6.1      0.000      0.000
REMARK  2 active torsions:
REMARK  status: ('A' for Active; 'I' for Inactive)
REMARK    1  A    between atoms: C6_6  and  C8_8 
REMARK    2  A    between atoms: C8_8  and  C9_9 
ROOT
HETATM    1  C1  UNL     1     -35.060   5.062   6.389  1.00 20.00     0.000 A 
HETATM    2  C2  UNL     1     -34.190   6.151   6.400  1.00 20.00     0.001 A 
HETATM    3  C3  UNL     1     -35.283   4.359   5.205  1.00 20.00     0.001 A 
HETATM    4  C4  UNL     1     -33.542   6.538   5.228  1.00 20.00     0.007 A 
HETATM    5  C5  UNL     1     -34.636   4.747   4.032  1.00 20.00     0.007 A 
HETATM    6  C6  UNL     1     -33.765   5.837   4.043  1.00 20.00    -0.058 A 
ENDROOT
BRANCH   6   7
HETATM    7  C8  UNL     1     -33.073   6.251   2.788  1.00 20.00     0.038 C 
BRANCH   7   8
HETATM    8  C9  UNL     1     -32.038   7.358   3.037  1.00 20.00     0.000 C 
HETATM    9  C7  UNL     1     -32.027   8.389   1.920  1.00 20.00     0.005 C 
ENDBRANCH   7   8
ENDBRANCH   6   7
TORSDOF 2
ENDMDL
MODEL 2
REMARK VINA RESULT:      -6.1      0.008      1.611
REMARK  2 active torsions:
REMARK  status: ('A' for Active; 'I' for Inactive)
REMARK    1  A    between atoms: C6_6  and  C8_8 
REMARK    2  A    between atoms: C8_8  and  C9_9 
ROOT
HETATM    1  C1  UNL     1     -35.067   5.066   6.387  1.00 20.00     0.000 A 
HETATM    2  C2  UNL     1     -35.290   4.366   5.202  1.00 20.00     0.001 A 
HETATM    3  C3  UNL     1     -34.193   6.153   6.402  1.00 20.00     0.001 A 
HETATM    4  C4  UNL     1     -34.640   4.753   4.031  1.00 20.00     0.007 A 
HETATM    5  C5  UNL     1     -33.542   6.540   5.231  1.00 20.00     0.007 A 
HETATM    6  C6  UNL     1     -33.766   5.840   4.045  1.00 20.00    -0.058 A 
ENDROOT
BRANCH   6   7
HETATM    7  C8  UNL     1     -33.070   6.254   2.792  1.00 20.00     0.038 C 
BRANCH   7   8
HETATM    8  C9  UNL     1     -32.042   7.369   3.044  1.00 20.00     0.000 C 
HETATM    9  C7  UNL     1     -32.028   8.394   1.922  1.00 20.00     0.005 C 
ENDBRANCH   7   8
ENDBRANCH   6   7
TORSDOF 2
ENDMDL
MODEL 3
REMARK VINA RESULT:      -4.6     11.493     12.101
REMARK  2 active torsions:
REMARK  status: ('A' for Active; 'I' for Inactive)
REMARK    1  A    between atoms: C6_6  and  C8_8 
REMARK    2  A    between atoms: C8_8  and  C9_9 
ROOT
HETATM    1  C1  UNL     1     -35.070  13.354  -4.418  1.00 20.00     0.000 A 
HETATM    2  C2  UNL     1     -33.722  13.558  -4.127  1.00 20.00     0.001 A 
HETATM    3  C3  UNL     1     -36.031  14.238  -3.928  1.00 20.00     0.001 A 
HETATM    4  C4  UNL     1     -33.333  14.645  -3.346  1.00 20.00     0.007 A 
HETATM    5  C5  UNL     1     -35.643  15.326  -3.145  1.00 20.00     0.007 A 
HETATM    6  C6  UNL     1     -34.294  15.530  -2.855  1.00 20.00    -0.058 A 
ENDROOT
BRANCH   6   7
HETATM    7  C8  UNL     1     -33.879  16.693  -2.018  1.00 20.00     0.038 C 
BRANCH   7   8
HETATM    8  C9  UNL     1     -34.616  16.728  -0.670  1.00 20.00     0.000 C 
HETATM    9  C7  UNL     1     -34.186  17.908   0.185  1.00 20.00     0.005 C 
ENDBRANCH   7   8
ENDBRANCH   6   7
TORSDOF 2
ENDMDL
MODEL 4
REMARK VINA RESULT:      -4.5     11.494     12.116
REMARK  2 active torsions:
REMARK  status: ('A' for Active; 'I' for Inactive)
REMARK    1  A    between atoms: C6_6  and  C8_8 
REMARK    2  A    between atoms: C8_8  and  C9_9 
ROOT
HETATM    1  C1  UNL     1     -35.054  13.325  -4.427  1.00 20.00     0.000 A 
HETATM    2  C2  UNL     1     -36.025  14.197  -3.938  1.00 20.00     0.001 A 
HETATM    3  C3  UNL     1     -33.707  13.548  -4.140  1.00 20.00     0.001 A 
HETATM    4  C4  UNL     1     -35.651  15.293  -3.162  1.00 20.00     0.007 A 
HETATM    5  C5  UNL     1     -33.333  14.645  -3.363  1.00 20.00     0.007 A 
HETATM    6  C6  UNL     1     -34.305  15.517  -2.874  1.00 20.00    -0.058 A 
ENDROOT
BRANCH   6   7
HETATM    7  C8  UNL     1     -33.904  16.689  -2.043  1.00 20.00     0.038 C 
BRANCH   7   8
HETATM    8  C9  UNL     1     -34.632  16.716  -0.690  1.00 20.00     0.000 C 
HETATM    9  C7  UNL     1     -34.180  17.879   0.178  1.00 20.00     0.005 C 
ENDBRANCH   7   8
ENDBRANCH   6   7
TORSDOF 2
ENDMDL
MODEL 5
REMARK VINA RESULT:      -4.3     11.475     12.778
REMARK  2 active torsions:
REMARK  status: ('A' for Active; 'I' for Inactive)
REMARK    1  A    between atoms: C6_6  and  C8_8 
REMARK    2  A    between atoms: C8_8  and  C9_9 
ROOT
HETATM    1  C1  UNL     1     -34.837  13.899  -5.860  1.00 20.00     0.000 A 
HETATM    2  C2  UNL     1     -34.821  13.352  -4.577  1.00 20.00     0.001 A 
HETATM    3  C3  UNL     1     -34.470  15.230  -6.055  1.00 20.00     0.001 A 
HETATM    4  C4  UNL     1     -34.438  14.136  -3.490  1.00 20.00     0.007 A 
HETATM    5  C5  UNL     1     -34.087  16.015  -4.968  1.00 20.00     0.007 A 
HETATM    6  C6  UNL     1     -34.071  15.467  -3.684  1.00 20.00    -0.058 A 
ENDROOT
BRANCH   6   7
HETATM    7  C8  UNL     1     -33.661  16.307  -2.521  1.00 20.00     0.038 C 
BRANCH   7   8
HETATM    8  C9  UNL     1     -34.716  16.300  -1.403  1.00 20.00     0.000 C 
HETATM    9  C7  UNL     1     -34.423  17.343  -0.337  1.00 20.00     0.005 C 
ENDBRANCH   7   8
ENDBRANCH   6   7
TORSDOF 2
ENDMDL
MODEL 6
REMARK VINA RESULT:      -4.3     11.531     12.790
REMARK  2 active torsions:
REMARK  status: ('A' for Active; 'I' for Inactive)
REMARK    1  A    between atoms: C6_6  and  C8_8 
REMARK    2  A    between atoms: C8_8  and  C9_9 
ROOT
HETATM    1  C1  UNL     1     -34.808  13.937  -6.056  1.00 20.00     0.000 A 
HETATM    2  C2  UNL     1     -34.457  15.281  -6.171  1.00 20.00     0.001 A 
HETATM    3  C3  UNL     1     -34.782  13.314  -4.808  1.00 20.00     0.001 A 
HETATM    4  C4  UNL     1     -34.080  16.004  -5.040  1.00 20.00     0.007 A 
HETATM    5  C5  UNL     1     -34.405  14.036  -3.676  1.00 20.00     0.007 A 
HETATM    6  C6  UNL     1     -34.054  15.381  -3.792  1.00 20.00    -0.058 A 
ENDROOT
BRANCH   6   7
HETATM    7  C8  UNL     1     -33.650  16.153  -2.581  1.00 20.00     0.038 C 
BRANCH   7   8
HETATM    8  C9  UNL     1     -34.781  16.233  -1.543  1.00 20.00     0.000 C 
HETATM    9  C7  UNL     1     -34.436  17.169  -0.396  1.00 20.00     0.005 C 
ENDBRANCH   7   8
ENDBRANCH   6   7
TORSDOF 2
ENDMDL
MODEL 7
REMARK VINA RESULT:      -4.3      9.676     10.899
REMARK  2 active torsions:
REMARK  status: ('A' for Active; 'I' for Inactive)
REMARK    1  A    between atoms: C6_6  and  C8_8 
REMARK    2  A    between atoms: C8_8  and  C9_9 
ROOT
HETATM    1  C1  UNL     1     -41.070   7.043  -0.888  1.00 20.00     0.000 A 
HETATM    2  C2  UNL     1     -41.959   7.214  -1.948  1.00 20.00     0.001 A 
HETATM    3  C3  UNL     1     -40.655   5.762  -0.525  1.00 20.00     0.001 A 
HETATM    4  C4  UNL     1     -42.434   6.105  -2.646  1.00 20.00     0.007 A 
HETATM    5  C5  UNL     1     -41.130   4.651  -1.222  1.00 20.00     0.007 A 
HETATM    6  C6  UNL     1     -42.020   4.823  -2.284  1.00 20.00    -0.058 A 
ENDROOT
BRANCH   6   7
HETATM    7  C8  UNL     1     -42.527   3.635  -3.029  1.00 20.00     0.038 C 
BRANCH   7   8
HETATM    8  C9  UNL     1     -41.464   2.533  -3.154  1.00 20.00     0.000 C 
HETATM    9  C7  UNL     1     -41.793   1.546  -4.262  1.00 20.00     0.005 C 
ENDBRANCH   7   8
ENDBRANCH   6   7
TORSDOF 2
ENDMDL
MODEL 8
REMARK VINA RESULT:      -4.2     11.732     12.582
REMARK  2 active torsions:
REMARK  status: ('A' for Active; 'I' for Inactive)
REMARK    1  A    between atoms: C6_6  and  C8_8 
REMARK    2  A    between atoms: C8_8  and  C9_9 
ROOT
HETATM    1  C1  UNL     1     -33.374  18.932   1.411  1.00 20.00     0.000 A 
HETATM    2  C2  UNL     1     -34.559  18.231   1.626  1.00 20.00     0.001 A 
HETATM    3  C3  UNL     1     -32.675  18.772   0.214  1.00 20.00     0.001 A 
HETATM    4  C4  UNL     1     -35.047  17.369   0.644  1.00 20.00     0.007 A 
HETATM    5  C5  UNL     1     -33.163  17.910  -0.768  1.00 20.00     0.007 A 
HETATM    6  C6  UNL     1     -34.350  17.209  -0.553  1.00 20.00    -0.058 A 
ENDROOT
BRANCH   6   7
HETATM    7  C8  UNL     1     -34.871  16.287  -1.603  1.00 20.00     0.038 C 
BRANCH   7   8
HETATM    8  C9  UNL     1     -33.830  16.013  -2.700  1.00 20.00     0.000 C 
HETATM    9  C7  UNL     1     -34.084  14.694  -3.411  1.00 20.00     0.005 C 
ENDBRANCH   7   8
ENDBRANCH   6   7
TORSDOF 2
ENDMDL
MODEL 9
REMARK VINA RESULT:      -4.2     11.781     12.568
REMARK  2 active torsions:
REMARK  status: ('A' for Active; 'I' for Inactive)
REMARK    1  A    between atoms: C6_6  and  C8_8 
REMARK    2  A    between atoms: C8_8  and  C9_9 
ROOT
HETATM    1  C1  UNL     1     -33.429  18.965   1.399  1.00 20.00     0.000 A 
HETATM    2  C2  UNL     1     -32.709  18.812   0.216  1.00 20.00     0.001 A 
HETATM    3  C3  UNL     1     -34.600  18.234   1.603  1.00 20.00     0.001 A 
HETATM    4  C4  UNL     1     -33.156  17.927  -0.764  1.00 20.00     0.007 A 
HETATM    5  C5  UNL     1     -35.048  17.348   0.623  1.00 20.00     0.007 A 
HETATM    6  C6  UNL     1     -34.326  17.194  -0.561  1.00 20.00    -0.058 A 
ENDROOT
BRANCH   6   7
HETATM    7  C8  UNL     1     -34.806  16.247  -1.608  1.00 20.00     0.038 C 
BRANCH   7   8
HETATM    8  C9  UNL     1     -33.763  16.034  -2.716  1.00 20.00     0.000 C 
HETATM    9  C7  UNL     1     -34.006  14.747  -3.487  1.00 20.00     0.005 C 
ENDBRANCH   7   8
ENDBRANCH   6   7
TORSDOF 2
ENDMDL
