MODEL 1
REMARK VINA RESULT:      -5.7      0.000      0.000
REMARK  0 active torsions:
REMARK  status: ('A' for Active; 'I' for Inactive)
ROOT
HETATM    1  C1  UNL     1     -35.162   4.864   5.982  1.00 20.00     0.000 A 
HETATM    2  C2  UNL     1     -34.300   5.875   6.407  1.00 20.00     0.001 A 
HETATM    3  C3  UNL     1     -35.239   4.538   4.627  1.00 20.00     0.001 A 
HETATM    4  C4  UNL     1     -33.515   6.559   5.479  1.00 20.00     0.007 A 
HETATM    5  C5  UNL     1     -34.455   5.223   3.699  1.00 20.00     0.007 A 
HETATM    6  C6  UNL     1     -33.593   6.233   4.124  1.00 20.00    -0.062 A 
HETATM    7  C7  UNL     1     -32.756   6.965   3.131  1.00 20.00     0.048 C 
ENDROOT
TORSDOF 0
ENDMDL
MODEL 2
REMARK VINA RESULT:      -5.7      0.009      1.826
REMARK  0 active torsions:
REMARK  status: ('A' for Active; 'I' for Inactive)
ROOT
HETATM    1  C1  UNL     1     -35.158   4.869   5.979  1.00 20.00     0.000 A 
HETATM    2  C2  UNL     1     -35.240   4.546   4.624  1.00 20.00     0.001 A 
HETATM    3  C3  UNL     1     -34.292   5.878   6.403  1.00 20.00     0.001 A 
HETATM    4  C4  UNL     1     -34.457   5.230   3.694  1.00 20.00     0.007 A 
HETATM    5  C5  UNL     1     -33.509   6.562   5.473  1.00 20.00     0.007 A 
HETATM    6  C6  UNL     1     -33.592   6.239   4.119  1.00 20.00    -0.062 A 
HETATM    7  C7  UNL     1     -32.754   6.970   3.126  1.00 20.00     0.048 C 
ENDROOT
TORSDOF 0
ENDMDL
MODEL 3
REMARK VINA RESULT:      -5.5      0.919      2.146
REMARK  0 active torsions:
REMARK  status: ('A' for Active; 'I' for Inactive)
ROOT
HETATM    1  C1  UNL     1     -35.176   4.320   4.413  1.00 20.00     0.000 A 
HETATM    2  C2  UNL     1     -35.155   4.216   5.804  1.00 20.00     0.001 A 
HETATM    3  C3  UNL     1     -34.601   5.428   3.789  1.00 20.00     0.001 A 
HETATM    4  C4  UNL     1     -34.562   5.217   6.571  1.00 20.00     0.007 A 
HETATM    5  C5  UNL     1     -34.008   6.431   4.556  1.00 20.00     0.007 A 
HETATM    6  C6  UNL     1     -33.987   6.325   5.946  1.00 20.00    -0.062 A 
HETATM    7  C7  UNL     1     -33.353   7.398   6.766  1.00 20.00     0.048 C 
ENDROOT
TORSDOF 0
ENDMDL
MODEL 4
REMARK VINA RESULT:      -5.5      0.925      2.332
REMARK  0 active torsions:
REMARK  status: ('A' for Active; 'I' for Inactive)
ROOT
HETATM    1  C1  UNL     1     -35.165   4.325   4.377  1.00 20.00     0.000 A 
HETATM    2  C2  UNL     1     -34.606   5.451   3.772  1.00 20.00     0.001 A 
HETATM    3  C3  UNL     1     -35.134   4.193   5.766  1.00 20.00     0.001 A 
HETATM    4  C4  UNL     1     -34.017   6.444   4.554  1.00 20.00     0.007 A 
HETATM    5  C5  UNL     1     -34.544   5.186   6.548  1.00 20.00     0.007 A 
HETATM    6  C6  UNL     1     -33.986   6.311   5.943  1.00 20.00    -0.062 A 
HETATM    7  C7  UNL     1     -33.355   7.372   6.780  1.00 20.00     0.048 C 
ENDROOT
TORSDOF 0
ENDMDL
MODEL 5
REMARK VINA RESULT:      -4.6      0.787      3.273
REMARK  0 active torsions:
REMARK  status: ('A' for Active; 'I' for Inactive)
ROOT
HETATM    1  C1  UNL     1     -33.327   6.399   3.102  1.00 20.00     0.000 A 
HETATM    2  C2  UNL     1     -34.305   5.421   2.922  1.00 20.00     0.001 A 
HETATM    3  C3  UNL     1     -32.974   6.803   4.390  1.00 20.00     0.001 A 
HETATM    4  C4  UNL     1     -34.930   4.847   4.029  1.00 20.00     0.007 A 
HETATM    5  C5  UNL     1     -33.600   6.230   5.497  1.00 20.00     0.007 A 
HETATM    6  C6  UNL     1     -34.577   5.252   5.317  1.00 20.00    -0.062 A 
HETATM    7  C7  UNL     1     -35.246   4.640   6.501  1.00 20.00     0.048 C 
ENDROOT
TORSDOF 0
ENDMDL
MODEL 6
REMARK VINA RESULT:      -4.6      0.795      2.731
REMARK  0 active torsions:
REMARK  status: ('A' for Active; 'I' for Inactive)
ROOT
HETATM    1  C1  UNL     1     -33.297   6.390   3.069  1.00 20.00     0.000 A 
HETATM    2  C2  UNL     1     -32.930   6.803   4.350  1.00 20.00     0.001 A 
HETATM    3  C3  UNL     1     -34.297   5.431   2.907  1.00 20.00     0.001 A 
HETATM    4  C4  UNL     1     -33.563   6.259   5.468  1.00 20.00     0.007 A 
HETATM    5  C5  UNL     1     -34.929   4.885   4.024  1.00 20.00     0.007 A 
HETATM    6  C6  UNL     1     -34.562   5.299   5.304  1.00 20.00    -0.062 A 
HETATM    7  C7  UNL     1     -35.238   4.715   6.498  1.00 20.00     0.048 C 
ENDROOT
TORSDOF 0
ENDMDL
MODEL 7
REMARK VINA RESULT:      -4.0      8.952     10.001
REMARK  0 active torsions:
REMARK  status: ('A' for Active; 'I' for Inactive)
ROOT
HETATM    1  C1  UNL     1     -41.188   7.200  -0.843  1.00 20.00     0.000 A 
HETATM    2  C2  UNL     1     -40.649   6.053  -0.259  1.00 20.00     0.001 A 
HETATM    3  C3  UNL     1     -41.965   7.095  -1.997  1.00 20.00     0.001 A 
HETATM    4  C4  UNL     1     -40.887   4.803  -0.829  1.00 20.00     0.007 A 
HETATM    5  C5  UNL     1     -42.202   5.844  -2.567  1.00 20.00     0.007 A 
HETATM    6  C6  UNL     1     -41.663   4.698  -1.983  1.00 20.00    -0.062 A 
HETATM    7  C7  UNL     1     -41.917   3.362  -2.594  1.00 20.00     0.048 C 
ENDROOT
TORSDOF 0
ENDMDL
MODEL 8
REMARK VINA RESULT:      -4.0      0.818      2.662
REMARK  0 active torsions:
REMARK  status: ('A' for Active; 'I' for Inactive)
ROOT
HETATM    1  C1  UNL     1     -32.937   7.347   5.144  1.00 20.00     0.000 A 
HETATM    2  C2  UNL     1     -33.522   6.932   6.340  1.00 20.00     0.001 A 
HETATM    3  C3  UNL     1     -33.147   6.615   3.975  1.00 20.00     0.001 A 
HETATM    4  C4  UNL     1     -34.315   5.786   6.369  1.00 20.00     0.007 A 
HETATM    5  C5  UNL     1     -33.940   5.467   4.003  1.00 20.00     0.007 A 
HETATM    6  C6  UNL     1     -34.524   5.053   5.199  1.00 20.00    -0.062 A 
HETATM    7  C7  UNL     1     -35.372   3.827   5.229  1.00 20.00     0.048 C 
ENDROOT
TORSDOF 0
ENDMDL
MODEL 9
REMARK VINA RESULT:      -3.8     12.046     12.383
REMARK  0 active torsions:
REMARK  status: ('A' for Active; 'I' for Inactive)
ROOT
HETATM    1  C1  UNL     1     -35.188  13.455  -4.549  1.00 20.00     0.000 A 
HETATM    2  C2  UNL     1     -33.861  13.659  -4.170  1.00 20.00     0.001 A 
HETATM    3  C3  UNL     1     -36.193  14.271  -4.030  1.00 20.00     0.001 A 
HETATM    4  C4  UNL     1     -33.539  14.678  -3.274  1.00 20.00     0.007 A 
HETATM    5  C5  UNL     1     -35.872  15.290  -3.134  1.00 20.00     0.007 A 
HETATM    6  C6  UNL     1     -34.545  15.494  -2.756  1.00 20.00    -0.062 A 
HETATM    7  C7  UNL     1     -34.202  16.583  -1.797  1.00 20.00     0.048 C 
ENDROOT
TORSDOF 0
ENDMDL
