MODEL 1
REMARK VINA RESULT:      -5.1      0.000      0.000
REMARK  0 active torsions:
REMARK  status: ('A' for Active; 'I' for Inactive)
ROOT
HETATM    1  C1  UNL     1     -32.996   6.994   4.779  1.00 20.00     0.007 A 
HETATM    2  C2  UNL     1     -33.745   6.192   5.639  1.00 20.00     0.007 A 
HETATM    3  C3  UNL     1     -33.792   5.713   2.892  1.00 20.00     0.007 A 
HETATM    4  C4  UNL     1     -34.541   4.911   3.753  1.00 20.00     0.007 A 
HETATM    5  C5  UNL     1     -33.019   6.755   3.404  1.00 20.00    -0.062 A 
HETATM    6  C6  UNL     1     -34.518   5.150   5.126  1.00 20.00    -0.062 A 
HETATM    7  C7  UNL     1     -32.219   7.612   2.483  1.00 20.00     0.048 C 
HETATM    8  C8  UNL     1     -35.317   4.292   6.048  1.00 20.00     0.048 C 
ENDROOT
TORSDOF 0
ENDMDL
MODEL 2
REMARK VINA RESULT:      -5.1      0.123      3.356
REMARK  0 active torsions:
REMARK  status: ('A' for Active; 'I' for Inactive)
ROOT
HETATM    1  C1  UNL     1     -33.742   6.222   5.734  1.00 20.00     0.007 A 
HETATM    2  C2  UNL     1     -33.004   6.998   4.839  1.00 20.00     0.007 A 
HETATM    3  C3  UNL     1     -34.608   4.923   3.891  1.00 20.00     0.007 A 
HETATM    4  C4  UNL     1     -33.871   5.699   2.996  1.00 20.00     0.007 A 
HETATM    5  C5  UNL     1     -34.544   5.185   5.259  1.00 20.00    -0.062 A 
HETATM    6  C6  UNL     1     -33.069   6.736   3.470  1.00 20.00    -0.062 A 
HETATM    7  C7  UNL     1     -35.333   4.354   6.215  1.00 20.00     0.048 C 
HETATM    8  C8  UNL     1     -32.281   7.567   2.515  1.00 20.00     0.048 C 
ENDROOT
TORSDOF 0
ENDMDL
MODEL 3
REMARK VINA RESULT:      -5.1      0.399      3.777
REMARK  0 active torsions:
REMARK  status: ('A' for Active; 'I' for Inactive)
ROOT
HETATM    1  C1  UNL     1     -34.772   4.872   4.186  1.00 20.00     0.007 A 
HETATM    2  C2  UNL     1     -34.051   5.591   3.232  1.00 20.00     0.007 A 
HETATM    3  C3  UNL     1     -33.800   6.221   5.938  1.00 20.00     0.007 A 
HETATM    4  C4  UNL     1     -33.080   6.940   4.985  1.00 20.00     0.007 A 
HETATM    5  C5  UNL     1     -34.646   5.186   5.539  1.00 20.00    -0.062 A 
HETATM    6  C6  UNL     1     -33.204   6.626   3.632  1.00 20.00    -0.062 A 
HETATM    7  C7  UNL     1     -35.417   4.418   6.559  1.00 20.00     0.048 C 
HETATM    8  C8  UNL     1     -32.433   7.393   2.612  1.00 20.00     0.048 C 
ENDROOT
TORSDOF 0
ENDMDL
MODEL 4
REMARK VINA RESULT:      -5.1      0.407      1.753
REMARK  0 active torsions:
REMARK  status: ('A' for Active; 'I' for Inactive)
ROOT
HETATM    1  C1  UNL     1     -34.063   5.593   3.237  1.00 20.00     0.007 A 
HETATM    2  C2  UNL     1     -34.780   4.854   4.178  1.00 20.00     0.007 A 
HETATM    3  C3  UNL     1     -33.115   6.931   5.011  1.00 20.00     0.007 A 
HETATM    4  C4  UNL     1     -33.832   6.192   5.952  1.00 20.00     0.007 A 
HETATM    5  C5  UNL     1     -33.231   6.632   3.653  1.00 20.00    -0.062 A 
HETATM    6  C6  UNL     1     -34.665   5.154   5.536  1.00 20.00    -0.062 A 
HETATM    7  C7  UNL     1     -32.464   7.422   2.648  1.00 20.00     0.048 C 
HETATM    8  C8  UNL     1     -35.433   4.364   6.541  1.00 20.00     0.048 C 
ENDROOT
TORSDOF 0
ENDMDL
MODEL 5
REMARK VINA RESULT:      -4.0      9.423     10.412
REMARK  0 active torsions:
REMARK  status: ('A' for Active; 'I' for Inactive)
ROOT
HETATM    1  C1  UNL     1     -40.787   5.238  -1.039  1.00 20.00     0.007 A 
HETATM    2  C2  UNL     1     -40.943   3.956  -1.567  1.00 20.00     0.007 A 
HETATM    3  C3  UNL     1     -42.540   6.048  -2.490  1.00 20.00     0.007 A 
HETATM    4  C4  UNL     1     -42.697   4.766  -3.018  1.00 20.00     0.007 A 
HETATM    5  C5  UNL     1     -41.586   6.284  -1.501  1.00 20.00    -0.062 A 
HETATM    6  C6  UNL     1     -41.898   3.720  -2.556  1.00 20.00    -0.062 A 
HETATM    7  C7  UNL     1     -41.419   7.655  -0.938  1.00 20.00     0.048 C 
HETATM    8  C8  UNL     1     -42.063   2.349  -3.120  1.00 20.00     0.048 C 
ENDROOT
TORSDOF 0
ENDMDL
MODEL 6
REMARK VINA RESULT:      -4.0      9.400     10.649
REMARK  0 active torsions:
REMARK  status: ('A' for Active; 'I' for Inactive)
ROOT
HETATM    1  C1  UNL     1     -42.677   4.836  -3.003  1.00 20.00     0.007 A 
HETATM    2  C2  UNL     1     -42.509   6.118  -2.480  1.00 20.00     0.007 A 
HETATM    3  C3  UNL     1     -40.960   4.006  -1.521  1.00 20.00     0.007 A 
HETATM    4  C4  UNL     1     -40.792   5.288  -0.998  1.00 20.00     0.007 A 
HETATM    5  C5  UNL     1     -41.902   3.780  -2.524  1.00 20.00    -0.062 A 
HETATM    6  C6  UNL     1     -41.566   6.344  -1.477  1.00 20.00    -0.062 A 
HETATM    7  C7  UNL     1     -42.082   2.409  -3.083  1.00 20.00     0.048 C 
HETATM    8  C8  UNL     1     -41.386   7.715  -0.919  1.00 20.00     0.048 C 
ENDROOT
TORSDOF 0
ENDMDL
MODEL 7
REMARK VINA RESULT:      -4.0      9.500     10.671
REMARK  0 active torsions:
REMARK  status: ('A' for Active; 'I' for Inactive)
ROOT
HETATM    1  C1  UNL     1     -40.972   4.000  -1.573  1.00 20.00     0.007 A 
HETATM    2  C2  UNL     1     -40.887   5.295  -1.063  1.00 20.00     0.007 A 
HETATM    3  C3  UNL     1     -42.753   4.699  -3.048  1.00 20.00     0.007 A 
HETATM    4  C4  UNL     1     -42.668   5.994  -2.537  1.00 20.00     0.007 A 
HETATM    5  C5  UNL     1     -41.905   3.701  -2.566  1.00 20.00    -0.062 A 
HETATM    6  C6  UNL     1     -41.735   6.292  -1.545  1.00 20.00    -0.062 A 
HETATM    7  C7  UNL     1     -41.997   2.316  -3.113  1.00 20.00     0.048 C 
HETATM    8  C8  UNL     1     -41.644   7.676  -0.997  1.00 20.00     0.048 C 
ENDROOT
TORSDOF 0
ENDMDL
MODEL 8
REMARK VINA RESULT:      -3.9     11.972     13.288
REMARK  0 active torsions:
REMARK  status: ('A' for Active; 'I' for Inactive)
ROOT
HETATM    1  C1  UNL     1     -33.588  16.669  -3.727  1.00 20.00     0.007 A 
HETATM    2  C2  UNL     1     -33.537  16.355  -5.085  1.00 20.00     0.007 A 
HETATM    3  C3  UNL     1     -35.305  15.000  -3.406  1.00 20.00     0.007 A 
HETATM    4  C4  UNL     1     -35.254  14.686  -4.764  1.00 20.00     0.007 A 
HETATM    5  C5  UNL     1     -34.473  15.992  -2.887  1.00 20.00    -0.062 A 
HETATM    6  C6  UNL     1     -34.371  15.363  -5.604  1.00 20.00    -0.062 A 
HETATM    7  C7  UNL     1     -34.528  16.327  -1.435  1.00 20.00     0.048 C 
HETATM    8  C8  UNL     1     -34.316  15.029  -7.056  1.00 20.00     0.048 C 
ENDROOT
TORSDOF 0
ENDMDL
MODEL 9
REMARK VINA RESULT:      -3.9     11.975     13.077
REMARK  0 active torsions:
REMARK  status: ('A' for Active; 'I' for Inactive)
ROOT
HETATM    1  C1  UNL     1     -33.552  16.334  -5.125  1.00 20.00     0.007 A 
HETATM    2  C2  UNL     1     -33.590  16.660  -3.770  1.00 20.00     0.007 A 
HETATM    3  C3  UNL     1     -35.241  14.645  -4.767  1.00 20.00     0.007 A 
HETATM    4  C4  UNL     1     -35.279  14.971  -3.411  1.00 20.00     0.007 A 
HETATM    5  C5  UNL     1     -34.377  15.326  -5.624  1.00 20.00    -0.062 A 
HETATM    6  C6  UNL     1     -34.454  15.978  -2.912  1.00 20.00    -0.062 A 
HETATM    7  C7  UNL     1     -34.336  14.977  -7.074  1.00 20.00     0.048 C 
HETATM    8  C8  UNL     1     -34.493  16.327  -1.463  1.00 20.00     0.048 C 
ENDROOT
TORSDOF 0
ENDMDL
