MODEL 1
REMARK VINA RESULT:      -4.3      0.000      0.000
REMARK  0 active torsions:
REMARK  status: ('A' for Active; 'I' for Inactive)
ROOT
HETATM    1  C1  UNL     1     -33.944   6.134   6.125  1.00 20.00     0.008 A 
HETATM    2  C2  UNL     1     -34.870   4.826   4.317  1.00 20.00     0.008 A 
HETATM    3  C3  UNL     1     -33.223   6.895   5.205  1.00 20.00     0.019 A 
HETATM    4  C4  UNL     1     -34.147   5.587   3.397  1.00 20.00     0.019 A 
HETATM    5  C5  UNL     1     -34.767   5.099   5.681  1.00 20.00    -0.062 A 
HETATM    6  C6  UNL     1     -33.325   6.621   3.841  1.00 20.00     0.006 A 
HETATM    7  C7  UNL     1     -35.538   4.284   6.664  1.00 20.00     0.048 C 
HETATM    8  I8  UNL     1     -32.247   7.754   2.472  1.00 20.00    -0.045 I 
ENDROOT
TORSDOF 0
ENDMDL
MODEL 2
REMARK VINA RESULT:      -3.9      9.916     10.898
REMARK  0 active torsions:
REMARK  status: ('A' for Active; 'I' for Inactive)
ROOT
HETATM    1  C1  UNL     1     -42.541   6.205  -2.502  1.00 20.00     0.008 A 
HETATM    2  C2  UNL     1     -40.854   5.268  -1.048  1.00 20.00     0.008 A 
HETATM    3  C3  UNL     1     -42.767   4.942  -3.052  1.00 20.00     0.019 A 
HETATM    4  C4  UNL     1     -41.080   4.006  -1.599  1.00 20.00     0.019 A 
HETATM    5  C5  UNL     1     -41.584   6.367  -1.500  1.00 20.00    -0.062 A 
HETATM    6  C6  UNL     1     -42.036   3.844  -2.600  1.00 20.00     0.006 A 
HETATM    7  C7  UNL     1     -41.341   7.716  -0.913  1.00 20.00     0.048 C 
HETATM    8  I8  UNL     1     -42.372   1.965  -3.422  1.00 20.00    -0.045 I 
ENDROOT
TORSDOF 0
ENDMDL
MODEL 3
REMARK VINA RESULT:      -3.9      9.911     10.827
REMARK  0 active torsions:
REMARK  status: ('A' for Active; 'I' for Inactive)
ROOT
HETATM    1  C1  UNL     1     -40.825   5.215  -1.062  1.00 20.00     0.008 A 
HETATM    2  C2  UNL     1     -42.522   6.179  -2.487  1.00 20.00     0.008 A 
HETATM    3  C3  UNL     1     -41.073   3.960  -1.617  1.00 20.00     0.019 A 
HETATM    4  C4  UNL     1     -42.769   4.922  -3.042  1.00 20.00     0.019 A 
HETATM    5  C5  UNL     1     -41.550   6.325  -1.496  1.00 20.00    -0.062 A 
HETATM    6  C6  UNL     1     -42.044   3.814  -2.607  1.00 20.00     0.006 A 
HETATM    7  C7  UNL     1     -41.288   7.667  -0.902  1.00 20.00     0.048 C 
HETATM    8  I8  UNL     1     -42.413   1.943  -3.431  1.00 20.00    -0.045 I 
ENDROOT
TORSDOF 0
ENDMDL
MODEL 4
REMARK VINA RESULT:      -3.8     12.483     13.197
REMARK  0 active torsions:
REMARK  status: ('A' for Active; 'I' for Inactive)
ROOT
HETATM    1  C1  UNL     1     -33.493  15.960  -2.943  1.00 20.00     0.008 A 
HETATM    2  C2  UNL     1     -35.904  16.124  -2.914  1.00 20.00     0.008 A 
HETATM    3  C3  UNL     1     -33.534  15.611  -4.293  1.00 20.00     0.019 A 
HETATM    4  C4  UNL     1     -35.944  15.774  -4.264  1.00 20.00     0.019 A 
HETATM    5  C5  UNL     1     -34.679  16.216  -2.253  1.00 20.00    -0.062 A 
HETATM    6  C6  UNL     1     -34.760  15.519  -4.953  1.00 20.00     0.006 A 
HETATM    7  C7  UNL     1     -34.636  16.587  -0.810  1.00 20.00     0.048 C 
HETATM    8  I8  UNL     1     -34.819  14.996  -6.963  1.00 20.00    -0.045 I 
ENDROOT
TORSDOF 0
ENDMDL
MODEL 5
REMARK VINA RESULT:      -3.8     12.491     13.227
REMARK  0 active torsions:
REMARK  status: ('A' for Active; 'I' for Inactive)
ROOT
HETATM    1  C1  UNL     1     -35.892  16.152  -2.877  1.00 20.00     0.008 A 
HETATM    2  C2  UNL     1     -33.482  15.986  -2.897  1.00 20.00     0.008 A 
HETATM    3  C3  UNL     1     -35.927  15.801  -4.226  1.00 20.00     0.019 A 
HETATM    4  C4  UNL     1     -33.517  15.635  -4.247  1.00 20.00     0.019 A 
HETATM    5  C5  UNL     1     -34.669  16.245  -2.212  1.00 20.00    -0.062 A 
HETATM    6  C6  UNL     1     -34.739  15.542  -4.911  1.00 20.00     0.006 A 
HETATM    7  C7  UNL     1     -34.630  16.623  -0.770  1.00 20.00     0.048 C 
HETATM    8  I8  UNL     1     -34.793  15.021  -6.921  1.00 20.00    -0.045 I 
ENDROOT
TORSDOF 0
ENDMDL
MODEL 6
REMARK VINA RESULT:      -3.7     12.700     13.911
REMARK  0 active torsions:
REMARK  status: ('A' for Active; 'I' for Inactive)
ROOT
HETATM    1  C1  UNL     1     -33.614  16.452  -5.451  1.00 20.00     0.008 A 
HETATM    2  C2  UNL     1     -35.258  14.766  -4.910  1.00 20.00     0.008 A 
HETATM    3  C3  UNL     1     -33.631  16.893  -4.127  1.00 20.00     0.019 A 
HETATM    4  C4  UNL     1     -35.275  15.208  -3.586  1.00 20.00     0.019 A 
HETATM    5  C5  UNL     1     -34.428  15.389  -5.842  1.00 20.00    -0.062 A 
HETATM    6  C6  UNL     1     -34.461  16.270  -3.195  1.00 20.00     0.006 A 
HETATM    7  C7  UNL     1     -34.412  14.918  -7.257  1.00 20.00     0.048 C 
HETATM    8  I8  UNL     1     -34.488  16.930  -1.226  1.00 20.00    -0.045 I 
ENDROOT
TORSDOF 0
ENDMDL
MODEL 7
REMARK VINA RESULT:      -3.7     12.497     13.238
REMARK  0 active torsions:
REMARK  status: ('A' for Active; 'I' for Inactive)
ROOT
HETATM    1  C1  UNL     1     -34.956  17.033  -0.101  1.00 20.00     0.008 A 
HETATM    2  C2  UNL     1     -32.920  18.285  -0.457  1.00 20.00     0.008 A 
HETATM    3  C3  UNL     1     -35.061  17.570   1.182  1.00 20.00     0.019 A 
HETATM    4  C4  UNL     1     -33.026  18.822   0.827  1.00 20.00     0.019 A 
HETATM    5  C5  UNL     1     -33.884  17.390  -0.920  1.00 20.00    -0.062 A 
HETATM    6  C6  UNL     1     -34.097  18.465   1.645  1.00 20.00     0.006 A 
HETATM    7  C7  UNL     1     -33.769  16.814  -2.291  1.00 20.00     0.048 C 
HETATM    8  I8  UNL     1     -34.254  19.263   3.557  1.00 20.00    -0.045 I 
ENDROOT
TORSDOF 0
ENDMDL
MODEL 8
REMARK VINA RESULT:      -3.6     12.379     13.409
REMARK  0 active torsions:
REMARK  status: ('A' for Active; 'I' for Inactive)
ROOT
HETATM    1  C1  UNL     1     -34.672  16.631  -0.602  1.00 20.00     0.008 A 
HETATM    2  C2  UNL     1     -33.691  18.805  -0.990  1.00 20.00     0.008 A 
HETATM    3  C3  UNL     1     -34.517  16.321  -1.953  1.00 20.00     0.019 A 
HETATM    4  C4  UNL     1     -33.536  18.494  -2.342  1.00 20.00     0.019 A 
HETATM    5  C5  UNL     1     -34.259  17.874  -0.121  1.00 20.00    -0.062 A 
HETATM    6  C6  UNL     1     -33.949  17.252  -2.822  1.00 20.00     0.006 A 
HETATM    7  C7  UNL     1     -34.427  18.208   1.323  1.00 20.00     0.048 C 
HETATM    8  I8  UNL     1     -33.721  16.788  -4.835  1.00 20.00    -0.045 I 
ENDROOT
TORSDOF 0
ENDMDL
MODEL 9
REMARK VINA RESULT:      -3.6     12.503     12.668
REMARK  0 active torsions:
REMARK  status: ('A' for Active; 'I' for Inactive)
ROOT
HETATM    1  C1  UNL     1     -35.857  14.768  -3.645  1.00 20.00     0.008 A 
HETATM    2  C2  UNL     1     -33.452  14.802  -3.870  1.00 20.00     0.008 A 
HETATM    3  C3  UNL     1     -35.775  15.722  -2.630  1.00 20.00     0.019 A 
HETATM    4  C4  UNL     1     -33.370  15.757  -2.855  1.00 20.00     0.019 A 
HETATM    5  C5  UNL     1     -34.695  14.308  -4.265  1.00 20.00    -0.062 A 
HETATM    6  C6  UNL     1     -34.532  16.216  -2.236  1.00 20.00     0.006 A 
HETATM    7  C7  UNL     1     -34.781  13.288  -5.348  1.00 20.00     0.048 C 
HETATM    8  I8  UNL     1     -34.411  17.634  -0.722  1.00 20.00    -0.045 I 
ENDROOT
TORSDOF 0
ENDMDL
