MODEL 1
REMARK VINA RESULT:      -5.3      0.000      0.000
REMARK  0 active torsions:
REMARK  status: ('A' for Active; 'I' for Inactive)
ROOT
HETATM    1  C1  UNL     1     -34.625   5.609   6.670  1.00 20.00     0.001 A 
HETATM    2  C2  UNL     1     -35.289   4.668   5.876  1.00 20.00     0.003 A 
HETATM    3  C3  UNL     1     -33.681   6.487   6.117  1.00 20.00     0.016 A 
HETATM    4  C4  UNL     1     -35.036   4.567   4.504  1.00 20.00     0.040 A 
HETATM    5  C5  UNL     1     -32.590   7.039   3.802  1.00 20.00     0.161 A 
HETATM    6  C6  UNL     1     -33.418   6.396   4.742  1.00 20.00     0.019 A 
HETATM    7  C7  UNL     1     -34.095   5.453   3.990  1.00 20.00     0.113 A 
HETATM    8  N8  UNL     1     -32.736   6.540   2.570  1.00 20.00    -0.140 NA
HETATM    9  O9  UNL     1     -33.689   5.537   2.692  1.00 20.00    -0.213 OA
ENDROOT
TORSDOF 0
ENDMDL
MODEL 2
REMARK VINA RESULT:      -5.3      0.960      1.931
REMARK  0 active torsions:
REMARK  status: ('A' for Active; 'I' for Inactive)
ROOT
HETATM    1  C1  UNL     1     -35.291   4.610   5.844  1.00 20.00     0.001 A 
HETATM    2  C2  UNL     1     -34.668   5.539   6.683  1.00 20.00     0.003 A 
HETATM    3  C3  UNL     1     -34.996   4.559   4.473  1.00 20.00     0.016 A 
HETATM    4  C4  UNL     1     -33.731   6.452   6.189  1.00 20.00     0.040 A 
HETATM    5  C5  UNL     1     -33.482   5.772   2.716  1.00 20.00     0.161 A 
HETATM    6  C6  UNL     1     -34.058   5.470   3.964  1.00 20.00     0.019 A 
HETATM    7  C7  UNL     1     -33.464   6.374   4.826  1.00 20.00     0.113 A 
HETATM    8  N8  UNL     1     -32.604   6.778   2.791  1.00 20.00    -0.140 NA
HETATM    9  O9  UNL     1     -32.595   7.157   4.127  1.00 20.00    -0.213 OA
ENDROOT
TORSDOF 0
ENDMDL
MODEL 3
REMARK VINA RESULT:      -4.6      9.907     10.787
REMARK  0 active torsions:
REMARK  status: ('A' for Active; 'I' for Inactive)
ROOT
HETATM    1  C1  UNL     1     -40.638   5.993  -0.408  1.00 20.00     0.001 A 
HETATM    2  C2  UNL     1     -41.163   7.155  -0.982  1.00 20.00     0.003 A 
HETATM    3  C3  UNL     1     -40.984   4.724  -0.895  1.00 20.00     0.016 A 
HETATM    4  C4  UNL     1     -42.053   7.096  -2.060  1.00 20.00     0.040 A 
HETATM    5  C5  UNL     1     -42.476   3.642  -2.754  1.00 20.00     0.161 A 
HETATM    6  C6  UNL     1     -41.875   4.650  -1.976  1.00 20.00     0.019 A 
HETATM    7  C7  UNL     1     -42.373   5.821  -2.517  1.00 20.00     0.113 A 
HETATM    8  N8  UNL     1     -43.280   4.141  -3.699  1.00 20.00    -0.140 NA
HETATM    9  O9  UNL     1     -43.213   5.520  -3.546  1.00 20.00    -0.213 OA
ENDROOT
TORSDOF 0
ENDMDL
MODEL 4
REMARK VINA RESULT:      -4.5     10.062     10.746
REMARK  0 active torsions:
REMARK  status: ('A' for Active; 'I' for Inactive)
ROOT
HETATM    1  C1  UNL     1     -40.754   6.057  -0.401  1.00 20.00     0.001 A 
HETATM    2  C2  UNL     1     -41.076   4.770  -0.842  1.00 20.00     0.003 A 
HETATM    3  C3  UNL     1     -41.244   7.194  -1.062  1.00 20.00     0.016 A 
HETATM    4  C4  UNL     1     -41.895   4.567  -1.957  1.00 20.00     0.040 A 
HETATM    5  C5  UNL     1     -42.752   7.811  -3.111  1.00 20.00     0.161 A 
HETATM    6  C6  UNL     1     -42.067   7.004  -2.182  1.00 20.00     0.019 A 
HETATM    7  C7  UNL     1     -42.364   5.716  -2.588  1.00 20.00     0.113 A 
HETATM    8  N8  UNL     1     -43.417   7.088  -4.019  1.00 20.00    -0.140 NA
HETATM    9  O9  UNL     1     -43.169   5.763  -3.685  1.00 20.00    -0.213 OA
ENDROOT
TORSDOF 0
ENDMDL
MODEL 5
REMARK VINA RESULT:      -4.5     12.171     13.249
REMARK  0 active torsions:
REMARK  status: ('A' for Active; 'I' for Inactive)
ROOT
HETATM    1  C1  UNL     1     -33.802  17.152  -5.012  1.00 20.00     0.001 A 
HETATM    2  C2  UNL     1     -33.557  16.983  -3.646  1.00 20.00     0.003 A 
HETATM    3  C3  UNL     1     -34.232  16.081  -5.810  1.00 20.00     0.016 A 
HETATM    4  C4  UNL     1     -33.730  15.742  -3.024  1.00 20.00     0.040 A 
HETATM    5  C5  UNL     1     -34.807  13.536  -5.586  1.00 20.00     0.161 A 
HETATM    6  C6  UNL     1     -34.410  14.831  -5.199  1.00 20.00     0.019 A 
HETATM    7  C7  UNL     1     -34.158  14.702  -3.845  1.00 20.00     0.113 A 
HETATM    8  N8  UNL     1     -34.802  12.675  -4.563  1.00 20.00    -0.140 NA
HETATM    9  O9  UNL     1     -34.391  13.416  -3.463  1.00 20.00    -0.213 OA
ENDROOT
TORSDOF 0
ENDMDL
MODEL 6
REMARK VINA RESULT:      -4.4     12.150     13.624
REMARK  0 active torsions:
REMARK  status: ('A' for Active; 'I' for Inactive)
ROOT
HETATM    1  C1  UNL     1     -34.307  16.364  -6.798  1.00 20.00     0.001 A 
HETATM    2  C2  UNL     1     -35.035  15.359  -7.442  1.00 20.00     0.003 A 
HETATM    3  C3  UNL     1     -33.780  16.168  -5.513  1.00 20.00     0.016 A 
HETATM    4  C4  UNL     1     -35.267  14.123  -6.830  1.00 20.00     0.040 A 
HETATM    5  C5  UNL     1     -33.682  14.319  -3.661  1.00 20.00     0.161 A 
HETATM    6  C6  UNL     1     -34.004  14.932  -4.888  1.00 20.00     0.019 A 
HETATM    7  C7  UNL     1     -34.729  13.962  -5.556  1.00 20.00     0.113 A 
HETATM    8  N8  UNL     1     -34.165  13.075  -3.572  1.00 20.00    -0.140 NA
HETATM    9  O9  UNL     1     -34.827  12.853  -4.772  1.00 20.00    -0.213 OA
ENDROOT
TORSDOF 0
ENDMDL
MODEL 7
REMARK VINA RESULT:      -4.4     12.061     13.584
REMARK  0 active torsions:
REMARK  status: ('A' for Active; 'I' for Inactive)
ROOT
HETATM    1  C1  UNL     1     -33.392  17.060  -5.049  1.00 20.00     0.001 A 
HETATM    2  C2  UNL     1     -33.900  16.775  -6.320  1.00 20.00     0.003 A 
HETATM    3  C3  UNL     1     -33.442  16.109  -4.018  1.00 20.00     0.016 A 
HETATM    4  C4  UNL     1     -34.478  15.535  -6.611  1.00 20.00     0.040 A 
HETATM    5  C5  UNL     1     -34.272  13.661  -3.606  1.00 20.00     0.161 A 
HETATM    6  C6  UNL     1     -34.017  14.861  -4.297  1.00 20.00     0.019 A 
HETATM    7  C7  UNL     1     -34.510  14.616  -5.567  1.00 20.00     0.113 A 
HETATM    8  N8  UNL     1     -34.872  12.747  -4.377  1.00 20.00    -0.140 NA
HETATM    9  O9  UNL     1     -35.021  13.355  -5.616  1.00 20.00    -0.213 OA
ENDROOT
TORSDOF 0
ENDMDL
MODEL 8
REMARK VINA RESULT:      -4.4     11.767     12.369
REMARK  0 active torsions:
REMARK  status: ('A' for Active; 'I' for Inactive)
ROOT
HETATM    1  C1  UNL     1     -34.229  16.783  -2.471  1.00 20.00     0.001 A 
HETATM    2  C2  UNL     1     -35.626  16.774  -2.517  1.00 20.00     0.003 A 
HETATM    3  C3  UNL     1     -33.479  15.720  -2.997  1.00 20.00     0.016 A 
HETATM    4  C4  UNL     1     -36.329  15.707  -3.086  1.00 20.00     0.040 A 
HETATM    5  C5  UNL     1     -33.851  13.419  -4.190  1.00 20.00     0.161 A 
HETATM    6  C6  UNL     1     -34.171  14.643  -3.571  1.00 20.00     0.019 A 
HETATM    7  C7  UNL     1     -35.554  14.670  -3.598  1.00 20.00     0.113 A 
HETATM    8  N8  UNL     1     -34.940  12.741  -4.569  1.00 20.00    -0.140 NA
HETATM    9  O9  UNL     1     -36.015  13.535  -4.193  1.00 20.00    -0.213 OA
ENDROOT
TORSDOF 0
ENDMDL
MODEL 9
REMARK VINA RESULT:      -4.4      2.168      3.637
REMARK  0 active torsions:
REMARK  status: ('A' for Active; 'I' for Inactive)
ROOT
HETATM    1  C1  UNL     1     -33.422   5.711   2.306  1.00 20.00     0.001 A 
HETATM    2  C2  UNL     1     -32.568   6.678   2.848  1.00 20.00     0.003 A 
HETATM    3  C3  UNL     1     -34.360   5.042   3.106  1.00 20.00     0.016 A 
HETATM    4  C4  UNL     1     -32.617   7.012   4.205  1.00 20.00     0.040 A 
HETATM    5  C5  UNL     1     -35.165   4.972   5.597  1.00 20.00     0.161 A 
HETATM    6  C6  UNL     1     -34.419   5.368   4.469  1.00 20.00     0.019 A 
HETATM    7  C7  UNL     1     -33.559   6.329   4.969  1.00 20.00     0.113 A 
HETATM    8  N8  UNL     1     -34.801   5.629   6.703  1.00 20.00    -0.140 NA
HETATM    9  O9  UNL     1     -33.785   6.487   6.302  1.00 20.00    -0.213 OA
ENDROOT
TORSDOF 0
ENDMDL
