MODEL 1
REMARK VINA RESULT:      -6.0      0.000      0.000
REMARK  1 active torsions:
REMARK  status: ('A' for Active; 'I' for Inactive)
REMARK    1  A    between atoms: C6_6  and  C8_8 
ROOT
HETATM    1  C1  UNL     1     -35.162   4.708   6.022  1.00 20.00     0.000 A 
HETATM    2  C2  UNL     1     -34.332   5.757   6.418  1.00 20.00     0.001 A 
HETATM    3  C3  UNL     1     -35.277   4.382   4.671  1.00 20.00     0.001 A 
HETATM    4  C4  UNL     1     -33.617   6.480   5.464  1.00 20.00     0.011 A 
HETATM    5  C5  UNL     1     -34.562   5.105   3.715  1.00 20.00     0.011 A 
HETATM    6  C6  UNL     1     -33.732   6.154   4.112  1.00 20.00    -0.037 A 
ENDROOT
BRANCH   6   7
HETATM    7  C8  UNL     1     -32.988   6.908   3.115  1.00 20.00     0.001 C 
HETATM    8  C7  UNL     1     -31.768   7.388   3.316  1.00 20.00     0.012 C 
ENDBRANCH   6   7
TORSDOF 1
ENDMDL
MODEL 2
REMARK VINA RESULT:      -6.0      0.033      1.709
REMARK  1 active torsions:
REMARK  status: ('A' for Active; 'I' for Inactive)
REMARK    1  A    between atoms: C6_6  and  C8_8 
ROOT
HETATM    1  C1  UNL     1     -35.163   4.746   6.046  1.00 20.00     0.000 A 
HETATM    2  C2  UNL     1     -35.270   4.392   4.701  1.00 20.00     0.001 A 
HETATM    3  C3  UNL     1     -34.341   5.807   6.425  1.00 20.00     0.001 A 
HETATM    4  C4  UNL     1     -34.554   5.098   3.734  1.00 20.00     0.011 A 
HETATM    5  C5  UNL     1     -33.624   6.513   5.459  1.00 20.00     0.011 A 
HETATM    6  C6  UNL     1     -33.731   6.159   4.114  1.00 20.00    -0.037 A 
ENDROOT
BRANCH   6   7
HETATM    7  C8  UNL     1     -32.983   6.896   3.107  1.00 20.00     0.001 C 
HETATM    8  C7  UNL     1     -31.757   7.365   3.297  1.00 20.00     0.012 C 
ENDBRANCH   6   7
TORSDOF 1
ENDMDL
MODEL 3
REMARK VINA RESULT:      -4.7      1.238      2.704
REMARK  1 active torsions:
REMARK  status: ('A' for Active; 'I' for Inactive)
REMARK    1  A    between atoms: C6_6  and  C8_8 
ROOT
HETATM    1  C1  UNL     1     -35.229   4.261   4.287  1.00 20.00     0.000 A 
HETATM    2  C2  UNL     1     -34.704   5.387   3.653  1.00 20.00     0.001 A 
HETATM    3  C3  UNL     1     -35.114   4.120   5.669  1.00 20.00     0.001 A 
HETATM    4  C4  UNL     1     -34.061   6.373   4.402  1.00 20.00     0.011 A 
HETATM    5  C5  UNL     1     -34.471   5.106   6.419  1.00 20.00     0.011 A 
HETATM    6  C6  UNL     1     -33.945   6.232   5.786  1.00 20.00    -0.037 A 
ENDROOT
BRANCH   6   7
HETATM    7  C8  UNL     1     -33.275   7.259   6.568  1.00 20.00     0.001 C 
HETATM    8  C7  UNL     1     -33.851   7.921   7.562  1.00 20.00     0.012 C 
ENDBRANCH   6   7
TORSDOF 1
ENDMDL
MODEL 4
REMARK VINA RESULT:      -4.7      1.249      2.568
REMARK  1 active torsions:
REMARK  status: ('A' for Active; 'I' for Inactive)
REMARK    1  A    between atoms: C6_6  and  C8_8 
ROOT
HETATM    1  C1  UNL     1     -35.241   4.253   4.278  1.00 20.00     0.000 A 
HETATM    2  C2  UNL     1     -35.108   4.099   5.658  1.00 20.00     0.001 A 
HETATM    3  C3  UNL     1     -34.725   5.385   3.649  1.00 20.00     0.001 A 
HETATM    4  C4  UNL     1     -34.459   5.078   6.410  1.00 20.00     0.011 A 
HETATM    5  C5  UNL     1     -34.076   6.365   4.401  1.00 20.00     0.011 A 
HETATM    6  C6  UNL     1     -33.943   6.212   5.781  1.00 20.00    -0.037 A 
ENDROOT
BRANCH   6   7
HETATM    7  C8  UNL     1     -33.266   7.234   6.564  1.00 20.00     0.001 C 
HETATM    8  C7  UNL     1     -33.845   7.914   7.544  1.00 20.00     0.012 C 
ENDBRANCH   6   7
TORSDOF 1
ENDMDL
MODEL 5
REMARK VINA RESULT:      -4.5      1.090      2.829
REMARK  1 active torsions:
REMARK  status: ('A' for Active; 'I' for Inactive)
REMARK    1  A    between atoms: C6_6  and  C8_8 
ROOT
HETATM    1  C1  UNL     1     -34.000   5.397   2.556  1.00 20.00     0.000 A 
HETATM    2  C2  UNL     1     -32.983   6.209   3.058  1.00 20.00     0.001 A 
HETATM    3  C3  UNL     1     -35.027   4.964   3.395  1.00 20.00     0.001 A 
HETATM    4  C4  UNL     1     -32.991   6.588   4.400  1.00 20.00     0.011 A 
HETATM    5  C5  UNL     1     -35.035   5.343   4.738  1.00 20.00     0.011 A 
HETATM    6  C6  UNL     1     -34.018   6.155   5.240  1.00 20.00    -0.037 A 
ENDROOT
BRANCH   6   7
HETATM    7  C8  UNL     1     -34.027   6.550   6.640  1.00 20.00     0.001 C 
HETATM    8  C7  UNL     1     -33.349   7.585   7.118  1.00 20.00     0.012 C 
ENDBRANCH   6   7
TORSDOF 1
ENDMDL
MODEL 6
REMARK VINA RESULT:      -4.5      0.859      3.713
REMARK  1 active torsions:
REMARK  status: ('A' for Active; 'I' for Inactive)
REMARK    1  A    between atoms: C6_6  and  C8_8 
ROOT
HETATM    1  C1  UNL     1     -32.879   6.289   2.492  1.00 20.00     0.000 A 
HETATM    2  C2  UNL     1     -34.009   5.473   2.536  1.00 20.00     0.001 A 
HETATM    3  C3  UNL     1     -32.372   6.842   3.668  1.00 20.00     0.001 A 
HETATM    4  C4  UNL     1     -34.634   5.209   3.754  1.00 20.00     0.011 A 
HETATM    5  C5  UNL     1     -32.997   6.580   4.887  1.00 20.00     0.011 A 
HETATM    6  C6  UNL     1     -34.127   5.763   4.931  1.00 20.00    -0.037 A 
ENDROOT
BRANCH   6   7
HETATM    7  C8  UNL     1     -34.778   5.490   6.203  1.00 20.00     0.001 C 
HETATM    8  C7  UNL     1     -35.243   4.298   6.550  1.00 20.00     0.012 C 
ENDBRANCH   6   7
TORSDOF 1
ENDMDL
MODEL 7
REMARK VINA RESULT:      -4.4     11.888     12.251
REMARK  1 active torsions:
REMARK  status: ('A' for Active; 'I' for Inactive)
REMARK    1  A    between atoms: C6_6  and  C8_8 
ROOT
HETATM    1  C1  UNL     1     -35.193  13.444  -4.543  1.00 20.00     0.000 A 
HETATM    2  C2  UNL     1     -33.849  13.636  -4.224  1.00 20.00     0.001 A 
HETATM    3  C3  UNL     1     -36.167  14.277  -3.992  1.00 20.00     0.001 A 
HETATM    4  C4  UNL     1     -33.477  14.660  -3.354  1.00 20.00     0.011 A 
HETATM    5  C5  UNL     1     -35.795  15.302  -3.121  1.00 20.00     0.011 A 
HETATM    6  C6  UNL     1     -34.451  15.494  -2.802  1.00 20.00    -0.037 A 
ENDROOT
BRANCH   6   7
HETATM    7  C8  UNL     1     -34.065  16.563  -1.895  1.00 20.00     0.001 C 
HETATM    8  C7  UNL     1     -34.603  16.741  -0.696  1.00 20.00     0.012 C 
ENDBRANCH   6   7
TORSDOF 1
ENDMDL
MODEL 8
REMARK VINA RESULT:      -4.4     11.891     12.271
REMARK  1 active torsions:
REMARK  status: ('A' for Active; 'I' for Inactive)
REMARK    1  A    between atoms: C6_6  and  C8_8 
ROOT
HETATM    1  C1  UNL     1     -35.210  13.445  -4.555  1.00 20.00     0.000 A 
HETATM    2  C2  UNL     1     -36.176  14.283  -3.998  1.00 20.00     0.001 A 
HETATM    3  C3  UNL     1     -33.864  13.627  -4.240  1.00 20.00     0.001 A 
HETATM    4  C4  UNL     1     -35.797  15.303  -3.126  1.00 20.00     0.011 A 
HETATM    5  C5  UNL     1     -33.483  14.647  -3.367  1.00 20.00     0.011 A 
HETATM    6  C6  UNL     1     -34.450  15.485  -2.810  1.00 20.00    -0.037 A 
ENDROOT
BRANCH   6   7
HETATM    7  C8  UNL     1     -34.053  16.548  -1.901  1.00 20.00     0.001 C 
HETATM    8  C7  UNL     1     -34.594  16.735  -0.705  1.00 20.00     0.012 C 
ENDBRANCH   6   7
TORSDOF 1
ENDMDL
MODEL 9
REMARK VINA RESULT:      -4.2      9.209     10.486
REMARK  1 active torsions:
REMARK  status: ('A' for Active; 'I' for Inactive)
REMARK    1  A    between atoms: C6_6  and  C8_8 
ROOT
HETATM    1  C1  UNL     1     -41.080   7.058  -0.924  1.00 20.00     0.000 A 
HETATM    2  C2  UNL     1     -40.638   5.826  -0.442  1.00 20.00     0.001 A 
HETATM    3  C3  UNL     1     -41.942   7.110  -2.019  1.00 20.00     0.001 A 
HETATM    4  C4  UNL     1     -41.058   4.645  -1.055  1.00 20.00     0.011 A 
HETATM    5  C5  UNL     1     -42.362   5.929  -2.632  1.00 20.00     0.011 A 
HETATM    6  C6  UNL     1     -41.920   4.697  -2.150  1.00 20.00    -0.037 A 
ENDROOT
BRANCH   6   7
HETATM    7  C8  UNL     1     -42.359   3.467  -2.790  1.00 20.00     0.001 C 
HETATM    8  C7  UNL     1     -41.531   2.518  -3.205  1.00 20.00     0.012 C 
ENDBRANCH   6   7
TORSDOF 1
ENDMDL
