MODEL 1
REMARK VINA RESULT:      -2.6      0.000      0.000
REMARK  0 active torsions:
REMARK  status: ('A' for Active; 'I' for Inactive)
ROOT
HETATM    1  C1  UNL     1     -33.344   6.150   3.458  1.00 20.00     0.016 C 
HETATM    2  C2  UNL     1     -34.682   5.478   3.714  1.00 20.00     0.075 C 
HETATM    3  I3  UNL     1     -34.778   4.708   5.699  1.00 20.00    -0.090 I 
ENDROOT
TORSDOF 0
ENDMDL
MODEL 2
REMARK VINA RESULT:      -2.6      2.186      2.575
REMARK  0 active torsions:
REMARK  status: ('A' for Active; 'I' for Inactive)
ROOT
HETATM    1  C1  UNL     1     -34.939   4.394   5.945  1.00 20.00     0.016 C 
HETATM    2  C2  UNL     1     -35.218   4.901   4.541  1.00 20.00     0.075 C 
HETATM    3  I3  UNL     1     -33.654   6.184   3.871  1.00 20.00    -0.090 I 
ENDROOT
TORSDOF 0
ENDMDL
MODEL 3
REMARK VINA RESULT:      -2.5      2.484      2.802
REMARK  0 active torsions:
REMARK  status: ('A' for Active; 'I' for Inactive)
ROOT
HETATM    1  C1  UNL     1     -34.979   4.212   5.914  1.00 20.00     0.016 C 
HETATM    2  C2  UNL     1     -34.426   5.626   5.902  1.00 20.00     0.075 C 
HETATM    3  I3  UNL     1     -33.752   6.162   3.952  1.00 20.00    -0.090 I 
ENDROOT
TORSDOF 0
ENDMDL
MODEL 4
REMARK VINA RESULT:      -2.4      2.535      2.535
REMARK  0 active torsions:
REMARK  status: ('A' for Active; 'I' for Inactive)
ROOT
HETATM    1  C1  UNL     1     -33.868   6.762   6.543  1.00 20.00     0.016 C 
HETATM    2  C2  UNL     1     -34.569   5.462   6.192  1.00 20.00     0.075 C 
HETATM    3  I3  UNL     1     -34.872   5.305   4.089  1.00 20.00    -0.090 I 
ENDROOT
TORSDOF 0
ENDMDL
MODEL 5
REMARK VINA RESULT:      -2.3      2.571      2.640
REMARK  0 active torsions:
REMARK  status: ('A' for Active; 'I' for Inactive)
ROOT
HETATM    1  C1  UNL     1     -34.128   6.162   6.012  1.00 20.00     0.016 C 
HETATM    2  C2  UNL     1     -34.307   5.737   4.565  1.00 20.00     0.075 C 
HETATM    3  I3  UNL     1     -32.709   6.463   3.356  1.00 20.00    -0.090 I 
ENDROOT
TORSDOF 0
ENDMDL
MODEL 6
REMARK VINA RESULT:      -2.2      2.040      2.271
REMARK  0 active torsions:
REMARK  status: ('A' for Active; 'I' for Inactive)
ROOT
HETATM    1  C1  UNL     1     -32.218   7.629   2.561  1.00 20.00     0.016 C 
HETATM    2  C2  UNL     1     -32.243   6.282   3.262  1.00 20.00     0.075 C 
HETATM    3  I3  UNL     1     -34.178   5.875   4.058  1.00 20.00    -0.090 I 
ENDROOT
TORSDOF 0
ENDMDL
MODEL 7
REMARK VINA RESULT:      -1.9     12.296     12.438
REMARK  0 active torsions:
REMARK  status: ('A' for Active; 'I' for Inactive)
ROOT
HETATM    1  C1  UNL     1     -34.562  16.159  -1.765  1.00 20.00     0.016 C 
HETATM    2  C2  UNL     1     -33.692  15.911  -2.985  1.00 20.00     0.075 C 
HETATM    3  I3  UNL     1     -34.206  14.067  -3.922  1.00 20.00    -0.090 I 
ENDROOT
TORSDOF 0
ENDMDL
MODEL 8
REMARK VINA RESULT:      -1.8      8.941      9.305
REMARK  0 active torsions:
REMARK  status: ('A' for Active; 'I' for Inactive)
ROOT
HETATM    1  C1  UNL     1     -41.599   3.904  -2.155  1.00 20.00     0.016 C 
HETATM    2  C2  UNL     1     -40.834   4.662  -1.084  1.00 20.00     0.075 C 
HETATM    3  I3  UNL     1     -41.406   6.715  -1.051  1.00 20.00    -0.090 I 
ENDROOT
TORSDOF 0
ENDMDL
MODEL 9
REMARK VINA RESULT:      -1.8     12.130     12.382
REMARK  0 active torsions:
REMARK  status: ('A' for Active; 'I' for Inactive)
ROOT
HETATM    1  C1  UNL     1     -33.662  13.866  -3.764  1.00 20.00     0.016 C 
HETATM    2  C2  UNL     1     -33.221  15.303  -3.550  1.00 20.00     0.075 C 
HETATM    3  I3  UNL     1     -34.520  16.303  -2.188  1.00 20.00    -0.090 I 
ENDROOT
TORSDOF 0
ENDMDL
