MODEL 1
REMARK VINA RESULT:      -5.2      0.000      0.000
REMARK  0 active torsions:
REMARK  status: ('A' for Active; 'I' for Inactive)
ROOT
HETATM    1  C1  UNL     1     -35.189   4.868   5.933  1.00 20.00     0.000 A 
HETATM    2  C2  UNL     1     -34.318   5.850   6.410  1.00 20.00     0.001 A 
HETATM    3  C3  UNL     1     -35.230   4.576   4.570  1.00 20.00     0.001 A 
HETATM    4  C4  UNL     1     -33.491   6.537   5.523  1.00 20.00     0.019 A 
HETATM    5  C5  UNL     1     -34.402   5.263   3.683  1.00 20.00     0.019 A 
HETATM    6  C6  UNL     1     -33.531   6.244   4.159  1.00 20.00     0.011 A 
HETATM    7  S7  UNL     1     -32.462   7.130   3.014  1.00 20.00    -0.053 SA
ENDROOT
TORSDOF 0
ENDMDL
MODEL 2
REMARK VINA RESULT:      -5.2      0.005      1.827
REMARK  0 active torsions:
REMARK  status: ('A' for Active; 'I' for Inactive)
ROOT
HETATM    1  C1  UNL     1     -35.186   4.873   5.936  1.00 20.00     0.000 A 
HETATM    2  C2  UNL     1     -35.228   4.574   4.573  1.00 20.00     0.001 A 
HETATM    3  C3  UNL     1     -34.317   5.856   6.409  1.00 20.00     0.001 A 
HETATM    4  C4  UNL     1     -34.400   5.259   3.684  1.00 20.00     0.019 A 
HETATM    5  C5  UNL     1     -33.490   6.541   5.519  1.00 20.00     0.019 A 
HETATM    6  C6  UNL     1     -33.532   6.244   4.157  1.00 20.00     0.011 A 
HETATM    7  S7  UNL     1     -32.464   7.130   3.010  1.00 20.00    -0.053 SA
ENDROOT
TORSDOF 0
ENDMDL
MODEL 3
REMARK VINA RESULT:      -4.2      1.627      2.413
REMARK  0 active torsions:
REMARK  status: ('A' for Active; 'I' for Inactive)
ROOT
HETATM    1  C1  UNL     1     -35.184   4.241   4.323  1.00 20.00     0.000 A 
HETATM    2  C2  UNL     1     -34.654   5.384   3.722  1.00 20.00     0.001 A 
HETATM    3  C3  UNL     1     -35.141   4.099   5.710  1.00 20.00     0.001 A 
HETATM    4  C4  UNL     1     -34.082   6.383   4.508  1.00 20.00     0.019 A 
HETATM    5  C5  UNL     1     -34.569   5.099   6.496  1.00 20.00     0.019 A 
HETATM    6  C6  UNL     1     -34.040   6.242   5.896  1.00 20.00     0.011 A 
HETATM    7  S7  UNL     1     -33.302   7.532   6.912  1.00 20.00    -0.053 SA
ENDROOT
TORSDOF 0
ENDMDL
MODEL 4
REMARK VINA RESULT:      -4.2      1.617      2.209
REMARK  0 active torsions:
REMARK  status: ('A' for Active; 'I' for Inactive)
ROOT
HETATM    1  C1  UNL     1     -35.193   4.237   4.343  1.00 20.00     0.000 A 
HETATM    2  C2  UNL     1     -35.171   4.121   5.734  1.00 20.00     0.001 A 
HETATM    3  C3  UNL     1     -34.640   5.361   3.729  1.00 20.00     0.001 A 
HETATM    4  C4  UNL     1     -34.598   5.128   6.509  1.00 20.00     0.019 A 
HETATM    5  C5  UNL     1     -34.066   6.368   4.504  1.00 20.00     0.019 A 
HETATM    6  C6  UNL     1     -34.044   6.252   5.894  1.00 20.00     0.011 A 
HETATM    7  S7  UNL     1     -33.302   7.553   6.893  1.00 20.00    -0.053 SA
ENDROOT
TORSDOF 0
ENDMDL
MODEL 5
REMARK VINA RESULT:      -3.7      9.324     10.117
REMARK  0 active torsions:
REMARK  status: ('A' for Active; 'I' for Inactive)
ROOT
HETATM    1  C1  UNL     1     -41.166   7.221  -0.831  1.00 20.00     0.000 A 
HETATM    2  C2  UNL     1     -40.654   6.050  -0.269  1.00 20.00     0.001 A 
HETATM    3  C3  UNL     1     -41.968   7.155  -1.970  1.00 20.00     0.001 A 
HETATM    4  C4  UNL     1     -40.945   4.815  -0.847  1.00 20.00     0.019 A 
HETATM    5  C5  UNL     1     -42.260   5.919  -2.547  1.00 20.00     0.019 A 
HETATM    6  C6  UNL     1     -41.749   4.749  -1.986  1.00 20.00     0.011 A 
HETATM    7  S7  UNL     1     -42.127   3.155  -2.731  1.00 20.00    -0.053 SA
ENDROOT
TORSDOF 0
ENDMDL
MODEL 6
REMARK VINA RESULT:      -3.6      9.432     10.146
REMARK  0 active torsions:
REMARK  status: ('A' for Active; 'I' for Inactive)
ROOT
HETATM    1  C1  UNL     1     -40.913   4.699  -0.710  1.00 20.00     0.000 A 
HETATM    2  C2  UNL     1     -40.693   6.055  -0.462  1.00 20.00     0.001 A 
HETATM    3  C3  UNL     1     -41.703   4.307  -1.790  1.00 20.00     0.001 A 
HETATM    4  C4  UNL     1     -41.264   7.017  -1.294  1.00 20.00     0.019 A 
HETATM    5  C5  UNL     1     -42.274   5.270  -2.623  1.00 20.00     0.019 A 
HETATM    6  C6  UNL     1     -42.054   6.625  -2.375  1.00 20.00     0.011 A 
HETATM    7  S7  UNL     1     -42.791   7.867  -3.450  1.00 20.00    -0.053 SA
ENDROOT
TORSDOF 0
ENDMDL
MODEL 7
REMARK VINA RESULT:      -3.6     12.627     13.658
REMARK  0 active torsions:
REMARK  status: ('A' for Active; 'I' for Inactive)
ROOT
HETATM    1  C1  UNL     1     -33.073  15.046  -3.622  1.00 20.00     0.000 A 
HETATM    2  C2  UNL     1     -33.724  13.839  -3.882  1.00 20.00     0.001 A 
HETATM    3  C3  UNL     1     -33.162  16.097  -4.535  1.00 20.00     0.001 A 
HETATM    4  C4  UNL     1     -34.462  13.684  -5.055  1.00 20.00     0.019 A 
HETATM    5  C5  UNL     1     -33.901  15.942  -5.707  1.00 20.00     0.019 A 
HETATM    6  C6  UNL     1     -34.552  14.736  -5.968  1.00 20.00     0.011 A 
HETATM    7  S7  UNL     1     -35.505  14.537  -7.481  1.00 20.00    -0.053 SA
ENDROOT
TORSDOF 0
ENDMDL
MODEL 8
REMARK VINA RESULT:      -3.6     12.613     13.598
REMARK  0 active torsions:
REMARK  status: ('A' for Active; 'I' for Inactive)
ROOT
HETATM    1  C1  UNL     1     -33.070  15.030  -3.613  1.00 20.00     0.000 A 
HETATM    2  C2  UNL     1     -33.150  16.081  -4.529  1.00 20.00     0.001 A 
HETATM    3  C3  UNL     1     -33.731  13.829  -3.870  1.00 20.00     0.001 A 
HETATM    4  C4  UNL     1     -33.891  15.930  -5.700  1.00 20.00     0.019 A 
HETATM    5  C5  UNL     1     -34.472  13.678  -5.042  1.00 20.00     0.019 A 
HETATM    6  C6  UNL     1     -34.552  14.728  -5.957  1.00 20.00     0.011 A 
HETATM    7  S7  UNL     1     -35.509  14.531  -7.469  1.00 20.00    -0.053 SA
ENDROOT
TORSDOF 0
ENDMDL
MODEL 9
REMARK VINA RESULT:      -3.5     12.225     12.502
REMARK  0 active torsions:
REMARK  status: ('A' for Active; 'I' for Inactive)
ROOT
HETATM    1  C1  UNL     1     -33.365  14.199  -3.725  1.00 20.00     0.000 A 
HETATM    2  C2  UNL     1     -33.920  15.305  -3.079  1.00 20.00     0.001 A 
HETATM    3  C3  UNL     1     -34.187  13.309  -4.415  1.00 20.00     0.001 A 
HETATM    4  C4  UNL     1     -35.297  15.519  -3.123  1.00 20.00     0.019 A 
HETATM    5  C5  UNL     1     -35.565  13.524  -4.461  1.00 20.00     0.019 A 
HETATM    6  C6  UNL     1     -36.120  14.629  -3.815  1.00 20.00     0.011 A 
HETATM    7  S7  UNL     1     -37.898  14.905  -3.875  1.00 20.00    -0.053 SA
ENDROOT
TORSDOF 0
ENDMDL
