MODEL 1
REMARK VINA RESULT:      -5.2      0.000      0.000
REMARK  0 active torsions:
REMARK  status: ('A' for Active; 'I' for Inactive)
ROOT
HETATM    1  C1  UNL     1     -35.260   4.350   4.555  1.00 20.00     0.000 A 
HETATM    2  C2  UNL     1     -34.756   5.299   3.665  1.00 20.00     0.000 A 
HETATM    3  C3  UNL     1     -35.053   4.500   5.926  1.00 20.00     0.000 A 
HETATM    4  C4  UNL     1     -34.047   6.398   4.147  1.00 20.00     0.000 A 
HETATM    5  C5  UNL     1     -34.343   5.600   6.408  1.00 20.00     0.000 A 
HETATM    6  C6  UNL     1     -33.840   6.548   5.519  1.00 20.00     0.000 A 
ENDROOT
TORSDOF 0
ENDMDL
MODEL 2
REMARK VINA RESULT:      -5.2      0.033      2.410
REMARK  0 active torsions:
REMARK  status: ('A' for Active; 'I' for Inactive)
ROOT
HETATM    1  C1  UNL     1     -34.342   5.587   6.428  1.00 20.00     0.000 A 
HETATM    2  C2  UNL     1     -35.078   4.508   5.938  1.00 20.00     0.000 A 
HETATM    3  C3  UNL     1     -33.811   6.528   5.546  1.00 20.00     0.000 A 
HETATM    4  C4  UNL     1     -35.282   4.370   4.565  1.00 20.00     0.000 A 
HETATM    5  C5  UNL     1     -34.015   6.389   4.172  1.00 20.00     0.000 A 
HETATM    6  C6  UNL     1     -34.750   5.310   3.683  1.00 20.00     0.000 A 
ENDROOT
TORSDOF 0
ENDMDL
MODEL 3
REMARK VINA RESULT:      -5.2      0.024      1.973
REMARK  0 active torsions:
REMARK  status: ('A' for Active; 'I' for Inactive)
ROOT
HETATM    1  C1  UNL     1     -34.340   5.593   6.428  1.00 20.00     0.000 A 
HETATM    2  C2  UNL     1     -33.823   6.537   5.541  1.00 20.00     0.000 A 
HETATM    3  C3  UNL     1     -35.058   4.500   5.943  1.00 20.00     0.000 A 
HETATM    4  C4  UNL     1     -34.024   6.388   4.169  1.00 20.00     0.000 A 
HETATM    5  C5  UNL     1     -35.259   4.351   4.570  1.00 20.00     0.000 A 
HETATM    6  C6  UNL     1     -34.742   5.295   3.684  1.00 20.00     0.000 A 
ENDROOT
TORSDOF 0
ENDMDL
MODEL 4
REMARK VINA RESULT:      -5.2      0.023      1.973
REMARK  0 active torsions:
REMARK  status: ('A' for Active; 'I' for Inactive)
ROOT
HETATM    1  C1  UNL     1     -35.056   4.506   5.942  1.00 20.00     0.000 A 
HETATM    2  C2  UNL     1     -34.338   5.600   6.425  1.00 20.00     0.000 A 
HETATM    3  C3  UNL     1     -35.257   4.353   4.570  1.00 20.00     0.000 A 
HETATM    4  C4  UNL     1     -33.821   6.541   5.536  1.00 20.00     0.000 A 
HETATM    5  C5  UNL     1     -34.739   5.295   3.681  1.00 20.00     0.000 A 
HETATM    6  C6  UNL     1     -34.021   6.389   4.164  1.00 20.00     0.000 A 
ENDROOT
TORSDOF 0
ENDMDL
MODEL 5
REMARK VINA RESULT:      -5.2      0.043      2.790
REMARK  0 active torsions:
REMARK  status: ('A' for Active; 'I' for Inactive)
ROOT
HETATM    1  C1  UNL     1     -33.838   6.528   5.568  1.00 20.00     0.000 A 
HETATM    2  C2  UNL     1     -34.360   5.579   6.446  1.00 20.00     0.000 A 
HETATM    3  C3  UNL     1     -34.023   6.383   4.193  1.00 20.00     0.000 A 
HETATM    4  C4  UNL     1     -35.066   4.484   5.950  1.00 20.00     0.000 A 
HETATM    5  C5  UNL     1     -34.730   5.287   3.696  1.00 20.00     0.000 A 
HETATM    6  C6  UNL     1     -35.251   4.339   4.575  1.00 20.00     0.000 A 
ENDROOT
TORSDOF 0
ENDMDL
MODEL 6
REMARK VINA RESULT:      -5.2      0.059      1.973
REMARK  0 active torsions:
REMARK  status: ('A' for Active; 'I' for Inactive)
ROOT
HETATM    1  C1  UNL     1     -33.831   6.518   5.590  1.00 20.00     0.000 A 
HETATM    2  C2  UNL     1     -34.002   6.393   4.211  1.00 20.00     0.000 A 
HETATM    3  C3  UNL     1     -34.365   5.557   6.449  1.00 20.00     0.000 A 
HETATM    4  C4  UNL     1     -34.706   5.307   3.691  1.00 20.00     0.000 A 
HETATM    5  C5  UNL     1     -35.070   4.471   5.929  1.00 20.00     0.000 A 
HETATM    6  C6  UNL     1     -35.240   4.347   4.550  1.00 20.00     0.000 A 
ENDROOT
TORSDOF 0
ENDMDL
MODEL 7
REMARK VINA RESULT:      -5.2      0.156      1.975
REMARK  0 active torsions:
REMARK  status: ('A' for Active; 'I' for Inactive)
ROOT
HETATM    1  C1  UNL     1     -35.213   4.467   4.475  1.00 20.00     0.000 A 
HETATM    2  C2  UNL     1     -35.097   4.531   5.864  1.00 20.00     0.000 A 
HETATM    3  C3  UNL     1     -34.611   5.442   3.680  1.00 20.00     0.000 A 
HETATM    4  C4  UNL     1     -34.378   5.568   6.457  1.00 20.00     0.000 A 
HETATM    5  C5  UNL     1     -33.892   6.480   4.273  1.00 20.00     0.000 A 
HETATM    6  C6  UNL     1     -33.776   6.543   5.661  1.00 20.00     0.000 A 
ENDROOT
TORSDOF 0
ENDMDL
MODEL 8
REMARK VINA RESULT:      -5.2      0.177      1.975
REMARK  0 active torsions:
REMARK  status: ('A' for Active; 'I' for Inactive)
ROOT
HETATM    1  C1  UNL     1     -34.555   5.395   3.702  1.00 20.00     0.000 A 
HETATM    2  C2  UNL     1     -35.153   4.401   4.478  1.00 20.00     0.000 A 
HETATM    3  C3  UNL     1     -33.890   6.455   4.317  1.00 20.00     0.000 A 
HETATM    4  C4  UNL     1     -35.086   4.469   5.869  1.00 20.00     0.000 A 
HETATM    5  C5  UNL     1     -33.823   6.523   5.709  1.00 20.00     0.000 A 
HETATM    6  C6  UNL     1     -34.421   5.529   6.484  1.00 20.00     0.000 A 
ENDROOT
TORSDOF 0
ENDMDL
MODEL 9
REMARK VINA RESULT:      -3.5      8.509      9.654
REMARK  0 active torsions:
REMARK  status: ('A' for Active; 'I' for Inactive)
ROOT
HETATM    1  C1  UNL     1     -41.148   7.130  -0.917  1.00 20.00     0.000 A 
HETATM    2  C2  UNL     1     -41.951   6.978  -2.048  1.00 20.00     0.000 A 
HETATM    3  C3  UNL     1     -40.609   6.007  -0.289  1.00 20.00     0.000 A 
HETATM    4  C4  UNL     1     -42.215   5.704  -2.550  1.00 20.00     0.000 A 
HETATM    5  C5  UNL     1     -40.873   4.733  -0.791  1.00 20.00     0.000 A 
HETATM    6  C6  UNL     1     -41.676   4.581  -1.921  1.00 20.00     0.000 A 
ENDROOT
TORSDOF 0
ENDMDL
