MODEL 1
REMARK VINA RESULT:      -4.9      0.000      0.000
REMARK  2 active torsions:
REMARK  status: ('A' for Active; 'I' for Inactive)
REMARK    1  A    between atoms: C6_6  and  C7_7 
REMARK    2  A    between atoms: C7_7  and  S8_8 
ROOT
HETATM    1  C1  UNL     1     -35.097   4.742   6.226  1.00 20.00     0.000 A 
HETATM    2  C2  UNL     1     -34.304   5.865   6.460  1.00 20.00     0.001 A 
HETATM    3  C3  UNL     1     -35.293   4.286   4.922  1.00 20.00     0.001 A 
HETATM    4  C4  UNL     1     -33.709   6.534   5.390  1.00 20.00     0.008 A 
HETATM    5  C5  UNL     1     -34.698   4.954   3.853  1.00 20.00     0.008 A 
HETATM    6  C6  UNL     1     -33.906   6.078   4.086  1.00 20.00    -0.049 A 
ENDROOT
BRANCH   6   7
HETATM    7  C7  UNL     1     -33.269   6.792   2.942  1.00 20.00     0.109 C 
BRANCH   7   8
HETATM    8  S8  UNL     1     -31.638   7.476   3.367  1.00 20.00    -0.178 SA
HETATM    9  H16 UNL     1     -31.625   8.411   2.409  1.00 20.00     0.101 HD
ENDBRANCH   7   8
ENDBRANCH   6   7
TORSDOF 2
ENDMDL
MODEL 2
REMARK VINA RESULT:      -3.8     12.002     12.377
REMARK  2 active torsions:
REMARK  status: ('A' for Active; 'I' for Inactive)
REMARK    1  A    between atoms: C6_6  and  C7_7 
REMARK    2  A    between atoms: C7_7  and  S8_8 
ROOT
HETATM    1  C1  UNL     1     -35.231  13.436  -4.392  1.00 20.00     0.000 A 
HETATM    2  C2  UNL     1     -33.860  13.602  -4.197  1.00 20.00     0.001 A 
HETATM    3  C3  UNL     1     -36.129  14.355  -3.849  1.00 20.00     0.001 A 
HETATM    4  C4  UNL     1     -33.387  14.686  -3.458  1.00 20.00     0.008 A 
HETATM    5  C5  UNL     1     -35.657  15.440  -3.112  1.00 20.00     0.008 A 
HETATM    6  C6  UNL     1     -34.285  15.606  -2.915  1.00 20.00    -0.049 A 
ENDROOT
BRANCH   6   7
HETATM    7  C7  UNL     1     -33.781  16.766  -2.126  1.00 20.00     0.109 C 
BRANCH   7   8
HETATM    8  S8  UNL     1     -34.673  16.982  -0.555  1.00 20.00    -0.178 SA
HETATM    9  H16 UNL     1     -34.591  15.702  -0.172  1.00 20.00     0.101 HD
ENDBRANCH   7   8
ENDBRANCH   6   7
TORSDOF 2
ENDMDL
MODEL 3
REMARK VINA RESULT:      -3.8     12.040     12.395
REMARK  2 active torsions:
REMARK  status: ('A' for Active; 'I' for Inactive)
REMARK    1  A    between atoms: C6_6  and  C7_7 
REMARK    2  A    between atoms: C7_7  and  S8_8 
ROOT
HETATM    1  C1  UNL     1     -35.194  13.480  -4.394  1.00 20.00     0.000 A 
HETATM    2  C2  UNL     1     -36.101  14.369  -3.817  1.00 20.00     0.001 A 
HETATM    3  C3  UNL     1     -33.824  13.665  -4.209  1.00 20.00     0.001 A 
HETATM    4  C4  UNL     1     -35.638  15.443  -3.058  1.00 20.00     0.008 A 
HETATM    5  C5  UNL     1     -33.360  14.738  -3.449  1.00 20.00     0.008 A 
HETATM    6  C6  UNL     1     -34.268  15.628  -2.873  1.00 20.00    -0.049 A 
ENDROOT
BRANCH   6   7
HETATM    7  C7  UNL     1     -33.772  16.776  -2.060  1.00 20.00     0.109 C 
BRANCH   7   8
HETATM    8  S8  UNL     1     -34.714  16.998  -0.520  1.00 20.00    -0.178 SA
HETATM    9  H16 UNL     1     -35.084  18.262  -0.765  1.00 20.00     0.101 HD
ENDBRANCH   7   8
ENDBRANCH   6   7
TORSDOF 2
ENDMDL
MODEL 4
REMARK VINA RESULT:      -3.8      9.723     10.613
REMARK  2 active torsions:
REMARK  status: ('A' for Active; 'I' for Inactive)
REMARK    1  A    between atoms: C6_6  and  C7_7 
REMARK    2  A    between atoms: C7_7  and  S8_8 
ROOT
HETATM    1  C1  UNL     1     -41.239   7.197  -0.879  1.00 20.00     0.000 A 
HETATM    2  C2  UNL     1     -42.028   7.050  -2.020  1.00 20.00     0.001 A 
HETATM    3  C3  UNL     1     -40.647   6.079  -0.292  1.00 20.00     0.001 A 
HETATM    4  C4  UNL     1     -42.226   5.785  -2.572  1.00 20.00     0.008 A 
HETATM    5  C5  UNL     1     -40.843   4.814  -0.845  1.00 20.00     0.008 A 
HETATM    6  C6  UNL     1     -41.633   4.667  -1.986  1.00 20.00    -0.049 A 
ENDROOT
BRANCH   6   7
HETATM    7  C7  UNL     1     -41.843   3.314  -2.577  1.00 20.00     0.109 C 
BRANCH   7   8
HETATM    8  S8  UNL     1     -43.371   3.212  -3.560  1.00 20.00    -0.178 SA
HETATM    9  H16 UNL     1     -44.006   2.364  -2.741  1.00 20.00     0.101 HD
ENDBRANCH   7   8
ENDBRANCH   6   7
TORSDOF 2
ENDMDL
MODEL 5
REMARK VINA RESULT:      -3.8      9.706     10.535
REMARK  2 active torsions:
REMARK  status: ('A' for Active; 'I' for Inactive)
REMARK    1  A    between atoms: C6_6  and  C7_7 
REMARK    2  A    between atoms: C7_7  and  S8_8 
ROOT
HETATM    1  C1  UNL     1     -41.214   7.209  -0.847  1.00 20.00     0.000 A 
HETATM    2  C2  UNL     1     -40.641   6.080  -0.261  1.00 20.00     0.001 A 
HETATM    3  C3  UNL     1     -41.993   7.078  -1.996  1.00 20.00     0.001 A 
HETATM    4  C4  UNL     1     -40.846   4.822  -0.826  1.00 20.00     0.008 A 
HETATM    5  C5  UNL     1     -42.200   5.820  -2.560  1.00 20.00     0.008 A 
HETATM    6  C6  UNL     1     -41.625   4.691  -1.975  1.00 20.00    -0.049 A 
ENDROOT
BRANCH   6   7
HETATM    7  C7  UNL     1     -41.846   3.345  -2.578  1.00 20.00     0.109 C 
BRANCH   7   8
HETATM    8  S8  UNL     1     -43.396   3.251  -3.527  1.00 20.00    -0.178 SA
HETATM    9  H16 UNL     1     -43.202   2.009  -3.987  1.00 20.00     0.101 HD
ENDBRANCH   7   8
ENDBRANCH   6   7
TORSDOF 2
ENDMDL
MODEL 6
REMARK VINA RESULT:      -3.7      9.744     10.553
REMARK  2 active torsions:
REMARK  status: ('A' for Active; 'I' for Inactive)
REMARK    1  A    between atoms: C6_6  and  C7_7 
REMARK    2  A    between atoms: C7_7  and  S8_8 
ROOT
HETATM    1  C1  UNL     1     -40.757   4.750  -0.908  1.00 20.00     0.000 A 
HETATM    2  C2  UNL     1     -41.621   4.518  -1.977  1.00 20.00     0.001 A 
HETATM    3  C3  UNL     1     -40.625   6.036  -0.385  1.00 20.00     0.001 A 
HETATM    4  C4  UNL     1     -42.352   5.572  -2.525  1.00 20.00     0.008 A 
HETATM    5  C5  UNL     1     -41.356   7.090  -0.931  1.00 20.00     0.008 A 
HETATM    6  C6  UNL     1     -42.220   6.858  -2.002  1.00 20.00    -0.049 A 
ENDROOT
BRANCH   6   7
HETATM    7  C7  UNL     1     -43.003   7.985  -2.586  1.00 20.00     0.109 C 
BRANCH   7   8
HETATM    8  S8  UNL     1     -42.530   8.345  -4.306  1.00 20.00    -0.178 SA
HETATM    9  H16 UNL     1     -41.273   8.714  -4.031  1.00 20.00     0.101 HD
ENDBRANCH   7   8
ENDBRANCH   6   7
TORSDOF 2
ENDMDL
MODEL 7
REMARK VINA RESULT:      -3.6     12.372     13.730
REMARK  2 active torsions:
REMARK  status: ('A' for Active; 'I' for Inactive)
REMARK    1  A    between atoms: C6_6  and  C7_7 
REMARK    2  A    between atoms: C7_7  and  S8_8 
ROOT
HETATM    1  C1  UNL     1     -33.009  15.078  -3.666  1.00 20.00     0.000 A 
HETATM    2  C2  UNL     1     -33.198  16.087  -4.610  1.00 20.00     0.001 A 
HETATM    3  C3  UNL     1     -33.609  13.832  -3.849  1.00 20.00     0.001 A 
HETATM    4  C4  UNL     1     -33.988  15.851  -5.735  1.00 20.00     0.008 A 
HETATM    5  C5  UNL     1     -34.398  13.595  -4.973  1.00 20.00     0.008 A 
HETATM    6  C6  UNL     1     -34.589  14.606  -5.917  1.00 20.00    -0.049 A 
ENDROOT
BRANCH   6   7
HETATM    7  C7  UNL     1     -35.433  14.352  -7.120  1.00 20.00     0.109 C 
BRANCH   7   8
HETATM    8  S8  UNL     1     -36.960  15.341  -7.120  1.00 20.00    -0.178 SA
HETATM    9  H16 UNL     1     -37.453  14.837  -5.982  1.00 20.00     0.101 HD
ENDBRANCH   7   8
ENDBRANCH   6   7
TORSDOF 2
ENDMDL
MODEL 8
REMARK VINA RESULT:      -3.6     12.352     13.774
REMARK  2 active torsions:
REMARK  status: ('A' for Active; 'I' for Inactive)
REMARK    1  A    between atoms: C6_6  and  C7_7 
REMARK    2  A    between atoms: C7_7  and  S8_8 
ROOT
HETATM    1  C1  UNL     1     -33.071  15.055  -3.636  1.00 20.00     0.000 A 
HETATM    2  C2  UNL     1     -33.695  13.823  -3.835  1.00 20.00     0.001 A 
HETATM    3  C3  UNL     1     -33.210  16.067  -4.586  1.00 20.00     0.001 A 
HETATM    4  C4  UNL     1     -34.455  13.603  -4.983  1.00 20.00     0.008 A 
HETATM    5  C5  UNL     1     -33.971  15.848  -5.734  1.00 20.00     0.008 A 
HETATM    6  C6  UNL     1     -34.594  14.616  -5.933  1.00 20.00    -0.049 A 
ENDROOT
BRANCH   6   7
HETATM    7  C7  UNL     1     -35.408  14.382  -7.160  1.00 20.00     0.109 C 
BRANCH   7   8
HETATM    8  S8  UNL     1     -36.992  15.275  -7.127  1.00 20.00    -0.178 SA
HETATM    9  H16 UNL     1     -37.322  15.019  -8.399  1.00 20.00     0.101 HD
ENDBRANCH   7   8
ENDBRANCH   6   7
TORSDOF 2
ENDMDL
MODEL 9
REMARK VINA RESULT:      -3.5     12.390     13.826
REMARK  2 active torsions:
REMARK  status: ('A' for Active; 'I' for Inactive)
REMARK    1  A    between atoms: C6_6  and  C7_7 
REMARK    2  A    between atoms: C7_7  and  S8_8 
ROOT
HETATM    1  C1  UNL     1     -33.557  13.779  -3.788  1.00 20.00     0.000 A 
HETATM    2  C2  UNL     1     -33.000  15.052  -3.662  1.00 20.00     0.001 A 
HETATM    3  C3  UNL     1     -34.383  13.485  -4.873  1.00 20.00     0.001 A 
HETATM    4  C4  UNL     1     -33.270  16.029  -4.618  1.00 20.00     0.008 A 
HETATM    5  C5  UNL     1     -34.652  14.462  -5.831  1.00 20.00     0.008 A 
HETATM    6  C6  UNL     1     -34.096  15.735  -5.703  1.00 20.00    -0.049 A 
ENDROOT
BRANCH   6   7
HETATM    7  C7  UNL     1     -34.384  16.781  -6.727  1.00 20.00     0.109 C 
BRANCH   7   8
HETATM    8  S8  UNL     1     -33.899  18.446  -6.179  1.00 20.00    -0.178 SA
HETATM    9  H16 UNL     1     -32.620  18.143  -5.927  1.00 20.00     0.101 HD
ENDBRANCH   7   8
ENDBRANCH   6   7
TORSDOF 2
ENDMDL
