MODEL 1
REMARK VINA RESULT:      -3.1      0.000      0.000
REMARK  0 active torsions:
REMARK  status: ('A' for Active; 'I' for Inactive)
ROOT
HETATM    1  C1  UNL     1     -34.024   6.456   6.469  1.00 20.00     0.021 C 
HETATM    2  C2  UNL     1     -34.794   4.292   5.439  1.00 20.00     0.021 C 
HETATM    3  C3  UNL     1     -34.607   5.792   5.226  1.00 20.00     0.045 C 
HETATM    4  I4  UNL     1     -33.300   6.128   3.541  1.00 20.00    -0.086 I 
ENDROOT
TORSDOF 0
ENDMDL
MODEL 2
REMARK VINA RESULT:      -3.1      0.994      1.928
REMARK  0 active torsions:
REMARK  status: ('A' for Active; 'I' for Inactive)
ROOT
HETATM    1  C1  UNL     1     -35.389   5.285   4.072  1.00 20.00     0.021 C 
HETATM    2  C2  UNL     1     -34.143   6.266   6.027  1.00 20.00     0.021 C 
HETATM    3  C3  UNL     1     -34.025   5.473   4.729  1.00 20.00     0.045 C 
HETATM    4  I4  UNL     1     -32.698   6.499   3.370  1.00 20.00    -0.086 I 
ENDROOT
TORSDOF 0
ENDMDL
MODEL 3
REMARK VINA RESULT:      -2.9      1.946      2.554
REMARK  0 active torsions:
REMARK  status: ('A' for Active; 'I' for Inactive)
ROOT
HETATM    1  C1  UNL     1     -33.161   6.321   4.046  1.00 20.00     0.021 C 
HETATM    2  C2  UNL     1     -33.637   6.920   6.444  1.00 20.00     0.021 C 
HETATM    3  C3  UNL     1     -34.205   6.327   5.158  1.00 20.00     0.045 C 
HETATM    4  I4  UNL     1     -34.887   4.312   5.526  1.00 20.00    -0.086 I 
ENDROOT
TORSDOF 0
ENDMDL
MODEL 4
REMARK VINA RESULT:      -2.8      2.318      2.990
REMARK  0 active torsions:
REMARK  status: ('A' for Active; 'I' for Inactive)
ROOT
HETATM    1  C1  UNL     1     -34.682   5.354   2.938  1.00 20.00     0.021 C 
HETATM    2  C2  UNL     1     -32.683   6.542   3.901  1.00 20.00     0.021 C 
HETATM    3  C3  UNL     1     -34.163   6.220   4.081  1.00 20.00     0.045 C 
HETATM    4  I4  UNL     1     -34.461   5.199   5.960  1.00 20.00    -0.086 I 
ENDROOT
TORSDOF 0
ENDMDL
MODEL 5
REMARK VINA RESULT:      -2.7      1.990      2.239
REMARK  0 active torsions:
REMARK  status: ('A' for Active; 'I' for Inactive)
ROOT
HETATM    1  C1  UNL     1     -33.755   6.953   6.417  1.00 20.00     0.021 C 
HETATM    2  C2  UNL     1     -33.965   6.618   3.931  1.00 20.00     0.021 C 
HETATM    3  C3  UNL     1     -33.629   5.960   5.266  1.00 20.00     0.045 C 
HETATM    4  I4  UNL     1     -34.950   4.286   5.603  1.00 20.00    -0.086 I 
ENDROOT
TORSDOF 0
ENDMDL
MODEL 6
REMARK VINA RESULT:      -2.7      2.373      2.576
REMARK  0 active torsions:
REMARK  status: ('A' for Active; 'I' for Inactive)
ROOT
HETATM    1  C1  UNL     1     -33.248   6.428   3.897  1.00 20.00     0.021 C 
HETATM    2  C2  UNL     1     -35.622   5.836   3.306  1.00 20.00     0.021 C 
HETATM    3  C3  UNL     1     -34.320   5.343   3.930  1.00 20.00     0.045 C 
HETATM    4  I4  UNL     1     -34.677   4.737   5.972  1.00 20.00    -0.086 I 
ENDROOT
TORSDOF 0
ENDMDL
MODEL 7
REMARK VINA RESULT:      -2.6      1.784      2.313
REMARK  0 active torsions:
REMARK  status: ('A' for Active; 'I' for Inactive)
ROOT
HETATM    1  C1  UNL     1     -34.926   3.828   5.481  1.00 20.00     0.021 C 
HETATM    2  C2  UNL     1     -34.750   5.388   3.513  1.00 20.00     0.021 C 
HETATM    3  C3  UNL     1     -35.088   5.265   4.996  1.00 20.00     0.045 C 
HETATM    4  I4  UNL     1     -33.804   6.568   6.143  1.00 20.00    -0.086 I 
ENDROOT
TORSDOF 0
ENDMDL
MODEL 8
REMARK VINA RESULT:      -2.4      9.308      9.489
REMARK  0 active torsions:
REMARK  status: ('A' for Active; 'I' for Inactive)
ROOT
HETATM    1  C1  UNL     1     -41.102   7.065  -0.856  1.00 20.00     0.021 C 
HETATM    2  C2  UNL     1     -40.744   4.586  -1.102  1.00 20.00     0.021 C 
HETATM    3  C3  UNL     1     -41.147   5.711  -0.154  1.00 20.00     0.045 C 
HETATM    4  I4  UNL     1     -43.138   5.350   0.599  1.00 20.00    -0.086 I 
ENDROOT
TORSDOF 0
ENDMDL
MODEL 9
REMARK VINA RESULT:      -2.3     13.044     13.476
REMARK  0 active torsions:
REMARK  status: ('A' for Active; 'I' for Inactive)
ROOT
HETATM    1  C1  UNL     1     -33.906  16.200  -2.486  1.00 20.00     0.021 C 
HETATM    2  C2  UNL     1     -33.218  16.411  -4.898  1.00 20.00     0.021 C 
HETATM    3  C3  UNL     1     -33.321  15.477  -3.696  1.00 20.00     0.045 C 
HETATM    4  I4  UNL     1     -34.559  13.781  -4.197  1.00 20.00    -0.086 I 
ENDROOT
TORSDOF 0
ENDMDL
