MODEL 1
REMARK VINA RESULT:      -4.1      0.000      0.000
REMARK  0 active torsions:
REMARK  status: ('A' for Active; 'I' for Inactive)
ROOT
HETATM    1  C1  UNL     1     -33.768   6.811   6.592  1.00 20.00     0.002 A 
HETATM    2  C2  UNL     1     -34.513   5.645   6.425  1.00 20.00     0.007 A 
HETATM    3  C3  UNL     1     -33.074   7.356   5.511  1.00 20.00     0.018 A 
HETATM    4  C4  UNL     1     -33.870   5.567   4.097  1.00 20.00     0.025 A 
HETATM    5  C5  UNL     1     -34.564   5.022   5.177  1.00 20.00    -0.061 A 
HETATM    6  C6  UNL     1     -33.125   6.734   4.264  1.00 20.00     0.006 A 
HETATM    7  C7  UNL     1     -35.361   3.774   5.000  1.00 20.00     0.048 C 
HETATM    8  I8  UNL     1     -32.091   7.547   2.655  1.00 20.00    -0.045 I 
ENDROOT
TORSDOF 0
ENDMDL
MODEL 2
REMARK VINA RESULT:      -4.0     10.216     11.096
REMARK  0 active torsions:
REMARK  status: ('A' for Active; 'I' for Inactive)
ROOT
HETATM    1  C1  UNL     1     -40.701   5.757  -0.659  1.00 20.00     0.002 A 
HETATM    2  C2  UNL     1     -41.254   6.915  -1.203  1.00 20.00     0.007 A 
HETATM    3  C3  UNL     1     -41.034   4.510  -1.188  1.00 20.00     0.018 A 
HETATM    4  C4  UNL     1     -42.474   5.580  -2.806  1.00 20.00     0.025 A 
HETATM    5  C5  UNL     1     -42.141   6.827  -2.277  1.00 20.00    -0.061 A 
HETATM    6  C6  UNL     1     -41.920   4.421  -2.262  1.00 20.00     0.006 A 
HETATM    7  C7  UNL     1     -42.733   8.067  -2.858  1.00 20.00     0.048 C 
HETATM    8  I8  UNL     1     -42.414   2.563  -3.051  1.00 20.00    -0.045 I 
ENDROOT
TORSDOF 0
ENDMDL
MODEL 3
REMARK VINA RESULT:      -3.9     12.253     12.819
REMARK  0 active torsions:
REMARK  status: ('A' for Active; 'I' for Inactive)
ROOT
HETATM    1  C1  UNL     1     -34.470  13.695  -4.072  1.00 20.00     0.002 A 
HETATM    2  C2  UNL     1     -33.829  14.619  -3.248  1.00 20.00     0.007 A 
HETATM    3  C3  UNL     1     -35.838  13.812  -4.320  1.00 20.00     0.018 A 
HETATM    4  C4  UNL     1     -35.924  15.777  -2.918  1.00 20.00     0.025 A 
HETATM    5  C5  UNL     1     -34.556  15.661  -2.670  1.00 20.00    -0.061 A 
HETATM    6  C6  UNL     1     -36.564  14.853  -3.742  1.00 20.00     0.006 A 
HETATM    7  C7  UNL     1     -33.869  16.648  -1.788  1.00 20.00     0.048 C 
HETATM    8  I8  UNL     1     -38.602  15.028  -4.113  1.00 20.00    -0.045 I 
ENDROOT
TORSDOF 0
ENDMDL
MODEL 4
REMARK VINA RESULT:      -3.9     10.015     10.781
REMARK  0 active torsions:
REMARK  status: ('A' for Active; 'I' for Inactive)
ROOT
HETATM    1  C1  UNL     1     -40.875   6.263  -0.544  1.00 20.00     0.002 A 
HETATM    2  C2  UNL     1     -40.913   4.927  -0.940  1.00 20.00     0.007 A 
HETATM    3  C3  UNL     1     -41.592   7.223  -1.259  1.00 20.00     0.018 A 
HETATM    4  C4  UNL     1     -42.384   5.510  -2.766  1.00 20.00     0.025 A 
HETATM    5  C5  UNL     1     -41.667   4.550  -2.052  1.00 20.00    -0.061 A 
HETATM    6  C6  UNL     1     -42.346   6.846  -2.370  1.00 20.00     0.006 A 
HETATM    7  C7  UNL     1     -41.706   3.120  -2.475  1.00 20.00     0.048 C 
HETATM    8  I8  UNL     1     -43.416   8.276  -3.433  1.00 20.00    -0.045 I 
ENDROOT
TORSDOF 0
ENDMDL
MODEL 5
REMARK VINA RESULT:      -3.9      0.975      2.334
REMARK  0 active torsions:
REMARK  status: ('A' for Active; 'I' for Inactive)
ROOT
HETATM    1  C1  UNL     1     -35.030   4.851   3.281  1.00 20.00     0.002 A 
HETATM    2  C2  UNL     1     -35.187   4.860   4.666  1.00 20.00     0.007 A 
HETATM    3  C3  UNL     1     -34.088   5.685   2.679  1.00 20.00     0.018 A 
HETATM    4  C4  UNL     1     -33.458   6.539   4.849  1.00 20.00     0.025 A 
HETATM    5  C5  UNL     1     -34.400   5.705   5.451  1.00 20.00    -0.061 A 
HETATM    6  C6  UNL     1     -33.302   6.529   3.463  1.00 20.00     0.006 A 
HETATM    7  C7  UNL     1     -34.569   5.715   6.933  1.00 20.00     0.048 C 
HETATM    8  I8  UNL     1     -31.897   7.771   2.567  1.00 20.00    -0.045 I 
ENDROOT
TORSDOF 0
ENDMDL
MODEL 6
REMARK VINA RESULT:      -3.9     12.139     13.261
REMARK  0 active torsions:
REMARK  status: ('A' for Active; 'I' for Inactive)
ROOT
HETATM    1  C1  UNL     1     -33.652  17.757  -3.757  1.00 20.00     0.002 A 
HETATM    2  C2  UNL     1     -33.926  17.925  -2.401  1.00 20.00     0.007 A 
HETATM    3  C3  UNL     1     -33.887  16.526  -4.369  1.00 20.00     0.018 A 
HETATM    4  C4  UNL     1     -34.669  15.630  -2.267  1.00 20.00     0.025 A 
HETATM    5  C5  UNL     1     -34.434  16.861  -1.655  1.00 20.00    -0.061 A 
HETATM    6  C6  UNL     1     -34.395  15.462  -3.624  1.00 20.00     0.006 A 
HETATM    7  C7  UNL     1     -34.726  17.042  -0.203  1.00 20.00     0.048 C 
HETATM    8  I8  UNL     1     -34.746  13.628  -4.536  1.00 20.00    -0.045 I 
ENDROOT
TORSDOF 0
ENDMDL
MODEL 7
REMARK VINA RESULT:      -3.9     12.223     13.311
REMARK  0 active torsions:
REMARK  status: ('A' for Active; 'I' for Inactive)
ROOT
HETATM    1  C1  UNL     1     -33.523  16.819  -4.995  1.00 20.00     0.002 A 
HETATM    2  C2  UNL     1     -33.835  15.496  -5.306  1.00 20.00     0.007 A 
HETATM    3  C3  UNL     1     -33.725  17.298  -3.701  1.00 20.00     0.018 A 
HETATM    4  C4  UNL     1     -34.550  15.130  -3.026  1.00 20.00     0.025 A 
HETATM    5  C5  UNL     1     -34.349  14.651  -4.321  1.00 20.00    -0.061 A 
HETATM    6  C6  UNL     1     -34.239  16.454  -2.716  1.00 20.00     0.006 A 
HETATM    7  C7  UNL     1     -34.682  13.236  -4.654  1.00 20.00     0.048 C 
HETATM    8  I8  UNL     1     -34.537  17.168  -0.788  1.00 20.00    -0.045 I 
ENDROOT
TORSDOF 0
ENDMDL
MODEL 8
REMARK VINA RESULT:      -3.8     12.383     12.968
REMARK  0 active torsions:
REMARK  status: ('A' for Active; 'I' for Inactive)
ROOT
HETATM    1  C1  UNL     1     -32.713  18.784   0.185  1.00 20.00     0.002 A 
HETATM    2  C2  UNL     1     -33.152  17.920  -0.816  1.00 20.00     0.007 A 
HETATM    3  C3  UNL     1     -33.439  18.906   1.370  1.00 20.00     0.018 A 
HETATM    4  C4  UNL     1     -35.044  17.297   0.552  1.00 20.00     0.025 A 
HETATM    5  C5  UNL     1     -34.319  17.176  -0.633  1.00 20.00    -0.061 A 
HETATM    6  C6  UNL     1     -34.605  18.163   1.553  1.00 20.00     0.006 A 
HETATM    7  C7  UNL     1     -34.788  16.251  -1.705  1.00 20.00     0.048 C 
HETATM    8  I8  UNL     1     -35.685  18.343   3.319  1.00 20.00    -0.045 I 
ENDROOT
TORSDOF 0
ENDMDL
MODEL 9
REMARK VINA RESULT:      -3.8     12.359     13.652
REMARK  0 active torsions:
REMARK  status: ('A' for Active; 'I' for Inactive)
ROOT
HETATM    1  C1  UNL     1     -34.698  13.392  -4.612  1.00 20.00     0.002 A 
HETATM    2  C2  UNL     1     -34.642  14.037  -5.846  1.00 20.00     0.007 A 
HETATM    3  C3  UNL     1     -34.669  14.136  -3.432  1.00 20.00     0.018 A 
HETATM    4  C4  UNL     1     -34.526  16.174  -4.722  1.00 20.00     0.025 A 
HETATM    5  C5  UNL     1     -34.556  15.429  -5.902  1.00 20.00    -0.061 A 
HETATM    6  C6  UNL     1     -34.582  15.527  -3.488  1.00 20.00     0.006 A 
HETATM    7  C7  UNL     1     -34.495  16.119  -7.223  1.00 20.00     0.048 C 
HETATM    8  I8  UNL     1     -34.540  16.636  -1.731  1.00 20.00    -0.045 I 
ENDROOT
TORSDOF 0
ENDMDL
