MODEL 1
REMARK VINA RESULT:      -5.7      0.000      0.000
REMARK  3 active torsions:
REMARK  status: ('A' for Active; 'I' for Inactive)
REMARK    1  A    between atoms: C6_6  and  O9_9 
REMARK    2  A    between atoms: C7_7  and  C8_8 
REMARK    3  A    between atoms: C7_7  and  O9_9 
ROOT
HETATM    1  C1  UNL     1     -34.921   5.024   6.230  1.00 20.00     0.000 A 
HETATM    2  C2  UNL     1     -35.215   4.468   4.985  1.00 20.00     0.003 A 
HETATM    3  C3  UNL     1     -34.082   6.134   6.319  1.00 20.00     0.003 A 
HETATM    4  C4  UNL     1     -34.667   5.023   3.828  1.00 20.00     0.037 A 
HETATM    5  C5  UNL     1     -33.534   6.688   5.161  1.00 20.00     0.037 A 
HETATM    6  C6  UNL     1     -33.827   6.133   3.916  1.00 20.00     0.068 A 
ENDROOT
BRANCH   6   7
HETATM    7  O9  UNL     1     -33.292   6.672   2.788  1.00 20.00    -0.350 OA
BRANCH   7   8
HETATM    8  C7  UNL     1     -32.154   7.518   2.948  1.00 20.00     0.190 C 
BRANCH   8   9
HETATM    9  C8  UNL     1     -31.898   8.285   1.664  1.00 20.00     0.141 C 
HETATM   10 CL10 UNL     1     -32.601   9.919   1.750  1.00 20.00    -0.128 Cl
ENDBRANCH   8   9
ENDBRANCH   7   8
ENDBRANCH   6   7
TORSDOF 3
ENDMDL
MODEL 2
REMARK VINA RESULT:      -5.7      0.027      1.528
REMARK  3 active torsions:
REMARK  status: ('A' for Active; 'I' for Inactive)
REMARK    1  A    between atoms: C6_6  and  O9_9 
REMARK    2  A    between atoms: C7_7  and  C8_8 
REMARK    3  A    between atoms: C7_7  and  O9_9 
ROOT
HETATM    1  C1  UNL     1     -34.941   5.039   6.219  1.00 20.00     0.000 A 
HETATM    2  C2  UNL     1     -34.101   6.148   6.309  1.00 20.00     0.003 A 
HETATM    3  C3  UNL     1     -35.232   4.483   4.973  1.00 20.00     0.003 A 
HETATM    4  C4  UNL     1     -33.552   6.702   5.153  1.00 20.00     0.037 A 
HETATM    5  C5  UNL     1     -34.683   5.037   3.817  1.00 20.00     0.037 A 
HETATM    6  C6  UNL     1     -33.843   6.147   3.906  1.00 20.00     0.068 A 
ENDROOT
BRANCH   6   7
HETATM    7  O9  UNL     1     -33.308   6.688   2.779  1.00 20.00    -0.350 OA
BRANCH   7   8
HETATM    8  C7  UNL     1     -32.136   7.486   2.932  1.00 20.00     0.190 C 
BRANCH   8   9
HETATM    9  C8  UNL     1     -31.883   8.278   1.663  1.00 20.00     0.141 C 
HETATM   10 CL10 UNL     1     -32.621   9.895   1.766  1.00 20.00    -0.128 Cl
ENDBRANCH   8   9
ENDBRANCH   7   8
ENDBRANCH   6   7
TORSDOF 3
ENDMDL
MODEL 3
REMARK VINA RESULT:      -4.1     10.101     11.227
REMARK  3 active torsions:
REMARK  status: ('A' for Active; 'I' for Inactive)
REMARK    1  A    between atoms: C6_6  and  O9_9 
REMARK    2  A    between atoms: C7_7  and  C8_8 
REMARK    3  A    between atoms: C7_7  and  O9_9 
ROOT
HETATM    1  C1  UNL     1     -41.070   7.032  -0.855  1.00 20.00     0.000 A 
HETATM    2  C2  UNL     1     -40.687   5.724  -0.558  1.00 20.00     0.003 A 
HETATM    3  C3  UNL     1     -41.958   7.279  -1.903  1.00 20.00     0.003 A 
HETATM    4  C4  UNL     1     -41.193   4.663  -1.310  1.00 20.00     0.037 A 
HETATM    5  C5  UNL     1     -42.463   6.217  -2.653  1.00 20.00     0.037 A 
HETATM    6  C6  UNL     1     -42.080   4.909  -2.358  1.00 20.00     0.068 A 
ENDROOT
BRANCH   6   7
HETATM    7  O9  UNL     1     -42.572   3.874  -3.091  1.00 20.00    -0.350 OA
BRANCH   7   8
HETATM    8  C7  UNL     1     -43.076   2.749  -2.373  1.00 20.00     0.190 C 
BRANCH   8   9
HETATM    9  C8  UNL     1     -42.626   1.467  -3.046  1.00 20.00     0.141 C 
HETATM   10 CL10 UNL     1     -41.166   1.743  -4.027  1.00 20.00    -0.128 Cl
ENDBRANCH   8   9
ENDBRANCH   7   8
ENDBRANCH   6   7
TORSDOF 3
ENDMDL
MODEL 4
REMARK VINA RESULT:      -4.0     11.130     12.138
REMARK  3 active torsions:
REMARK  status: ('A' for Active; 'I' for Inactive)
REMARK    1  A    between atoms: C6_6  and  O9_9 
REMARK    2  A    between atoms: C7_7  and  C8_8 
REMARK    3  A    between atoms: C7_7  and  O9_9 
ROOT
HETATM    1  C1  UNL     1     -34.938  13.409  -4.121  1.00 20.00     0.000 A 
HETATM    2  C2  UNL     1     -33.583  13.628  -3.872  1.00 20.00     0.003 A 
HETATM    3  C3  UNL     1     -35.813  14.491  -4.221  1.00 20.00     0.003 A 
HETATM    4  C4  UNL     1     -33.104  14.929  -3.722  1.00 20.00     0.037 A 
HETATM    5  C5  UNL     1     -35.333  15.792  -4.072  1.00 20.00     0.037 A 
HETATM    6  C6  UNL     1     -33.979  16.012  -3.822  1.00 20.00     0.068 A 
ENDROOT
BRANCH   6   7
HETATM    7  O9  UNL     1     -33.511  17.280  -3.674  1.00 20.00    -0.350 OA
BRANCH   7   8
HETATM    8  C7  UNL     1     -34.162  18.105  -2.708  1.00 20.00     0.190 C 
BRANCH   8   9
HETATM    9  C8  UNL     1     -33.622  17.798  -1.324  1.00 20.00     0.141 C 
HETATM   10 CL10 UNL     1     -34.733  16.728  -0.433  1.00 20.00    -0.128 Cl
ENDBRANCH   8   9
ENDBRANCH   7   8
ENDBRANCH   6   7
TORSDOF 3
ENDMDL
MODEL 5
REMARK VINA RESULT:      -4.0     11.032     12.130
REMARK  3 active torsions:
REMARK  status: ('A' for Active; 'I' for Inactive)
REMARK    1  A    between atoms: C6_6  and  O9_9 
REMARK    2  A    between atoms: C7_7  and  C8_8 
REMARK    3  A    between atoms: C7_7  and  O9_9 
ROOT
HETATM    1  C1  UNL     1     -34.802  13.867  -5.889  1.00 20.00     0.000 A 
HETATM    2  C2  UNL     1     -34.802  13.280  -4.624  1.00 20.00     0.003 A 
HETATM    3  C3  UNL     1     -34.402  15.195  -6.043  1.00 20.00     0.003 A 
HETATM    4  C4  UNL     1     -34.403  14.022  -3.512  1.00 20.00     0.037 A 
HETATM    5  C5  UNL     1     -34.003  15.936  -4.930  1.00 20.00     0.037 A 
HETATM    6  C6  UNL     1     -34.003  15.350  -3.664  1.00 20.00     0.068 A 
ENDROOT
BRANCH   6   7
HETATM    7  O9  UNL     1     -33.615  16.073  -2.580  1.00 20.00    -0.350 OA
BRANCH   7   8
HETATM    8  C7  UNL     1     -34.584  16.274  -1.552  1.00 20.00     0.190 C 
BRANCH   8   9
HETATM    9  C8  UNL     1     -34.127  17.385  -0.626  1.00 20.00     0.141 C 
HETATM   10 CL10 UNL     1     -35.096  17.404   0.869  1.00 20.00    -0.128 Cl
ENDBRANCH   8   9
ENDBRANCH   7   8
ENDBRANCH   6   7
TORSDOF 3
ENDMDL
MODEL 6
REMARK VINA RESULT:      -4.0     11.078     12.375
REMARK  3 active torsions:
REMARK  status: ('A' for Active; 'I' for Inactive)
REMARK    1  A    between atoms: C6_6  and  O9_9 
REMARK    2  A    between atoms: C7_7  and  C8_8 
REMARK    3  A    between atoms: C7_7  and  O9_9 
ROOT
HETATM    1  C1  UNL     1     -34.457  13.216  -4.932  1.00 20.00     0.000 A 
HETATM    2  C2  UNL     1     -34.986  14.271  -5.676  1.00 20.00     0.003 A 
HETATM    3  C3  UNL     1     -33.574  13.475  -3.884  1.00 20.00     0.003 A 
HETATM    4  C4  UNL     1     -34.631  15.584  -5.371  1.00 20.00     0.037 A 
HETATM    5  C5  UNL     1     -33.219  14.789  -3.580  1.00 20.00     0.037 A 
HETATM    6  C6  UNL     1     -33.747  15.844  -4.323  1.00 20.00     0.068 A 
ENDROOT
BRANCH   6   7
HETATM    7  O9  UNL     1     -33.400  17.125  -4.027  1.00 20.00    -0.350 OA
BRANCH   7   8
HETATM    8  C7  UNL     1     -34.307  17.876  -3.221  1.00 20.00     0.190 C 
BRANCH   8   9
HETATM    9  C8  UNL     1     -33.777  17.971  -1.803  1.00 20.00     0.141 C 
HETATM   10 CL10 UNL     1     -34.473  16.692  -0.777  1.00 20.00    -0.128 Cl
ENDBRANCH   8   9
ENDBRANCH   7   8
ENDBRANCH   6   7
TORSDOF 3
ENDMDL
MODEL 7
REMARK VINA RESULT:      -4.0     11.531     11.975
REMARK  3 active torsions:
REMARK  status: ('A' for Active; 'I' for Inactive)
REMARK    1  A    between atoms: C6_6  and  O9_9 
REMARK    2  A    between atoms: C7_7  and  C8_8 
REMARK    3  A    between atoms: C7_7  and  O9_9 
ROOT
HETATM    1  C1  UNL     1     -34.248  18.340   1.543  1.00 20.00     0.000 A 
HETATM    2  C2  UNL     1     -35.119  17.461   0.902  1.00 20.00     0.003 A 
HETATM    3  C3  UNL     1     -33.133  18.836   0.867  1.00 20.00     0.003 A 
HETATM    4  C4  UNL     1     -34.875  17.077  -0.417  1.00 20.00     0.037 A 
HETATM    5  C5  UNL     1     -32.890  18.451  -0.452  1.00 20.00     0.037 A 
HETATM    6  C6  UNL     1     -33.760  17.572  -1.094  1.00 20.00     0.068 A 
ENDROOT
BRANCH   6   7
HETATM    7  O9  UNL     1     -33.522  17.196  -2.379  1.00 20.00    -0.350 OA
BRANCH   7   8
HETATM    8  C7  UNL     1     -34.048  15.938  -2.797  1.00 20.00     0.190 C 
BRANCH   8   9
HETATM    9  C8  UNL     1     -33.036  15.222  -3.671  1.00 20.00     0.141 C 
HETATM   10 CL10 UNL     1     -33.430  13.490  -3.811  1.00 20.00    -0.128 Cl
ENDBRANCH   8   9
ENDBRANCH   7   8
ENDBRANCH   6   7
TORSDOF 3
ENDMDL
MODEL 8
REMARK VINA RESULT:      -3.9     11.408     12.197
REMARK  3 active torsions:
REMARK  status: ('A' for Active; 'I' for Inactive)
REMARK    1  A    between atoms: C6_6  and  O9_9 
REMARK    2  A    between atoms: C7_7  and  C8_8 
REMARK    3  A    between atoms: C7_7  and  O9_9 
ROOT
HETATM    1  C1  UNL     1     -33.260  14.790  -3.540  1.00 20.00     0.000 A 
HETATM    2  C2  UNL     1     -33.739  13.640  -4.168  1.00 20.00     0.003 A 
HETATM    3  C3  UNL     1     -34.154  15.711  -2.994  1.00 20.00     0.003 A 
HETATM    4  C4  UNL     1     -35.113  13.412  -4.249  1.00 20.00     0.037 A 
HETATM    5  C5  UNL     1     -35.528  15.481  -3.076  1.00 20.00     0.037 A 
HETATM    6  C6  UNL     1     -36.008  14.332  -3.704  1.00 20.00     0.068 A 
ENDROOT
BRANCH   6   7
HETATM    7  O9  UNL     1     -37.347  14.110  -3.785  1.00 20.00    -0.350 OA
BRANCH   7   8
HETATM    8  C7  UNL     1     -38.180  15.241  -4.032  1.00 20.00     0.190 C 
BRANCH   8   9
HETATM    9  C8  UNL     1     -38.625  15.244  -5.483  1.00 20.00     0.141 C 
HETATM   10 CL10 UNL     1     -37.321  15.830  -6.545  1.00 20.00    -0.128 Cl
ENDBRANCH   8   9
ENDBRANCH   7   8
ENDBRANCH   6   7
TORSDOF 3
ENDMDL
MODEL 9
REMARK VINA RESULT:      -3.9     11.187     12.264
REMARK  3 active torsions:
REMARK  status: ('A' for Active; 'I' for Inactive)
REMARK    1  A    between atoms: C6_6  and  O9_9 
REMARK    2  A    between atoms: C7_7  and  C8_8 
REMARK    3  A    between atoms: C7_7  and  O9_9 
ROOT
HETATM    1  C1  UNL     1     -33.777  18.233  -0.599  1.00 20.00     0.000 A 
HETATM    2  C2  UNL     1     -33.477  18.681  -1.885  1.00 20.00     0.003 A 
HETATM    3  C3  UNL     1     -34.431  17.015  -0.418  1.00 20.00     0.003 A 
HETATM    4  C4  UNL     1     -33.833  17.909  -2.991  1.00 20.00     0.037 A 
HETATM    5  C5  UNL     1     -34.786  16.243  -1.525  1.00 20.00     0.037 A 
HETATM    6  C6  UNL     1     -34.487  16.690  -2.812  1.00 20.00     0.068 A 
ENDROOT
BRANCH   6   7
HETATM    7  O9  UNL     1     -34.835  15.938  -3.890  1.00 20.00    -0.350 OA
BRANCH   7   8
HETATM    8  C7  UNL     1     -35.665  14.802  -3.651  1.00 20.00     0.190 C 
BRANCH   8   9
HETATM    9  C8  UNL     1     -34.992  13.552  -4.186  1.00 20.00     0.141 C 
HETATM   10 CL10 UNL     1     -33.257  13.544  -3.783  1.00 20.00    -0.128 Cl
ENDBRANCH   8   9
ENDBRANCH   7   8
ENDBRANCH   6   7
TORSDOF 3
ENDMDL
