MODEL 1
REMARK VINA RESULT:      -5.2      0.000      0.000
REMARK  0 active torsions:
REMARK  status: ('A' for Active; 'I' for Inactive)
ROOT
HETATM    1  C1  UNL     1     -35.190   4.891   5.958  1.00 20.00     0.001 A 
HETATM    2  C2  UNL     1     -34.332   5.850   6.497  1.00 20.00     0.001 A 
HETATM    3  C3  UNL     1     -35.198   4.656   4.583  1.00 20.00     0.008 A 
HETATM    4  C4  UNL     1     -33.481   6.573   5.661  1.00 20.00     0.019 A 
HETATM    5  C5  UNL     1     -34.347   5.379   3.748  1.00 20.00    -0.045 A 
HETATM    6  C6  UNL     1     -33.489   6.338   4.287  1.00 20.00     0.012 A 
HETATM    7  C7  UNL     1     -34.399   5.084   2.282  1.00 20.00     0.049 C 
HETATM    8  I8  UNL     1     -32.188   7.457   3.090  1.00 20.00    -0.044 I 
ENDROOT
TORSDOF 0
ENDMDL
MODEL 2
REMARK VINA RESULT:      -5.1      0.669      2.487
REMARK  0 active torsions:
REMARK  status: ('A' for Active; 'I' for Inactive)
ROOT
HETATM    1  C1  UNL     1     -35.319   4.375   5.853  1.00 20.00     0.001 A 
HETATM    2  C2  UNL     1     -35.143   4.199   4.481  1.00 20.00     0.001 A 
HETATM    3  C3  UNL     1     -34.664   5.415   6.513  1.00 20.00     0.008 A 
HETATM    4  C4  UNL     1     -34.311   5.063   3.768  1.00 20.00     0.019 A 
HETATM    5  C5  UNL     1     -33.832   6.278   5.801  1.00 20.00    -0.045 A 
HETATM    6  C6  UNL     1     -33.655   6.102   4.429  1.00 20.00     0.012 A 
HETATM    7  C7  UNL     1     -33.156   7.374   6.562  1.00 20.00     0.049 C 
HETATM    8  I8  UNL     1     -32.422   7.361   3.301  1.00 20.00    -0.044 I 
ENDROOT
TORSDOF 0
ENDMDL
MODEL 3
REMARK VINA RESULT:      -3.9      9.115     10.297
REMARK  0 active torsions:
REMARK  status: ('A' for Active; 'I' for Inactive)
ROOT
HETATM    1  C1  UNL     1     -40.936   7.107  -0.682  1.00 20.00     0.001 A 
HETATM    2  C2  UNL     1     -40.508   5.847  -0.263  1.00 20.00     0.001 A 
HETATM    3  C3  UNL     1     -41.832   7.222  -1.745  1.00 20.00     0.008 A 
HETATM    4  C4  UNL     1     -40.977   4.702  -0.907  1.00 20.00     0.019 A 
HETATM    5  C5  UNL     1     -42.300   6.077  -2.388  1.00 20.00    -0.045 A 
HETATM    6  C6  UNL     1     -41.873   4.817  -1.969  1.00 20.00     0.012 A 
HETATM    7  C7  UNL     1     -43.260   6.261  -3.521  1.00 20.00     0.049 C 
HETATM    8  I8  UNL     1     -42.537   3.059  -2.890  1.00 20.00    -0.044 I 
ENDROOT
TORSDOF 0
ENDMDL
MODEL 4
REMARK VINA RESULT:      -3.9     12.521     13.571
REMARK  0 active torsions:
REMARK  status: ('A' for Active; 'I' for Inactive)
ROOT
HETATM    1  C1  UNL     1     -33.551  13.734  -3.877  1.00 20.00     0.001 A 
HETATM    2  C2  UNL     1     -33.016  14.990  -3.593  1.00 20.00     0.001 A 
HETATM    3  C3  UNL     1     -34.365  13.559  -4.996  1.00 20.00     0.008 A 
HETATM    4  C4  UNL     1     -33.295  16.072  -4.428  1.00 20.00     0.019 A 
HETATM    5  C5  UNL     1     -34.644  14.641  -5.830  1.00 20.00    -0.045 A 
HETATM    6  C6  UNL     1     -34.109  15.898  -5.547  1.00 20.00     0.012 A 
HETATM    7  C7  UNL     1     -35.523  14.395  -7.016  1.00 20.00     0.049 C 
HETATM    8  I8  UNL     1     -34.486  17.563  -6.756  1.00 20.00    -0.044 I 
ENDROOT
TORSDOF 0
ENDMDL
MODEL 5
REMARK VINA RESULT:      -3.9     12.177     13.380
REMARK  0 active torsions:
REMARK  status: ('A' for Active; 'I' for Inactive)
ROOT
HETATM    1  C1  UNL     1     -34.733  13.304  -4.548  1.00 20.00     0.001 A 
HETATM    2  C2  UNL     1     -34.806  13.861  -5.825  1.00 20.00     0.001 A 
HETATM    3  C3  UNL     1     -34.403  14.106  -3.456  1.00 20.00     0.008 A 
HETATM    4  C4  UNL     1     -34.549  15.219  -6.010  1.00 20.00     0.019 A 
HETATM    5  C5  UNL     1     -34.146  15.464  -3.640  1.00 20.00    -0.045 A 
HETATM    6  C6  UNL     1     -34.219  16.021  -4.917  1.00 20.00     0.012 A 
HETATM    7  C7  UNL     1     -33.797  16.275  -2.432  1.00 20.00     0.049 C 
HETATM    8  I8  UNL     1     -33.846  18.050  -5.264  1.00 20.00    -0.044 I 
ENDROOT
TORSDOF 0
ENDMDL
MODEL 6
REMARK VINA RESULT:      -3.9     12.746     13.884
REMARK  0 active torsions:
REMARK  status: ('A' for Active; 'I' for Inactive)
ROOT
HETATM    1  C1  UNL     1     -33.094  14.919  -3.599  1.00 20.00     0.001 A 
HETATM    2  C2  UNL     1     -33.747  13.754  -4.000  1.00 20.00     0.001 A 
HETATM    3  C3  UNL     1     -33.182  16.072  -4.380  1.00 20.00     0.008 A 
HETATM    4  C4  UNL     1     -34.490  13.741  -5.181  1.00 20.00     0.019 A 
HETATM    5  C5  UNL     1     -33.924  16.059  -5.560  1.00 20.00    -0.045 A 
HETATM    6  C6  UNL     1     -34.578  14.894  -5.961  1.00 20.00     0.012 A 
HETATM    7  C7  UNL     1     -33.983  17.324  -6.356  1.00 20.00     0.049 C 
HETATM    8  I8  UNL     1     -35.707  14.806  -7.720  1.00 20.00    -0.044 I 
ENDROOT
TORSDOF 0
ENDMDL
MODEL 7
REMARK VINA RESULT:      -3.9      9.098     10.207
REMARK  0 active torsions:
REMARK  status: ('A' for Active; 'I' for Inactive)
ROOT
HETATM    1  C1  UNL     1     -40.719   5.019  -0.423  1.00 20.00     0.001 A 
HETATM    2  C2  UNL     1     -40.629   6.411  -0.380  1.00 20.00     0.001 A 
HETATM    3  C3  UNL     1     -41.515   4.401  -1.387  1.00 20.00     0.008 A 
HETATM    4  C4  UNL     1     -41.335   7.184  -1.301  1.00 20.00     0.019 A 
HETATM    5  C5  UNL     1     -42.222   5.175  -2.308  1.00 20.00    -0.045 A 
HETATM    6  C6  UNL     1     -42.132   6.566  -2.265  1.00 20.00     0.012 A 
HETATM    7  C7  UNL     1     -43.059   4.457  -3.319  1.00 20.00     0.049 C 
HETATM    8  I8  UNL     1     -43.164   7.785  -3.616  1.00 20.00    -0.044 I 
ENDROOT
TORSDOF 0
ENDMDL
MODEL 8
REMARK VINA RESULT:      -3.8     11.906     12.351
REMARK  0 active torsions:
REMARK  status: ('A' for Active; 'I' for Inactive)
ROOT
HETATM    1  C1  UNL     1     -34.686  13.267  -4.630  1.00 20.00     0.001 A 
HETATM    2  C2  UNL     1     -33.512  13.656  -3.984  1.00 20.00     0.001 A 
HETATM    3  C3  UNL     1     -35.874  13.958  -4.393  1.00 20.00     0.008 A 
HETATM    4  C4  UNL     1     -33.527  14.736  -3.101  1.00 20.00     0.019 A 
HETATM    5  C5  UNL     1     -35.889  15.037  -3.511  1.00 20.00    -0.045 A 
HETATM    6  C6  UNL     1     -34.716  15.427  -2.865  1.00 20.00     0.012 A 
HETATM    7  C7  UNL     1     -37.192  15.741  -3.298  1.00 20.00     0.049 C 
HETATM    8  I8  UNL     1     -34.668  17.037  -1.530  1.00 20.00    -0.044 I 
ENDROOT
TORSDOF 0
ENDMDL
MODEL 9
REMARK VINA RESULT:      -3.8     12.257     13.423
REMARK  0 active torsions:
REMARK  status: ('A' for Active; 'I' for Inactive)
ROOT
HETATM    1  C1  UNL     1     -34.774  13.985  -5.824  1.00 20.00     0.001 A 
HETATM    2  C2  UNL     1     -35.100  13.531  -4.547  1.00 20.00     0.001 A 
HETATM    3  C3  UNL     1     -34.271  15.274  -5.999  1.00 20.00     0.008 A 
HETATM    4  C4  UNL     1     -34.923  14.365  -3.443  1.00 20.00     0.019 A 
HETATM    5  C5  UNL     1     -34.094  16.109  -4.896  1.00 20.00    -0.045 A 
HETATM    6  C6  UNL     1     -34.419  15.654  -3.618  1.00 20.00     0.012 A 
HETATM    7  C7  UNL     1     -33.550  17.480  -5.144  1.00 20.00     0.049 C 
HETATM    8  I8  UNL     1     -34.178  16.854  -1.921  1.00 20.00    -0.044 I 
ENDROOT
TORSDOF 0
ENDMDL
