MODEL 1
REMARK VINA RESULT:      -3.5      0.000      0.000
REMARK  1 active torsions:
REMARK  status: ('A' for Active; 'I' for Inactive)
REMARK    1  A    between atoms: C4_4  and  S7_7 
ROOT
HETATM    1  C1  UNL     1     -34.449   5.824   6.577  1.00 20.00     0.009 A 
HETATM    2  C2  UNL     1     -33.637   6.515   5.633  1.00 20.00     0.026 A 
HETATM    3  C3  UNL     1     -35.195   4.828   5.987  1.00 20.00     0.051 A 
HETATM    4  C4  UNL     1     -33.792   6.022   4.356  1.00 20.00     0.040 A 
HETATM    5  S6  UNL     1     -34.915   4.729   4.300  1.00 20.00    -0.095 SA
ENDROOT
BRANCH   4   6
HETATM    6  S7  UNL     1     -32.970   6.599   2.920  1.00 20.00    -0.127 SA
HETATM    7  C5  UNL     1     -31.585   7.494   3.669  1.00 20.00     0.096 C 
ENDBRANCH   4   6
TORSDOF 1
ENDMDL
MODEL 2
REMARK VINA RESULT:      -3.3      1.229      1.587
REMARK  1 active torsions:
REMARK  status: ('A' for Active; 'I' for Inactive)
REMARK    1  A    between atoms: C4_4  and  S7_7 
ROOT
HETATM    1  C1  UNL     1     -35.238   4.579   5.281  1.00 20.00     0.009 A 
HETATM    2  C2  UNL     1     -34.665   4.996   4.045  1.00 20.00     0.026 A 
HETATM    3  C3  UNL     1     -34.767   5.317   6.344  1.00 20.00     0.051 A 
HETATM    4  C4  UNL     1     -33.777   6.037   4.210  1.00 20.00     0.040 A 
HETATM    5  S6  UNL     1     -33.638   6.506   5.852  1.00 20.00    -0.095 SA
ENDROOT
BRANCH   4   6
HETATM    6  S7  UNL     1     -32.869   6.830   2.938  1.00 20.00    -0.127 SA
HETATM    7  C5  UNL     1     -31.500   7.528   3.895  1.00 20.00     0.096 C 
ENDBRANCH   4   6
TORSDOF 1
ENDMDL
MODEL 3
REMARK VINA RESULT:      -3.2     12.036     12.375
REMARK  1 active torsions:
REMARK  status: ('A' for Active; 'I' for Inactive)
REMARK    1  A    between atoms: C4_4  and  S7_7 
ROOT
HETATM    1  C1  UNL     1     -33.742  13.667  -4.037  1.00 20.00     0.009 A 
HETATM    2  C2  UNL     1     -33.772  14.882  -3.296  1.00 20.00     0.026 A 
HETATM    3  C3  UNL     1     -34.992  13.307  -4.491  1.00 20.00     0.051 A 
HETATM    4  C4  UNL     1     -35.043  15.405  -3.209  1.00 20.00     0.040 A 
HETATM    5  S6  UNL     1     -36.195  14.431  -4.021  1.00 20.00    -0.095 SA
ENDROOT
BRANCH   4   6
HETATM    6  S7  UNL     1     -35.496  16.885  -2.385  1.00 20.00    -0.127 SA
HETATM    7  C5  UNL     1     -34.599  16.683  -0.826  1.00 20.00     0.096 C 
ENDBRANCH   4   6
TORSDOF 1
ENDMDL
MODEL 4
REMARK VINA RESULT:      -3.0      9.994     10.738
REMARK  1 active torsions:
REMARK  status: ('A' for Active; 'I' for Inactive)
REMARK    1  A    between atoms: C4_4  and  S7_7 
ROOT
HETATM    1  C1  UNL     1     -40.656   5.839  -0.435  1.00 20.00     0.009 A 
HETATM    2  C2  UNL     1     -41.176   4.655  -1.033  1.00 20.00     0.026 A 
HETATM    3  C3  UNL     1     -41.124   6.978  -1.052  1.00 20.00     0.051 A 
HETATM    4  C4  UNL     1     -42.020   4.934  -2.086  1.00 20.00     0.040 A 
HETATM    5  S6  UNL     1     -42.184   6.619  -2.348  1.00 20.00    -0.095 SA
ENDROOT
BRANCH   4   6
HETATM    6  S7  UNL     1     -42.859   3.756  -3.076  1.00 20.00    -0.127 SA
HETATM    7  C5  UNL     1     -41.590   2.471  -3.208  1.00 20.00     0.096 C 
ENDBRANCH   4   6
TORSDOF 1
ENDMDL
MODEL 5
REMARK VINA RESULT:      -3.0     12.247     13.382
REMARK  1 active torsions:
REMARK  status: ('A' for Active; 'I' for Inactive)
REMARK    1  A    between atoms: C4_4  and  S7_7 
ROOT
HETATM    1  C1  UNL     1     -33.639  13.634  -3.773  1.00 20.00     0.009 A 
HETATM    2  C2  UNL     1     -33.263  15.008  -3.809  1.00 20.00     0.026 A 
HETATM    3  C3  UNL     1     -34.469  13.297  -4.819  1.00 20.00     0.051 A 
HETATM    4  C4  UNL     1     -33.822  15.669  -4.881  1.00 20.00     0.040 A 
HETATM    5  S6  UNL     1     -34.795  14.633  -5.838  1.00 20.00    -0.095 SA
ENDROOT
BRANCH   4   6
HETATM    6  S7  UNL     1     -33.602  17.363  -5.277  1.00 20.00    -0.127 SA
HETATM    7  C5  UNL     1     -33.861  18.118  -3.651  1.00 20.00     0.096 C 
ENDBRANCH   4   6
TORSDOF 1
ENDMDL
MODEL 6
REMARK VINA RESULT:      -3.0     12.663     13.135
REMARK  1 active torsions:
REMARK  status: ('A' for Active; 'I' for Inactive)
REMARK    1  A    between atoms: C4_4  and  S7_7 
ROOT
HETATM    1  C1  UNL     1     -34.727  17.071  -0.154  1.00 20.00     0.009 A 
HETATM    2  C2  UNL     1     -34.590  16.377  -1.390  1.00 20.00     0.026 A 
HETATM    3  C3  UNL     1     -34.228  18.353  -0.223  1.00 20.00     0.051 A 
HETATM    4  C4  UNL     1     -33.989  17.153  -2.357  1.00 20.00     0.040 A 
HETATM    5  S6  UNL     1     -33.595  18.714  -1.772  1.00 20.00    -0.095 SA
ENDROOT
BRANCH   4   6
HETATM    6  S7  UNL     1     -33.644  16.665  -4.005  1.00 20.00    -0.127 SA
HETATM    7  C5  UNL     1     -32.988  15.000  -3.726  1.00 20.00     0.096 C 
ENDBRANCH   4   6
TORSDOF 1
ENDMDL
MODEL 7
REMARK VINA RESULT:      -3.0     12.424     13.603
REMARK  1 active torsions:
REMARK  status: ('A' for Active; 'I' for Inactive)
REMARK    1  A    between atoms: C4_4  and  S7_7 
ROOT
HETATM    1  C1  UNL     1     -33.686  13.798  -3.715  1.00 20.00     0.009 A 
HETATM    2  C2  UNL     1     -34.456  13.473  -4.868  1.00 20.00     0.026 A 
HETATM    3  C3  UNL     1     -33.236  15.100  -3.742  1.00 20.00     0.051 A 
HETATM    4  C4  UNL     1     -34.563  14.538  -5.736  1.00 20.00     0.040 A 
HETATM    5  S6  UNL     1     -33.739  15.924  -5.156  1.00 20.00    -0.095 SA
ENDROOT
BRANCH   4   6
HETATM    6  S7  UNL     1     -35.427  14.543  -7.261  1.00 20.00    -0.127 SA
HETATM    7  C5  UNL     1     -37.014  15.241  -6.741  1.00 20.00     0.096 C 
ENDBRANCH   4   6
TORSDOF 1
ENDMDL
MODEL 8
REMARK VINA RESULT:      -2.9     10.227     10.739
REMARK  1 active torsions:
REMARK  status: ('A' for Active; 'I' for Inactive)
REMARK    1  A    between atoms: C4_4  and  S7_7 
ROOT
HETATM    1  C1  UNL     1     -40.700   6.318  -0.451  1.00 20.00     0.009 A 
HETATM    2  C2  UNL     1     -41.541   7.153  -1.241  1.00 20.00     0.026 A 
HETATM    3  C3  UNL     1     -40.814   4.991  -0.801  1.00 20.00     0.051 A 
HETATM    4  C4  UNL     1     -42.267   6.433  -2.164  1.00 20.00     0.040 A 
HETATM    5  S6  UNL     1     -41.932   4.755  -2.076  1.00 20.00    -0.095 SA
ENDROOT
BRANCH   4   6
HETATM    6  S7  UNL     1     -43.410   7.091  -3.319  1.00 20.00    -0.127 SA
HETATM    7  C5  UNL     1     -42.359   8.289  -4.178  1.00 20.00     0.096 C 
ENDBRANCH   4   6
TORSDOF 1
ENDMDL
MODEL 9
REMARK VINA RESULT:      -2.9     12.251     12.734
REMARK  1 active torsions:
REMARK  status: ('A' for Active; 'I' for Inactive)
REMARK    1  A    between atoms: C4_4  and  S7_7 
ROOT
HETATM    1  C1  UNL     1     -34.013  16.401  -2.236  1.00 20.00     0.009 A 
HETATM    2  C2  UNL     1     -33.625  15.321  -3.079  1.00 20.00     0.026 A 
HETATM    3  C3  UNL     1     -35.375  16.611  -2.257  1.00 20.00     0.051 A 
HETATM    4  C4  UNL     1     -34.704  14.747  -3.715  1.00 20.00     0.040 A 
HETATM    5  S6  UNL     1     -36.179  15.509  -3.292  1.00 20.00    -0.095 SA
ENDROOT
BRANCH   4   6
HETATM    6  S7  UNL     1     -34.644  13.395  -4.830  1.00 20.00    -0.127 SA
HETATM    7  C5  UNL     1     -35.134  14.215  -6.369  1.00 20.00     0.096 C 
ENDBRANCH   4   6
TORSDOF 1
ENDMDL
