MODEL 1
REMARK VINA RESULT:      -5.7      0.000      0.000
REMARK  0 active torsions:
REMARK  status: ('A' for Active; 'I' for Inactive)
ROOT
HETATM    1  C1  UNL     1     -35.184   4.257   5.905  1.00 20.00     0.001 A 
HETATM    2  C2  UNL     1     -34.641   5.282   6.679  1.00 20.00     0.007 A 
HETATM    3  C3  UNL     1     -35.061   4.292   4.516  1.00 20.00     0.007 A 
HETATM    4  C4  UNL     1     -33.852   6.378   4.675  1.00 20.00     0.013 A 
HETATM    5  C5  UNL     1     -33.975   6.342   6.065  1.00 20.00    -0.061 A 
HETATM    6  C6  UNL     1     -34.395   5.351   3.901  1.00 20.00    -0.061 A 
HETATM    7  C7  UNL     1     -33.392   7.437   6.894  1.00 20.00     0.048 C 
HETATM    8  C8  UNL     1     -34.264   5.390   2.416  1.00 20.00     0.048 C 
ENDROOT
TORSDOF 0
ENDMDL
MODEL 2
REMARK VINA RESULT:      -5.7      0.002      3.028
REMARK  0 active torsions:
REMARK  status: ('A' for Active; 'I' for Inactive)
ROOT
HETATM    1  C1  UNL     1     -35.184   4.257   5.907  1.00 20.00     0.001 A 
HETATM    2  C2  UNL     1     -35.060   4.292   4.518  1.00 20.00     0.007 A 
HETATM    3  C3  UNL     1     -34.641   5.282   6.682  1.00 20.00     0.007 A 
HETATM    4  C4  UNL     1     -33.851   6.378   4.678  1.00 20.00     0.013 A 
HETATM    5  C5  UNL     1     -34.395   5.352   3.903  1.00 20.00    -0.061 A 
HETATM    6  C6  UNL     1     -33.975   6.342   6.067  1.00 20.00    -0.061 A 
HETATM    7  C7  UNL     1     -34.265   5.390   2.418  1.00 20.00     0.048 C 
HETATM    8  C8  UNL     1     -33.394   7.439   6.895  1.00 20.00     0.048 C 
ENDROOT
TORSDOF 0
ENDMDL
MODEL 3
REMARK VINA RESULT:      -5.1      1.283      2.483
REMARK  0 active torsions:
REMARK  status: ('A' for Active; 'I' for Inactive)
ROOT
HETATM    1  C1  UNL     1     -34.620   5.155   2.904  1.00 20.00     0.001 A 
HETATM    2  C2  UNL     1     -35.054   4.967   4.217  1.00 20.00     0.007 A 
HETATM    3  C3  UNL     1     -33.520   5.971   2.644  1.00 20.00     0.007 A 
HETATM    4  C4  UNL     1     -33.287   6.412   5.008  1.00 20.00     0.013 A 
HETATM    5  C5  UNL     1     -34.388   5.594   5.269  1.00 20.00    -0.061 A 
HETATM    6  C6  UNL     1     -32.853   6.600   3.695  1.00 20.00    -0.061 A 
HETATM    7  C7  UNL     1     -34.851   5.392   6.672  1.00 20.00     0.048 C 
HETATM    8  C8  UNL     1     -31.677   7.474   3.418  1.00 20.00     0.048 C 
ENDROOT
TORSDOF 0
ENDMDL
MODEL 4
REMARK VINA RESULT:      -5.1      1.280      2.988
REMARK  0 active torsions:
REMARK  status: ('A' for Active; 'I' for Inactive)
ROOT
HETATM    1  C1  UNL     1     -34.635   5.151   2.912  1.00 20.00     0.001 A 
HETATM    2  C2  UNL     1     -33.534   5.965   2.646  1.00 20.00     0.007 A 
HETATM    3  C3  UNL     1     -35.064   4.966   4.227  1.00 20.00     0.007 A 
HETATM    4  C4  UNL     1     -33.292   6.410   5.009  1.00 20.00     0.013 A 
HETATM    5  C5  UNL     1     -32.863   6.595   3.694  1.00 20.00    -0.061 A 
HETATM    6  C6  UNL     1     -34.393   5.595   5.275  1.00 20.00    -0.061 A 
HETATM    7  C7  UNL     1     -31.687   7.467   3.409  1.00 20.00     0.048 C 
HETATM    8  C8  UNL     1     -34.852   5.398   6.680  1.00 20.00     0.048 C 
ENDROOT
TORSDOF 0
ENDMDL
MODEL 5
REMARK VINA RESULT:      -4.8      1.249      2.768
REMARK  0 active torsions:
REMARK  status: ('A' for Active; 'I' for Inactive)
ROOT
HETATM    1  C1  UNL     1     -33.595   6.914   6.442  1.00 20.00     0.001 A 
HETATM    2  C2  UNL     1     -32.935   7.353   5.294  1.00 20.00     0.007 A 
HETATM    3  C3  UNL     1     -34.390   5.769   6.394  1.00 20.00     0.007 A 
HETATM    4  C4  UNL     1     -33.864   5.501   4.051  1.00 20.00     0.013 A 
HETATM    5  C5  UNL     1     -33.069   6.647   4.099  1.00 20.00    -0.061 A 
HETATM    6  C6  UNL     1     -34.524   5.062   5.199  1.00 20.00    -0.061 A 
HETATM    7  C7  UNL     1     -32.361   7.116   2.873  1.00 20.00     0.048 C 
HETATM    8  C8  UNL     1     -35.374   3.838   5.148  1.00 20.00     0.048 C 
ENDROOT
TORSDOF 0
ENDMDL
MODEL 6
REMARK VINA RESULT:      -4.8      1.249      2.714
REMARK  0 active torsions:
REMARK  status: ('A' for Active; 'I' for Inactive)
ROOT
HETATM    1  C1  UNL     1     -33.609   6.916   6.450  1.00 20.00     0.001 A 
HETATM    2  C2  UNL     1     -34.397   5.766   6.395  1.00 20.00     0.007 A 
HETATM    3  C3  UNL     1     -32.943   7.359   5.307  1.00 20.00     0.007 A 
HETATM    4  C4  UNL     1     -33.853   5.504   4.055  1.00 20.00     0.013 A 
HETATM    5  C5  UNL     1     -34.519   5.060   5.199  1.00 20.00    -0.061 A 
HETATM    6  C6  UNL     1     -33.065   6.654   4.110  1.00 20.00    -0.061 A 
HETATM    7  C7  UNL     1     -35.363   3.832   5.141  1.00 20.00     0.048 C 
HETATM    8  C8  UNL     1     -32.353   7.128   2.889  1.00 20.00     0.048 C 
ENDROOT
TORSDOF 0
ENDMDL
MODEL 7
REMARK VINA RESULT:      -4.3      0.802      2.273
REMARK  0 active torsions:
REMARK  status: ('A' for Active; 'I' for Inactive)
ROOT
HETATM    1  C1  UNL     1     -33.365   6.939   5.353  1.00 20.00     0.001 A 
HETATM    2  C2  UNL     1     -34.031   6.165   6.304  1.00 20.00     0.007 A 
HETATM    3  C3  UNL     1     -33.479   6.629   3.998  1.00 20.00     0.007 A 
HETATM    4  C4  UNL     1     -34.924   4.771   4.543  1.00 20.00     0.013 A 
HETATM    5  C5  UNL     1     -34.810   5.081   5.899  1.00 20.00    -0.061 A 
HETATM    6  C6  UNL     1     -34.258   5.546   3.593  1.00 20.00    -0.061 A 
HETATM    7  C7  UNL     1     -35.523   4.255   6.916  1.00 20.00     0.048 C 
HETATM    8  C8  UNL     1     -34.379   5.213   2.144  1.00 20.00     0.048 C 
ENDROOT
TORSDOF 0
ENDMDL
MODEL 8
REMARK VINA RESULT:      -4.2      8.745     10.518
REMARK  0 active torsions:
REMARK  status: ('A' for Active; 'I' for Inactive)
ROOT
HETATM    1  C1  UNL     1     -40.649   5.926  -0.415  1.00 20.00     0.001 A 
HETATM    2  C2  UNL     1     -40.834   4.652  -0.953  1.00 20.00     0.007 A 
HETATM    3  C3  UNL     1     -41.284   7.026  -0.991  1.00 20.00     0.007 A 
HETATM    4  C4  UNL     1     -42.292   5.579  -2.644  1.00 20.00     0.013 A 
HETATM    5  C5  UNL     1     -41.656   4.479  -2.066  1.00 20.00    -0.061 A 
HETATM    6  C6  UNL     1     -42.105   6.853  -2.105  1.00 20.00    -0.061 A 
HETATM    7  C7  UNL     1     -41.856   3.116  -2.640  1.00 20.00     0.048 C 
HETATM    8  C8  UNL     1     -42.784   8.028  -2.721  1.00 20.00     0.048 C 
ENDROOT
TORSDOF 0
ENDMDL
MODEL 9
REMARK VINA RESULT:      -4.2      8.751     10.372
REMARK  0 active torsions:
REMARK  status: ('A' for Active; 'I' for Inactive)
ROOT
HETATM    1  C1  UNL     1     -40.647   5.923  -0.429  1.00 20.00     0.001 A 
HETATM    2  C2  UNL     1     -41.278   7.023  -1.011  1.00 20.00     0.007 A 
HETATM    3  C3  UNL     1     -40.841   4.647  -0.958  1.00 20.00     0.007 A 
HETATM    4  C4  UNL     1     -42.295   5.571  -2.653  1.00 20.00     0.013 A 
HETATM    5  C5  UNL     1     -42.100   6.847  -2.123  1.00 20.00    -0.061 A 
HETATM    6  C6  UNL     1     -41.664   4.471  -2.070  1.00 20.00    -0.061 A 
HETATM    7  C7  UNL     1     -42.773   8.024  -2.746  1.00 20.00     0.048 C 
HETATM    8  C8  UNL     1     -41.872   3.107  -2.637  1.00 20.00     0.048 C 
ENDROOT
TORSDOF 0
ENDMDL
