MODEL 1
REMARK VINA RESULT:      -6.4      0.000      0.000
REMARK  0 active torsions:
REMARK  status: ('A' for Active; 'I' for Inactive)
ROOT
HETATM    1  C1  UNL     1     -32.155   7.638   2.516  1.00 20.00     0.018 C 
HETATM    2  C2  UNL     1     -32.825   7.004   3.284  1.00 20.00    -0.078 C 
HETATM    3  C3  UNL     1     -35.184   4.777   5.982  1.00 20.00     0.000 A 
HETATM    4  C4  UNL     1     -34.362   5.801   6.454  1.00 20.00     0.001 A 
HETATM    5  C5  UNL     1     -35.227   4.491   4.617  1.00 20.00     0.001 A 
HETATM    6  C6  UNL     1     -33.582   6.537   5.562  1.00 20.00     0.020 A 
HETATM    7  C7  UNL     1     -34.447   5.227   3.725  1.00 20.00     0.020 A 
HETATM    8  C8  UNL     1     -33.625   6.250   4.197  1.00 20.00     0.016 A 
ENDROOT
TORSDOF 0
ENDMDL
MODEL 2
REMARK VINA RESULT:      -4.7      1.370      2.703
REMARK  0 active torsions:
REMARK  status: ('A' for Active; 'I' for Inactive)
ROOT
HETATM    1  C1  UNL     1     -33.250   8.000   7.459  1.00 20.00     0.018 C 
HETATM    2  C2  UNL     1     -33.661   7.150   6.718  1.00 20.00    -0.078 C 
HETATM    3  C3  UNL     1     -35.108   4.164   4.113  1.00 20.00     0.000 A 
HETATM    4  C4  UNL     1     -35.151   3.967   5.493  1.00 20.00     0.001 A 
HETATM    5  C5  UNL     1     -34.588   5.350   3.594  1.00 20.00     0.001 A 
HETATM    6  C6  UNL     1     -34.672   4.954   6.355  1.00 20.00     0.020 A 
HETATM    7  C7  UNL     1     -34.110   6.338   4.455  1.00 20.00     0.020 A 
HETATM    8  C8  UNL     1     -34.152   6.139   5.835  1.00 20.00     0.016 A 
ENDROOT
TORSDOF 0
ENDMDL
MODEL 3
REMARK VINA RESULT:      -4.5      9.152     10.404
REMARK  0 active torsions:
REMARK  status: ('A' for Active; 'I' for Inactive)
ROOT
HETATM    1  C1  UNL     1     -41.977   2.346  -3.129  1.00 20.00     0.018 C 
HETATM    2  C2  UNL     1     -41.807   3.418  -2.616  1.00 20.00    -0.078 C 
HETATM    3  C3  UNL     1     -41.211   7.185  -0.812  1.00 20.00     0.000 A 
HETATM    4  C4  UNL     1     -41.994   7.078  -1.962  1.00 20.00     0.001 A 
HETATM    5  C5  UNL     1     -40.626   6.047  -0.258  1.00 20.00     0.001 A 
HETATM    6  C6  UNL     1     -42.191   5.833  -2.559  1.00 20.00     0.020 A 
HETATM    7  C7  UNL     1     -40.823   4.801  -0.855  1.00 20.00     0.020 A 
HETATM    8  C8  UNL     1     -41.605   4.694  -2.005  1.00 20.00     0.016 A 
ENDROOT
TORSDOF 0
ENDMDL
MODEL 4
REMARK VINA RESULT:      -4.5      9.163     10.343
REMARK  0 active torsions:
REMARK  status: ('A' for Active; 'I' for Inactive)
ROOT
HETATM    1  C1  UNL     1     -41.977   2.348  -3.147  1.00 20.00     0.018 C 
HETATM    2  C2  UNL     1     -41.809   3.419  -2.632  1.00 20.00    -0.078 C 
HETATM    3  C3  UNL     1     -41.219   7.183  -0.820  1.00 20.00     0.000 A 
HETATM    4  C4  UNL     1     -40.630   6.044  -0.271  1.00 20.00     0.001 A 
HETATM    5  C5  UNL     1     -42.002   7.078  -1.970  1.00 20.00     0.001 A 
HETATM    6  C6  UNL     1     -40.825   4.800  -0.869  1.00 20.00     0.020 A 
HETATM    7  C7  UNL     1     -42.197   5.833  -2.569  1.00 20.00     0.020 A 
HETATM    8  C8  UNL     1     -41.609   4.695  -2.019  1.00 20.00     0.016 A 
ENDROOT
TORSDOF 0
ENDMDL
MODEL 5
REMARK VINA RESULT:      -4.4     11.761     12.174
REMARK  0 active torsions:
REMARK  status: ('A' for Active; 'I' for Inactive)
ROOT
HETATM    1  C1  UNL     1     -34.428  17.039  -0.682  1.00 20.00     0.018 C 
HETATM    2  C2  UNL     1     -34.586  16.270  -1.589  1.00 20.00    -0.078 C 
HETATM    3  C3  UNL     1     -35.145  13.563  -4.777  1.00 20.00     0.000 A 
HETATM    4  C4  UNL     1     -33.875  13.739  -4.225  1.00 20.00     0.001 A 
HETATM    5  C5  UNL     1     -36.230  14.281  -4.274  1.00 20.00     0.001 A 
HETATM    6  C6  UNL     1     -33.691  14.634  -3.172  1.00 20.00     0.020 A 
HETATM    7  C7  UNL     1     -36.045  15.176  -3.220  1.00 20.00     0.020 A 
HETATM    8  C8  UNL     1     -34.776  15.353  -2.669  1.00 20.00     0.016 A 
ENDROOT
TORSDOF 0
ENDMDL
MODEL 6
REMARK VINA RESULT:      -4.4     11.754     12.196
REMARK  0 active torsions:
REMARK  status: ('A' for Active; 'I' for Inactive)
ROOT
HETATM    1  C1  UNL     1     -34.432  17.050  -0.690  1.00 20.00     0.018 C 
HETATM    2  C2  UNL     1     -34.591  16.274  -1.592  1.00 20.00    -0.078 C 
HETATM    3  C3  UNL     1     -35.151  13.549  -4.763  1.00 20.00     0.000 A 
HETATM    4  C4  UNL     1     -36.236  14.269  -4.261  1.00 20.00     0.001 A 
HETATM    5  C5  UNL     1     -33.881  13.731  -4.216  1.00 20.00     0.001 A 
HETATM    6  C6  UNL     1     -36.051  15.170  -3.213  1.00 20.00     0.020 A 
HETATM    7  C7  UNL     1     -33.696  14.632  -3.167  1.00 20.00     0.020 A 
HETATM    8  C8  UNL     1     -34.780  15.351  -2.666  1.00 20.00     0.016 A 
ENDROOT
TORSDOF 0
ENDMDL
MODEL 7
REMARK VINA RESULT:      -4.3      1.166      2.923
REMARK  0 active torsions:
REMARK  status: ('A' for Active; 'I' for Inactive)
ROOT
HETATM    1  C1  UNL     1     -33.434   7.617   7.523  1.00 20.00     0.018 C 
HETATM    2  C2  UNL     1     -33.624   7.050   6.482  1.00 20.00    -0.078 C 
HETATM    3  C3  UNL     1     -34.292   5.058   2.824  1.00 20.00     0.000 A 
HETATM    4  C4  UNL     1     -33.261   5.991   2.932  1.00 20.00     0.001 A 
HETATM    5  C5  UNL     1     -35.102   4.782   3.926  1.00 20.00     0.001 A 
HETATM    6  C6  UNL     1     -33.040   6.650   4.141  1.00 20.00     0.020 A 
HETATM    7  C7  UNL     1     -34.882   5.441   5.136  1.00 20.00     0.020 A 
HETATM    8  C8  UNL     1     -33.851   6.375   5.243  1.00 20.00     0.016 A 
ENDROOT
TORSDOF 0
ENDMDL
MODEL 8
REMARK VINA RESULT:      -4.2     11.505     12.787
REMARK  0 active torsions:
REMARK  status: ('A' for Active; 'I' for Inactive)
ROOT
HETATM    1  C1  UNL     1     -34.577  16.512  -1.034  1.00 20.00     0.018 C 
HETATM    2  C2  UNL     1     -34.634  15.969  -2.103  1.00 20.00    -0.078 C 
HETATM    3  C3  UNL     1     -34.836  14.062  -5.861  1.00 20.00     0.000 A 
HETATM    4  C4  UNL     1     -35.126  15.423  -5.752  1.00 20.00     0.001 A 
HETATM    5  C5  UNL     1     -34.478  13.333  -4.727  1.00 20.00     0.001 A 
HETATM    6  C6  UNL     1     -35.060  16.053  -4.510  1.00 20.00     0.020 A 
HETATM    7  C7  UNL     1     -34.412  13.963  -3.484  1.00 20.00     0.020 A 
HETATM    8  C8  UNL     1     -34.702  15.323  -3.376  1.00 20.00     0.016 A 
ENDROOT
TORSDOF 0
ENDMDL
MODEL 9
REMARK VINA RESULT:      -4.2     11.559     12.849
REMARK  0 active torsions:
REMARK  status: ('A' for Active; 'I' for Inactive)
ROOT
HETATM    1  C1  UNL     1     -34.540  16.543  -1.046  1.00 20.00     0.018 C 
HETATM    2  C2  UNL     1     -34.607  16.010  -2.119  1.00 20.00    -0.078 C 
HETATM    3  C3  UNL     1     -34.845  14.138  -5.892  1.00 20.00     0.000 A 
HETATM    4  C4  UNL     1     -34.513  13.391  -4.762  1.00 20.00     0.001 A 
HETATM    5  C5  UNL     1     -35.100  15.504  -5.775  1.00 20.00     0.001 A 
HETATM    6  C6  UNL     1     -34.434  14.010  -3.515  1.00 20.00     0.020 A 
HETATM    7  C7  UNL     1     -35.021  16.124  -4.527  1.00 20.00     0.020 A 
HETATM    8  C8  UNL     1     -34.688  15.376  -3.398  1.00 20.00     0.016 A 
ENDROOT
TORSDOF 0
ENDMDL
