MODEL 1
REMARK VINA RESULT:      -6.3      0.000      0.000
REMARK  3 active torsions:
REMARK  status: ('A' for Active; 'I' for Inactive)
REMARK    1  A    between atoms: C6_6  and  C8_8 
REMARK    2  A    between atoms: C8_8  and  C10_10 
REMARK    3  A    between atoms: C9_9  and  C10_10 
ROOT
HETATM    1  C1  UNL     1     -34.998   5.159   6.329  1.00 20.00     0.000 A 
HETATM    2  C2  UNL     1     -35.251   4.470   5.143  1.00 20.00     0.001 A 
HETATM    3  C3  UNL     1     -34.108   6.234   6.335  1.00 20.00     0.001 A 
HETATM    4  C4  UNL     1     -34.616   4.856   3.962  1.00 20.00     0.007 A 
HETATM    5  C5  UNL     1     -33.473   6.620   5.155  1.00 20.00     0.007 A 
HETATM    6  C6  UNL     1     -33.727   5.930   3.968  1.00 20.00    -0.058 A 
ENDROOT
BRANCH   6   7
HETATM    7  C8  UNL     1     -33.039   6.348   2.692  1.00 20.00     0.038 C 
BRANCH   7   8
HETATM    8  C10 UNL     1     -32.126   7.558   2.917  1.00 20.00     0.004 C 
BRANCH   8   9
HETATM    9  C9  UNL     1     -31.859   8.300   1.608  1.00 20.00    -0.004 C 
HETATM   10  C7  UNL     1     -32.510   9.674   1.605  1.00 20.00     0.005 C 
ENDBRANCH   8   9
ENDBRANCH   7   8
ENDBRANCH   6   7
TORSDOF 3
ENDMDL
MODEL 2
REMARK VINA RESULT:      -6.3      0.106      1.531
REMARK  3 active torsions:
REMARK  status: ('A' for Active; 'I' for Inactive)
REMARK    1  A    between atoms: C6_6  and  C8_8 
REMARK    2  A    between atoms: C8_8  and  C10_10 
REMARK    3  A    between atoms: C9_9  and  C10_10 
ROOT
HETATM    1  C1  UNL     1     -34.916   5.277   6.366  1.00 20.00     0.000 A 
HETATM    2  C2  UNL     1     -33.988   6.318   6.343  1.00 20.00     0.001 A 
HETATM    3  C3  UNL     1     -35.233   4.600   5.188  1.00 20.00     0.001 A 
HETATM    4  C4  UNL     1     -33.376   6.682   5.143  1.00 20.00     0.007 A 
HETATM    5  C5  UNL     1     -34.621   4.963   3.988  1.00 20.00     0.007 A 
HETATM    6  C6  UNL     1     -33.693   6.005   3.966  1.00 20.00    -0.058 A 
ENDROOT
BRANCH   6   7
HETATM    7  C8  UNL     1     -33.032   6.398   2.668  1.00 20.00     0.038 C 
BRANCH   7   8
HETATM    8  C10 UNL     1     -32.078   7.580   2.858  1.00 20.00     0.004 C 
BRANCH   8   9
HETATM    9  C9  UNL     1     -31.868   8.340   1.549  1.00 20.00    -0.004 C 
HETATM   10  C7  UNL     1     -32.545   9.700   1.579  1.00 20.00     0.005 C 
ENDBRANCH   8   9
ENDBRANCH   7   8
ENDBRANCH   6   7
TORSDOF 3
ENDMDL
MODEL 3
REMARK VINA RESULT:      -4.8     11.076     11.755
REMARK  3 active torsions:
REMARK  status: ('A' for Active; 'I' for Inactive)
REMARK    1  A    between atoms: C6_6  and  C8_8 
REMARK    2  A    between atoms: C8_8  and  C10_10 
REMARK    3  A    between atoms: C9_9  and  C10_10 
ROOT
HETATM    1  C1  UNL     1     -35.165  13.408  -4.468  1.00 20.00     0.000 A 
HETATM    2  C2  UNL     1     -36.100  14.291  -3.928  1.00 20.00     0.001 A 
HETATM    3  C3  UNL     1     -33.807  13.582  -4.201  1.00 20.00     0.001 A 
HETATM    4  C4  UNL     1     -35.677  15.348  -3.120  1.00 20.00     0.007 A 
HETATM    5  C5  UNL     1     -33.383  14.638  -3.394  1.00 20.00     0.007 A 
HETATM    6  C6  UNL     1     -34.319  15.521  -2.853  1.00 20.00    -0.058 A 
ENDROOT
BRANCH   6   7
HETATM    7  C8  UNL     1     -33.861  16.663  -1.981  1.00 20.00     0.038 C 
BRANCH   7   8
HETATM    8  C10 UNL     1     -34.687  16.754  -0.695  1.00 20.00     0.004 C 
BRANCH   8   9
HETATM    9  C9  UNL     1     -34.167  17.862   0.221  1.00 20.00    -0.004 C 
HETATM   10  C7  UNL     1     -32.960  18.562  -0.382  1.00 20.00     0.005 C 
ENDBRANCH   8   9
ENDBRANCH   7   8
ENDBRANCH   6   7
TORSDOF 3
ENDMDL
MODEL 4
REMARK VINA RESULT:      -4.7     11.118     11.801
REMARK  3 active torsions:
REMARK  status: ('A' for Active; 'I' for Inactive)
REMARK    1  A    between atoms: C6_6  and  C8_8 
REMARK    2  A    between atoms: C8_8  and  C10_10 
REMARK    3  A    between atoms: C9_9  and  C10_10 
ROOT
HETATM    1  C1  UNL     1     -35.405  13.525  -4.463  1.00 20.00     0.000 A 
HETATM    2  C2  UNL     1     -34.034  13.623  -4.226  1.00 20.00     0.001 A 
HETATM    3  C3  UNL     1     -36.280  14.446  -3.884  1.00 20.00     0.001 A 
HETATM    4  C4  UNL     1     -33.537  14.641  -3.412  1.00 20.00     0.007 A 
HETATM    5  C5  UNL     1     -35.783  15.464  -3.070  1.00 20.00     0.007 A 
HETATM    6  C6  UNL     1     -34.411  15.561  -2.834  1.00 20.00    -0.058 A 
ENDROOT
BRANCH   6   7
HETATM    7  C8  UNL     1     -33.874  16.662  -1.952  1.00 20.00     0.038 C 
BRANCH   7   8
HETATM    8  C10 UNL     1     -34.666  16.771  -0.646  1.00 20.00     0.004 C 
BRANCH   8   9
HETATM    9  C9  UNL     1     -34.139  17.910   0.227  1.00 20.00    -0.004 C 
HETATM   10  C7  UNL     1     -32.875  18.520  -0.356  1.00 20.00     0.005 C 
ENDBRANCH   8   9
ENDBRANCH   7   8
ENDBRANCH   6   7
TORSDOF 3
ENDMDL
MODEL 5
REMARK VINA RESULT:      -4.5     10.871     11.988
REMARK  3 active torsions:
REMARK  status: ('A' for Active; 'I' for Inactive)
REMARK    1  A    between atoms: C6_6  and  C8_8 
REMARK    2  A    between atoms: C8_8  and  C10_10 
REMARK    3  A    between atoms: C9_9  and  C10_10 
ROOT
HETATM    1  C1  UNL     1     -33.321  18.883   1.395  1.00 20.00     0.000 A 
HETATM    2  C2  UNL     1     -34.517  18.209   1.642  1.00 20.00     0.001 A 
HETATM    3  C3  UNL     1     -32.678  18.732   0.166  1.00 20.00     0.001 A 
HETATM    4  C4  UNL     1     -35.071  17.385   0.662  1.00 20.00     0.007 A 
HETATM    5  C5  UNL     1     -33.231  17.908  -0.815  1.00 20.00     0.007 A 
HETATM    6  C6  UNL     1     -34.428  17.235  -0.566  1.00 20.00    -0.058 A 
ENDROOT
BRANCH   6   7
HETATM    7  C8  UNL     1     -35.024  16.344  -1.627  1.00 20.00     0.038 C 
BRANCH   7   8
HETATM    8  C10 UNL     1     -33.970  15.900  -2.646  1.00 20.00     0.004 C 
BRANCH   8   9
HETATM    9  C9  UNL     1     -34.412  14.638  -3.386  1.00 20.00    -0.004 C 
HETATM   10  C7  UNL     1     -33.225  13.753  -3.735  1.00 20.00     0.005 C 
ENDBRANCH   8   9
ENDBRANCH   7   8
ENDBRANCH   6   7
TORSDOF 3
ENDMDL
MODEL 6
REMARK VINA RESULT:      -4.5     11.022     11.995
REMARK  3 active torsions:
REMARK  status: ('A' for Active; 'I' for Inactive)
REMARK    1  A    between atoms: C6_6  and  C8_8 
REMARK    2  A    between atoms: C8_8  and  C10_10 
REMARK    3  A    between atoms: C9_9  and  C10_10 
ROOT
HETATM    1  C1  UNL     1     -34.129  18.440   1.442  1.00 20.00     0.000 A 
HETATM    2  C2  UNL     1     -33.050  18.785   0.629  1.00 20.00     0.001 A 
HETATM    3  C3  UNL     1     -35.076  17.520   0.989  1.00 20.00     0.001 A 
HETATM    4  C4  UNL     1     -32.915  18.212  -0.636  1.00 20.00     0.007 A 
HETATM    5  C5  UNL     1     -34.942  16.945  -0.275  1.00 20.00     0.007 A 
HETATM    6  C6  UNL     1     -33.861  17.292  -1.088  1.00 20.00    -0.058 A 
ENDROOT
BRANCH   6   7
HETATM    7  C8  UNL     1     -33.718  16.671  -2.455  1.00 20.00     0.038 C 
BRANCH   7   8
HETATM    8  C10 UNL     1     -34.625  15.447  -2.614  1.00 20.00     0.004 C 
BRANCH   8   9
HETATM    9  C9  UNL     1     -34.019  14.430  -3.580  1.00 20.00    -0.004 C 
HETATM   10  C7  UNL     1     -35.071  13.467  -4.107  1.00 20.00     0.005 C 
ENDBRANCH   8   9
ENDBRANCH   7   8
ENDBRANCH   6   7
TORSDOF 3
ENDMDL
MODEL 7
REMARK VINA RESULT:      -4.4      9.961     11.268
REMARK  3 active torsions:
REMARK  status: ('A' for Active; 'I' for Inactive)
REMARK    1  A    between atoms: C6_6  and  C8_8 
REMARK    2  A    between atoms: C8_8  and  C10_10 
REMARK    3  A    between atoms: C9_9  and  C10_10 
ROOT
HETATM    1  C1  UNL     1     -41.091   7.069  -0.844  1.00 20.00     0.000 A 
HETATM    2  C2  UNL     1     -41.955   7.237  -1.926  1.00 20.00     0.001 A 
HETATM    3  C3  UNL     1     -40.687   5.788  -0.467  1.00 20.00     0.001 A 
HETATM    4  C4  UNL     1     -42.415   6.124  -2.631  1.00 20.00     0.007 A 
HETATM    5  C5  UNL     1     -41.146   4.675  -1.172  1.00 20.00     0.007 A 
HETATM    6  C6  UNL     1     -42.011   4.844  -2.255  1.00 20.00    -0.058 A 
ENDROOT
BRANCH   6   7
HETATM    7  C8  UNL     1     -42.507   3.640  -3.016  1.00 20.00     0.038 C 
BRANCH   7   8
HETATM    8  C10 UNL     1     -41.426   2.561  -3.127  1.00 20.00     0.004 C 
BRANCH   8   9
HETATM    9  C9  UNL     1     -41.717   1.601  -4.281  1.00 20.00    -0.004 C 
HETATM   10  C7  UNL     1     -43.035   1.934  -4.962  1.00 20.00     0.005 C 
ENDBRANCH   8   9
ENDBRANCH   7   8
ENDBRANCH   6   7
TORSDOF 3
ENDMDL
MODEL 8
REMARK VINA RESULT:      -4.3     11.423     13.309
REMARK  3 active torsions:
REMARK  status: ('A' for Active; 'I' for Inactive)
REMARK    1  A    between atoms: C6_6  and  C8_8 
REMARK    2  A    between atoms: C8_8  and  C10_10 
REMARK    3  A    between atoms: C9_9  and  C10_10 
ROOT
HETATM    1  C1  UNL     1     -35.071  15.619  -7.691  1.00 20.00     0.000 A 
HETATM    2  C2  UNL     1     -35.270  14.401  -7.042  1.00 20.00     0.001 A 
HETATM    3  C3  UNL     1     -34.372  16.643  -7.051  1.00 20.00     0.001 A 
HETATM    4  C4  UNL     1     -34.771  14.205  -5.754  1.00 20.00     0.007 A 
HETATM    5  C5  UNL     1     -33.873  16.448  -5.763  1.00 20.00     0.007 A 
HETATM    6  C6  UNL     1     -34.073  15.229  -5.114  1.00 20.00    -0.058 A 
ENDROOT
BRANCH   6   7
HETATM    7  C8  UNL     1     -33.533  15.019  -3.721  1.00 20.00     0.038 C 
BRANCH   7   8
HETATM    8  C10 UNL     1     -34.523  15.502  -2.657  1.00 20.00     0.004 C 
BRANCH   8   9
HETATM    9  C9  UNL     1     -33.956  16.681  -1.867  1.00 20.00    -0.004 C 
HETATM   10  C7  UNL     1     -34.652  16.838  -0.525  1.00 20.00     0.005 C 
ENDBRANCH   8   9
ENDBRANCH   7   8
ENDBRANCH   6   7
TORSDOF 3
ENDMDL
MODEL 9
REMARK VINA RESULT:      -4.2     11.418     12.199
REMARK  3 active torsions:
REMARK  status: ('A' for Active; 'I' for Inactive)
REMARK    1  A    between atoms: C6_6  and  C8_8 
REMARK    2  A    between atoms: C8_8  and  C10_10 
REMARK    3  A    between atoms: C9_9  and  C10_10 
ROOT
HETATM    1  C1  UNL     1     -32.169  18.610   3.714  1.00 20.00     0.000 A 
HETATM    2  C2  UNL     1     -31.647  18.866   2.446  1.00 20.00     0.001 A 
HETATM    3  C3  UNL     1     -33.517  18.279   3.858  1.00 20.00     0.001 A 
HETATM    4  C4  UNL     1     -32.471  18.792   1.323  1.00 20.00     0.007 A 
HETATM    5  C5  UNL     1     -34.342  18.204   2.735  1.00 20.00     0.007 A 
HETATM    6  C6  UNL     1     -33.818  18.461   1.467  1.00 20.00    -0.058 A 
ENDROOT
BRANCH   6   7
HETATM    7  C8  UNL     1     -34.710  18.381   0.253  1.00 20.00     0.038 C 
BRANCH   7   8
HETATM    8  C10 UNL     1     -34.762  16.959  -0.313  1.00 20.00     0.004 C 
BRANCH   8   9
HETATM    9  C9  UNL     1     -33.931  16.841  -1.591  1.00 20.00    -0.004 C 
HETATM   10  C7  UNL     1     -34.429  15.709  -2.475  1.00 20.00     0.005 C 
ENDBRANCH   8   9
ENDBRANCH   7   8
ENDBRANCH   6   7
TORSDOF 3
ENDMDL
