MODEL 1
REMARK VINA RESULT:      -3.5      0.000      0.000
REMARK  3 active torsions:
REMARK  status: ('A' for Active; 'I' for Inactive)
REMARK    1  A    between atoms: C5_5  and  S7_7 
REMARK    2  A    between atoms: C6_6  and  S8_8 
REMARK    3  A    between atoms: S7_7  and  S8_8 
ROOT
HETATM    1  S7  UNL     1     -34.525   5.739   3.714  1.00 20.00    -0.093 SA
ENDROOT
BRANCH   1   2
HETATM    2  C5  UNL     1     -34.094   5.252   5.418  1.00 20.00     0.050 C 
HETATM    3  C1  UNL     1     -34.044   6.489   6.308  1.00 20.00     0.022 C 
HETATM    4  C2  UNL     1     -35.105   4.236   5.935  1.00 20.00     0.022 C 
ENDBRANCH   1   2
BRANCH   1   5
HETATM    5  S8  UNL     1     -32.666   5.893   2.856  1.00 20.00    -0.093 SA
BRANCH   5   6
HETATM    6  C6  UNL     1     -32.321   7.659   3.036  1.00 20.00     0.050 C 
HETATM    7  C3  UNL     1     -31.200   7.863   4.049  1.00 20.00     0.022 C 
HETATM    8  C4  UNL     1     -31.960   8.254   1.680  1.00 20.00     0.022 C 
ENDBRANCH   5   6
ENDBRANCH   1   5
TORSDOF 3
ENDMDL
MODEL 2
REMARK VINA RESULT:      -3.5      0.055      4.429
REMARK  3 active torsions:
REMARK  status: ('A' for Active; 'I' for Inactive)
REMARK    1  A    between atoms: C5_5  and  S7_7 
REMARK    2  A    between atoms: C6_6  and  S8_8 
REMARK    3  A    between atoms: S7_7  and  S8_8 
ROOT
HETATM    1  S7  UNL     1     -32.615   5.883   2.914  1.00 20.00    -0.093 SA
ENDROOT
BRANCH   1   2
HETATM    2  C5  UNL     1     -32.270   7.668   3.064  1.00 20.00     0.050 C 
HETATM    3  C1  UNL     1     -31.124   7.888   4.046  1.00 20.00     0.022 C 
HETATM    4  C2  UNL     1     -31.946   8.246   1.693  1.00 20.00     0.022 C 
ENDBRANCH   1   2
BRANCH   1   5
HETATM    5  S8  UNL     1     -34.485   5.762   3.753  1.00 20.00    -0.093 SA
BRANCH   5   6
HETATM    6  C6  UNL     1     -34.098   5.264   5.448  1.00 20.00     0.050 C 
HETATM    7  C3  UNL     1     -34.047   6.495   6.347  1.00 20.00     0.022 C 
HETATM    8  C4  UNL     1     -35.135   4.260   5.939  1.00 20.00     0.022 C 
ENDBRANCH   5   6
ENDBRANCH   1   5
TORSDOF 3
ENDMDL
MODEL 3
REMARK VINA RESULT:      -3.2     11.655     12.725
REMARK  3 active torsions:
REMARK  status: ('A' for Active; 'I' for Inactive)
REMARK    1  A    between atoms: C5_5  and  S7_7 
REMARK    2  A    between atoms: C6_6  and  S8_8 
REMARK    3  A    between atoms: S7_7  and  S8_8 
ROOT
HETATM    1  S7  UNL     1     -35.903  14.919  -3.614  1.00 20.00    -0.093 SA
ENDROOT
BRANCH   1   2
HETATM    2  C5  UNL     1     -34.550  16.024  -3.086  1.00 20.00     0.050 C 
HETATM    3  C1  UNL     1     -34.639  16.262  -1.583  1.00 20.00     0.022 C 
HETATM    4  C2  UNL     1     -33.208  15.416  -3.474  1.00 20.00     0.022 C 
ENDBRANCH   1   2
BRANCH   1   5
HETATM    5  S8  UNL     1     -34.916  13.659  -4.899  1.00 20.00    -0.093 SA
BRANCH   5   6
HETATM    6  C6  UNL     1     -35.388  14.330  -6.511  1.00 20.00     0.050 C 
HETATM    7  C3  UNL     1     -36.666  15.150  -6.372  1.00 20.00     0.022 C 
HETATM    8  C4  UNL     1     -34.247  15.170  -7.073  1.00 20.00     0.022 C 
ENDBRANCH   5   6
ENDBRANCH   1   5
TORSDOF 3
ENDMDL
MODEL 4
REMARK VINA RESULT:      -3.2     11.397     12.197
REMARK  3 active torsions:
REMARK  status: ('A' for Active; 'I' for Inactive)
REMARK    1  A    between atoms: C5_5  and  S7_7 
REMARK    2  A    between atoms: C6_6  and  S8_8 
REMARK    3  A    between atoms: S7_7  and  S8_8 
ROOT
HETATM    1  S7  UNL     1     -34.043  17.188  -3.096  1.00 20.00    -0.093 SA
ENDROOT
BRANCH   1   2
HETATM    2  C5  UNL     1     -33.598  17.348  -1.334  1.00 20.00     0.050 C 
HETATM    3  C1  UNL     1     -33.249  18.799  -1.023  1.00 20.00     0.022 C 
HETATM    4  C2  UNL     1     -34.750  16.855  -0.467  1.00 20.00     0.022 C 
ENDBRANCH   1   2
BRANCH   1   5
HETATM    5  S8  UNL     1     -35.418  15.665  -3.029  1.00 20.00    -0.093 SA
BRANCH   5   6
HETATM    6  C6  UNL     1     -34.383  14.217  -3.348  1.00 20.00     0.050 C 
HETATM    7  C3  UNL     1     -35.035  13.343  -4.413  1.00 20.00     0.022 C 
HETATM    8  C4  UNL     1     -32.989  14.665  -3.774  1.00 20.00     0.022 C 
ENDBRANCH   5   6
ENDBRANCH   1   5
TORSDOF 3
ENDMDL
MODEL 5
REMARK VINA RESULT:      -3.2     11.644     12.886
REMARK  3 active torsions:
REMARK  status: ('A' for Active; 'I' for Inactive)
REMARK    1  A    between atoms: C5_5  and  S7_7 
REMARK    2  A    between atoms: C6_6  and  S8_8 
REMARK    3  A    between atoms: S7_7  and  S8_8 
ROOT
HETATM    1  S7  UNL     1     -34.931  13.655  -4.821  1.00 20.00    -0.093 SA
ENDROOT
BRANCH   1   2
HETATM    2  C5  UNL     1     -35.408  14.309  -6.456  1.00 20.00     0.050 C 
HETATM    3  C1  UNL     1     -36.670  15.154  -6.323  1.00 20.00     0.022 C 
HETATM    4  C2  UNL     1     -34.257  15.117  -7.042  1.00 20.00     0.022 C 
ENDBRANCH   1   2
BRANCH   1   5
HETATM    5  S8  UNL     1     -35.891  14.966  -3.566  1.00 20.00    -0.093 SA
BRANCH   5   6
HETATM    6  C6  UNL     1     -34.533  16.042  -3.047  1.00 20.00     0.050 C 
HETATM    7  C3  UNL     1     -34.625  16.299  -1.547  1.00 20.00     0.022 C 
HETATM    8  C4  UNL     1     -33.200  15.405  -3.422  1.00 20.00     0.022 C 
ENDBRANCH   5   6
ENDBRANCH   1   5
TORSDOF 3
ENDMDL
MODEL 6
REMARK VINA RESULT:      -3.1     11.734     12.764
REMARK  3 active torsions:
REMARK  status: ('A' for Active; 'I' for Inactive)
REMARK    1  A    between atoms: C5_5  and  S7_7 
REMARK    2  A    between atoms: C6_6  and  S8_8 
REMARK    3  A    between atoms: S7_7  and  S8_8 
ROOT
HETATM    1  S7  UNL     1     -33.279  16.324  -4.729  1.00 20.00    -0.093 SA
ENDROOT
BRANCH   1   2
HETATM    2  C5  UNL     1     -34.340  14.849  -4.568  1.00 20.00     0.050 C 
HETATM    3  C1  UNL     1     -34.741  14.351  -5.951  1.00 20.00     0.022 C 
HETATM    4  C2  UNL     1     -33.606  13.771  -3.780  1.00 20.00     0.022 C 
ENDBRANCH   1   2
BRANCH   1   5
HETATM    5  S8  UNL     1     -34.272  17.669  -3.538  1.00 20.00    -0.093 SA
BRANCH   5   6
HETATM    6  C6  UNL     1     -33.654  17.236  -1.895  1.00 20.00     0.050 C 
HETATM    7  C3  UNL     1     -33.301  18.504  -1.127  1.00 20.00     0.022 C 
HETATM    8  C4  UNL     1     -34.698  16.409  -1.154  1.00 20.00     0.022 C 
ENDBRANCH   5   6
ENDBRANCH   1   5
TORSDOF 3
ENDMDL
MODEL 7
REMARK VINA RESULT:      -3.1     11.537     12.757
REMARK  3 active torsions:
REMARK  status: ('A' for Active; 'I' for Inactive)
REMARK    1  A    between atoms: C5_5  and  S7_7 
REMARK    2  A    between atoms: C6_6  and  S8_8 
REMARK    3  A    between atoms: S7_7  and  S8_8 
ROOT
HETATM    1  S7  UNL     1     -33.140  15.085  -3.728  1.00 20.00    -0.093 SA
ENDROOT
BRANCH   1   2
HETATM    2  C5  UNL     1     -34.148  14.128  -4.910  1.00 20.00     0.050 C 
HETATM    3  C1  UNL     1     -35.333  13.501  -4.184  1.00 20.00     0.022 C 
HETATM    4  C2  UNL     1     -34.608  15.034  -6.045  1.00 20.00     0.022 C 
ENDBRANCH   1   2
BRANCH   1   5
HETATM    5  S8  UNL     1     -33.808  16.994  -4.081  1.00 20.00    -0.093 SA
BRANCH   5   6
HETATM    6  C6  UNL     1     -35.000  17.222  -2.739  1.00 20.00     0.050 C 
HETATM    7  C3  UNL     1     -36.412  16.971  -3.257  1.00 20.00     0.022 C 
HETATM    8  C4  UNL     1     -34.657  16.289  -1.583  1.00 20.00     0.022 C 
ENDBRANCH   5   6
ENDBRANCH   1   5
TORSDOF 3
ENDMDL
MODEL 8
REMARK VINA RESULT:      -3.1     11.822     12.618
REMARK  3 active torsions:
REMARK  status: ('A' for Active; 'I' for Inactive)
REMARK    1  A    between atoms: C5_5  and  S7_7 
REMARK    2  A    between atoms: C6_6  and  S8_8 
REMARK    3  A    between atoms: S7_7  and  S8_8 
ROOT
HETATM    1  S7  UNL     1     -33.584  15.746  -3.445  1.00 20.00    -0.093 SA
ENDROOT
BRANCH   1   2
HETATM    2  C5  UNL     1     -34.963  15.889  -2.259  1.00 20.00     0.050 C 
HETATM    3  C1  UNL     1     -34.505  16.668  -1.032  1.00 20.00     0.022 C 
HETATM    4  C2  UNL     1     -36.154  16.560  -2.932  1.00 20.00     0.022 C 
ENDBRANCH   1   2
BRANCH   1   5
HETATM    5  S8  UNL     1     -34.547  16.093  -5.225  1.00 20.00    -0.093 SA
BRANCH   5   6
HETATM    6  C6  UNL     1     -34.498  14.458  -5.996  1.00 20.00     0.050 C 
HETATM    7  C3  UNL     1     -34.848  13.392  -4.964  1.00 20.00     0.022 C 
HETATM    8  C4  UNL     1     -35.456  14.420  -7.181  1.00 20.00     0.022 C 
ENDBRANCH   5   6
ENDBRANCH   1   5
TORSDOF 3
ENDMDL
MODEL 9
REMARK VINA RESULT:      -3.1     11.712     12.928
REMARK  3 active torsions:
REMARK  status: ('A' for Active; 'I' for Inactive)
REMARK    1  A    between atoms: C5_5  and  S7_7 
REMARK    2  A    between atoms: C6_6  and  S8_8 
REMARK    3  A    between atoms: S7_7  and  S8_8 
ROOT
HETATM    1  S7  UNL     1     -35.461  16.173  -5.052  1.00 20.00    -0.093 SA
ENDROOT
BRANCH   1   2
HETATM    2  C5  UNL     1     -34.517  14.793  -5.781  1.00 20.00     0.050 C 
HETATM    3  C1  UNL     1     -34.754  13.524  -4.969  1.00 20.00     0.022 C 
HETATM    4  C2  UNL     1     -34.922  14.605  -7.237  1.00 20.00     0.022 C 
ENDBRANCH   1   2
BRANCH   1   5
HETATM    5  S8  UNL     1     -35.713  15.516  -3.123  1.00 20.00    -0.093 SA
BRANCH   5   6
HETATM    6  C6  UNL     1     -34.267  16.224  -2.300  1.00 20.00     0.050 C 
HETATM    7  C3  UNL     1     -33.761  17.425  -3.091  1.00 20.00     0.022 C 
HETATM    8  C4  UNL     1     -34.628  16.612  -0.870  1.00 20.00     0.022 C 
ENDBRANCH   5   6
ENDBRANCH   1   5
TORSDOF 3
ENDMDL
