MODEL 1
REMARK VINA RESULT:      -5.6      0.000      0.000
REMARK  0 active torsions:
REMARK  status: ('A' for Active; 'I' for Inactive)
ROOT
HETATM    1  C1  UNL     1     -35.185   4.903   5.943  1.00 20.00     0.001 A 
HETATM    2  C2  UNL     1     -34.338   5.867   6.490  1.00 20.00     0.001 A 
HETATM    3  C3  UNL     1     -35.173   4.662   4.569  1.00 20.00     0.007 A 
HETATM    4  C4  UNL     1     -33.479   6.591   5.662  1.00 20.00     0.007 A 
HETATM    5  C5  UNL     1     -34.315   5.386   3.742  1.00 20.00    -0.056 A 
HETATM    6  C6  UNL     1     -33.467   6.350   4.288  1.00 20.00    -0.056 A 
HETATM    7  C7  UNL     1     -34.319   5.111   2.274  1.00 20.00     0.049 C 
HETATM    8  C8  UNL     1     -32.540   7.138   3.422  1.00 20.00     0.049 C 
ENDROOT
TORSDOF 0
ENDMDL
MODEL 2
REMARK VINA RESULT:      -5.6      0.726      2.056
REMARK  0 active torsions:
REMARK  status: ('A' for Active; 'I' for Inactive)
ROOT
HETATM    1  C1  UNL     1     -35.190   4.175   4.470  1.00 20.00     0.001 A 
HETATM    2  C2  UNL     1     -35.276   4.259   5.859  1.00 20.00     0.001 A 
HETATM    3  C3  UNL     1     -34.462   5.129   3.757  1.00 20.00     0.007 A 
HETATM    4  C4  UNL     1     -34.635   5.296   6.537  1.00 20.00     0.007 A 
HETATM    5  C5  UNL     1     -33.822   6.166   4.433  1.00 20.00    -0.056 A 
HETATM    6  C6  UNL     1     -33.908   6.250   5.824  1.00 20.00    -0.056 A 
HETATM    7  C7  UNL     1     -33.048   7.175   3.650  1.00 20.00     0.049 C 
HETATM    8  C8  UNL     1     -33.231   7.352   6.570  1.00 20.00     0.049 C 
ENDROOT
TORSDOF 0
ENDMDL
MODEL 3
REMARK VINA RESULT:      -5.6      0.719      2.494
REMARK  0 active torsions:
REMARK  status: ('A' for Active; 'I' for Inactive)
ROOT
HETATM    1  C1  UNL     1     -35.274   4.269   5.858  1.00 20.00     0.001 A 
HETATM    2  C2  UNL     1     -35.183   4.180   4.469  1.00 20.00     0.001 A 
HETATM    3  C3  UNL     1     -34.633   5.306   6.535  1.00 20.00     0.007 A 
HETATM    4  C4  UNL     1     -34.449   5.129   3.756  1.00 20.00     0.007 A 
HETATM    5  C5  UNL     1     -33.899   6.254   5.823  1.00 20.00    -0.056 A 
HETATM    6  C6  UNL     1     -33.807   6.166   4.434  1.00 20.00    -0.056 A 
HETATM    7  C7  UNL     1     -33.221   7.357   6.569  1.00 20.00     0.049 C 
HETATM    8  C8  UNL     1     -33.027   7.170   3.650  1.00 20.00     0.049 C 
ENDROOT
TORSDOF 0
ENDMDL
MODEL 4
REMARK VINA RESULT:      -5.6      0.103      2.253
REMARK  0 active torsions:
REMARK  status: ('A' for Active; 'I' for Inactive)
ROOT
HETATM    1  C1  UNL     1     -34.405   5.740   6.519  1.00 20.00     0.001 A 
HETATM    2  C2  UNL     1     -35.233   4.783   5.934  1.00 20.00     0.001 A 
HETATM    3  C3  UNL     1     -33.547   6.501   5.725  1.00 20.00     0.007 A 
HETATM    4  C4  UNL     1     -35.204   4.586   4.553  1.00 20.00     0.007 A 
HETATM    5  C5  UNL     1     -33.518   6.304   4.345  1.00 20.00    -0.056 A 
HETATM    6  C6  UNL     1     -34.346   5.347   3.759  1.00 20.00    -0.056 A 
HETATM    7  C7  UNL     1     -32.593   7.131   3.513  1.00 20.00     0.049 C 
HETATM    8  C8  UNL     1     -34.332   5.118   2.282  1.00 20.00     0.049 C 
ENDROOT
TORSDOF 0
ENDMDL
MODEL 5
REMARK VINA RESULT:      -5.1      0.831      3.523
REMARK  0 active torsions:
REMARK  status: ('A' for Active; 'I' for Inactive)
ROOT
HETATM    1  C1  UNL     1     -33.239   6.363   3.008  1.00 20.00     0.001 A 
HETATM    2  C2  UNL     1     -34.091   5.269   2.859  1.00 20.00     0.001 A 
HETATM    3  C3  UNL     1     -33.046   6.931   4.267  1.00 20.00     0.007 A 
HETATM    4  C4  UNL     1     -34.750   4.742   3.969  1.00 20.00     0.007 A 
HETATM    5  C5  UNL     1     -33.705   6.405   5.377  1.00 20.00    -0.056 A 
HETATM    6  C6  UNL     1     -34.557   5.310   5.229  1.00 20.00    -0.056 A 
HETATM    7  C7  UNL     1     -33.482   7.027   6.716  1.00 20.00     0.049 C 
HETATM    8  C8  UNL     1     -35.274   4.729   6.403  1.00 20.00     0.049 C 
ENDROOT
TORSDOF 0
ENDMDL
MODEL 6
REMARK VINA RESULT:      -5.1      0.833      2.751
REMARK  0 active torsions:
REMARK  status: ('A' for Active; 'I' for Inactive)
ROOT
HETATM    1  C1  UNL     1     -34.075   5.273   2.835  1.00 20.00     0.001 A 
HETATM    2  C2  UNL     1     -33.224   6.367   2.986  1.00 20.00     0.001 A 
HETATM    3  C3  UNL     1     -34.737   4.745   3.943  1.00 20.00     0.007 A 
HETATM    4  C4  UNL     1     -33.034   6.935   4.247  1.00 20.00     0.007 A 
HETATM    5  C5  UNL     1     -34.549   5.312   5.203  1.00 20.00    -0.056 A 
HETATM    6  C6  UNL     1     -33.697   6.407   5.355  1.00 20.00    -0.056 A 
HETATM    7  C7  UNL     1     -35.269   4.732   6.376  1.00 20.00     0.049 C 
HETATM    8  C8  UNL     1     -33.478   7.031   6.695  1.00 20.00     0.049 C 
ENDROOT
TORSDOF 0
ENDMDL
MODEL 7
REMARK VINA RESULT:      -4.3      0.785      2.467
REMARK  0 active torsions:
REMARK  status: ('A' for Active; 'I' for Inactive)
ROOT
HETATM    1  C1  UNL     1     -33.080   7.386   5.579  1.00 20.00     0.001 A 
HETATM    2  C2  UNL     1     -33.727   6.756   6.641  1.00 20.00     0.001 A 
HETATM    3  C3  UNL     1     -33.193   6.870   4.288  1.00 20.00     0.007 A 
HETATM    4  C4  UNL     1     -34.488   5.609   6.414  1.00 20.00     0.007 A 
HETATM    5  C5  UNL     1     -33.952   5.723   4.060  1.00 20.00    -0.056 A 
HETATM    6  C6  UNL     1     -34.600   5.093   5.123  1.00 20.00    -0.056 A 
HETATM    7  C7  UNL     1     -34.060   5.188   2.669  1.00 20.00     0.049 C 
HETATM    8  C8  UNL     1     -35.419   3.862   4.903  1.00 20.00     0.049 C 
ENDROOT
TORSDOF 0
ENDMDL
MODEL 8
REMARK VINA RESULT:      -4.3      0.820      2.076
REMARK  0 active torsions:
REMARK  status: ('A' for Active; 'I' for Inactive)
ROOT
HETATM    1  C1  UNL     1     -33.812   6.739   6.724  1.00 20.00     0.001 A 
HETATM    2  C2  UNL     1     -33.100   7.390   5.718  1.00 20.00     0.001 A 
HETATM    3  C3  UNL     1     -34.557   5.598   6.426  1.00 20.00     0.007 A 
HETATM    4  C4  UNL     1     -33.132   6.901   4.411  1.00 20.00     0.007 A 
HETATM    5  C5  UNL     1     -34.589   5.108   5.121  1.00 20.00    -0.056 A 
HETATM    6  C6  UNL     1     -33.877   5.760   4.113  1.00 20.00    -0.056 A 
HETATM    7  C7  UNL     1     -35.392   3.884   4.825  1.00 20.00     0.049 C 
HETATM    8  C8  UNL     1     -33.897   5.254   2.708  1.00 20.00     0.049 C 
ENDROOT
TORSDOF 0
ENDMDL
MODEL 9
REMARK VINA RESULT:      -4.1     11.993     13.582
REMARK  0 active torsions:
REMARK  status: ('A' for Active; 'I' for Inactive)
ROOT
HETATM    1  C1  UNL     1     -33.588  13.805  -3.847  1.00 20.00     0.001 A 
HETATM    2  C2  UNL     1     -33.015  15.056  -3.627  1.00 20.00     0.001 A 
HETATM    3  C3  UNL     1     -34.378  13.587  -4.976  1.00 20.00     0.007 A 
HETATM    4  C4  UNL     1     -33.231  16.093  -4.536  1.00 20.00     0.007 A 
HETATM    5  C5  UNL     1     -34.595  14.622  -5.884  1.00 20.00    -0.056 A 
HETATM    6  C6  UNL     1     -34.021  15.875  -5.665  1.00 20.00    -0.056 A 
HETATM    7  C7  UNL     1     -35.444  14.368  -7.087  1.00 20.00     0.049 C 
HETATM    8  C8  UNL     1     -34.240  17.000  -6.623  1.00 20.00     0.049 C 
ENDROOT
TORSDOF 0
ENDMDL
