MODEL 1
REMARK VINA RESULT:      -5.4      0.000      0.000
REMARK  1 active torsions:
REMARK  status: ('A' for Active; 'I' for Inactive)
REMARK    1  A    between atoms: C6_6  and  N8_8 
ROOT
HETATM    1  N7  UNL     1     -31.114   7.630   3.705  1.00 20.00     0.068 N 
HETATM    2  N8  UNL     1     -33.290   6.834   3.113  1.00 20.00    -0.073 NA
HETATM    3  N9  UNL     1     -32.152   7.248   3.425  1.00 20.00    -0.162 NA
ENDROOT
BRANCH   2   4
HETATM    4  C6  UNL     1     -33.899   6.097   4.134  1.00 20.00     0.093 A 
HETATM    5  C4  UNL     1     -34.632   4.952   3.825  1.00 20.00     0.034 A 
HETATM    6  C2  UNL     1     -35.240   4.217   4.844  1.00 20.00     0.002 A 
HETATM    7  C1  UNL     1     -35.113   4.628   6.170  1.00 20.00     0.000 A 
HETATM    8  C3  UNL     1     -34.381   5.774   6.479  1.00 20.00     0.002 A 
HETATM    9  C5  UNL     1     -33.773   6.509   5.460  1.00 20.00     0.034 A 
ENDBRANCH   2   4
TORSDOF 1
ENDMDL
MODEL 2
REMARK VINA RESULT:      -5.4      0.022      1.610
REMARK  1 active torsions:
REMARK  status: ('A' for Active; 'I' for Inactive)
REMARK    1  A    between atoms: C6_6  and  N8_8 
ROOT
HETATM    1  N7  UNL     1     -31.098   7.639   3.696  1.00 20.00     0.068 N 
HETATM    2  N8  UNL     1     -33.278   6.853   3.104  1.00 20.00    -0.073 NA
HETATM    3  N9  UNL     1     -32.139   7.262   3.417  1.00 20.00    -0.162 NA
ENDROOT
BRANCH   2   4
HETATM    4  C6  UNL     1     -33.889   6.115   4.124  1.00 20.00     0.093 A 
HETATM    5  C4  UNL     1     -33.766   6.526   5.450  1.00 20.00     0.034 A 
HETATM    6  C2  UNL     1     -34.376   5.789   6.467  1.00 20.00     0.002 A 
HETATM    7  C1  UNL     1     -35.107   4.644   6.156  1.00 20.00     0.000 A 
HETATM    8  C3  UNL     1     -35.229   4.233   4.829  1.00 20.00     0.002 A 
HETATM    9  C5  UNL     1     -34.619   4.969   3.812  1.00 20.00     0.034 A 
ENDBRANCH   2   4
TORSDOF 1
ENDMDL
MODEL 3
REMARK VINA RESULT:      -4.3     10.289     11.141
REMARK  1 active torsions:
REMARK  status: ('A' for Active; 'I' for Inactive)
REMARK    1  A    between atoms: C6_6  and  N8_8 
ROOT
HETATM    1  N7  UNL     1     -43.119   8.237  -4.750  1.00 20.00     0.068 N 
HETATM    2  N8  UNL     1     -43.376   6.174  -3.568  1.00 20.00    -0.073 NA
HETATM    3  N9  UNL     1     -43.239   7.253  -4.184  1.00 20.00    -0.162 NA
ENDROOT
BRANCH   2   4
HETATM    4  C6  UNL     1     -42.446   6.016  -2.535  1.00 20.00     0.093 A 
HETATM    5  C4  UNL     1     -41.917   4.756  -2.260  1.00 20.00     0.034 A 
HETATM    6  C2  UNL     1     -40.989   4.599  -1.229  1.00 20.00     0.002 A 
HETATM    7  C1  UNL     1     -40.592   5.702  -0.475  1.00 20.00     0.000 A 
HETATM    8  C3  UNL     1     -41.122   6.962  -0.749  1.00 20.00     0.002 A 
HETATM    9  C5  UNL     1     -42.050   7.119  -1.780  1.00 20.00     0.034 A 
ENDBRANCH   2   4
TORSDOF 1
ENDMDL
MODEL 4
REMARK VINA RESULT:      -4.2     11.935     12.220
REMARK  1 active torsions:
REMARK  status: ('A' for Active; 'I' for Inactive)
REMARK    1  A    between atoms: C6_6  and  N8_8 
ROOT
HETATM    1  N7  UNL     1     -34.795  16.912  -0.081  1.00 20.00     0.068 N 
HETATM    2  N8  UNL     1     -33.732  16.650  -2.207  1.00 20.00    -0.073 NA
HETATM    3  N9  UNL     1     -34.290  16.784  -1.096  1.00 20.00    -0.162 NA
ENDROOT
BRANCH   2   4
HETATM    4  C6  UNL     1     -34.234  15.570  -2.941  1.00 20.00     0.093 A 
HETATM    5  C4  UNL     1     -33.361  14.626  -3.479  1.00 20.00     0.034 A 
HETATM    6  C2  UNL     1     -33.863  13.548  -4.210  1.00 20.00     0.002 A 
HETATM    7  C1  UNL     1     -35.237  13.417  -4.403  1.00 20.00     0.000 A 
HETATM    8  C3  UNL     1     -36.111  14.362  -3.866  1.00 20.00     0.002 A 
HETATM    9  C5  UNL     1     -35.609  15.439  -3.135  1.00 20.00     0.034 A 
ENDBRANCH   2   4
TORSDOF 1
ENDMDL
MODEL 5
REMARK VINA RESULT:      -4.2     11.935     12.218
REMARK  1 active torsions:
REMARK  status: ('A' for Active; 'I' for Inactive)
REMARK    1  A    between atoms: C6_6  and  N8_8 
ROOT
HETATM    1  N7  UNL     1     -34.796  16.915  -0.080  1.00 20.00     0.068 N 
HETATM    2  N8  UNL     1     -33.731  16.649  -2.205  1.00 20.00    -0.073 NA
HETATM    3  N9  UNL     1     -34.289  16.785  -1.095  1.00 20.00    -0.162 NA
ENDROOT
BRANCH   2   4
HETATM    4  C6  UNL     1     -34.236  15.571  -2.939  1.00 20.00     0.093 A 
HETATM    5  C4  UNL     1     -35.610  15.441  -3.132  1.00 20.00     0.034 A 
HETATM    6  C2  UNL     1     -36.113  14.365  -3.864  1.00 20.00     0.002 A 
HETATM    7  C1  UNL     1     -35.241  13.419  -4.402  1.00 20.00     0.000 A 
HETATM    8  C3  UNL     1     -33.866  13.548  -4.208  1.00 20.00     0.002 A 
HETATM    9  C5  UNL     1     -33.363  14.625  -3.476  1.00 20.00     0.034 A 
ENDBRANCH   2   4
TORSDOF 1
ENDMDL
MODEL 6
REMARK VINA RESULT:      -4.2     12.181     13.232
REMARK  1 active torsions:
REMARK  status: ('A' for Active; 'I' for Inactive)
REMARK    1  A    between atoms: C6_6  and  N8_8 
ROOT
HETATM    1  N7  UNL     1     -38.555  14.901  -3.726  1.00 20.00     0.068 N 
HETATM    2  N8  UNL     1     -36.490  13.712  -3.937  1.00 20.00    -0.073 NA
HETATM    3  N9  UNL     1     -37.568  14.337  -3.827  1.00 20.00    -0.162 NA
ENDROOT
BRANCH   2   4
HETATM    4  C6  UNL     1     -35.395  14.554  -4.159  1.00 20.00     0.093 A 
HETATM    5  C4  UNL     1     -35.105  14.995  -5.449  1.00 20.00     0.034 A 
HETATM    6  C2  UNL     1     -34.013  15.835  -5.670  1.00 20.00     0.002 A 
HETATM    7  C1  UNL     1     -33.211  16.232  -4.601  1.00 20.00     0.000 A 
HETATM    8  C3  UNL     1     -33.500  15.789  -3.310  1.00 20.00     0.002 A 
HETATM    9  C5  UNL     1     -34.593  14.949  -3.089  1.00 20.00     0.034 A 
ENDBRANCH   2   4
TORSDOF 1
ENDMDL
MODEL 7
REMARK VINA RESULT:      -4.1     12.193     13.314
REMARK  1 active torsions:
REMARK  status: ('A' for Active; 'I' for Inactive)
REMARK    1  A    between atoms: C6_6  and  N8_8 
ROOT
HETATM    1  N7  UNL     1     -38.573  14.908  -3.730  1.00 20.00     0.068 N 
HETATM    2  N8  UNL     1     -36.507  13.720  -3.937  1.00 20.00    -0.073 NA
HETATM    3  N9  UNL     1     -37.585  14.344  -3.829  1.00 20.00    -0.162 NA
ENDROOT
BRANCH   2   4
HETATM    4  C6  UNL     1     -35.413  14.561  -4.162  1.00 20.00     0.093 A 
HETATM    5  C4  UNL     1     -34.613  14.966  -3.095  1.00 20.00     0.034 A 
HETATM    6  C2  UNL     1     -33.520  15.805  -3.321  1.00 20.00     0.002 A 
HETATM    7  C1  UNL     1     -33.230  16.238  -4.614  1.00 20.00     0.000 A 
HETATM    8  C3  UNL     1     -34.031  15.834  -5.681  1.00 20.00     0.002 A 
HETATM    9  C5  UNL     1     -35.123  14.995  -5.455  1.00 20.00     0.034 A 
ENDBRANCH   2   4
TORSDOF 1
ENDMDL
MODEL 8
REMARK VINA RESULT:      -4.1      9.985     10.899
REMARK  1 active torsions:
REMARK  status: ('A' for Active; 'I' for Inactive)
REMARK    1  A    between atoms: C6_6  and  N8_8 
ROOT
HETATM    1  N7  UNL     1     -41.118   2.091  -3.777  1.00 20.00     0.068 N 
HETATM    2  N8  UNL     1     -42.529   3.238  -2.223  1.00 20.00    -0.073 NA
HETATM    3  N9  UNL     1     -41.789   2.641  -3.035  1.00 20.00    -0.162 NA
ENDROOT
BRANCH   2   4
HETATM    4  C6  UNL     1     -42.042   4.501  -1.871  1.00 20.00     0.093 A 
HETATM    5  C4  UNL     1     -41.193   4.640  -0.773  1.00 20.00     0.034 A 
HETATM    6  C2  UNL     1     -40.707   5.900  -0.423  1.00 20.00     0.002 A 
HETATM    7  C1  UNL     1     -41.070   7.020  -1.169  1.00 20.00     0.000 A 
HETATM    8  C3  UNL     1     -41.921   6.882  -2.266  1.00 20.00     0.002 A 
HETATM    9  C5  UNL     1     -42.407   5.621  -2.617  1.00 20.00     0.034 A 
ENDBRANCH   2   4
TORSDOF 1
ENDMDL
MODEL 9
REMARK VINA RESULT:      -4.1     10.000     10.866
REMARK  1 active torsions:
REMARK  status: ('A' for Active; 'I' for Inactive)
REMARK    1  A    between atoms: C6_6  and  N8_8 
ROOT
HETATM    1  N7  UNL     1     -41.126   2.062  -3.760  1.00 20.00     0.068 N 
HETATM    2  N8  UNL     1     -42.542   3.229  -2.225  1.00 20.00    -0.073 NA
HETATM    3  N9  UNL     1     -41.800   2.621  -3.027  1.00 20.00    -0.162 NA
ENDROOT
BRANCH   2   4
HETATM    4  C6  UNL     1     -42.053   4.494  -1.884  1.00 20.00     0.093 A 
HETATM    5  C4  UNL     1     -42.440   5.613  -2.620  1.00 20.00     0.034 A 
HETATM    6  C2  UNL     1     -41.952   6.875  -2.279  1.00 20.00     0.002 A 
HETATM    7  C1  UNL     1     -41.078   7.017  -1.202  1.00 20.00     0.000 A 
HETATM    8  C3  UNL     1     -40.690   5.897  -0.466  1.00 20.00     0.002 A 
HETATM    9  C5  UNL     1     -41.178   4.635  -0.808  1.00 20.00     0.034 A 
ENDBRANCH   2   4
TORSDOF 1
ENDMDL
