MODEL 1
REMARK VINA RESULT:      -5.5      0.000      0.000
REMARK  1 active torsions:
REMARK  status: ('A' for Active; 'I' for Inactive)
REMARK    1  A    between atoms: C6_6  and  C9_9 
ROOT
HETATM    1  C1  UNL     1     -34.704   5.098   2.986  1.00 20.00     0.001 A 
HETATM    2  C2  UNL     1     -35.067   4.974   4.327  1.00 20.00     0.007 A 
HETATM    3  C3  UNL     1     -33.622   5.903   2.629  1.00 20.00     0.007 A 
HETATM    4  C4  UNL     1     -33.267   6.460   4.952  1.00 20.00     0.013 A 
HETATM    5  C5  UNL     1     -34.349   5.655   5.311  1.00 20.00    -0.061 A 
HETATM    6  C6  UNL     1     -32.904   6.583   3.611  1.00 20.00    -0.058 A 
HETATM    7  C7  UNL     1     -34.737   5.522   6.744  1.00 20.00     0.048 C 
ENDROOT
BRANCH   6   8
HETATM    8  C9  UNL     1     -31.747   7.445   3.228  1.00 20.00     0.034 C 
HETATM    9  C8  UNL     1     -32.040   8.295   1.995  1.00 20.00     0.010 C 
ENDBRANCH   6   8
TORSDOF 1
ENDMDL
MODEL 2
REMARK VINA RESULT:      -5.3      1.215      2.114
REMARK  1 active torsions:
REMARK  status: ('A' for Active; 'I' for Inactive)
REMARK    1  A    between atoms: C6_6  and  C9_9 
ROOT
HETATM    1  C1  UNL     1     -35.174   4.419   5.776  1.00 20.00     0.001 A 
HETATM    2  C2  UNL     1     -34.783   5.387   6.701  1.00 20.00     0.007 A 
HETATM    3  C3  UNL     1     -34.787   4.534   4.441  1.00 20.00     0.007 A 
HETATM    4  C4  UNL     1     -33.619   6.585   4.956  1.00 20.00     0.013 A 
HETATM    5  C5  UNL     1     -34.005   6.471   6.291  1.00 20.00    -0.061 A 
HETATM    6  C6  UNL     1     -34.009   5.616   4.031  1.00 20.00    -0.058 A 
HETATM    7  C7  UNL     1     -33.587   7.504   7.281  1.00 20.00     0.048 C 
ENDROOT
BRANCH   6   8
HETATM    8  C9  UNL     1     -33.597   5.740   2.603  1.00 20.00     0.034 C 
HETATM    9  C8  UNL     1     -32.421   6.696   2.418  1.00 20.00     0.010 C 
ENDBRANCH   6   8
TORSDOF 1
ENDMDL
MODEL 3
REMARK VINA RESULT:      -4.8      1.048      2.102
REMARK  1 active torsions:
REMARK  status: ('A' for Active; 'I' for Inactive)
REMARK    1  A    between atoms: C6_6  and  C9_9 
ROOT
HETATM    1  C1  UNL     1     -33.519   7.074   6.299  1.00 20.00     0.001 A 
HETATM    2  C2  UNL     1     -34.341   5.958   6.453  1.00 20.00     0.007 A 
HETATM    3  C3  UNL     1     -32.871   7.300   5.085  1.00 20.00     0.007 A 
HETATM    4  C4  UNL     1     -33.868   5.295   4.179  1.00 20.00     0.013 A 
HETATM    5  C5  UNL     1     -34.515   5.068   5.393  1.00 20.00    -0.061 A 
HETATM    6  C6  UNL     1     -33.046   6.411   4.025  1.00 20.00    -0.058 A 
HETATM    7  C7  UNL     1     -35.396   3.876   5.558  1.00 20.00     0.048 C 
ENDROOT
BRANCH   6   8
HETATM    8  C9  UNL     1     -32.352   6.653   2.726  1.00 20.00     0.034 C 
HETATM    9  C8  UNL     1     -32.191   8.140   2.422  1.00 20.00     0.010 C 
ENDBRANCH   6   8
TORSDOF 1
ENDMDL
MODEL 4
REMARK VINA RESULT:      -4.8      0.625      3.697
REMARK  1 active torsions:
REMARK  status: ('A' for Active; 'I' for Inactive)
REMARK    1  A    between atoms: C6_6  and  C9_9 
ROOT
HETATM    1  C1  UNL     1     -34.351   5.288   2.668  1.00 20.00     0.001 A 
HETATM    2  C2  UNL     1     -33.251   6.105   2.407  1.00 20.00     0.007 A 
HETATM    3  C3  UNL     1     -34.817   5.142   3.975  1.00 20.00     0.007 A 
HETATM    4  C4  UNL     1     -33.081   6.628   4.759  1.00 20.00     0.013 A 
HETATM    5  C5  UNL     1     -32.615   6.774   3.453  1.00 20.00    -0.061 A 
HETATM    6  C6  UNL     1     -34.182   5.812   5.020  1.00 20.00    -0.058 A 
HETATM    7  C7  UNL     1     -31.439   7.647   3.173  1.00 20.00     0.048 C 
ENDROOT
BRANCH   6   8
HETATM    8  C9  UNL     1     -34.680   5.655   6.418  1.00 20.00     0.034 C 
HETATM    9  C8  UNL     1     -35.267   4.270   6.673  1.00 20.00     0.010 C 
ENDBRANCH   6   8
TORSDOF 1
ENDMDL
MODEL 5
REMARK VINA RESULT:      -4.6     11.234     11.785
REMARK  1 active torsions:
REMARK  status: ('A' for Active; 'I' for Inactive)
REMARK    1  A    between atoms: C6_6  and  C9_9 
ROOT
HETATM    1  C1  UNL     1     -34.234  13.709  -4.145  1.00 20.00     0.001 A 
HETATM    2  C2  UNL     1     -35.608  13.716  -4.385  1.00 20.00     0.007 A 
HETATM    3  C3  UNL     1     -33.668  14.676  -3.314  1.00 20.00     0.007 A 
HETATM    4  C4  UNL     1     -35.849  15.654  -2.964  1.00 20.00     0.013 A 
HETATM    5  C5  UNL     1     -36.416  14.689  -3.795  1.00 20.00    -0.061 A 
HETATM    6  C6  UNL     1     -34.475  15.648  -2.723  1.00 20.00    -0.058 A 
HETATM    7  C7  UNL     1     -37.884  14.694  -4.052  1.00 20.00     0.048 C 
ENDROOT
BRANCH   6   8
HETATM    8  C9  UNL     1     -33.869  16.682  -1.835  1.00 20.00     0.034 C 
HETATM    9  C8  UNL     1     -34.641  16.853  -0.530  1.00 20.00     0.010 C 
ENDBRANCH   6   8
TORSDOF 1
ENDMDL
MODEL 6
REMARK VINA RESULT:      -4.5      1.718      3.460
REMARK  1 active torsions:
REMARK  status: ('A' for Active; 'I' for Inactive)
REMARK    1  A    between atoms: C6_6  and  C9_9 
ROOT
HETATM    1  C1  UNL     1     -35.186   4.280   5.879  1.00 20.00     0.001 A 
HETATM    2  C2  UNL     1     -35.135   4.295   4.486  1.00 20.00     0.007 A 
HETATM    3  C3  UNL     1     -34.564   5.292   6.610  1.00 20.00     0.007 A 
HETATM    4  C4  UNL     1     -33.838   6.331   4.554  1.00 20.00     0.013 A 
HETATM    5  C5  UNL     1     -34.460   5.320   3.823  1.00 20.00    -0.061 A 
HETATM    6  C6  UNL     1     -33.890   6.318   5.948  1.00 20.00    -0.058 A 
HETATM    7  C7  UNL     1     -34.406   5.335   2.333  1.00 20.00     0.048 C 
ENDROOT
BRANCH   6   8
HETATM    8  C9  UNL     1     -33.224   7.399   6.730  1.00 20.00     0.034 C 
HETATM    9  C8  UNL     1     -34.168   8.059   7.731  1.00 20.00     0.010 C 
ENDBRANCH   6   8
TORSDOF 1
ENDMDL
MODEL 7
REMARK VINA RESULT:      -4.4      8.974     10.533
REMARK  1 active torsions:
REMARK  status: ('A' for Active; 'I' for Inactive)
REMARK    1  A    between atoms: C6_6  and  C9_9 
ROOT
HETATM    1  C1  UNL     1     -40.614   5.894  -0.420  1.00 20.00     0.001 A 
HETATM    2  C2  UNL     1     -40.797   4.626  -0.972  1.00 20.00     0.007 A 
HETATM    3  C3  UNL     1     -41.262   6.997  -0.977  1.00 20.00     0.007 A 
HETATM    4  C4  UNL     1     -42.274   5.564  -2.638  1.00 20.00     0.013 A 
HETATM    5  C5  UNL     1     -41.627   4.461  -2.081  1.00 20.00    -0.061 A 
HETATM    6  C6  UNL     1     -42.092   6.832  -2.085  1.00 20.00    -0.058 A 
HETATM    7  C7  UNL     1     -41.822   3.105  -2.670  1.00 20.00     0.048 C 
ENDROOT
BRANCH   6   8
HETATM    8  C9  UNL     1     -42.783   8.012  -2.682  1.00 20.00     0.034 C 
HETATM    9  C8  UNL     1     -42.630   8.069  -4.199  1.00 20.00     0.010 C 
ENDBRANCH   6   8
TORSDOF 1
ENDMDL
MODEL 8
REMARK VINA RESULT:      -4.4     11.059     12.700
REMARK  1 active torsions:
REMARK  status: ('A' for Active; 'I' for Inactive)
REMARK    1  A    between atoms: C6_6  and  C9_9 
ROOT
HETATM    1  C1  UNL     1     -34.809  13.353  -4.451  1.00 20.00     0.001 A 
HETATM    2  C2  UNL     1     -34.840  13.876  -5.743  1.00 20.00     0.007 A 
HETATM    3  C3  UNL     1     -34.421  14.161  -3.382  1.00 20.00     0.007 A 
HETATM    4  C4  UNL     1     -34.095  16.012  -4.898  1.00 20.00     0.013 A 
HETATM    5  C5  UNL     1     -34.483  15.206  -5.968  1.00 20.00    -0.061 A 
HETATM    6  C6  UNL     1     -34.064  15.490  -3.605  1.00 20.00    -0.058 A 
HETATM    7  C7  UNL     1     -34.517  15.763  -7.350  1.00 20.00     0.048 C 
ENDROOT
BRANCH   6   8
HETATM    8  C9  UNL     1     -33.648  16.353  -2.462  1.00 20.00     0.034 C 
HETATM    9  C8  UNL     1     -34.683  16.371  -1.340  1.00 20.00     0.010 C 
ENDBRANCH   6   8
TORSDOF 1
ENDMDL
MODEL 9
REMARK VINA RESULT:      -4.4     11.341     12.499
REMARK  1 active torsions:
REMARK  status: ('A' for Active; 'I' for Inactive)
REMARK    1  A    between atoms: C6_6  and  C9_9 
ROOT
HETATM    1  C1  UNL     1     -33.513  16.839  -4.685  1.00 20.00     0.001 A 
HETATM    2  C2  UNL     1     -33.817  15.564  -5.162  1.00 20.00     0.007 A 
HETATM    3  C3  UNL     1     -33.757  17.160  -3.350  1.00 20.00     0.007 A 
HETATM    4  C4  UNL     1     -34.610  14.932  -2.970  1.00 20.00     0.013 A 
HETATM    5  C5  UNL     1     -34.366  14.610  -4.305  1.00 20.00    -0.061 A 
HETATM    6  C6  UNL     1     -34.305  16.207  -2.492  1.00 20.00    -0.058 A 
HETATM    7  C7  UNL     1     -34.690  13.248  -4.816  1.00 20.00     0.048 C 
ENDROOT
BRANCH   6   8
HETATM    8  C9  UNL     1     -34.567  16.551  -1.065  1.00 20.00     0.034 C 
HETATM    9  C8  UNL     1     -33.716  17.723  -0.583  1.00 20.00     0.010 C 
ENDBRANCH   6   8
TORSDOF 1
ENDMDL
