MODEL 1
REMARK VINA RESULT:      -5.4      0.000      0.000
REMARK  4 active torsions:
REMARK  status: ('A' for Active; 'I' for Inactive)
REMARK    1  A    between atoms: C6_6  and  C7_7 
REMARK    2  A    between atoms: C7_7  and  C8_8 
REMARK    3  A    between atoms: C8_8  and  C9_9 
REMARK    4  A    between atoms: C9_9  and  S10_10 
ROOT
HETATM    1  C1  UNL     1     -35.046   5.049   6.394  1.00 20.00     0.000 A 
HETATM    2  C2  UNL     1     -34.185   6.145   6.406  1.00 20.00     0.001 A 
HETATM    3  C3  UNL     1     -35.275   4.354   5.205  1.00 20.00     0.001 A 
HETATM    4  C4  UNL     1     -33.551   6.548   5.231  1.00 20.00     0.007 A 
HETATM    5  C5  UNL     1     -34.641   4.757   4.030  1.00 20.00     0.007 A 
HETATM    6  C6  UNL     1     -33.778   5.853   4.043  1.00 20.00    -0.058 A 
ENDROOT
BRANCH   6   7
HETATM    7  C7  UNL     1     -33.101   6.282   2.786  1.00 20.00     0.039 C 
BRANCH   7   8
HETATM    8  C8  UNL     1     -32.160   7.492   2.950  1.00 20.00     0.014 C 
BRANCH   8   9
HETATM    9  C9  UNL     1     -31.815   8.147   1.613  1.00 20.00     0.071 C 
BRANCH   9  10
HETATM   10  S10 UNL     1     -32.539   9.811   1.509  1.00 20.00    -0.182 SA
HETATM   11  H22 UNL     1     -31.404  10.474   1.767  1.00 20.00     0.101 HD
ENDBRANCH   9  10
ENDBRANCH   8   9
ENDBRANCH   7   8
ENDBRANCH   6   7
TORSDOF 4
ENDMDL
MODEL 2
REMARK VINA RESULT:      -5.4      0.026      1.528
REMARK  4 active torsions:
REMARK  status: ('A' for Active; 'I' for Inactive)
REMARK    1  A    between atoms: C6_6  and  C7_7 
REMARK    2  A    between atoms: C7_7  and  C8_8 
REMARK    3  A    between atoms: C8_8  and  C9_9 
REMARK    4  A    between atoms: C9_9  and  S10_10 
ROOT
HETATM    1  C1  UNL     1     -35.057   5.023   6.378  1.00 20.00     0.000 A 
HETATM    2  C2  UNL     1     -35.286   4.336   5.186  1.00 20.00     0.001 A 
HETATM    3  C3  UNL     1     -34.190   6.117   6.398  1.00 20.00     0.001 A 
HETATM    4  C4  UNL     1     -34.648   4.741   4.014  1.00 20.00     0.007 A 
HETATM    5  C5  UNL     1     -33.552   6.522   5.225  1.00 20.00     0.007 A 
HETATM    6  C6  UNL     1     -33.782   5.835   4.033  1.00 20.00    -0.058 A 
ENDROOT
BRANCH   6   7
HETATM    7  C7  UNL     1     -33.099   6.268   2.780  1.00 20.00     0.039 C 
BRANCH   7   8
HETATM    8  C8  UNL     1     -32.184   7.497   2.946  1.00 20.00     0.014 C 
BRANCH   8   9
HETATM    9  C9  UNL     1     -31.833   8.148   1.608  1.00 20.00     0.071 C 
BRANCH   9  10
HETATM   10  S10 UNL     1     -32.515   9.830   1.516  1.00 20.00    -0.182 SA
HETATM   11  H22 UNL     1     -31.684  10.368   2.418  1.00 20.00     0.101 HD
ENDBRANCH   9  10
ENDBRANCH   8   9
ENDBRANCH   7   8
ENDBRANCH   6   7
TORSDOF 4
ENDMDL
MODEL 3
REMARK VINA RESULT:      -4.3     11.238     11.820
REMARK  4 active torsions:
REMARK  status: ('A' for Active; 'I' for Inactive)
REMARK    1  A    between atoms: C6_6  and  C7_7 
REMARK    2  A    between atoms: C7_7  and  C8_8 
REMARK    3  A    between atoms: C8_8  and  C9_9 
REMARK    4  A    between atoms: C9_9  and  S10_10 
ROOT
HETATM    1  C1  UNL     1     -35.062  13.352  -4.500  1.00 20.00     0.000 A 
HETATM    2  C2  UNL     1     -36.034  14.222  -4.008  1.00 20.00     0.001 A 
HETATM    3  C3  UNL     1     -33.719  13.550  -4.177  1.00 20.00     0.001 A 
HETATM    4  C4  UNL     1     -35.664  15.291  -3.192  1.00 20.00     0.007 A 
HETATM    5  C5  UNL     1     -33.350  14.619  -3.360  1.00 20.00     0.007 A 
HETATM    6  C6  UNL     1     -34.323  15.489  -2.867  1.00 20.00    -0.058 A 
ENDROOT
BRANCH   6   7
HETATM    7  C7  UNL     1     -33.926  16.632  -1.995  1.00 20.00     0.039 C 
BRANCH   7   8
HETATM    8  C8  UNL     1     -34.669  16.691  -0.645  1.00 20.00     0.014 C 
BRANCH   8   9
HETATM    9  C9  UNL     1     -34.247  17.892   0.200  1.00 20.00     0.071 C 
BRANCH   9  10
HETATM   10  S10 UNL     1     -35.216  17.966   1.736  1.00 20.00    -0.182 SA
HETATM   11  H22 UNL     1     -35.473  19.279   1.677  1.00 20.00     0.101 HD
ENDBRANCH   9  10
ENDBRANCH   8   9
ENDBRANCH   7   8
ENDBRANCH   6   7
TORSDOF 4
ENDMDL
MODEL 4
REMARK VINA RESULT:      -4.3     11.177     11.786
REMARK  4 active torsions:
REMARK  status: ('A' for Active; 'I' for Inactive)
REMARK    1  A    between atoms: C6_6  and  C7_7 
REMARK    2  A    between atoms: C7_7  and  C8_8 
REMARK    3  A    between atoms: C8_8  and  C9_9 
REMARK    4  A    between atoms: C9_9  and  S10_10 
ROOT
HETATM    1  C1  UNL     1     -34.975  13.280  -4.512  1.00 20.00     0.000 A 
HETATM    2  C2  UNL     1     -33.653  13.496  -4.122  1.00 20.00     0.001 A 
HETATM    3  C3  UNL     1     -35.976  14.160  -4.100  1.00 20.00     0.001 A 
HETATM    4  C4  UNL     1     -33.332  14.591  -3.321  1.00 20.00     0.007 A 
HETATM    5  C5  UNL     1     -35.655  15.256  -3.298  1.00 20.00     0.007 A 
HETATM    6  C6  UNL     1     -34.332  15.471  -2.910  1.00 20.00    -0.058 A 
ENDROOT
BRANCH   6   7
HETATM    7  C7  UNL     1     -33.990  16.643  -2.052  1.00 20.00     0.039 C 
BRANCH   7   8
HETATM    8  C8  UNL     1     -34.706  16.665  -0.688  1.00 20.00     0.014 C 
BRANCH   8   9
HETATM    9  C9  UNL     1     -34.249  17.828   0.192  1.00 20.00     0.071 C 
BRANCH   9  10
HETATM   10  S10 UNL     1     -35.241  17.910   1.712  1.00 20.00    -0.182 SA
HETATM   11  H22 UNL     1     -35.786  16.693   1.590  1.00 20.00     0.101 HD
ENDBRANCH   9  10
ENDBRANCH   8   9
ENDBRANCH   7   8
ENDBRANCH   6   7
TORSDOF 4
ENDMDL
MODEL 5
REMARK VINA RESULT:      -4.2     11.301     12.114
REMARK  4 active torsions:
REMARK  status: ('A' for Active; 'I' for Inactive)
REMARK    1  A    between atoms: C6_6  and  C7_7 
REMARK    2  A    between atoms: C7_7  and  C8_8 
REMARK    3  A    between atoms: C8_8  and  C9_9 
REMARK    4  A    between atoms: C9_9  and  S10_10 
ROOT
HETATM    1  C1  UNL     1     -34.095  18.438   1.489  1.00 20.00     0.000 A 
HETATM    2  C2  UNL     1     -35.036  17.521   1.022  1.00 20.00     0.001 A 
HETATM    3  C3  UNL     1     -33.021  18.810   0.679  1.00 20.00     0.001 A 
HETATM    4  C4  UNL     1     -34.906  16.977  -0.256  1.00 20.00     0.007 A 
HETATM    5  C5  UNL     1     -32.890  18.265  -0.598  1.00 20.00     0.007 A 
HETATM    6  C6  UNL     1     -33.833  17.349  -1.066  1.00 20.00    -0.058 A 
ENDROOT
BRANCH   6   7
HETATM    7  C7  UNL     1     -33.692  16.768  -2.432  1.00 20.00     0.039 C 
BRANCH   7   8
HETATM    8  C8  UNL     1     -34.506  15.479  -2.662  1.00 20.00     0.014 C 
BRANCH   8   9
HETATM    9  C9  UNL     1     -33.773  14.479  -3.556  1.00 20.00     0.071 C 
BRANCH   9  10
HETATM   10  S10 UNL     1     -34.958  13.439  -4.460  1.00 20.00    -0.182 SA
HETATM   11  H22 UNL     1     -34.281  13.428  -5.616  1.00 20.00     0.101 HD
ENDBRANCH   9  10
ENDBRANCH   8   9
ENDBRANCH   7   8
ENDBRANCH   6   7
TORSDOF 4
ENDMDL
MODEL 6
REMARK VINA RESULT:      -4.2     11.371     12.072
REMARK  4 active torsions:
REMARK  status: ('A' for Active; 'I' for Inactive)
REMARK    1  A    between atoms: C6_6  and  C7_7 
REMARK    2  A    between atoms: C7_7  and  C8_8 
REMARK    3  A    between atoms: C8_8  and  C9_9 
REMARK    4  A    between atoms: C9_9  and  S10_10 
ROOT
HETATM    1  C1  UNL     1     -34.066  18.471   1.517  1.00 20.00     0.000 A 
HETATM    2  C2  UNL     1     -32.991  18.825   0.703  1.00 20.00     0.001 A 
HETATM    3  C3  UNL     1     -35.029  17.574   1.051  1.00 20.00     0.001 A 
HETATM    4  C4  UNL     1     -32.875  18.281  -0.577  1.00 20.00     0.007 A 
HETATM    5  C5  UNL     1     -34.913  17.031  -0.229  1.00 20.00     0.007 A 
HETATM    6  C6  UNL     1     -33.836  17.384  -1.042  1.00 20.00    -0.058 A 
ENDROOT
BRANCH   6   7
HETATM    7  C7  UNL     1     -33.715  16.803  -2.410  1.00 20.00     0.039 C 
BRANCH   7   8
HETATM    8  C8  UNL     1     -34.512  15.501  -2.623  1.00 20.00     0.014 C 
BRANCH   8   9
HETATM    9  C9  UNL     1     -33.831  14.556  -3.612  1.00 20.00     0.071 C 
BRANCH   9  10
HETATM   10  S10 UNL     1     -35.055  13.480  -4.415  1.00 20.00    -0.182 SA
HETATM   11  H22 UNL     1     -36.117  14.251  -4.148  1.00 20.00     0.101 HD
ENDBRANCH   9  10
ENDBRANCH   8   9
ENDBRANCH   7   8
ENDBRANCH   6   7
TORSDOF 4
ENDMDL
MODEL 7
REMARK VINA RESULT:      -4.1     10.301     11.319
REMARK  4 active torsions:
REMARK  status: ('A' for Active; 'I' for Inactive)
REMARK    1  A    between atoms: C6_6  and  C7_7 
REMARK    2  A    between atoms: C7_7  and  C8_8 
REMARK    3  A    between atoms: C8_8  and  C9_9 
REMARK    4  A    between atoms: C9_9  and  S10_10 
ROOT
HETATM    1  C1  UNL     1     -41.062   7.033  -0.876  1.00 20.00     0.000 A 
HETATM    2  C2  UNL     1     -40.657   5.749  -0.514  1.00 20.00     0.001 A 
HETATM    3  C3  UNL     1     -41.952   7.212  -1.936  1.00 20.00     0.001 A 
HETATM    4  C4  UNL     1     -41.142   4.642  -1.211  1.00 20.00     0.007 A 
HETATM    5  C5  UNL     1     -42.437   6.105  -2.633  1.00 20.00     0.007 A 
HETATM    6  C6  UNL     1     -42.033   4.820  -2.270  1.00 20.00    -0.058 A 
ENDROOT
BRANCH   6   7
HETATM    7  C7  UNL     1     -42.551   3.638  -3.015  1.00 20.00     0.039 C 
BRANCH   7   8
HETATM    8  C8  UNL     1     -41.542   2.482  -3.159  1.00 20.00     0.014 C 
BRANCH   8   9
HETATM    9  C9  UNL     1     -41.834   1.600  -4.372  1.00 20.00     0.071 C 
BRANCH   9  10
HETATM   10  S10 UNL     1     -41.920  -0.149  -3.887  1.00 20.00    -0.182 SA
HETATM   11  H22 UNL     1     -40.923  -0.096  -2.994  1.00 20.00     0.101 HD
ENDBRANCH   9  10
ENDBRANCH   8   9
ENDBRANCH   7   8
ENDBRANCH   6   7
TORSDOF 4
ENDMDL
MODEL 8
REMARK VINA RESULT:      -4.1     11.228     12.400
REMARK  4 active torsions:
REMARK  status: ('A' for Active; 'I' for Inactive)
REMARK    1  A    between atoms: C6_6  and  C7_7 
REMARK    2  A    between atoms: C7_7  and  C8_8 
REMARK    3  A    between atoms: C8_8  and  C9_9 
REMARK    4  A    between atoms: C9_9  and  S10_10 
ROOT
HETATM    1  C1  UNL     1     -34.811  13.934  -5.729  1.00 20.00     0.000 A 
HETATM    2  C2  UNL     1     -34.394  15.247  -5.946  1.00 20.00     0.001 A 
HETATM    3  C3  UNL     1     -34.868  13.425  -4.432  1.00 20.00     0.001 A 
HETATM    4  C4  UNL     1     -34.035  16.052  -4.865  1.00 20.00     0.007 A 
HETATM    5  C5  UNL     1     -34.509  14.230  -3.351  1.00 20.00     0.007 A 
HETATM    6  C6  UNL     1     -34.093  15.543  -3.567  1.00 20.00    -0.058 A 
ENDROOT
BRANCH   6   7
HETATM    7  C7  UNL     1     -33.709  16.403  -2.411  1.00 20.00     0.039 C 
BRANCH   7   8
HETATM    8  C8  UNL     1     -34.678  16.334  -1.215  1.00 20.00     0.014 C 
BRANCH   8   9
HETATM    9  C9  UNL     1     -34.441  17.457  -0.206  1.00 20.00     0.071 C 
BRANCH   9  10
HETATM   10  S10 UNL     1     -33.206  18.633  -0.835  1.00 20.00    -0.182 SA
HETATM   11  H22 UNL     1     -33.803  18.845  -2.015  1.00 20.00     0.101 HD
ENDBRANCH   9  10
ENDBRANCH   8   9
ENDBRANCH   7   8
ENDBRANCH   6   7
TORSDOF 4
ENDMDL
MODEL 9
REMARK VINA RESULT:      -4.0     11.811     12.469
REMARK  4 active torsions:
REMARK  status: ('A' for Active; 'I' for Inactive)
REMARK    1  A    between atoms: C6_6  and  C7_7 
REMARK    2  A    between atoms: C7_7  and  C8_8 
REMARK    3  A    between atoms: C8_8  and  C9_9 
REMARK    4  A    between atoms: C9_9  and  S10_10 
ROOT
HETATM    1  C1  UNL     1     -33.483  18.926   1.440  1.00 20.00     0.000 A 
HETATM    2  C2  UNL     1     -34.650  18.181   1.611  1.00 20.00     0.001 A 
HETATM    3  C3  UNL     1     -32.744  18.804   0.262  1.00 20.00     0.001 A 
HETATM    4  C4  UNL     1     -35.078  17.314   0.605  1.00 20.00     0.007 A 
HETATM    5  C5  UNL     1     -33.173  17.938  -0.743  1.00 20.00     0.007 A 
HETATM    6  C6  UNL     1     -34.340  17.194  -0.572  1.00 20.00    -0.058 A 
ENDROOT
BRANCH   6   7
HETATM    7  C7  UNL     1     -34.797  16.268  -1.648  1.00 20.00     0.039 C 
BRANCH   7   8
HETATM    8  C8  UNL     1     -33.740  15.978  -2.732  1.00 20.00     0.014 C 
BRANCH   8   9
HETATM    9  C9  UNL     1     -34.265  16.241  -4.143  1.00 20.00     0.071 C 
BRANCH   9  10
HETATM   10  S10 UNL     1     -33.701  17.861  -4.744  1.00 20.00    -0.182 SA
HETATM   11  H22 UNL     1     -32.443  17.746  -4.299  1.00 20.00     0.101 HD
ENDBRANCH   9  10
ENDBRANCH   8   9
ENDBRANCH   7   8
ENDBRANCH   6   7
TORSDOF 4
ENDMDL
