MODEL 1
REMARK VINA RESULT:      -4.1      0.000      0.000
REMARK  4 active torsions:
REMARK  status: ('A' for Active; 'I' for Inactive)
REMARK    1  A    between atoms: C3_3  and  C5_5 
REMARK    2  A    between atoms: C4_4  and  C6_6 
REMARK    3  A    between atoms: C5_5  and  S7_7 
REMARK    4  A    between atoms: C6_6  and  S7_7 
ROOT
HETATM    1  S7  UNL     1     -34.087   6.058   3.723  1.00 20.00    -0.162 SA
ENDROOT
BRANCH   1   2
HETATM    2  C5  UNL     1     -32.333   6.140   3.270  1.00 20.00     0.100 C 
BRANCH   2   3
HETATM    3  C3  UNL     1     -31.913   7.564   3.091  1.00 20.00    -0.027 C 
HETATM    4  C1  UNL     1     -32.079   8.252   1.956  1.00 20.00     0.007 C 
ENDBRANCH   2   3
ENDBRANCH   1   2
BRANCH   1   5
HETATM    5  C6  UNL     1     -33.918   6.368   5.496  1.00 20.00     0.100 C 
BRANCH   5   6
HETATM    6  C4  UNL     1     -34.587   5.282   6.276  1.00 20.00    -0.027 C 
HETATM    7  C2  UNL     1     -34.967   4.112   5.751  1.00 20.00     0.007 C 
ENDBRANCH   5   6
ENDBRANCH   1   5
TORSDOF 4
ENDMDL
MODEL 2
REMARK VINA RESULT:      -4.1      0.050      4.461
REMARK  4 active torsions:
REMARK  status: ('A' for Active; 'I' for Inactive)
REMARK    1  A    between atoms: C3_3  and  C5_5 
REMARK    2  A    between atoms: C4_4  and  C6_6 
REMARK    3  A    between atoms: C5_5  and  S7_7 
REMARK    4  A    between atoms: C6_6  and  S7_7 
ROOT
HETATM    1  S7  UNL     1     -34.062   6.064   3.706  1.00 20.00    -0.162 SA
ENDROOT
BRANCH   1   2
HETATM    2  C5  UNL     1     -33.935   6.349   5.492  1.00 20.00     0.100 C 
BRANCH   2   3
HETATM    3  C3  UNL     1     -34.601   5.239   6.240  1.00 20.00    -0.027 C 
HETATM    4  C1  UNL     1     -34.951   4.073   5.685  1.00 20.00     0.007 C 
ENDBRANCH   2   3
ENDBRANCH   1   2
BRANCH   1   5
HETATM    5  C6  UNL     1     -32.302   6.126   3.300  1.00 20.00     0.100 C 
BRANCH   5   6
HETATM    6  C4  UNL     1     -31.866   7.543   3.109  1.00 20.00    -0.027 C 
HETATM    7  C2  UNL     1     -32.084   8.247   1.993  1.00 20.00     0.007 C 
ENDBRANCH   5   6
ENDBRANCH   1   5
TORSDOF 4
ENDMDL
MODEL 3
REMARK VINA RESULT:      -4.0      1.017      1.178
REMARK  4 active torsions:
REMARK  status: ('A' for Active; 'I' for Inactive)
REMARK    1  A    between atoms: C3_3  and  C5_5 
REMARK    2  A    between atoms: C4_4  and  C6_6 
REMARK    3  A    between atoms: C5_5  and  S7_7 
REMARK    4  A    between atoms: C6_6  and  S7_7 
ROOT
HETATM    1  S7  UNL     1     -33.705   6.483   4.407  1.00 20.00    -0.162 SA
ENDROOT
BRANCH   1   2
HETATM    2  C5  UNL     1     -32.448   6.318   3.109  1.00 20.00     0.100 C 
BRANCH   2   3
HETATM    3  C3  UNL     1     -31.815   7.645   2.835  1.00 20.00    -0.027 C 
HETATM    4  C1  UNL     1     -32.063   8.377   1.743  1.00 20.00     0.007 C 
ENDBRANCH   2   3
ENDBRANCH   1   2
BRANCH   1   5
HETATM    5  C6  UNL     1     -34.879   5.251   3.797  1.00 20.00     0.100 C 
BRANCH   5   6
HETATM    6  C4  UNL     1     -35.227   4.287   4.885  1.00 20.00    -0.027 C 
HETATM    7  C2  UNL     1     -34.943   4.486   6.177  1.00 20.00     0.007 C 
ENDBRANCH   5   6
ENDBRANCH   1   5
TORSDOF 4
ENDMDL
MODEL 4
REMARK VINA RESULT:      -4.0      1.019      4.603
REMARK  4 active torsions:
REMARK  status: ('A' for Active; 'I' for Inactive)
REMARK    1  A    between atoms: C3_3  and  C5_5 
REMARK    2  A    between atoms: C4_4  and  C6_6 
REMARK    3  A    between atoms: C5_5  and  S7_7 
REMARK    4  A    between atoms: C6_6  and  S7_7 
ROOT
HETATM    1  S7  UNL     1     -33.737   6.508   4.392  1.00 20.00    -0.162 SA
ENDROOT
BRANCH   1   2
HETATM    2  C5  UNL     1     -34.891   5.250   3.779  1.00 20.00     0.100 C 
BRANCH   2   3
HETATM    3  C3  UNL     1     -35.235   4.290   4.873  1.00 20.00    -0.027 C 
HETATM    4  C1  UNL     1     -34.886   4.463   6.152  1.00 20.00     0.007 C 
ENDBRANCH   2   3
ENDBRANCH   1   2
BRANCH   1   5
HETATM    5  C6  UNL     1     -32.444   6.313   3.144  1.00 20.00     0.100 C 
BRANCH   5   6
HETATM    6  C4  UNL     1     -31.804   7.632   2.853  1.00 20.00    -0.027 C 
HETATM    7  C2  UNL     1     -32.045   8.351   1.751  1.00 20.00     0.007 C 
ENDBRANCH   5   6
ENDBRANCH   1   5
TORSDOF 4
ENDMDL
MODEL 5
REMARK VINA RESULT:      -3.9      1.121      1.448
REMARK  4 active torsions:
REMARK  status: ('A' for Active; 'I' for Inactive)
REMARK    1  A    between atoms: C3_3  and  C5_5 
REMARK    2  A    between atoms: C4_4  and  C6_6 
REMARK    3  A    between atoms: C5_5  and  S7_7 
REMARK    4  A    between atoms: C6_6  and  S7_7 
ROOT
HETATM    1  S7  UNL     1     -32.601   6.108   3.171  1.00 20.00    -0.162 SA
ENDROOT
BRANCH   1   2
HETATM    2  C5  UNL     1     -32.010   7.819   3.057  1.00 20.00     0.100 C 
BRANCH   2   3
HETATM    3  C3  UNL     1     -31.979   8.259   1.628  1.00 20.00    -0.027 C 
HETATM    4  C1  UNL     1     -32.314   9.488   1.220  1.00 20.00     0.007 C 
ENDBRANCH   2   3
ENDBRANCH   1   2
BRANCH   1   5
HETATM    5  C6  UNL     1     -33.852   6.344   4.454  1.00 20.00     0.100 C 
BRANCH   5   6
HETATM    6  C4  UNL     1     -34.784   5.176   4.487  1.00 20.00    -0.027 C 
HETATM    7  C2  UNL     1     -34.923   4.361   5.539  1.00 20.00     0.007 C 
ENDBRANCH   5   6
ENDBRANCH   1   5
TORSDOF 4
ENDMDL
MODEL 6
REMARK VINA RESULT:      -3.3     11.590     12.268
REMARK  4 active torsions:
REMARK  status: ('A' for Active; 'I' for Inactive)
REMARK    1  A    between atoms: C3_3  and  C5_5 
REMARK    2  A    between atoms: C4_4  and  C6_6 
REMARK    3  A    between atoms: C5_5  and  S7_7 
REMARK    4  A    between atoms: C6_6  and  S7_7 
ROOT
HETATM    1  S7  UNL     1     -33.409  16.296  -4.589  1.00 20.00    -0.162 SA
ENDROOT
BRANCH   1   2
HETATM    2  C5  UNL     1     -32.807  14.902  -3.597  1.00 20.00     0.100 C 
BRANCH   2   3
HETATM    3  C3  UNL     1     -33.563  13.659  -3.944  1.00 20.00    -0.027 C 
HETATM    4  C1  UNL     1     -34.898  13.580  -3.962  1.00 20.00     0.007 C 
ENDBRANCH   2   3
ENDBRANCH   1   2
BRANCH   1   5
HETATM    5  C6  UNL     1     -34.224  17.227  -3.271  1.00 20.00     0.100 C 
BRANCH   5   6
HETATM    6  C4  UNL     1     -33.834  16.681  -1.936  1.00 20.00    -0.027 C 
HETATM    7  C2  UNL     1     -34.646  16.659  -0.872  1.00 20.00     0.007 C 
ENDBRANCH   5   6
ENDBRANCH   1   5
TORSDOF 4
ENDMDL
MODEL 7
REMARK VINA RESULT:      -3.3     11.607     12.293
REMARK  4 active torsions:
REMARK  status: ('A' for Active; 'I' for Inactive)
REMARK    1  A    between atoms: C3_3  and  C5_5 
REMARK    2  A    between atoms: C4_4  and  C6_6 
REMARK    3  A    between atoms: C5_5  and  S7_7 
REMARK    4  A    between atoms: C6_6  and  S7_7 
ROOT
HETATM    1  S7  UNL     1     -33.373  16.291  -4.597  1.00 20.00    -0.162 SA
ENDROOT
BRANCH   1   2
HETATM    2  C5  UNL     1     -34.240  17.202  -3.290  1.00 20.00     0.100 C 
BRANCH   2   3
HETATM    3  C3  UNL     1     -33.826  16.693  -1.946  1.00 20.00    -0.027 C 
HETATM    4  C1  UNL     1     -34.643  16.632  -0.889  1.00 20.00     0.007 C 
ENDBRANCH   2   3
ENDBRANCH   1   2
BRANCH   1   5
HETATM    5  C6  UNL     1     -32.839  14.868  -3.619  1.00 20.00     0.100 C 
BRANCH   5   6
HETATM    6  C4  UNL     1     -33.620  13.654  -4.005  1.00 20.00    -0.027 C 
HETATM    7  C2  UNL     1     -34.955  13.580  -3.958  1.00 20.00     0.007 C 
ENDBRANCH   5   6
ENDBRANCH   1   5
TORSDOF 4
ENDMDL
MODEL 8
REMARK VINA RESULT:      -3.2      1.172      1.310
REMARK  4 active torsions:
REMARK  status: ('A' for Active; 'I' for Inactive)
REMARK    1  A    between atoms: C3_3  and  C5_5 
REMARK    2  A    between atoms: C4_4  and  C6_6 
REMARK    3  A    between atoms: C5_5  and  S7_7 
REMARK    4  A    between atoms: C6_6  and  S7_7 
ROOT
HETATM    1  S7  UNL     1     -33.346   6.973   5.639  1.00 20.00    -0.162 SA
ENDROOT
BRANCH   1   2
HETATM    2  C5  UNL     1     -33.644   6.459   3.925  1.00 20.00     0.100 C 
BRANCH   2   3
HETATM    3  C3  UNL     1     -32.394   6.613   3.118  1.00 20.00    -0.027 C 
HETATM    4  C1  UNL     1     -32.078   7.721   2.437  1.00 20.00     0.007 C 
ENDBRANCH   2   3
ENDBRANCH   1   2
BRANCH   1   5
HETATM    5  C6  UNL     1     -34.491   5.839   6.458  1.00 20.00     0.100 C 
BRANCH   5   6
HETATM    6  C4  UNL     1     -35.121   4.928   5.456  1.00 20.00    -0.027 C 
HETATM    7  C2  UNL     1     -34.800   3.637   5.313  1.00 20.00     0.007 C 
ENDBRANCH   5   6
ENDBRANCH   1   5
TORSDOF 4
ENDMDL
MODEL 9
REMARK VINA RESULT:      -3.2      1.187      4.355
REMARK  4 active torsions:
REMARK  status: ('A' for Active; 'I' for Inactive)
REMARK    1  A    between atoms: C3_3  and  C5_5 
REMARK    2  A    between atoms: C4_4  and  C6_6 
REMARK    3  A    between atoms: C5_5  and  S7_7 
REMARK    4  A    between atoms: C6_6  and  S7_7 
ROOT
HETATM    1  S7  UNL     1     -33.435   6.888   5.798  1.00 20.00    -0.162 SA
ENDROOT
BRANCH   1   2
HETATM    2  C5  UNL     1     -34.593   5.666   6.472  1.00 20.00     0.100 C 
BRANCH   2   3
HETATM    3  C3  UNL     1     -35.170   4.839   5.367  1.00 20.00    -0.027 C 
HETATM    4  C1  UNL     1     -34.811   3.575   5.118  1.00 20.00     0.007 C 
ENDBRANCH   2   3
ENDBRANCH   1   2
BRANCH   1   5
HETATM    5  C6  UNL     1     -33.714   6.577   4.039  1.00 20.00     0.100 C 
BRANCH   5   6
HETATM    6  C4  UNL     1     -32.421   6.641   3.292  1.00 20.00    -0.027 C 
HETATM    7  C2  UNL     1     -32.057   7.669   2.517  1.00 20.00     0.007 C 
ENDBRANCH   5   6
ENDBRANCH   1   5
TORSDOF 4
ENDMDL
