MODEL 1
REMARK VINA RESULT:      -5.9      0.000      0.000
REMARK  1 active torsions:
REMARK  status: ('A' for Active; 'I' for Inactive)
REMARK    1  A    between atoms: C6_6  and  C8_8 
ROOT
HETATM    1  C1  UNL     1     -35.125   4.806   6.080  1.00 20.00     0.000 A 
HETATM    2  C2  UNL     1     -35.269   4.413   4.749  1.00 20.00     0.001 A 
HETATM    3  C3  UNL     1     -34.298   5.881   6.404  1.00 20.00     0.001 A 
HETATM    4  C4  UNL     1     -34.584   5.095   3.743  1.00 20.00     0.007 A 
HETATM    5  C5  UNL     1     -33.614   6.563   5.398  1.00 20.00     0.007 A 
HETATM    6  C6  UNL     1     -33.756   6.170   4.067  1.00 20.00    -0.059 A 
ENDROOT
BRANCH   6   7
HETATM    7  C8  UNL     1     -33.024   6.899   2.991  1.00 20.00     0.034 C 
HETATM    8  C7  UNL     1     -31.666   7.414   3.461  1.00 20.00     0.010 C 
ENDBRANCH   6   7
TORSDOF 1
ENDMDL
MODEL 2
REMARK VINA RESULT:      -5.9      0.005      1.708
REMARK  1 active torsions:
REMARK  status: ('A' for Active; 'I' for Inactive)
REMARK    1  A    between atoms: C6_6  and  C8_8 
ROOT
HETATM    1  C1  UNL     1     -35.125   4.810   6.076  1.00 20.00     0.000 A 
HETATM    2  C2  UNL     1     -34.294   5.882   6.401  1.00 20.00     0.001 A 
HETATM    3  C3  UNL     1     -35.270   4.418   4.745  1.00 20.00     0.001 A 
HETATM    4  C4  UNL     1     -33.609   6.563   5.395  1.00 20.00     0.007 A 
HETATM    5  C5  UNL     1     -34.584   5.099   3.739  1.00 20.00     0.007 A 
HETATM    6  C6  UNL     1     -33.753   6.172   4.064  1.00 20.00    -0.059 A 
ENDROOT
BRANCH   6   7
HETATM    7  C8  UNL     1     -33.020   6.900   2.988  1.00 20.00     0.034 C 
HETATM    8  C7  UNL     1     -31.664   7.417   3.458  1.00 20.00     0.010 C 
ENDBRANCH   6   7
TORSDOF 1
ENDMDL
MODEL 3
REMARK VINA RESULT:      -4.5      0.855      3.708
REMARK  1 active torsions:
REMARK  status: ('A' for Active; 'I' for Inactive)
REMARK    1  A    between atoms: C6_6  and  C8_8 
ROOT
HETATM    1  C1  UNL     1     -32.914   6.206   2.429  1.00 20.00     0.000 A 
HETATM    2  C2  UNL     1     -32.330   6.837   3.528  1.00 20.00     0.001 A 
HETATM    3  C3  UNL     1     -34.053   5.419   2.602  1.00 20.00     0.001 A 
HETATM    4  C4  UNL     1     -32.885   6.681   4.798  1.00 20.00     0.007 A 
HETATM    5  C5  UNL     1     -34.608   5.264   3.872  1.00 20.00     0.007 A 
HETATM    6  C6  UNL     1     -34.023   5.894   4.971  1.00 20.00    -0.059 A 
ENDROOT
BRANCH   6   7
HETATM    7  C8  UNL     1     -34.617   5.727   6.329  1.00 20.00     0.034 C 
HETATM    8  C7  UNL     1     -35.235   4.346   6.526  1.00 20.00     0.010 C 
ENDBRANCH   6   7
TORSDOF 1
ENDMDL
MODEL 4
REMARK VINA RESULT:      -4.5      0.833      3.327
REMARK  1 active torsions:
REMARK  status: ('A' for Active; 'I' for Inactive)
REMARK    1  A    between atoms: C6_6  and  C8_8 
ROOT
HETATM    1  C1  UNL     1     -32.931   6.177   2.351  1.00 20.00     0.000 A 
HETATM    2  C2  UNL     1     -34.044   5.369   2.586  1.00 20.00     0.001 A 
HETATM    3  C3  UNL     1     -32.338   6.870   3.406  1.00 20.00     0.001 A 
HETATM    4  C4  UNL     1     -34.564   5.256   3.875  1.00 20.00     0.007 A 
HETATM    5  C5  UNL     1     -32.858   6.756   4.696  1.00 20.00     0.007 A 
HETATM    6  C6  UNL     1     -33.972   5.949   4.930  1.00 20.00    -0.059 A 
ENDROOT
BRANCH   6   7
HETATM    7  C8  UNL     1     -34.528   5.828   6.309  1.00 20.00     0.034 C 
HETATM    8  C7  UNL     1     -35.221   4.487   6.539  1.00 20.00     0.010 C 
ENDBRANCH   6   7
TORSDOF 1
ENDMDL
MODEL 5
REMARK VINA RESULT:      -4.5      1.269      2.737
REMARK  1 active torsions:
REMARK  status: ('A' for Active; 'I' for Inactive)
REMARK    1  A    between atoms: C6_6  and  C8_8 
ROOT
HETATM    1  C1  UNL     1     -35.268   4.269   4.350  1.00 20.00     0.000 A 
HETATM    2  C2  UNL     1     -35.141   4.165   5.736  1.00 20.00     0.001 A 
HETATM    3  C3  UNL     1     -34.720   5.362   3.680  1.00 20.00     0.001 A 
HETATM    4  C4  UNL     1     -34.466   5.155   6.450  1.00 20.00     0.007 A 
HETATM    5  C5  UNL     1     -34.045   6.352   4.394  1.00 20.00     0.007 A 
HETATM    6  C6  UNL     1     -33.918   6.249   5.780  1.00 20.00    -0.059 A 
ENDROOT
BRANCH   6   7
HETATM    7  C8  UNL     1     -33.196   7.308   6.543  1.00 20.00     0.034 C 
HETATM    8  C7  UNL     1     -34.074   7.952   7.613  1.00 20.00     0.010 C 
ENDBRANCH   6   7
TORSDOF 1
ENDMDL
MODEL 6
REMARK VINA RESULT:      -4.4      0.862      3.737
REMARK  1 active torsions:
REMARK  status: ('A' for Active; 'I' for Inactive)
REMARK    1  A    between atoms: C6_6  and  C8_8 
ROOT
HETATM    1  C1  UNL     1     -32.082   7.098   3.241  1.00 20.00     0.000 A 
HETATM    2  C2  UNL     1     -32.538   7.258   4.550  1.00 20.00     0.001 A 
HETATM    3  C3  UNL     1     -32.692   6.170   2.398  1.00 20.00     0.001 A 
HETATM    4  C4  UNL     1     -33.605   6.490   5.015  1.00 20.00     0.007 A 
HETATM    5  C5  UNL     1     -33.760   5.402   2.864  1.00 20.00     0.007 A 
HETATM    6  C6  UNL     1     -34.216   5.561   4.173  1.00 20.00    -0.059 A 
ENDROOT
BRANCH   6   7
HETATM    7  C8  UNL     1     -35.357   4.739   4.670  1.00 20.00     0.034 C 
HETATM    8  C7  UNL     1     -35.144   4.258   6.102  1.00 20.00     0.010 C 
ENDBRANCH   6   7
TORSDOF 1
ENDMDL
MODEL 7
REMARK VINA RESULT:      -4.4     11.770     12.216
REMARK  1 active torsions:
REMARK  status: ('A' for Active; 'I' for Inactive)
REMARK    1  A    between atoms: C6_6  and  C8_8 
ROOT
HETATM    1  C1  UNL     1     -35.099  13.398  -4.404  1.00 20.00     0.000 A 
HETATM    2  C2  UNL     1     -36.064  14.275  -3.908  1.00 20.00     0.001 A 
HETATM    3  C3  UNL     1     -33.751  13.607  -4.111  1.00 20.00     0.001 A 
HETATM    4  C4  UNL     1     -35.681  15.360  -3.120  1.00 20.00     0.007 A 
HETATM    5  C5  UNL     1     -33.369  14.692  -3.322  1.00 20.00     0.007 A 
HETATM    6  C6  UNL     1     -34.334  15.570  -2.827  1.00 20.00    -0.059 A 
ENDROOT
BRANCH   6   7
HETATM    7  C8  UNL     1     -33.924  16.730  -1.984  1.00 20.00     0.034 C 
HETATM    8  C7  UNL     1     -34.631  16.742  -0.631  1.00 20.00     0.010 C 
ENDBRANCH   6   7
TORSDOF 1
ENDMDL
MODEL 8
REMARK VINA RESULT:      -4.3     11.788     12.241
REMARK  1 active torsions:
REMARK  status: ('A' for Active; 'I' for Inactive)
REMARK    1  A    between atoms: C6_6  and  C8_8 
ROOT
HETATM    1  C1  UNL     1     -35.090  13.356  -4.437  1.00 20.00     0.000 A 
HETATM    2  C2  UNL     1     -33.741  13.586  -4.164  1.00 20.00     0.001 A 
HETATM    3  C3  UNL     1     -36.061  14.220  -3.931  1.00 20.00     0.001 A 
HETATM    4  C4  UNL     1     -33.365  14.681  -3.386  1.00 20.00     0.007 A 
HETATM    5  C5  UNL     1     -35.684  15.315  -3.154  1.00 20.00     0.007 A 
HETATM    6  C6  UNL     1     -34.335  15.545  -2.880  1.00 20.00    -0.059 A 
ENDROOT
BRANCH   6   7
HETATM    7  C8  UNL     1     -33.933  16.716  -2.048  1.00 20.00     0.034 C 
HETATM    8  C7  UNL     1     -34.615  16.718  -0.682  1.00 20.00     0.010 C 
ENDBRANCH   6   7
TORSDOF 1
ENDMDL
MODEL 9
REMARK VINA RESULT:      -4.1      9.292     10.577
REMARK  1 active torsions:
REMARK  status: ('A' for Active; 'I' for Inactive)
REMARK    1  A    between atoms: C6_6  and  C8_8 
ROOT
HETATM    1  C1  UNL     1     -41.060   7.033  -0.867  1.00 20.00     0.000 A 
HETATM    2  C2  UNL     1     -41.952   7.225  -1.923  1.00 20.00     0.001 A 
HETATM    3  C3  UNL     1     -40.658   5.744  -0.518  1.00 20.00     0.001 A 
HETATM    4  C4  UNL     1     -42.442   6.126  -2.629  1.00 20.00     0.007 A 
HETATM    5  C5  UNL     1     -41.149   4.646  -1.225  1.00 20.00     0.007 A 
HETATM    6  C6  UNL     1     -42.041   4.836  -2.280  1.00 20.00    -0.059 A 
ENDROOT
BRANCH   6   7
HETATM    7  C8  UNL     1     -42.566   3.661  -3.034  1.00 20.00     0.034 C 
HETATM    8  C7  UNL     1     -41.535   2.542  -3.154  1.00 20.00     0.010 C 
ENDBRANCH   6   7
TORSDOF 1
ENDMDL
