MODEL 1
REMARK VINA RESULT:      -5.7      0.000      0.000
REMARK  2 active torsions:
REMARK  status: ('A' for Active; 'I' for Inactive)
REMARK    1  A    between atoms: C6_6  and  C10_10 
REMARK    2  A    between atoms: C9_9  and  C10_10 
ROOT
HETATM    1  C1  UNL     1     -35.208   5.045   5.692  1.00 20.00     0.000 A 
HETATM    2  C2  UNL     1     -34.278   5.930   6.239  1.00 20.00     0.001 A 
HETATM    3  C3  UNL     1     -35.202   4.788   4.321  1.00 20.00     0.001 A 
HETATM    4  C4  UNL     1     -33.343   6.556   5.415  1.00 20.00     0.007 A 
HETATM    5  C5  UNL     1     -34.267   5.414   3.498  1.00 20.00     0.007 A 
HETATM    6  C6  UNL     1     -33.337   6.298   4.045  1.00 20.00    -0.054 A 
ENDROOT
BRANCH   6   7
HETATM    7  C10 UNL     1     -32.319   6.980   3.147  1.00 20.00     0.014 C 
HETATM    8  C8  UNL     1     -31.239   7.672   3.987  1.00 20.00     0.015 C 
BRANCH   7   9
HETATM    9  C9  UNL     1     -32.950   7.989   2.166  1.00 20.00     0.004 C 
HETATM   10  C7  UNL     1     -31.921   8.692   1.289  1.00 20.00     0.006 C 
ENDBRANCH   7   9
ENDBRANCH   6   7
TORSDOF 2
ENDMDL
MODEL 2
REMARK VINA RESULT:      -5.7      0.015      1.528
REMARK  2 active torsions:
REMARK  status: ('A' for Active; 'I' for Inactive)
REMARK    1  A    between atoms: C6_6  and  C10_10 
REMARK    2  A    between atoms: C9_9  and  C10_10 
ROOT
HETATM    1  C1  UNL     1     -35.204   5.046   5.709  1.00 20.00     0.000 A 
HETATM    2  C2  UNL     1     -35.196   4.776   4.340  1.00 20.00     0.001 A 
HETATM    3  C3  UNL     1     -34.277   5.939   6.248  1.00 20.00     0.001 A 
HETATM    4  C4  UNL     1     -34.262   5.399   3.512  1.00 20.00     0.007 A 
HETATM    5  C5  UNL     1     -33.344   6.561   5.420  1.00 20.00     0.007 A 
HETATM    6  C6  UNL     1     -33.336   6.292   4.052  1.00 20.00    -0.054 A 
ENDROOT
BRANCH   6   7
HETATM    7  C10 UNL     1     -32.319   6.970   3.150  1.00 20.00     0.014 C 
HETATM    8  C8  UNL     1     -31.245   7.676   3.986  1.00 20.00     0.015 C 
BRANCH   7   9
HETATM    9  C9  UNL     1     -32.953   7.967   2.158  1.00 20.00     0.004 C 
HETATM   10  C7  UNL     1     -31.923   8.686   1.294  1.00 20.00     0.006 C 
ENDBRANCH   7   9
ENDBRANCH   6   7
TORSDOF 2
ENDMDL
MODEL 3
REMARK VINA RESULT:      -4.7     10.951     11.893
REMARK  2 active torsions:
REMARK  status: ('A' for Active; 'I' for Inactive)
REMARK    1  A    between atoms: C6_6  and  C10_10 
REMARK    2  A    between atoms: C9_9  and  C10_10 
ROOT
HETATM    1  C1  UNL     1     -35.086  13.316  -4.401  1.00 20.00     0.000 A 
HETATM    2  C2  UNL     1     -36.060  14.202  -3.939  1.00 20.00     0.001 A 
HETATM    3  C3  UNL     1     -33.740  13.550  -4.115  1.00 20.00     0.001 A 
HETATM    4  C4  UNL     1     -35.689  15.321  -3.194  1.00 20.00     0.007 A 
HETATM    5  C5  UNL     1     -33.370  14.668  -3.370  1.00 20.00     0.007 A 
HETATM    6  C6  UNL     1     -34.344  15.554  -2.909  1.00 20.00    -0.054 A 
ENDROOT
BRANCH   6   7
HETATM    7  C10 UNL     1     -33.939  16.772  -2.096  1.00 20.00     0.014 C 
HETATM    8  C8  UNL     1     -34.580  16.728  -0.704  1.00 20.00     0.015 C 
BRANCH   7   9
HETATM    9  C9  UNL     1     -34.279  18.108  -2.789  1.00 20.00     0.004 C 
HETATM   10  C7  UNL     1     -33.677  18.226  -4.184  1.00 20.00     0.006 C 
ENDBRANCH   7   9
ENDBRANCH   6   7
TORSDOF 2
ENDMDL
MODEL 4
REMARK VINA RESULT:      -4.7     10.989     11.894
REMARK  2 active torsions:
REMARK  status: ('A' for Active; 'I' for Inactive)
REMARK    1  A    between atoms: C6_6  and  C10_10 
REMARK    2  A    between atoms: C9_9  and  C10_10 
ROOT
HETATM    1  C1  UNL     1     -35.062  13.305  -4.457  1.00 20.00     0.000 A 
HETATM    2  C2  UNL     1     -33.718  13.555  -4.177  1.00 20.00     0.001 A 
HETATM    3  C3  UNL     1     -36.046  14.173  -3.984  1.00 20.00     0.001 A 
HETATM    4  C4  UNL     1     -33.360  14.674  -3.424  1.00 20.00     0.007 A 
HETATM    5  C5  UNL     1     -35.687  15.290  -3.231  1.00 20.00     0.007 A 
HETATM    6  C6  UNL     1     -34.344  15.541  -2.952  1.00 20.00    -0.054 A 
ENDROOT
BRANCH   6   7
HETATM    7  C10 UNL     1     -33.953  16.759  -2.132  1.00 20.00     0.014 C 
HETATM    8  C8  UNL     1     -34.598  16.702  -0.743  1.00 20.00     0.015 C 
BRANCH   7   9
HETATM    9  C9  UNL     1     -34.302  18.095  -2.820  1.00 20.00     0.004 C 
HETATM   10  C7  UNL     1     -33.753  18.198  -4.238  1.00 20.00     0.006 C 
ENDBRANCH   7   9
ENDBRANCH   6   7
TORSDOF 2
ENDMDL
MODEL 5
REMARK VINA RESULT:      -4.6     11.026     11.875
REMARK  2 active torsions:
REMARK  status: ('A' for Active; 'I' for Inactive)
REMARK    1  A    between atoms: C6_6  and  C10_10 
REMARK    2  A    between atoms: C9_9  and  C10_10 
ROOT
HETATM    1  C1  UNL     1     -34.447  13.422  -4.375  1.00 20.00     0.000 A 
HETATM    2  C2  UNL     1     -35.718  13.936  -4.113  1.00 20.00     0.001 A 
HETATM    3  C3  UNL     1     -33.317  14.071  -3.875  1.00 20.00     0.001 A 
HETATM    4  C4  UNL     1     -35.858  15.096  -3.352  1.00 20.00     0.007 A 
HETATM    5  C5  UNL     1     -33.458  15.230  -3.115  1.00 20.00     0.007 A 
HETATM    6  C6  UNL     1     -34.728  15.744  -2.853  1.00 20.00    -0.054 A 
ENDROOT
BRANCH   6   7
HETATM    7  C10 UNL     1     -34.881  17.008  -2.024  1.00 20.00     0.014 C 
HETATM    8  C8  UNL     1     -33.945  18.107  -2.542  1.00 20.00     0.015 C 
BRANCH   7   9
HETATM    9  C9  UNL     1     -34.642  16.781  -0.517  1.00 20.00     0.004 C 
HETATM   10  C7  UNL     1     -34.020  17.987   0.177  1.00 20.00     0.006 C 
ENDBRANCH   7   9
ENDBRANCH   6   7
TORSDOF 2
ENDMDL
MODEL 6
REMARK VINA RESULT:      -4.5     10.832     12.105
REMARK  2 active torsions:
REMARK  status: ('A' for Active; 'I' for Inactive)
REMARK    1  A    between atoms: C6_6  and  C10_10 
REMARK    2  A    between atoms: C9_9  and  C10_10 
ROOT
HETATM    1  C1  UNL     1     -34.162  18.460   0.931  1.00 20.00     0.000 A 
HETATM    2  C2  UNL     1     -33.129  18.784   0.051  1.00 20.00     0.001 A 
HETATM    3  C3  UNL     1     -35.036  17.417   0.625  1.00 20.00     0.001 A 
HETATM    4  C4  UNL     1     -32.972  18.066  -1.135  1.00 20.00     0.007 A 
HETATM    5  C5  UNL     1     -34.879  16.700  -0.560  1.00 20.00     0.007 A 
HETATM    6  C6  UNL     1     -33.847  17.024  -1.440  1.00 20.00    -0.054 A 
ENDROOT
BRANCH   6   7
HETATM    7  C10 UNL     1     -33.676  16.242  -2.731  1.00 20.00     0.014 C 
HETATM    8  C8  UNL     1     -33.635  17.192  -3.934  1.00 20.00     0.015 C 
BRANCH   7   9
HETATM    9  C9  UNL     1     -34.764  15.170  -2.944  1.00 20.00     0.004 C 
HETATM   10  C7  UNL     1     -34.229  13.894  -3.584  1.00 20.00     0.006 C 
ENDBRANCH   7   9
ENDBRANCH   6   7
TORSDOF 2
ENDMDL
MODEL 7
REMARK VINA RESULT:      -4.4     11.116     12.191
REMARK  2 active torsions:
REMARK  status: ('A' for Active; 'I' for Inactive)
REMARK    1  A    between atoms: C6_6  and  C10_10 
REMARK    2  A    between atoms: C9_9  and  C10_10 
ROOT
HETATM    1  C1  UNL     1     -34.123  18.593   1.423  1.00 20.00     0.000 A 
HETATM    2  C2  UNL     1     -35.068  17.640   1.041  1.00 20.00     0.001 A 
HETATM    3  C3  UNL     1     -33.053  18.891   0.580  1.00 20.00     0.001 A 
HETATM    4  C4  UNL     1     -34.940  16.984  -0.183  1.00 20.00     0.007 A 
HETATM    5  C5  UNL     1     -32.926  18.235  -0.644  1.00 20.00     0.007 A 
HETATM    6  C6  UNL     1     -33.870  17.282  -1.026  1.00 20.00    -0.054 A 
ENDROOT
BRANCH   6   7
HETATM    7  C10 UNL     1     -33.732  16.568  -2.360  1.00 20.00     0.014 C 
HETATM    8  C8  UNL     1     -33.760  17.576  -3.515  1.00 20.00     0.015 C 
BRANCH   7   9
HETATM    9  C9  UNL     1     -34.803  15.481  -2.584  1.00 20.00     0.004 C 
HETATM   10  C7  UNL     1     -34.341  14.371  -3.521  1.00 20.00     0.006 C 
ENDBRANCH   7   9
ENDBRANCH   6   7
TORSDOF 2
ENDMDL
MODEL 8
REMARK VINA RESULT:      -4.3     10.760     13.519
REMARK  2 active torsions:
REMARK  status: ('A' for Active; 'I' for Inactive)
REMARK    1  A    between atoms: C6_6  and  C10_10 
REMARK    2  A    between atoms: C9_9  and  C10_10 
ROOT
HETATM    1  C1  UNL     1     -34.751  16.501  -7.667  1.00 20.00     0.000 A 
HETATM    2  C2  UNL     1     -34.824  15.151  -7.320  1.00 20.00     0.001 A 
HETATM    3  C3  UNL     1     -34.285  17.435  -6.741  1.00 20.00     0.001 A 
HETATM    4  C4  UNL     1     -34.431  14.737  -6.047  1.00 20.00     0.007 A 
HETATM    5  C5  UNL     1     -33.893  17.020  -5.470  1.00 20.00     0.007 A 
HETATM    6  C6  UNL     1     -33.966  15.671  -5.122  1.00 20.00    -0.054 A 
ENDROOT
BRANCH   6   7
HETATM    7  C10 UNL     1     -33.538  15.220  -3.736  1.00 20.00     0.014 C 
HETATM    8  C8  UNL     1     -33.321  13.702  -3.707  1.00 20.00     0.015 C 
BRANCH   7   9
HETATM    9  C9  UNL     1     -34.529  15.631  -2.628  1.00 20.00     0.004 C 
HETATM   10  C7  UNL     1     -33.985  16.722  -1.714  1.00 20.00     0.006 C 
ENDBRANCH   7   9
ENDBRANCH   6   7
TORSDOF 2
ENDMDL
MODEL 9
REMARK VINA RESULT:      -4.3     10.848     12.318
REMARK  2 active torsions:
REMARK  status: ('A' for Active; 'I' for Inactive)
REMARK    1  A    between atoms: C6_6  and  C10_10 
REMARK    2  A    between atoms: C9_9  and  C10_10 
ROOT
HETATM    1  C1  UNL     1     -33.848  18.429  -2.086  1.00 20.00     0.000 A 
HETATM    2  C2  UNL     1     -34.277  17.494  -1.144  1.00 20.00     0.001 A 
HETATM    3  C3  UNL     1     -33.696  18.054  -3.421  1.00 20.00     0.001 A 
HETATM    4  C4  UNL     1     -34.553  16.184  -1.537  1.00 20.00     0.007 A 
HETATM    5  C5  UNL     1     -33.972  16.745  -3.813  1.00 20.00     0.007 A 
HETATM    6  C6  UNL     1     -34.401  15.810  -2.872  1.00 20.00    -0.054 A 
ENDROOT
BRANCH   6   7
HETATM    7  C10 UNL     1     -34.702  14.383  -3.300  1.00 20.00     0.014 C 
HETATM    8  C8  UNL     1     -33.435  13.703  -3.833  1.00 20.00     0.015 C 
BRANCH   7   9
HETATM    9  C9  UNL     1     -35.831  14.286  -4.346  1.00 20.00     0.004 C 
HETATM   10  C7  UNL     1     -37.175  14.780  -3.821  1.00 20.00     0.006 C 
ENDBRANCH   7   9
ENDBRANCH   6   7
TORSDOF 2
ENDMDL
