MODEL 1
REMARK VINA RESULT:      -5.6      0.000      0.000
REMARK  0 active torsions:
REMARK  status: ('A' for Active; 'I' for Inactive)
ROOT
HETATM    1  C1  UNL     1     -35.177   4.556   4.347  1.00 20.00     0.000 A 
HETATM    2  C2  UNL     1     -35.207   4.377   5.730  1.00 20.00     0.003 A 
HETATM    3  C3  UNL     1     -34.487   5.636   3.798  1.00 20.00     0.003 A 
HETATM    4  C4  UNL     1     -34.545   5.277   6.564  1.00 20.00     0.042 A 
HETATM    5  C5  UNL     1     -33.825   6.538   4.632  1.00 20.00     0.042 A 
HETATM    6  C6  UNL     1     -33.854   6.358   6.015  1.00 20.00     0.116 A 
HETATM    7  F7  UNL     1     -33.219   7.223   6.817  1.00 20.00    -0.206 F 
ENDROOT
TORSDOF 0
ENDMDL
MODEL 2
REMARK VINA RESULT:      -5.6      0.015      1.827
REMARK  0 active torsions:
REMARK  status: ('A' for Active; 'I' for Inactive)
ROOT
HETATM    1  C1  UNL     1     -35.167   4.549   4.339  1.00 20.00     0.000 A 
HETATM    2  C2  UNL     1     -34.477   5.632   3.795  1.00 20.00     0.003 A 
HETATM    3  C3  UNL     1     -35.198   4.364   5.720  1.00 20.00     0.003 A 
HETATM    4  C4  UNL     1     -33.817   6.530   4.633  1.00 20.00     0.042 A 
HETATM    5  C5  UNL     1     -34.537   5.262   6.560  1.00 20.00     0.042 A 
HETATM    6  C6  UNL     1     -33.847   6.345   6.016  1.00 20.00     0.116 A 
HETATM    7  F7  UNL     1     -33.213   7.208   6.820  1.00 20.00    -0.206 F 
ENDROOT
TORSDOF 0
ENDMDL
MODEL 3
REMARK VINA RESULT:      -5.6      1.911      2.627
REMARK  0 active torsions:
REMARK  status: ('A' for Active; 'I' for Inactive)
ROOT
HETATM    1  C1  UNL     1     -34.453   5.623   6.520  1.00 20.00     0.000 A 
HETATM    2  C2  UNL     1     -35.114   4.547   5.927  1.00 20.00     0.003 A 
HETATM    3  C3  UNL     1     -33.803   6.566   5.726  1.00 20.00     0.003 A 
HETATM    4  C4  UNL     1     -35.125   4.415   4.540  1.00 20.00     0.042 A 
HETATM    5  C5  UNL     1     -33.813   6.434   4.336  1.00 20.00     0.042 A 
HETATM    6  C6  UNL     1     -34.474   5.358   3.743  1.00 20.00     0.116 A 
HETATM    7  F7  UNL     1     -34.485   5.231   2.410  1.00 20.00    -0.206 F 
ENDROOT
TORSDOF 0
ENDMDL
MODEL 4
REMARK VINA RESULT:      -5.6      1.931      3.038
REMARK  0 active torsions:
REMARK  status: ('A' for Active; 'I' for Inactive)
ROOT
HETATM    1  C1  UNL     1     -34.457   5.627   6.505  1.00 20.00     0.000 A 
HETATM    2  C2  UNL     1     -33.815   6.558   5.688  1.00 20.00     0.003 A 
HETATM    3  C3  UNL     1     -35.116   4.537   5.939  1.00 20.00     0.003 A 
HETATM    4  C4  UNL     1     -33.833   6.398   4.303  1.00 20.00     0.042 A 
HETATM    5  C5  UNL     1     -35.134   4.377   4.552  1.00 20.00     0.042 A 
HETATM    6  C6  UNL     1     -34.493   5.308   3.735  1.00 20.00     0.116 A 
HETATM    7  F7  UNL     1     -34.510   5.154   2.404  1.00 20.00    -0.206 F 
ENDROOT
TORSDOF 0
ENDMDL
MODEL 5
REMARK VINA RESULT:      -5.5      1.408      2.109
REMARK  0 active torsions:
REMARK  status: ('A' for Active; 'I' for Inactive)
ROOT
HETATM    1  C1  UNL     1     -35.102   4.635   5.968  1.00 20.00     0.000 A 
HETATM    2  C2  UNL     1     -34.344   5.713   6.424  1.00 20.00     0.003 A 
HETATM    3  C3  UNL     1     -35.245   4.410   4.600  1.00 20.00     0.003 A 
HETATM    4  C4  UNL     1     -33.728   6.567   5.511  1.00 20.00     0.042 A 
HETATM    5  C5  UNL     1     -34.628   5.265   3.685  1.00 20.00     0.042 A 
HETATM    6  C6  UNL     1     -33.869   6.344   4.141  1.00 20.00     0.116 A 
HETATM    7  F7  UNL     1     -33.277   7.164   3.264  1.00 20.00    -0.206 F 
ENDROOT
TORSDOF 0
ENDMDL
MODEL 6
REMARK VINA RESULT:      -5.3      1.623      2.570
REMARK  0 active torsions:
REMARK  status: ('A' for Active; 'I' for Inactive)
ROOT
HETATM    1  C1  UNL     1     -33.819   6.496   4.056  1.00 20.00     0.000 A 
HETATM    2  C2  UNL     1     -34.594   5.442   3.575  1.00 20.00     0.003 A 
HETATM    3  C3  UNL     1     -33.663   6.677   5.430  1.00 20.00     0.003 A 
HETATM    4  C4  UNL     1     -35.213   4.567   4.467  1.00 20.00     0.042 A 
HETATM    5  C5  UNL     1     -34.282   5.802   6.324  1.00 20.00     0.042 A 
HETATM    6  C6  UNL     1     -35.057   4.748   5.842  1.00 20.00     0.116 A 
HETATM    7  F7  UNL     1     -35.652   3.907   6.699  1.00 20.00    -0.206 F 
ENDROOT
TORSDOF 0
ENDMDL
MODEL 7
REMARK VINA RESULT:      -5.3      1.623      2.416
REMARK  0 active torsions:
REMARK  status: ('A' for Active; 'I' for Inactive)
ROOT
HETATM    1  C1  UNL     1     -33.821   6.504   4.061  1.00 20.00     0.000 A 
HETATM    2  C2  UNL     1     -33.669   6.681   5.436  1.00 20.00     0.003 A 
HETATM    3  C3  UNL     1     -34.590   5.448   3.574  1.00 20.00     0.003 A 
HETATM    4  C4  UNL     1     -34.288   5.803   6.324  1.00 20.00     0.042 A 
HETATM    5  C5  UNL     1     -35.210   4.569   4.463  1.00 20.00     0.042 A 
HETATM    6  C6  UNL     1     -35.059   4.746   5.838  1.00 20.00     0.116 A 
HETATM    7  F7  UNL     1     -35.653   3.902   6.691  1.00 20.00    -0.206 F 
ENDROOT
TORSDOF 0
ENDMDL
MODEL 8
REMARK VINA RESULT:      -3.9      8.901      9.701
REMARK  0 active torsions:
REMARK  status: ('A' for Active; 'I' for Inactive)
ROOT
HETATM    1  C1  UNL     1     -42.307   5.393  -2.652  1.00 20.00     0.000 A 
HETATM    2  C2  UNL     1     -41.694   4.395  -1.894  1.00 20.00     0.003 A 
HETATM    3  C3  UNL     1     -42.152   6.732  -2.298  1.00 20.00     0.003 A 
HETATM    4  C4  UNL     1     -40.927   4.737  -0.782  1.00 20.00     0.042 A 
HETATM    5  C5  UNL     1     -41.384   7.075  -1.185  1.00 20.00     0.042 A 
HETATM    6  C6  UNL     1     -40.771   6.077  -0.427  1.00 20.00     0.116 A 
HETATM    7  F7  UNL     1     -40.034   6.406   0.642  1.00 20.00    -0.206 F 
ENDROOT
TORSDOF 0
ENDMDL
MODEL 9
REMARK VINA RESULT:      -3.9      8.901      9.801
REMARK  0 active torsions:
REMARK  status: ('A' for Active; 'I' for Inactive)
ROOT
HETATM    1  C1  UNL     1     -42.306   5.393  -2.654  1.00 20.00     0.000 A 
HETATM    2  C2  UNL     1     -42.152   6.733  -2.298  1.00 20.00     0.003 A 
HETATM    3  C3  UNL     1     -41.694   4.395  -1.897  1.00 20.00     0.003 A 
HETATM    4  C4  UNL     1     -41.385   7.074  -1.185  1.00 20.00     0.042 A 
HETATM    5  C5  UNL     1     -40.926   4.736  -0.782  1.00 20.00     0.042 A 
HETATM    6  C6  UNL     1     -40.772   6.076  -0.427  1.00 20.00     0.116 A 
HETATM    7  F7  UNL     1     -40.035   6.405   0.643  1.00 20.00    -0.206 F 
ENDROOT
TORSDOF 0
ENDMDL
