MODEL 1
REMARK VINA RESULT:      -5.4      0.000      0.000
REMARK  0 active torsions:
REMARK  status: ('A' for Active; 'I' for Inactive)
ROOT
HETATM    1  C1  UNL     1     -35.294   4.589   5.801  1.00 20.00     0.001 A 
HETATM    2  C2  UNL     1     -34.704   5.506   6.671  1.00 20.00     0.002 A 
HETATM    3  C3  UNL     1     -34.953   4.569   4.444  1.00 20.00     0.014 A 
HETATM    4  C4  UNL     1     -33.760   6.429   6.213  1.00 20.00     0.030 A 
HETATM    5  C5  UNL     1     -33.434   5.746   2.681  1.00 20.00     0.030 A 
HETATM    6  C6  UNL     1     -32.544   6.786   2.820  1.00 20.00     0.089 A 
HETATM    7  C7  UNL     1     -34.003   5.489   3.959  1.00 20.00    -0.008 A 
HETATM    8  C8  UNL     1     -33.430   6.395   4.853  1.00 20.00     0.042 A 
HETATM    9  N9  UNL     1     -32.547   7.170   4.134  1.00 20.00    -0.365 N 
HETATM   10  H16 UNL     1     -31.984   7.915   4.521  1.00 20.00     0.165 HD
ENDROOT
TORSDOF 0
ENDMDL
MODEL 2
REMARK VINA RESULT:      -5.3      0.874      1.934
REMARK  0 active torsions:
REMARK  status: ('A' for Active; 'I' for Inactive)
ROOT
HETATM    1  C1  UNL     1     -34.665   5.579   6.671  1.00 20.00     0.001 A 
HETATM    2  C2  UNL     1     -35.287   4.655   5.833  1.00 20.00     0.002 A 
HETATM    3  C3  UNL     1     -33.715   6.475   6.168  1.00 20.00     0.014 A 
HETATM    4  C4  UNL     1     -34.980   4.597   4.471  1.00 20.00     0.030 A 
HETATM    5  C5  UNL     1     -32.499   7.173   3.968  1.00 20.00     0.030 A 
HETATM    6  C6  UNL     1     -32.612   6.678   2.690  1.00 20.00     0.089 A 
HETATM    7  C7  UNL     1     -33.390   6.436   4.798  1.00 20.00    -0.008 A 
HETATM    8  C8  UNL     1     -34.029   5.499   3.983  1.00 20.00     0.042 A 
HETATM    9  N9  UNL     1     -33.537   5.669   2.708  1.00 20.00    -0.365 N 
HETATM   10  H16 UNL     1     -33.819   5.127   1.903  1.00 20.00     0.165 HD
ENDROOT
TORSDOF 0
ENDMDL
MODEL 3
REMARK VINA RESULT:      -4.9      1.499      3.689
REMARK  0 active torsions:
REMARK  status: ('A' for Active; 'I' for Inactive)
ROOT
HETATM    1  C1  UNL     1     -32.625   6.803   3.145  1.00 20.00     0.001 A 
HETATM    2  C2  UNL     1     -33.358   5.931   2.342  1.00 20.00     0.002 A 
HETATM    3  C3  UNL     1     -32.848   6.865   4.524  1.00 20.00     0.014 A 
HETATM    4  C4  UNL     1     -34.336   5.096   2.891  1.00 20.00     0.030 A 
HETATM    5  C5  UNL     1     -34.308   5.836   6.426  1.00 20.00     0.030 A 
HETATM    6  C6  UNL     1     -35.292   4.876   6.376  1.00 20.00     0.089 A 
HETATM    7  C7  UNL     1     -33.828   6.033   5.101  1.00 20.00    -0.008 A 
HETATM    8  C8  UNL     1     -34.548   5.170   4.272  1.00 20.00     0.042 A 
HETATM    9  N9  UNL     1     -35.429   4.479   5.073  1.00 20.00    -0.365 N 
HETATM   10  H16 UNL     1     -36.083   3.781   4.746  1.00 20.00     0.165 HD
ENDROOT
TORSDOF 0
ENDMDL
MODEL 4
REMARK VINA RESULT:      -4.6      1.211      3.133
REMARK  0 active torsions:
REMARK  status: ('A' for Active; 'I' for Inactive)
ROOT
HETATM    1  C1  UNL     1     -32.913   6.165   2.443  1.00 20.00     0.001 A 
HETATM    2  C2  UNL     1     -32.321   7.051   3.342  1.00 20.00     0.002 A 
HETATM    3  C3  UNL     1     -33.905   5.273   2.864  1.00 20.00     0.014 A 
HETATM    4  C4  UNL     1     -32.701   7.072   4.688  1.00 20.00     0.030 A 
HETATM    5  C5  UNL     1     -35.253   4.532   4.971  1.00 20.00     0.030 A 
HETATM    6  C6  UNL     1     -35.200   4.982   6.269  1.00 20.00     0.089 A 
HETATM    7  C7  UNL     1     -34.304   5.276   4.215  1.00 20.00    -0.008 A 
HETATM    8  C8  UNL     1     -33.694   6.174   5.093  1.00 20.00     0.042 A 
HETATM    9  N9  UNL     1     -34.257   5.974   6.333  1.00 20.00    -0.365 N 
HETATM   10  H16 UNL     1     -34.011   6.484   7.170  1.00 20.00     0.165 HD
ENDROOT
TORSDOF 0
ENDMDL
MODEL 5
REMARK VINA RESULT:      -4.5     12.080     12.567
REMARK  0 active torsions:
REMARK  status: ('A' for Active; 'I' for Inactive)
ROOT
HETATM    1  C1  UNL     1     -33.969  13.580  -4.332  1.00 20.00     0.001 A 
HETATM    2  C2  UNL     1     -35.354  13.524  -4.484  1.00 20.00     0.002 A 
HETATM    3  C3  UNL     1     -33.376  14.560  -3.529  1.00 20.00     0.014 A 
HETATM    4  C4  UNL     1     -36.187  14.444  -3.841  1.00 20.00     0.030 A 
HETATM    5  C5  UNL     1     -33.944  16.598  -2.004  1.00 20.00     0.030 A 
HETATM    6  C6  UNL     1     -35.157  17.155  -1.672  1.00 20.00     0.089 A 
HETATM    7  C7  UNL     1     -34.195  15.498  -2.871  1.00 20.00    -0.008 A 
HETATM    8  C8  UNL     1     -35.579  15.418  -3.042  1.00 20.00     0.042 A 
HETATM    9  N9  UNL     1     -36.138  16.436  -2.302  1.00 20.00    -0.365 N 
HETATM   10  H16 UNL     1     -37.128  16.625  -2.234  1.00 20.00     0.165 HD
ENDROOT
TORSDOF 0
ENDMDL
MODEL 6
REMARK VINA RESULT:      -4.3      9.861     10.668
REMARK  0 active torsions:
REMARK  status: ('A' for Active; 'I' for Inactive)
ROOT
HETATM    1  C1  UNL     1     -42.131   7.606  -1.689  1.00 20.00     0.001 A 
HETATM    2  C2  UNL     1     -41.147   7.189  -0.795  1.00 20.00     0.002 A 
HETATM    3  C3  UNL     1     -42.759   6.691  -2.542  1.00 20.00     0.014 A 
HETATM    4  C4  UNL     1     -40.758   5.848  -0.726  1.00 20.00     0.030 A 
HETATM    5  C5  UNL     1     -42.796   4.163  -3.187  1.00 20.00     0.030 A 
HETATM    6  C6  UNL     1     -42.062   3.107  -2.701  1.00 20.00     0.089 A 
HETATM    7  C7  UNL     1     -42.384   5.334  -2.490  1.00 20.00    -0.008 A 
HETATM    8  C8  UNL     1     -41.394   4.945  -1.585  1.00 20.00     0.042 A 
HETATM    9  N9  UNL     1     -41.219   3.587  -1.734  1.00 20.00    -0.365 N 
HETATM   10  H16 UNL     1     -40.564   3.027  -1.207  1.00 20.00     0.165 HD
ENDROOT
TORSDOF 0
ENDMDL
MODEL 7
REMARK VINA RESULT:      -4.3     12.084     13.881
REMARK  0 active torsions:
REMARK  status: ('A' for Active; 'I' for Inactive)
ROOT
HETATM    1  C1  UNL     1     -33.107  15.125  -3.686  1.00 20.00     0.001 A 
HETATM    2  C2  UNL     1     -33.675  13.853  -3.721  1.00 20.00     0.002 A 
HETATM    3  C3  UNL     1     -33.296  16.023  -4.742  1.00 20.00     0.014 A 
HETATM    4  C4  UNL     1     -34.447  13.438  -4.810  1.00 20.00     0.030 A 
HETATM    5  C5  UNL     1     -34.460  16.260  -7.064  1.00 20.00     0.030 A 
HETATM    6  C6  UNL     1     -35.230  15.367  -7.773  1.00 20.00     0.089 A 
HETATM    7  C7  UNL     1     -34.071  15.628  -5.850  1.00 20.00    -0.008 A 
HETATM    8  C8  UNL     1     -34.627  14.347  -5.858  1.00 20.00     0.042 A 
HETATM    9  N9  UNL     1     -35.326  14.216  -7.037  1.00 20.00    -0.365 N 
HETATM   10  H16 UNL     1     -35.835  13.390  -7.319  1.00 20.00     0.165 HD
ENDROOT
TORSDOF 0
ENDMDL
MODEL 8
REMARK VINA RESULT:      -4.2     12.203     13.827
REMARK  0 active torsions:
REMARK  status: ('A' for Active; 'I' for Inactive)
ROOT
HETATM    1  C1  UNL     1     -33.659  13.848  -3.759  1.00 20.00     0.001 A 
HETATM    2  C2  UNL     1     -33.080  15.112  -3.658  1.00 20.00     0.002 A 
HETATM    3  C3  UNL     1     -34.426  13.498  -4.876  1.00 20.00     0.014 A 
HETATM    4  C4  UNL     1     -33.250  16.064  -4.667  1.00 20.00     0.030 A 
HETATM    5  C5  UNL     1     -35.306  14.431  -7.147  1.00 20.00     0.030 A 
HETATM    6  C6  UNL     1     -35.128  15.661  -7.737  1.00 20.00     0.089 A 
HETATM    7  C7  UNL     1     -34.610  14.441  -5.906  1.00 20.00    -0.008 A 
HETATM    8  C8  UNL     1     -34.019  15.700  -5.778  1.00 20.00     0.042 A 
HETATM    9  N9  UNL     1     -34.349  16.419  -6.904  1.00 20.00    -0.365 N 
HETATM   10  H16 UNL     1     -34.060  17.370  -7.089  1.00 20.00     0.165 HD
ENDROOT
TORSDOF 0
ENDMDL
MODEL 9
REMARK VINA RESULT:      -4.2      9.971     10.721
REMARK  0 active torsions:
REMARK  status: ('A' for Active; 'I' for Inactive)
ROOT
HETATM    1  C1  UNL     1     -40.552   6.034  -0.186  1.00 20.00     0.001 A 
HETATM    2  C2  UNL     1     -40.861   4.771  -0.686  1.00 20.00     0.002 A 
HETATM    3  C3  UNL     1     -41.066   7.188  -0.788  1.00 20.00     0.014 A 
HETATM    4  C4  UNL     1     -41.690   4.621  -1.802  1.00 20.00     0.030 A 
HETATM    5  C5  UNL     1     -42.584   7.989  -2.752  1.00 20.00     0.030 A 
HETATM    6  C6  UNL     1     -43.262   7.269  -3.708  1.00 20.00     0.089 A 
HETATM    7  C7  UNL     1     -41.904   7.063  -1.913  1.00 20.00    -0.008 A 
HETATM    8  C8  UNL     1     -42.196   5.784  -2.392  1.00 20.00     0.042 A 
HETATM    9  N9  UNL     1     -43.023   5.939  -3.482  1.00 20.00    -0.365 N 
HETATM   10  H16 UNL     1     -43.399   5.182  -4.036  1.00 20.00     0.165 HD
ENDROOT
TORSDOF 0
ENDMDL
