MODEL 1
REMARK VINA RESULT:      -2.6      0.000      0.000
REMARK  0 active torsions:
REMARK  status: ('A' for Active; 'I' for Inactive)
ROOT
HETATM    1  C1  UNL     1     -34.160   6.227   6.422  1.00 20.00     0.016 C 
HETATM    2  C2  UNL     1     -34.849   5.062   5.750  1.00 20.00     0.081 C 
HETATM    3 BR3  UNL     1     -34.928   5.360   3.830  1.00 20.00    -0.097 Br
ENDROOT
TORSDOF 0
ENDMDL
MODEL 2
REMARK VINA RESULT:      -2.6      2.240      2.254
REMARK  0 active torsions:
REMARK  status: ('A' for Active; 'I' for Inactive)
ROOT
HETATM    1  C1  UNL     1     -33.782   5.997   3.722  1.00 20.00     0.016 C 
HETATM    2  C2  UNL     1     -35.047   5.245   4.065  1.00 20.00     0.081 C 
HETATM    3 BR3  UNL     1     -34.891   4.467   5.840  1.00 20.00    -0.097 Br
ENDROOT
TORSDOF 0
ENDMDL
MODEL 3
REMARK VINA RESULT:      -2.6      1.412      1.556
REMARK  0 active torsions:
REMARK  status: ('A' for Active; 'I' for Inactive)
ROOT
HETATM    1  C1  UNL     1     -34.954   4.512   5.960  1.00 20.00     0.016 C 
HETATM    2  C2  UNL     1     -35.211   4.922   4.529  1.00 20.00     0.081 C 
HETATM    3 BR3  UNL     1     -33.785   6.089   3.908  1.00 20.00    -0.097 Br
ENDROOT
TORSDOF 0
ENDMDL
MODEL 4
REMARK VINA RESULT:      -2.5      2.166      2.405
REMARK  0 active torsions:
REMARK  status: ('A' for Active; 'I' for Inactive)
ROOT
HETATM    1  C1  UNL     1     -34.758   5.440   3.473  1.00 20.00     0.016 C 
HETATM    2  C2  UNL     1     -35.165   4.665   4.704  1.00 20.00     0.081 C 
HETATM    3 BR3  UNL     1     -34.460   5.532   6.295  1.00 20.00    -0.097 Br
ENDROOT
TORSDOF 0
ENDMDL
MODEL 5
REMARK VINA RESULT:      -2.5      1.021      1.556
REMARK  0 active torsions:
REMARK  status: ('A' for Active; 'I' for Inactive)
ROOT
HETATM    1  C1  UNL     1     -34.953   4.246   5.891  1.00 20.00     0.016 C 
HETATM    2  C2  UNL     1     -34.416   5.658   5.918  1.00 20.00     0.081 C 
HETATM    3 BR3  UNL     1     -33.896   6.202   4.125  1.00 20.00    -0.097 Br
ENDROOT
TORSDOF 0
ENDMDL
MODEL 6
REMARK VINA RESULT:      -2.4      2.262      2.564
REMARK  0 active torsions:
REMARK  status: ('A' for Active; 'I' for Inactive)
ROOT
HETATM    1  C1  UNL     1     -35.002   5.385   3.794  1.00 20.00     0.016 C 
HETATM    2  C2  UNL     1     -33.880   6.113   4.497  1.00 20.00     0.081 C 
HETATM    3 BR3  UNL     1     -32.448   6.492   3.237  1.00 20.00    -0.097 Br
ENDROOT
TORSDOF 0
ENDMDL
MODEL 7
REMARK VINA RESULT:      -2.4      2.292      2.350
REMARK  0 active torsions:
REMARK  status: ('A' for Active; 'I' for Inactive)
ROOT
HETATM    1  C1  UNL     1     -32.878   6.188   3.280  1.00 20.00     0.016 C 
HETATM    2  C2  UNL     1     -33.720   6.312   4.528  1.00 20.00     0.081 C 
HETATM    3 BR3  UNL     1     -35.084   4.927   4.545  1.00 20.00    -0.097 Br
ENDROOT
TORSDOF 0
ENDMDL
MODEL 8
REMARK VINA RESULT:      -2.0      3.528      3.616
REMARK  0 active torsions:
REMARK  status: ('A' for Active; 'I' for Inactive)
ROOT
HETATM    1  C1  UNL     1     -33.720   6.149   3.706  1.00 20.00     0.016 C 
HETATM    2  C2  UNL     1     -32.283   6.350   3.282  1.00 20.00     0.081 C 
HETATM    3 BR3  UNL     1     -32.117   8.002   2.270  1.00 20.00    -0.097 Br
ENDROOT
TORSDOF 0
ENDMDL
MODEL 9
REMARK VINA RESULT:      -1.9      5.384      5.473
REMARK  0 active torsions:
REMARK  status: ('A' for Active; 'I' for Inactive)
ROOT
HETATM    1  C1  UNL     1     -32.540   9.785   1.597  1.00 20.00     0.016 C 
HETATM    2  C2  UNL     1     -31.854   8.456   1.383  1.00 20.00     0.081 C 
HETATM    3 BR3  UNL     1     -32.246   7.263   2.868  1.00 20.00    -0.097 Br
ENDROOT
TORSDOF 0
ENDMDL
