MODEL 1
REMARK VINA RESULT:      -5.1      0.000      0.000
REMARK  1 active torsions:
REMARK  status: ('A' for Active; 'I' for Inactive)
REMARK    1  A    between atoms: C6_6  and  C9_9 
ROOT
HETATM    1  C1  UNL     1     -34.020   6.051   6.194  1.00 20.00     0.007 A 
HETATM    2  C2  UNL     1     -35.115   4.667   4.543  1.00 20.00     0.007 A 
HETATM    3  C3  UNL     1     -33.365   6.745   5.178  1.00 20.00     0.007 A 
HETATM    4  C4  UNL     1     -34.458   5.360   3.527  1.00 20.00     0.007 A 
HETATM    5  C5  UNL     1     -34.896   5.012   5.877  1.00 20.00    -0.062 A 
HETATM    6  C6  UNL     1     -33.584   6.400   3.844  1.00 20.00    -0.059 A 
HETATM    7  C7  UNL     1     -35.596   4.268   6.964  1.00 20.00     0.048 C 
ENDROOT
BRANCH   6   8
HETATM    8  C9  UNL     1     -32.883   7.143   2.758  1.00 20.00     0.034 C 
HETATM    9  C8  UNL     1     -31.510   7.650   3.194  1.00 20.00     0.010 C 
ENDBRANCH   6   8
TORSDOF 1
ENDMDL
MODEL 2
REMARK VINA RESULT:      -5.1      0.023      1.611
REMARK  1 active torsions:
REMARK  status: ('A' for Active; 'I' for Inactive)
REMARK    1  A    between atoms: C6_6  and  C9_9 
ROOT
HETATM    1  C1  UNL     1     -35.109   4.646   4.523  1.00 20.00     0.007 A 
HETATM    2  C2  UNL     1     -34.040   6.040   6.182  1.00 20.00     0.007 A 
HETATM    3  C3  UNL     1     -34.455   5.348   3.512  1.00 20.00     0.007 A 
HETATM    4  C4  UNL     1     -33.386   6.742   5.170  1.00 20.00     0.007 A 
HETATM    5  C5  UNL     1     -34.902   4.992   5.858  1.00 20.00    -0.062 A 
HETATM    6  C6  UNL     1     -33.593   6.396   3.835  1.00 20.00    -0.059 A 
HETATM    7  C7  UNL     1     -35.602   4.242   6.941  1.00 20.00     0.048 C 
ENDROOT
BRANCH   6   8
HETATM    8  C9  UNL     1     -32.892   7.146   2.753  1.00 20.00     0.034 C 
HETATM    9  C8  UNL     1     -31.514   7.640   3.187  1.00 20.00     0.010 C 
ENDBRANCH   6   8
TORSDOF 1
ENDMDL
MODEL 3
REMARK VINA RESULT:      -4.5      0.840      3.944
REMARK  1 active torsions:
REMARK  status: ('A' for Active; 'I' for Inactive)
REMARK    1  A    between atoms: C6_6  and  C9_9 
ROOT
HETATM    1  C1  UNL     1     -32.855   7.102   4.382  1.00 20.00     0.007 A 
HETATM    2  C2  UNL     1     -33.408   5.999   2.304  1.00 20.00     0.007 A 
HETATM    3  C3  UNL     1     -33.706   6.237   5.068  1.00 20.00     0.007 A 
HETATM    4  C4  UNL     1     -34.259   5.134   2.991  1.00 20.00     0.007 A 
HETATM    5  C5  UNL     1     -32.705   6.984   3.000  1.00 20.00    -0.062 A 
HETATM    6  C6  UNL     1     -34.408   5.253   4.372  1.00 20.00    -0.059 A 
HETATM    7  C7  UNL     1     -31.796   7.909   2.265  1.00 20.00     0.048 C 
ENDROOT
BRANCH   6   8
HETATM    8  C9  UNL     1     -35.318   4.327   5.107  1.00 20.00     0.034 C 
HETATM    9  C8  UNL     1     -35.174   4.454   6.622  1.00 20.00     0.010 C 
ENDBRANCH   6   8
TORSDOF 1
ENDMDL
MODEL 4
REMARK VINA RESULT:      -4.2      9.571     10.983
REMARK  1 active torsions:
REMARK  status: ('A' for Active; 'I' for Inactive)
REMARK    1  A    between atoms: C6_6  and  C9_9 
ROOT
HETATM    1  C1  UNL     1     -40.822   5.153  -1.081  1.00 20.00     0.007 A 
HETATM    2  C2  UNL     1     -42.561   6.093  -2.471  1.00 20.00     0.007 A 
HETATM    3  C3  UNL     1     -41.082   3.890  -1.610  1.00 20.00     0.007 A 
HETATM    4  C4  UNL     1     -42.821   4.829  -2.999  1.00 20.00     0.007 A 
HETATM    5  C5  UNL     1     -41.562   6.255  -1.511  1.00 20.00    -0.062 A 
HETATM    6  C6  UNL     1     -42.081   3.728  -2.570  1.00 20.00    -0.059 A 
HETATM    7  C7  UNL     1     -41.286   7.607  -0.945  1.00 20.00     0.048 C 
ENDROOT
BRANCH   6   8
HETATM    8  C9  UNL     1     -42.358   2.376  -3.136  1.00 20.00     0.034 C 
HETATM    9  C8  UNL     1     -41.175   1.827  -3.931  1.00 20.00     0.010 C 
ENDBRANCH   6   8
TORSDOF 1
ENDMDL
MODEL 5
REMARK VINA RESULT:      -4.2     12.213     13.538
REMARK  1 active torsions:
REMARK  status: ('A' for Active; 'I' for Inactive)
REMARK    1  A    between atoms: C6_6  and  C9_9 
ROOT
HETATM    1  C1  UNL     1     -33.568  16.358  -5.059  1.00 20.00     0.007 A 
HETATM    2  C2  UNL     1     -35.245  14.645  -4.753  1.00 20.00     0.007 A 
HETATM    3  C3  UNL     1     -33.636  16.668  -3.702  1.00 20.00     0.007 A 
HETATM    4  C4  UNL     1     -35.313  14.957  -3.395  1.00 20.00     0.007 A 
HETATM    5  C5  UNL     1     -34.372  15.346  -5.585  1.00 20.00    -0.062 A 
HETATM    6  C6  UNL     1     -34.509  15.967  -2.870  1.00 20.00    -0.059 A 
HETATM    7  C7  UNL     1     -34.300  15.014  -7.038  1.00 20.00     0.048 C 
ENDROOT
BRANCH   6   8
HETATM    8  C9  UNL     1     -34.581  16.300  -1.417  1.00 20.00     0.034 C 
HETATM    9  C8  UNL     1     -33.672  17.469  -1.044  1.00 20.00     0.010 C 
ENDBRANCH   6   8
TORSDOF 1
ENDMDL
MODEL 6
REMARK VINA RESULT:      -4.2     12.211     13.628
REMARK  1 active torsions:
REMARK  status: ('A' for Active; 'I' for Inactive)
REMARK    1  A    between atoms: C6_6  and  C9_9 
ROOT
HETATM    1  C1  UNL     1     -35.188  14.619  -4.796  1.00 20.00     0.007 A 
HETATM    2  C2  UNL     1     -33.585  16.400  -5.109  1.00 20.00     0.007 A 
HETATM    3  C3  UNL     1     -35.255  14.918  -3.436  1.00 20.00     0.007 A 
HETATM    4  C4  UNL     1     -33.652  16.699  -3.748  1.00 20.00     0.007 A 
HETATM    5  C5  UNL     1     -34.353  15.360  -5.633  1.00 20.00    -0.062 A 
HETATM    6  C6  UNL     1     -34.487  15.958  -2.912  1.00 20.00    -0.059 A 
HETATM    7  C7  UNL     1     -34.279  15.041  -7.088  1.00 20.00     0.048 C 
ENDROOT
BRANCH   6   8
HETATM    8  C9  UNL     1     -34.561  16.278  -1.457  1.00 20.00     0.034 C 
HETATM    9  C8  UNL     1     -33.674  17.462  -1.078  1.00 20.00     0.010 C 
ENDBRANCH   6   8
TORSDOF 1
ENDMDL
MODEL 7
REMARK VINA RESULT:      -4.2     12.311     12.995
REMARK  1 active torsions:
REMARK  status: ('A' for Active; 'I' for Inactive)
REMARK    1  A    between atoms: C6_6  and  C9_9 
ROOT
HETATM    1  C1  UNL     1     -33.486  15.877  -2.999  1.00 20.00     0.007 A 
HETATM    2  C2  UNL     1     -35.869  15.586  -2.727  1.00 20.00     0.007 A 
HETATM    3  C3  UNL     1     -33.554  15.263  -4.249  1.00 20.00     0.007 A 
HETATM    4  C4  UNL     1     -35.936  14.971  -3.977  1.00 20.00     0.007 A 
HETATM    5  C5  UNL     1     -34.644  16.039  -2.238  1.00 20.00    -0.062 A 
HETATM    6  C6  UNL     1     -34.779  14.811  -4.738  1.00 20.00    -0.059 A 
HETATM    7  C7  UNL     1     -34.572  16.694  -0.900  1.00 20.00     0.048 C 
ENDROOT
BRANCH   6   8
HETATM    8  C9  UNL     1     -34.850  14.155  -6.076  1.00 20.00     0.034 C 
HETATM    9  C8  UNL     1     -34.409  15.086  -7.203  1.00 20.00     0.010 C 
ENDBRANCH   6   8
TORSDOF 1
ENDMDL
MODEL 8
REMARK VINA RESULT:      -4.1     12.183     12.881
REMARK  1 active torsions:
REMARK  status: ('A' for Active; 'I' for Inactive)
REMARK    1  A    between atoms: C6_6  and  C9_9 
ROOT
HETATM    1  C1  UNL     1     -33.004  18.804   0.718  1.00 20.00     0.007 A 
HETATM    2  C2  UNL     1     -35.041  17.558   1.087  1.00 20.00     0.007 A 
HETATM    3  C3  UNL     1     -32.893  18.247  -0.554  1.00 20.00     0.007 A 
HETATM    4  C4  UNL     1     -34.929  16.999  -0.186  1.00 20.00     0.007 A 
HETATM    5  C5  UNL     1     -34.078  18.460   1.540  1.00 20.00    -0.062 A 
HETATM    6  C6  UNL     1     -33.856  17.344  -1.007  1.00 20.00    -0.059 A 
HETATM    7  C7  UNL     1     -34.198  19.056   2.902  1.00 20.00     0.048 C 
ENDROOT
BRANCH   6   8
HETATM    8  C9  UNL     1     -33.737  16.748  -2.369  1.00 20.00     0.034 C 
HETATM    9  C8  UNL     1     -34.700  15.582  -2.579  1.00 20.00     0.010 C 
ENDBRANCH   6   8
TORSDOF 1
ENDMDL
MODEL 9
REMARK VINA RESULT:      -4.1     12.181     12.931
REMARK  1 active torsions:
REMARK  status: ('A' for Active; 'I' for Inactive)
REMARK    1  A    between atoms: C6_6  and  C9_9 
ROOT
HETATM    1  C1  UNL     1     -35.046  17.514   1.078  1.00 20.00     0.007 A 
HETATM    2  C2  UNL     1     -33.025  18.803   0.776  1.00 20.00     0.007 A 
HETATM    3  C3  UNL     1     -34.916  17.007  -0.213  1.00 20.00     0.007 A 
HETATM    4  C4  UNL     1     -32.896  18.296  -0.517  1.00 20.00     0.007 A 
HETATM    5  C5  UNL     1     -34.101  18.413   1.574  1.00 20.00    -0.062 A 
HETATM    6  C6  UNL     1     -33.840  17.397  -1.011  1.00 20.00    -0.059 A 
HETATM    7  C7  UNL     1     -34.239  18.957   2.955  1.00 20.00     0.048 C 
ENDROOT
BRANCH   6   8
HETATM    8  C9  UNL     1     -33.702  16.853  -2.393  1.00 20.00     0.034 C 
HETATM    9  C8  UNL     1     -34.560  15.610  -2.615  1.00 20.00     0.010 C 
ENDBRANCH   6   8
TORSDOF 1
ENDMDL
