MODEL 1
REMARK VINA RESULT:      -5.9      0.000      0.000
REMARK  1 active torsions:
REMARK  status: ('A' for Active; 'I' for Inactive)
REMARK    1  A    between atoms: C2_2  and  C8_8 
ROOT
HETATM    1  C1  UNL     1     -34.120   6.132   5.883  1.00 20.00    -0.081 C 
HETATM    2  C2  UNL     1     -34.087   5.986   4.548  1.00 20.00    -0.078 C 
HETATM    3  C3  UNL     1     -34.935   5.054   6.531  1.00 20.00     0.034 C 
HETATM    4  C4  UNL     1     -34.876   4.789   4.110  1.00 20.00     0.034 C 
HETATM    5  C5  UNL     1     -35.106   4.030   5.413  1.00 20.00     0.009 C 
HETATM    6  C6  UNL     1     -33.506   7.192   6.728  1.00 20.00     0.043 C 
ENDROOT
BRANCH   2   7
HETATM    7  C8  UNL     1     -33.428   6.841   3.523  1.00 20.00     0.030 C 
HETATM    8  C7  UNL     1     -32.106   6.236   3.094  1.00 20.00     0.010 C 
ENDBRANCH   2   7
TORSDOF 1
ENDMDL
MODEL 2
REMARK VINA RESULT:      -4.9      0.893      3.001
REMARK  1 active torsions:
REMARK  status: ('A' for Active; 'I' for Inactive)
REMARK    1  A    between atoms: C2_2  and  C8_8 
ROOT
HETATM    1  C1  UNL     1     -33.466   6.587   5.001  1.00 20.00    -0.081 C 
HETATM    2  C2  UNL     1     -34.167   5.727   4.243  1.00 20.00    -0.078 C 
HETATM    3  C3  UNL     1     -32.315   7.173   4.240  1.00 20.00     0.034 C 
HETATM    4  C4  UNL     1     -33.586   5.613   2.866  1.00 20.00     0.034 C 
HETATM    5  C5  UNL     1     -32.629   6.800   2.795  1.00 20.00     0.009 C 
HETATM    6  C6  UNL     1     -33.673   6.971   6.423  1.00 20.00     0.043 C 
ENDROOT
BRANCH   2   7
HETATM    7  C8  UNL     1     -35.355   4.907   4.605  1.00 20.00     0.030 C 
HETATM    8  C7  UNL     1     -34.999   3.894   5.675  1.00 20.00     0.010 C 
ENDBRANCH   2   7
TORSDOF 1
ENDMDL
MODEL 3
REMARK VINA RESULT:      -4.9      0.888      2.313
REMARK  1 active torsions:
REMARK  status: ('A' for Active; 'I' for Inactive)
REMARK    1  A    between atoms: C2_2  and  C8_8 
ROOT
HETATM    1  C1  UNL     1     -34.496   5.213   5.105  1.00 20.00    -0.081 C 
HETATM    2  C2  UNL     1     -33.669   6.062   4.474  1.00 20.00    -0.078 C 
HETATM    3  C3  UNL     1     -34.582   5.522   6.569  1.00 20.00     0.034 C 
HETATM    4  C4  UNL     1     -33.081   7.061   5.425  1.00 20.00     0.034 C 
HETATM    5  C5  UNL     1     -33.949   6.906   6.670  1.00 20.00     0.009 C 
HETATM    6  C6  UNL     1     -35.258   4.060   4.555  1.00 20.00     0.043 C 
ENDROOT
BRANCH   2   7
HETATM    7  C8  UNL     1     -33.272   6.098   3.040  1.00 20.00     0.030 C 
HETATM    8  C7  UNL     1     -32.220   7.164   2.803  1.00 20.00     0.010 C 
ENDBRANCH   2   7
TORSDOF 1
ENDMDL
MODEL 4
REMARK VINA RESULT:      -4.6      0.904      3.336
REMARK  1 active torsions:
REMARK  status: ('A' for Active; 'I' for Inactive)
REMARK    1  A    between atoms: C2_2  and  C8_8 
ROOT
HETATM    1  C1  UNL     1     -34.453   5.276   4.235  1.00 20.00    -0.081 C 
HETATM    2  C2  UNL     1     -33.858   6.170   5.043  1.00 20.00    -0.078 C 
HETATM    3  C3  UNL     1     -33.939   5.382   2.831  1.00 20.00     0.034 C 
HETATM    4  C4  UNL     1     -32.861   7.003   4.295  1.00 20.00     0.034 C 
HETATM    5  C5  UNL     1     -32.689   6.244   2.983  1.00 20.00     0.009 C 
HETATM    6  C6  UNL     1     -35.515   4.284   4.551  1.00 20.00     0.043 C 
ENDROOT
BRANCH   2   7
HETATM    7  C8  UNL     1     -34.088   6.429   6.490  1.00 20.00     0.030 C 
HETATM    8  C7  UNL     1     -33.219   7.573   6.973  1.00 20.00     0.010 C 
ENDBRANCH   2   7
TORSDOF 1
ENDMDL
MODEL 5
REMARK VINA RESULT:      -4.4      1.026      3.135
REMARK  1 active torsions:
REMARK  status: ('A' for Active; 'I' for Inactive)
REMARK    1  A    between atoms: C2_2  and  C8_8 
ROOT
HETATM    1  C1  UNL     1     -32.808   6.537   3.672  1.00 20.00    -0.081 C 
HETATM    2  C2  UNL     1     -33.756   6.152   4.542  1.00 20.00    -0.078 C 
HETATM    3  C3  UNL     1     -32.989   5.878   2.338  1.00 20.00     0.034 C 
HETATM    4  C4  UNL     1     -34.709   5.179   3.915  1.00 20.00     0.034 C 
HETATM    5  C5  UNL     1     -34.398   5.299   2.427  1.00 20.00     0.009 C 
HETATM    6  C6  UNL     1     -31.657   7.456   3.882  1.00 20.00     0.043 C 
ENDROOT
BRANCH   2   7
HETATM    7  C8  UNL     1     -33.933   6.532   5.970  1.00 20.00     0.030 C 
HETATM    8  C7  UNL     1     -34.723   5.471   6.711  1.00 20.00     0.010 C 
ENDBRANCH   2   7
TORSDOF 1
ENDMDL
MODEL 6
REMARK VINA RESULT:      -4.4      0.831      2.861
REMARK  1 active torsions:
REMARK  status: ('A' for Active; 'I' for Inactive)
REMARK    1  A    between atoms: C2_2  and  C8_8 
ROOT
HETATM    1  C1  UNL     1     -33.559   6.218   4.032  1.00 20.00    -0.081 C 
HETATM    2  C2  UNL     1     -33.779   6.203   5.357  1.00 20.00    -0.078 C 
HETATM    3  C3  UNL     1     -34.450   5.247   3.318  1.00 20.00     0.034 C 
HETATM    4  C4  UNL     1     -34.849   5.218   5.721  1.00 20.00     0.034 C 
HETATM    5  C5  UNL     1     -35.489   4.888   4.376  1.00 20.00     0.009 C 
HETATM    6  C6  UNL     1     -32.574   7.015   3.251  1.00 20.00     0.043 C 
ENDROOT
BRANCH   2   7
HETATM    7  C8  UNL     1     -33.102   6.977   6.432  1.00 20.00     0.030 C 
HETATM    8  C7  UNL     1     -34.122   7.638   7.337  1.00 20.00     0.010 C 
ENDBRANCH   2   7
TORSDOF 1
ENDMDL
MODEL 7
REMARK VINA RESULT:      -4.2     11.881     12.569
REMARK  1 active torsions:
REMARK  status: ('A' for Active; 'I' for Inactive)
REMARK    1  A    between atoms: C2_2  and  C8_8 
ROOT
HETATM    1  C1  UNL     1     -34.236  14.306  -3.510  1.00 20.00    -0.081 C 
HETATM    2  C2  UNL     1     -34.729  15.419  -2.943  1.00 20.00    -0.078 C 
HETATM    3  C3  UNL     1     -35.317  13.505  -4.171  1.00 20.00     0.034 C 
HETATM    4  C4  UNL     1     -36.211  15.524  -3.142  1.00 20.00     0.034 C 
HETATM    5  C5  UNL     1     -36.490  14.478  -4.218  1.00 20.00     0.009 C 
HETATM    6  C6  UNL     1     -32.838  13.798  -3.525  1.00 20.00     0.043 C 
ENDROOT
BRANCH   2   7
HETATM    7  C8  UNL     1     -34.021  16.471  -2.163  1.00 20.00     0.030 C 
HETATM    8  C7  UNL     1     -34.631  16.615  -0.783  1.00 20.00     0.010 C 
ENDBRANCH   2   7
TORSDOF 1
ENDMDL
MODEL 8
REMARK VINA RESULT:      -4.1     11.870     12.675
REMARK  1 active torsions:
REMARK  status: ('A' for Active; 'I' for Inactive)
REMARK    1  A    between atoms: C2_2  and  C8_8 
ROOT
HETATM    1  C1  UNL     1     -35.256  14.803  -3.525  1.00 20.00    -0.081 C 
HETATM    2  C2  UNL     1     -34.218  15.535  -3.089  1.00 20.00    -0.078 C 
HETATM    3  C3  UNL     1     -34.792  13.564  -4.230  1.00 20.00     0.034 C 
HETATM    4  C4  UNL     1     -32.910  14.893  -3.439  1.00 20.00     0.034 C 
HETATM    5  C5  UNL     1     -33.317  13.481  -3.851  1.00 20.00     0.009 C 
HETATM    6  C6  UNL     1     -36.714  15.082  -3.422  1.00 20.00     0.043 C 
ENDROOT
BRANCH   2   7
HETATM    7  C8  UNL     1     -34.223  16.841  -2.375  1.00 20.00     0.030 C 
HETATM    8  C7  UNL     1     -34.538  16.645  -0.905  1.00 20.00     0.010 C 
ENDBRANCH   2   7
TORSDOF 1
ENDMDL
MODEL 9
REMARK VINA RESULT:      -4.1      9.445     10.766
REMARK  1 active torsions:
REMARK  status: ('A' for Active; 'I' for Inactive)
REMARK    1  A    between atoms: C2_2  and  C8_8 
ROOT
HETATM    1  C1  UNL     1     -41.640   4.744  -1.963  1.00 20.00    -0.081 C 
HETATM    2  C2  UNL     1     -42.000   6.010  -2.228  1.00 20.00    -0.078 C 
HETATM    3  C3  UNL     1     -40.655   4.680  -0.835  1.00 20.00     0.034 C 
HETATM    4  C4  UNL     1     -41.307   6.978  -1.316  1.00 20.00     0.034 C 
HETATM    5  C5  UNL     1     -40.736   6.077  -0.226  1.00 20.00     0.009 C 
HETATM    6  C6  UNL     1     -42.057   3.486  -2.640  1.00 20.00     0.043 C 
ENDROOT
BRANCH   2   7
HETATM    7  C8  UNL     1     -42.921   6.527  -3.277  1.00 20.00     0.030 C 
HETATM    8  C7  UNL     1     -42.482   7.900  -3.744  1.00 20.00     0.010 C 
ENDBRANCH   2   7
TORSDOF 1
ENDMDL
