MODEL 1
REMARK VINA RESULT:      -5.9      0.000      0.000
REMARK  1 active torsions:
REMARK  status: ('A' for Active; 'I' for Inactive)
REMARK    1  A    between atoms: C6_6  and  C9_9 
ROOT
HETATM    1  C1  UNL     1     -35.233   4.193   5.886  1.00 20.00     0.001 A 
HETATM    2  C2  UNL     1     -35.217   4.171   4.491  1.00 20.00     0.001 A 
HETATM    3  C3  UNL     1     -34.603   5.230   6.575  1.00 20.00     0.007 A 
HETATM    4  C4  UNL     1     -34.572   5.186   3.785  1.00 20.00     0.007 A 
HETATM    5  C5  UNL     1     -33.957   6.246   5.868  1.00 20.00    -0.056 A 
HETATM    6  C6  UNL     1     -33.942   6.224   4.473  1.00 20.00    -0.053 A 
HETATM    7  C7  UNL     1     -33.291   7.346   6.626  1.00 20.00     0.049 C 
ENDROOT
BRANCH   6   8
HETATM    8  C9  UNL     1     -33.256   7.298   3.696  1.00 20.00     0.034 C 
HETATM    9  C8  UNL     1     -32.033   6.778   2.945  1.00 20.00     0.010 C 
ENDBRANCH   6   8
TORSDOF 1
ENDMDL
MODEL 2
REMARK VINA RESULT:      -5.5      0.743      2.392
REMARK  1 active torsions:
REMARK  status: ('A' for Active; 'I' for Inactive)
REMARK    1  A    between atoms: C6_6  and  C9_9 
ROOT
HETATM    1  C1  UNL     1     -35.093   4.708   5.980  1.00 20.00     0.001 A 
HETATM    2  C2  UNL     1     -34.354   5.779   6.484  1.00 20.00     0.001 A 
HETATM    3  C3  UNL     1     -35.140   4.478   4.605  1.00 20.00     0.007 A 
HETATM    4  C4  UNL     1     -33.662   6.620   5.612  1.00 20.00     0.007 A 
HETATM    5  C5  UNL     1     -34.448   5.319   3.733  1.00 20.00    -0.056 A 
HETATM    6  C6  UNL     1     -33.709   6.390   4.237  1.00 20.00    -0.053 A 
HETATM    7  C7  UNL     1     -34.511   5.053   2.266  1.00 20.00     0.049 C 
ENDROOT
BRANCH   6   8
HETATM    8  C9  UNL     1     -32.962   7.305   3.323  1.00 20.00     0.034 C 
HETATM    9  C8  UNL     1     -31.474   7.366   3.657  1.00 20.00     0.010 C 
ENDBRANCH   6   8
TORSDOF 1
ENDMDL
MODEL 3
REMARK VINA RESULT:      -4.8      0.928      3.219
REMARK  1 active torsions:
REMARK  status: ('A' for Active; 'I' for Inactive)
REMARK    1  A    between atoms: C6_6  and  C9_9 
ROOT
HETATM    1  C1  UNL     1     -32.059   7.017   3.132  1.00 20.00     0.001 A 
HETATM    2  C2  UNL     1     -32.792   6.109   2.368  1.00 20.00     0.001 A 
HETATM    3  C3  UNL     1     -32.409   7.250   4.462  1.00 20.00     0.007 A 
HETATM    4  C4  UNL     1     -33.874   5.434   2.933  1.00 20.00     0.007 A 
HETATM    5  C5  UNL     1     -33.491   6.575   5.028  1.00 20.00    -0.056 A 
HETATM    6  C6  UNL     1     -34.224   5.667   4.264  1.00 20.00    -0.053 A 
HETATM    7  C7  UNL     1     -33.846   6.840   6.454  1.00 20.00     0.049 C 
ENDROOT
BRANCH   6   8
HETATM    8  C9  UNL     1     -35.386   4.934   4.846  1.00 20.00     0.034 C 
HETATM    9  C8  UNL     1     -34.951   3.763   5.723  1.00 20.00     0.010 C 
ENDBRANCH   6   8
TORSDOF 1
ENDMDL
MODEL 4
REMARK VINA RESULT:      -4.7      0.472      2.721
REMARK  1 active torsions:
REMARK  status: ('A' for Active; 'I' for Inactive)
REMARK    1  A    between atoms: C6_6  and  C9_9 
ROOT
HETATM    1  C1  UNL     1     -35.236   4.162   4.447  1.00 20.00     0.001 A 
HETATM    2  C2  UNL     1     -35.277   4.308   5.834  1.00 20.00     0.001 A 
HETATM    3  C3  UNL     1     -34.493   5.053   3.673  1.00 20.00     0.007 A 
HETATM    4  C4  UNL     1     -34.574   5.346   6.447  1.00 20.00     0.007 A 
HETATM    5  C5  UNL     1     -33.789   6.090   4.286  1.00 20.00    -0.056 A 
HETATM    6  C6  UNL     1     -33.829   6.237   5.672  1.00 20.00    -0.053 A 
HETATM    7  C7  UNL     1     -32.999   7.031   3.437  1.00 20.00     0.049 C 
ENDROOT
BRANCH   6   8
HETATM    8  C9  UNL     1     -33.086   7.340   6.350  1.00 20.00     0.034 C 
HETATM    9  C8  UNL     1     -33.847   7.898   7.550  1.00 20.00     0.010 C 
ENDBRANCH   6   8
TORSDOF 1
ENDMDL
MODEL 5
REMARK VINA RESULT:      -4.7      0.814      3.509
REMARK  1 active torsions:
REMARK  status: ('A' for Active; 'I' for Inactive)
REMARK    1  A    between atoms: C6_6  and  C9_9 
ROOT
HETATM    1  C1  UNL     1     -32.938   6.019   2.340  1.00 20.00     0.001 A 
HETATM    2  C2  UNL     1     -32.284   6.925   3.175  1.00 20.00     0.001 A 
HETATM    3  C3  UNL     1     -33.980   5.237   2.838  1.00 20.00     0.007 A 
HETATM    4  C4  UNL     1     -32.672   7.049   4.509  1.00 20.00     0.007 A 
HETATM    5  C5  UNL     1     -34.369   5.361   4.173  1.00 20.00    -0.056 A 
HETATM    6  C6  UNL     1     -33.715   6.267   5.008  1.00 20.00    -0.053 A 
HETATM    7  C7  UNL     1     -35.488   4.516   4.684  1.00 20.00     0.049 C 
ENDROOT
BRANCH   6   8
HETATM    8  C9  UNL     1     -34.111   6.417   6.439  1.00 20.00     0.034 C 
HETATM    9  C8  UNL     1     -33.400   7.584   7.118  1.00 20.00     0.010 C 
ENDBRANCH   6   8
TORSDOF 1
ENDMDL
MODEL 6
REMARK VINA RESULT:      -4.5     11.945     13.436
REMARK  1 active torsions:
REMARK  status: ('A' for Active; 'I' for Inactive)
REMARK    1  A    between atoms: C6_6  and  C9_9 
ROOT
HETATM    1  C1  UNL     1     -34.849  13.818  -5.792  1.00 20.00     0.001 A 
HETATM    2  C2  UNL     1     -34.900  13.336  -4.484  1.00 20.00     0.001 A 
HETATM    3  C3  UNL     1     -34.394  15.113  -6.041  1.00 20.00     0.007 A 
HETATM    4  C4  UNL     1     -34.496  14.148  -3.425  1.00 20.00     0.007 A 
HETATM    5  C5  UNL     1     -33.990  15.926  -4.982  1.00 20.00    -0.056 A 
HETATM    6  C6  UNL     1     -34.041  15.444  -3.673  1.00 20.00    -0.053 A 
HETATM    7  C7  UNL     1     -33.505  17.308  -5.272  1.00 20.00     0.049 C 
ENDROOT
BRANCH   6   8
HETATM    8  C9  UNL     1     -33.615  16.296  -2.524  1.00 20.00     0.034 C 
HETATM    9  C8  UNL     1     -34.683  16.375  -1.436  1.00 20.00     0.010 C 
ENDBRANCH   6   8
TORSDOF 1
ENDMDL
MODEL 7
REMARK VINA RESULT:      -4.4     12.023     12.619
REMARK  1 active torsions:
REMARK  status: ('A' for Active; 'I' for Inactive)
REMARK    1  A    between atoms: C6_6  and  C9_9 
ROOT
HETATM    1  C1  UNL     1     -34.185  13.269  -4.483  1.00 20.00     0.001 A 
HETATM    2  C2  UNL     1     -33.207  14.012  -3.821  1.00 20.00     0.001 A 
HETATM    3  C3  UNL     1     -35.526  13.639  -4.387  1.00 20.00     0.007 A 
HETATM    4  C4  UNL     1     -33.571  15.126  -3.065  1.00 20.00     0.007 A 
HETATM    5  C5  UNL     1     -35.891  14.753  -3.630  1.00 20.00    -0.056 A 
HETATM    6  C6  UNL     1     -34.913  15.497  -2.969  1.00 20.00    -0.053 A 
HETATM    7  C7  UNL     1     -37.332  15.132  -3.543  1.00 20.00     0.049 C 
ENDROOT
BRANCH   6   8
HETATM    8  C9  UNL     1     -35.278  16.692  -2.152  1.00 20.00     0.034 C 
HETATM    9  C8  UNL     1     -34.637  16.663  -0.767  1.00 20.00     0.010 C 
ENDBRANCH   6   8
TORSDOF 1
ENDMDL
MODEL 8
REMARK VINA RESULT:      -4.4     12.160     12.586
REMARK  1 active torsions:
REMARK  status: ('A' for Active; 'I' for Inactive)
REMARK    1  A    between atoms: C6_6  and  C9_9 
ROOT
HETATM    1  C1  UNL     1     -36.027  13.800  -4.410  1.00 20.00     0.001 A 
HETATM    2  C2  UNL     1     -36.707  14.788  -3.698  1.00 20.00     0.001 A 
HETATM    3  C3  UNL     1     -34.636  13.723  -4.341  1.00 20.00     0.007 A 
HETATM    4  C4  UNL     1     -35.997  15.699  -2.917  1.00 20.00     0.007 A 
HETATM    5  C5  UNL     1     -33.925  14.634  -3.558  1.00 20.00    -0.056 A 
HETATM    6  C6  UNL     1     -34.605  15.622  -2.846  1.00 20.00    -0.053 A 
HETATM    7  C7  UNL     1     -32.437  14.531  -3.497  1.00 20.00     0.049 C 
ENDROOT
BRANCH   6   8
HETATM    8  C9  UNL     1     -33.866  16.608  -2.004  1.00 20.00     0.034 C 
HETATM    9  C8  UNL     1     -34.532  16.825  -0.648  1.00 20.00     0.010 C 
ENDBRANCH   6   8
TORSDOF 1
ENDMDL
MODEL 9
REMARK VINA RESULT:      -4.3      9.463     10.924
REMARK  1 active torsions:
REMARK  status: ('A' for Active; 'I' for Inactive)
REMARK    1  A    between atoms: C6_6  and  C9_9 
ROOT
HETATM    1  C1  UNL     1     -40.855   6.892  -0.611  1.00 20.00     0.001 A 
HETATM    2  C2  UNL     1     -40.568   5.544  -0.391  1.00 20.00     0.001 A 
HETATM    3  C3  UNL     1     -41.723   7.262  -1.638  1.00 20.00     0.007 A 
HETATM    4  C4  UNL     1     -41.150   4.567  -1.198  1.00 20.00     0.007 A 
HETATM    5  C5  UNL     1     -42.306   6.285  -2.446  1.00 20.00    -0.056 A 
HETATM    6  C6  UNL     1     -42.019   4.937  -2.226  1.00 20.00    -0.053 A 
HETATM    7  C7  UNL     1     -43.233   6.704  -3.538  1.00 20.00     0.049 C 
ENDROOT
BRANCH   6   8
HETATM    8  C9  UNL     1     -42.629   3.873  -3.077  1.00 20.00     0.034 C 
HETATM    9  C8  UNL     1     -41.777   2.608  -3.120  1.00 20.00     0.010 C 
ENDBRANCH   6   8
TORSDOF 1
ENDMDL
