MODEL 1
REMARK VINA RESULT:      -6.5      0.000      0.000
REMARK  1 active torsions:
REMARK  status: ('A' for Active; 'I' for Inactive)
REMARK    1  A    between atoms: C1_1  and  C8_8 
ROOT
HETATM    1  C1  UNL     1     -33.022   6.991   3.222  1.00 20.00    -0.067 C 
HETATM    2  C2  UNL     1     -32.421   7.656   2.422  1.00 20.00    -0.105 C 
HETATM    3  C9  UNL     1     -31.692   8.466   1.447  1.00 20.00     0.112 C 
ENDROOT
BRANCH   1   4
HETATM    4  C8  UNL     1     -33.739   6.201   4.173  1.00 20.00     0.017 A 
HETATM    5  C6  UNL     1     -33.637   6.486   5.535  1.00 20.00     0.020 A 
HETATM    6  C4  UNL     1     -34.337   5.715   6.463  1.00 20.00     0.001 A 
HETATM    7  C3  UNL     1     -35.138   4.659   6.030  1.00 20.00     0.000 A 
HETATM    8  C5  UNL     1     -35.239   4.374   4.668  1.00 20.00     0.001 A 
HETATM    9  C7  UNL     1     -34.540   5.145   3.740  1.00 20.00     0.020 A 
ENDBRANCH   1   4
TORSDOF 1
ENDMDL
MODEL 2
REMARK VINA RESULT:      -4.7     11.435     11.972
REMARK  1 active torsions:
REMARK  status: ('A' for Active; 'I' for Inactive)
REMARK    1  A    between atoms: C1_1  and  C8_8 
ROOT
HETATM    1  C1  UNL     1     -34.536  16.268  -1.650  1.00 20.00    -0.067 C 
HETATM    2  C2  UNL     1     -34.358  17.052  -0.757  1.00 20.00    -0.105 C 
HETATM    3  C9  UNL     1     -34.141  18.005   0.331  1.00 20.00     0.112 C 
ENDROOT
BRANCH   1   4
HETATM    4  C8  UNL     1     -34.750  15.334  -2.710  1.00 20.00     0.017 A 
HETATM    5  C6  UNL     1     -33.679  14.597  -3.217  1.00 20.00     0.020 A 
HETATM    6  C4  UNL     1     -33.888  13.686  -4.252  1.00 20.00     0.001 A 
HETATM    7  C3  UNL     1     -35.167  13.511  -4.779  1.00 20.00     0.000 A 
HETATM    8  C5  UNL     1     -36.238  14.247  -4.272  1.00 20.00     0.001 A 
HETATM    9  C7  UNL     1     -36.029  15.159  -3.237  1.00 20.00     0.020 A 
ENDBRANCH   1   4
TORSDOF 1
ENDMDL
MODEL 3
REMARK VINA RESULT:      -4.7     11.436     11.998
REMARK  1 active torsions:
REMARK  status: ('A' for Active; 'I' for Inactive)
REMARK    1  A    between atoms: C1_1  and  C8_8 
ROOT
HETATM    1  C1  UNL     1     -34.531  16.274  -1.648  1.00 20.00    -0.067 C 
HETATM    2  C2  UNL     1     -34.350  17.059  -0.756  1.00 20.00    -0.105 C 
HETATM    3  C9  UNL     1     -34.130  18.013   0.329  1.00 20.00     0.112 C 
ENDROOT
BRANCH   1   4
HETATM    4  C8  UNL     1     -34.746  15.338  -2.706  1.00 20.00     0.017 A 
HETATM    5  C6  UNL     1     -36.026  15.161  -3.231  1.00 20.00     0.020 A 
HETATM    6  C4  UNL     1     -36.235  14.248  -4.265  1.00 20.00     0.001 A 
HETATM    7  C3  UNL     1     -35.165  13.512  -4.773  1.00 20.00     0.000 A 
HETATM    8  C5  UNL     1     -33.885  13.689  -4.247  1.00 20.00     0.001 A 
HETATM    9  C7  UNL     1     -33.675  14.602  -3.214  1.00 20.00     0.020 A 
ENDBRANCH   1   4
TORSDOF 1
ENDMDL
MODEL 4
REMARK VINA RESULT:      -4.7      9.370     10.752
REMARK  1 active torsions:
REMARK  status: ('A' for Active; 'I' for Inactive)
REMARK    1  A    between atoms: C1_1  and  C8_8 
ROOT
HETATM    1  C1  UNL     1     -41.715   3.416  -2.610  1.00 20.00    -0.067 C 
HETATM    2  C2  UNL     1     -41.834   2.334  -3.120  1.00 20.00    -0.105 C 
HETATM    3  C9  UNL     1     -41.978   1.018  -3.740  1.00 20.00     0.112 C 
ENDROOT
BRANCH   1   4
HETATM    4  C8  UNL     1     -41.570   4.702  -2.005  1.00 20.00     0.017 A 
HETATM    5  C6  UNL     1     -42.200   5.813  -2.568  1.00 20.00     0.020 A 
HETATM    6  C4  UNL     1     -42.059   7.068  -1.977  1.00 20.00     0.001 A 
HETATM    7  C3  UNL     1     -41.289   7.213  -0.823  1.00 20.00     0.000 A 
HETATM    8  C5  UNL     1     -40.660   6.103  -0.260  1.00 20.00     0.001 A 
HETATM    9  C7  UNL     1     -40.800   4.847  -0.851  1.00 20.00     0.020 A 
ENDBRANCH   1   4
TORSDOF 1
ENDMDL
MODEL 5
REMARK VINA RESULT:      -4.7      9.367     10.685
REMARK  1 active torsions:
REMARK  status: ('A' for Active; 'I' for Inactive)
REMARK    1  A    between atoms: C1_1  and  C8_8 
ROOT
HETATM    1  C1  UNL     1     -41.715   3.422  -2.607  1.00 20.00    -0.067 C 
HETATM    2  C2  UNL     1     -41.835   2.342  -3.119  1.00 20.00    -0.105 C 
HETATM    3  C9  UNL     1     -41.979   1.027  -3.743  1.00 20.00     0.112 C 
ENDROOT
BRANCH   1   4
HETATM    4  C8  UNL     1     -41.570   4.708  -2.001  1.00 20.00     0.017 A 
HETATM    5  C6  UNL     1     -40.804   4.851  -0.844  1.00 20.00     0.020 A 
HETATM    6  C4  UNL     1     -40.663   6.106  -0.252  1.00 20.00     0.001 A 
HETATM    7  C3  UNL     1     -41.289   7.218  -0.816  1.00 20.00     0.000 A 
HETATM    8  C5  UNL     1     -42.055   7.074  -1.972  1.00 20.00     0.001 A 
HETATM    9  C7  UNL     1     -42.196   5.819  -2.565  1.00 20.00     0.020 A 
ENDBRANCH   1   4
TORSDOF 1
ENDMDL
MODEL 6
REMARK VINA RESULT:      -4.6     11.195     12.481
REMARK  1 active torsions:
REMARK  status: ('A' for Active; 'I' for Inactive)
REMARK    1  A    between atoms: C1_1  and  C8_8 
ROOT
HETATM    1  C1  UNL     1     -34.735  15.974  -2.187  1.00 20.00    -0.067 C 
HETATM    2  C2  UNL     1     -34.697  16.558  -1.138  1.00 20.00    -0.105 C 
HETATM    3  C9  UNL     1     -34.651  17.271   0.137  1.00 20.00     0.112 C 
ENDROOT
BRANCH   1   4
HETATM    4  C8  UNL     1     -34.781  15.281  -3.436  1.00 20.00     0.017 A 
HETATM    5  C6  UNL     1     -35.234  15.936  -4.581  1.00 20.00     0.020 A 
HETATM    6  C4  UNL     1     -35.279  15.260  -5.800  1.00 20.00     0.001 A 
HETATM    7  C3  UNL     1     -34.871  13.928  -5.874  1.00 20.00     0.000 A 
HETATM    8  C5  UNL     1     -34.418  13.273  -4.729  1.00 20.00     0.001 A 
HETATM    9  C7  UNL     1     -34.374  13.949  -3.510  1.00 20.00     0.020 A 
ENDBRANCH   1   4
TORSDOF 1
ENDMDL
MODEL 7
REMARK VINA RESULT:      -4.5     11.224     12.558
REMARK  1 active torsions:
REMARK  status: ('A' for Active; 'I' for Inactive)
REMARK    1  A    between atoms: C1_1  and  C8_8 
ROOT
HETATM    1  C1  UNL     1     -34.677  15.998  -2.208  1.00 20.00    -0.067 C 
HETATM    2  C2  UNL     1     -34.692  16.553  -1.142  1.00 20.00    -0.105 C 
HETATM    3  C9  UNL     1     -34.711  17.226   0.156  1.00 20.00     0.112 C 
ENDROOT
BRANCH   1   4
HETATM    4  C8  UNL     1     -34.661  15.337  -3.474  1.00 20.00     0.017 A 
HETATM    5  C6  UNL     1     -34.593  13.945  -3.534  1.00 20.00     0.020 A 
HETATM    6  C4  UNL     1     -34.578  13.300  -4.771  1.00 20.00     0.001 A 
HETATM    7  C3  UNL     1     -34.630  14.047  -5.948  1.00 20.00     0.000 A 
HETATM    8  C5  UNL     1     -34.698  15.439  -5.888  1.00 20.00     0.001 A 
HETATM    9  C7  UNL     1     -34.714  16.084  -4.651  1.00 20.00     0.020 A 
ENDBRANCH   1   4
TORSDOF 1
ENDMDL
MODEL 8
REMARK VINA RESULT:      -4.3     11.739     12.478
REMARK  1 active torsions:
REMARK  status: ('A' for Active; 'I' for Inactive)
REMARK    1  A    between atoms: C1_1  and  C8_8 
ROOT
HETATM    1  C1  UNL     1     -34.585  16.433  -1.487  1.00 20.00    -0.067 C 
HETATM    2  C2  UNL     1     -34.861  15.698  -2.396  1.00 20.00    -0.105 C 
HETATM    3  C9  UNL     1     -35.196  14.802  -3.502  1.00 20.00     0.112 C 
ENDROOT
BRANCH   1   4
HETATM    4  C8  UNL     1     -34.255  17.307  -0.405  1.00 20.00     0.017 A 
HETATM    5  C6  UNL     1     -35.076  17.365   0.721  1.00 20.00     0.020 A 
HETATM    6  C4  UNL     1     -34.753  18.217   1.776  1.00 20.00     0.001 A 
HETATM    7  C3  UNL     1     -33.610  19.012   1.706  1.00 20.00     0.000 A 
HETATM    8  C5  UNL     1     -32.788  18.955   0.580  1.00 20.00     0.001 A 
HETATM    9  C7  UNL     1     -33.111  18.102  -0.476  1.00 20.00     0.020 A 
ENDBRANCH   1   4
TORSDOF 1
ENDMDL
MODEL 9
REMARK VINA RESULT:      -4.3     11.364     12.630
REMARK  1 active torsions:
REMARK  status: ('A' for Active; 'I' for Inactive)
REMARK    1  A    between atoms: C1_1  and  C8_8 
ROOT
HETATM    1  C1  UNL     1     -34.563  15.476  -2.782  1.00 20.00    -0.067 C 
HETATM    2  C2  UNL     1     -34.781  14.511  -3.463  1.00 20.00    -0.105 C 
HETATM    3  C9  UNL     1     -35.045  13.335  -4.292  1.00 20.00     0.112 C 
ENDROOT
BRANCH   1   4
HETATM    4  C8  UNL     1     -34.302  16.623  -1.970  1.00 20.00     0.017 A 
HETATM    5  C6  UNL     1     -34.664  16.621  -0.623  1.00 20.00     0.020 A 
HETATM    6  C4  UNL     1     -34.409  17.741   0.169  1.00 20.00     0.001 A 
HETATM    7  C3  UNL     1     -33.793  18.862  -0.386  1.00 20.00     0.000 A 
HETATM    8  C5  UNL     1     -33.431  18.863  -1.733  1.00 20.00     0.001 A 
HETATM    9  C7  UNL     1     -33.686  17.744  -2.525  1.00 20.00     0.020 A 
ENDBRANCH   1   4
TORSDOF 1
ENDMDL
