REMARK  1 active torsions:
REMARK  status: ('A' for Active; 'I' for Inactive)
REMARK    1  A    between atoms: C3_3  and  C8_8 
ROOT
HETATM    1  C1  UNL     1     -31.893   6.907   2.695  1.00 20.00    -0.026 C 
HETATM    2  C2  UNL     1     -33.039   7.543   2.978  1.00 20.00    -0.024 C 
HETATM    3  C4  UNL     1     -33.598   5.382   2.405  1.00 20.00     0.018 C 
HETATM    4  C5  UNL     1     -32.303   5.150   4.395  1.00 20.00     0.029 C 
HETATM    5  C6  UNL     1     -32.144   5.428   2.879  1.00 20.00     0.010 C 
HETATM    6  C7  UNL     1     -34.050   6.489   3.372  1.00 20.00     0.027 C 
HETATM    7  C8  UNL     1     -33.635   5.878   4.733  1.00 20.00     0.052 C 
HETATM    8  C9  UNL     1     -33.529   6.858   5.894  1.00 20.00     0.027 C 
ENDROOT
BRANCH   7   9
HETATM    9  C3  UNL     1     -34.684   4.876   5.203  1.00 20.00     0.182 C 
HETATM   10  O10 UNL     1     -35.404   4.382   4.292  1.00 20.00    -0.647 OA
HETATM   11  O11 UNL     1     -34.697   4.669   6.449  1.00 20.00    -0.647 OA
ENDBRANCH   7   9
TORSDOF 1
