REMARK  1 active torsions:
REMARK  status: ('A' for Active; 'I' for Inactive)
REMARK    1  A    between atoms: C8_8  and  N9_9 
ROOT
HETATM    1  C1  UNL     1     -32.629   6.845   2.473  1.00 20.00     0.158 C 
HETATM    2  N9  UNL     1     -33.266   5.895   2.741  1.00 20.00    -0.270 NA
HETATM    3  S10 UNL     1     -31.770   8.128   2.082  1.00 20.00    -0.055 SA
ENDROOT
BRANCH   2   4
HETATM    4  C8  UNL     1     -33.352   5.593   4.170  1.00 20.00     0.118 C 
HETATM    5  C5  UNL     1     -33.587   4.070   4.378  1.00 20.00     0.036 C 
HETATM    6  C6  UNL     1     -34.954   4.033   5.100  1.00 20.00     0.010 C 
HETATM    7  C2  UNL     1     -34.783   4.674   6.458  1.00 20.00    -0.026 C 
HETATM    8  C4  UNL     1     -35.693   5.171   4.393  1.00 20.00     0.019 C 
HETATM    9  C3  UNL     1     -34.597   5.987   6.257  1.00 20.00    -0.024 C 
HETATM   10  C7  UNL     1     -34.635   6.219   4.764  1.00 20.00     0.033 C 
ENDBRANCH   2   4
TORSDOF 1
