REMARK  1 active torsions:
REMARK  status: ('A' for Active; 'I' for Inactive)
REMARK    1  A    between atoms: C4_4  and  C5_5 
ROOT
HETATM    1  C1  UNL     1     -34.960   5.498   5.727  1.00 20.00     0.029 C 
HETATM    2  C2  UNL     1     -33.819   6.256   5.097  1.00 20.00     0.035 C 
HETATM    3  C3  UNL     1     -35.235   4.428   4.692  1.00 20.00     0.168 C 
HETATM    4  C4  UNL     1     -34.215   6.235   3.631  1.00 20.00     0.131 C 
HETATM    5  O6  UNL     1     -34.885   4.981   3.415  1.00 20.00    -0.385 OA
ENDROOT
BRANCH   4   6
HETATM    6  C5  UNL     1     -33.037   6.360   2.684  1.00 20.00     0.117 C 
HETATM    7 BR7  UNL     1     -32.534   8.228   2.506  1.00 20.00    -0.094 Br
ENDBRANCH   4   6
TORSDOF 1
