REMARK  2 active torsions:
REMARK  status: ('A' for Active; 'I' for Inactive)
REMARK    1  A    between atoms: C3_3  and  O11_11 
REMARK    2  A    between atoms: C8_8  and  O11_11 
ROOT
HETATM    1  C1  UNL     1     -35.926   5.363   4.544  1.00 20.00    -0.025 C 
HETATM    2  C2  UNL     1     -35.308   6.519   4.825  1.00 20.00    -0.023 C 
HETATM    3  C4  UNL     1     -34.073   4.843   5.827  1.00 20.00     0.019 C 
HETATM    4  C5  UNL     1     -33.914   4.414   3.481  1.00 20.00     0.042 C 
HETATM    5  C6  UNL     1     -34.896   4.266   4.667  1.00 20.00     0.011 C 
HETATM    6  C7  UNL     1     -33.863   6.193   5.132  1.00 20.00     0.038 C 
HETATM    7  C8  UNL     1     -33.153   5.721   3.841  1.00 20.00     0.140 C 
ENDROOT
BRANCH   7   8
HETATM    8  O11 UNL     1     -33.228   6.677   2.801  1.00 20.00    -0.316 OA
BRANCH   8   9
HETATM    9  C3  UNL     1     -32.174   7.548   2.706  1.00 20.00     0.255 C 
HETATM   10  C9  UNL     1     -32.390   8.497   1.566  1.00 20.00     0.126 C 
HETATM   11  O10 UNL     1     -31.192   7.565   3.435  1.00 20.00    -0.266 OA
ENDBRANCH   8   9
ENDBRANCH   7   8
TORSDOF 2
