REMARK  0 active torsions:
REMARK  status: ('A' for Active; 'I' for Inactive)
ROOT
HETATM    1  C1  UNL     1     -31.979   7.273   2.485  1.00 20.00     0.136 A 
HETATM    2  C2  UNL     1     -32.732   6.363   1.784  1.00 20.00     0.136 A 
HETATM    3  C3  UNL     1     -33.089   6.713   4.420  1.00 20.00     0.059 A 
HETATM    4  C4  UNL     1     -33.843   5.783   3.713  1.00 20.00     0.059 A 
HETATM    5  C5  UNL     1     -33.235   6.887   5.906  1.00 20.00     0.061 C 
HETATM    6  C6  UNL     1     -34.927   4.977   4.370  1.00 20.00     0.061 C 
HETATM    7  C7  UNL     1     -34.548   6.326   6.449  1.00 20.00     0.006 C 
HETATM    8  C8  UNL     1     -34.801   4.929   5.892  1.00 20.00     0.006 C 
HETATM    9  N9  UNL     1     -32.141   7.461   3.809  1.00 20.00    -0.262 NA
HETATM   10  N10 UNL     1     -33.674   5.609   2.381  1.00 20.00    -0.262 NA
ENDROOT
TORSDOF 0
