REMARK  2 active torsions:
REMARK  status: ('A' for Active; 'I' for Inactive)
REMARK    1  A    between atoms: C3_3  and  C5_5 
REMARK    2  A    between atoms: C5_5  and  C6_6 
ROOT
HETATM    1  C1  UNL     1     -34.898   4.880   4.016  1.00 20.00     0.179 C 
HETATM    2  C2  UNL     1     -34.411   4.666   5.438  1.00 20.00     0.103 C 
HETATM    3  C3  UNL     1     -33.465   6.696   4.111  1.00 20.00     0.182 C 
HETATM    4  O7  UNL     1     -33.877   5.586   3.302  1.00 20.00    -0.375 OA
HETATM    5  S8  UNL     1     -33.690   6.261   5.857  1.00 20.00    -0.135 SA
ENDROOT
BRANCH   3   6
HETATM    6  C5  UNL     1     -32.013   7.014   3.804  1.00 20.00     0.042 C 
BRANCH   6   7
HETATM    7  C6  UNL     1     -31.812   7.351   2.327  1.00 20.00    -0.001 C 
HETATM    8  C4  UNL     1     -32.659   8.541   1.903  1.00 20.00     0.005 C 
ENDBRANCH   6   7
ENDBRANCH   3   6
TORSDOF 2
