REMARK  2 active torsions:
REMARK  status: ('A' for Active; 'I' for Inactive)
REMARK    1  A    between atoms: C3_3  and  C5_5 
REMARK    2  A    between atoms: C5_5  and  C6_6 
ROOT
HETATM    1  C1  UNL     1     -34.775   4.433   6.155  1.00 20.00     0.179 C 
HETATM    2  C2  UNL     1     -34.963   5.755   6.879  1.00 20.00     0.103 C 
HETATM    3  C3  UNL     1     -33.463   5.725   4.751  1.00 20.00     0.182 C 
HETATM    4  O7  UNL     1     -34.486   4.720   4.782  1.00 20.00    -0.375 OA
HETATM    5  S8  UNL     1     -33.615   6.758   6.233  1.00 20.00    -0.135 SA
ENDROOT
BRANCH   3   6
HETATM    6  C5  UNL     1     -33.621   6.546   3.485  1.00 20.00     0.042 C 
BRANCH   6   7
HETATM    7  C6  UNL     1     -32.323   7.262   3.114  1.00 20.00    -0.001 C 
HETATM    8  C4  UNL     1     -32.473   8.063   1.830  1.00 20.00     0.005 C 
ENDBRANCH   6   7
ENDBRANCH   3   6
TORSDOF 2
