REMARK  0 active torsions:
REMARK  status: ('A' for Active; 'I' for Inactive)
ROOT
HETATM    1  C1  UNL     1     -32.699   7.372   3.088  1.00 20.00     0.075 C 
HETATM    2  C2  UNL     1     -35.352   4.649   5.605  1.00 20.00     0.084 C 
HETATM    3  C3  UNL     1     -35.088   4.200   4.177  1.00 20.00     0.085 C 
HETATM    4  C4  UNL     1     -33.490   6.678   5.307  1.00 20.00     0.104 C 
HETATM    5  C5  UNL     1     -33.215   6.234   3.869  1.00 20.00     0.163 C 
HETATM    6  N6  UNL     1     -32.292   8.267   2.473  1.00 20.00    -0.196 NA
HETATM    7  S7  UNL     1     -33.863   5.291   6.425  1.00 20.00    -0.166 SA
HETATM    8  S8  UNL     1     -34.724   5.587   3.060  1.00 20.00    -0.148 SA
ENDROOT
TORSDOF 0
