REMARK  0 active torsions:
REMARK  status: ('A' for Active; 'I' for Inactive)
ROOT
HETATM    1  C1  UNL     1     -34.635   4.855   5.111  1.00 20.00     0.056 A 
HETATM    2  C2  UNL     1     -35.711   4.846   4.248  1.00 20.00     0.077 A 
HETATM    3  C3  UNL     1     -33.881   6.285   3.629  1.00 20.00     0.072 A 
HETATM    4  C4  UNL     1     -34.503   4.077   6.361  1.00 20.00     0.072 C 
HETATM    5  C5  UNL     1     -32.995   7.247   2.938  1.00 20.00     0.079 C 
HETATM    6  N6  UNL     1     -33.585   5.680   4.757  1.00 20.00    -0.249 NA
HETATM    7  S7  UNL     1     -35.406   5.910   2.938  1.00 20.00    -0.066 SA
HETATM    8 BR8  UNL     1     -37.299   3.832   4.440  1.00 20.00    -0.041 Br
ENDROOT
TORSDOF 0
