REMARK  0 active torsions:
REMARK  status: ('A' for Active; 'I' for Inactive)
ROOT
HETATM    1  C1  UNL     1     -32.328   6.326   3.165  1.00 20.00    -0.030 C 
HETATM    2  C2  UNL     1     -33.141   5.830   2.203  1.00 20.00    -0.029 C 
HETATM    3  C3  UNL     1     -35.089   5.588   5.770  1.00 20.00     0.224 C 
HETATM    4  C4  UNL     1     -32.701   6.373   4.647  1.00 20.00     0.043 C 
HETATM    5  C5  UNL     1     -34.502   5.196   2.491  1.00 20.00     0.053 C 
HETATM    6  C6  UNL     1     -34.200   6.206   4.695  1.00 20.00     0.104 C 
HETATM    7  C7  UNL     1     -34.482   4.873   3.963  1.00 20.00     0.101 C 
HETATM    8  N8  UNL     1     -35.673   4.806   4.793  1.00 20.00    -0.355 N 
HETATM    9  O9  UNL     1     -35.295   5.728   6.951  1.00 20.00    -0.273 OA
HETATM   10  H18 UNL     1     -36.352   4.069   4.934  1.00 20.00     0.162 HD
ENDROOT
TORSDOF 0
