REMARK  0 active torsions:
REMARK  status: ('A' for Active; 'I' for Inactive)
ROOT
HETATM    1  C1  UNL     1     -35.229   4.858   3.715  1.00 20.00     0.029 C 
HETATM    2  C2  UNL     1     -34.778   6.295   3.459  1.00 20.00     0.048 C 
HETATM    3  C3  UNL     1     -35.071   4.488   5.182  1.00 20.00     0.170 C 
HETATM    4  C4  UNL     1     -33.305   6.095   5.519  1.00 20.00     0.255 C 
HETATM    5  C5  UNL     1     -33.390   6.559   4.053  1.00 20.00     0.152 C 
HETATM    6  O6  UNL     1     -33.751   4.739   5.664  1.00 20.00    -0.367 OA
HETATM    7 CL7  UNL     1     -34.208   7.143   6.665  1.00 20.00    -0.092 Cl
HETATM    8 CL8  UNL     1     -32.153   5.642   3.098  1.00 20.00    -0.098 Cl
HETATM    9 CL9  UNL     1     -32.972   8.297   3.873  1.00 20.00    -0.098 Cl
ENDROOT
TORSDOF 0
