REMARK  0 active torsions:
REMARK  status: ('A' for Active; 'I' for Inactive)
ROOT
HETATM    1  C1  UNL     1     -34.679   4.154   6.321  1.00 20.00     0.038 A 
HETATM    2  C2  UNL     1     -34.270   4.457   3.970  1.00 20.00     0.058 A 
HETATM    3  C3  UNL     1     -34.112   5.401   6.525  1.00 20.00     0.119 A 
HETATM    4  C4  UNL     1     -34.755   3.680   5.016  1.00 20.00     0.015 A 
HETATM    5  C5  UNL     1     -33.722   5.691   4.280  1.00 20.00     0.104 A 
HETATM    6  N6  UNL     1     -33.630   6.185   5.535  1.00 20.00    -0.254 NA
HETATM    7 BR7  UNL     1     -35.517   1.987   4.666  1.00 20.00    -0.051 Br
HETATM    8 BR8  UNL     1     -33.054   6.771   2.867  1.00 20.00    -0.029 Br
ENDROOT
TORSDOF 0
