REMARK  0 active torsions:
REMARK  status: ('A' for Active; 'I' for Inactive)
ROOT
HETATM    1  C1  UNL     1     -34.447   4.193   6.379  1.00 20.00    -0.028 C 
HETATM    2  C2  UNL     1     -34.681   3.939   5.088  1.00 20.00    -0.023 C 
HETATM    3  C3  UNL     1     -32.950   6.190   3.665  1.00 20.00     0.259 C 
HETATM    4  C4  UNL     1     -34.547   5.652   6.686  1.00 20.00     0.060 C 
HETATM    5  C5  UNL     1     -34.114   5.424   3.113  1.00 20.00     0.122 C 
HETATM    6  C6  UNL     1     -34.991   5.191   4.321  1.00 20.00     0.047 C 
HETATM    7  C7  UNL     1     -34.578   6.284   5.294  1.00 20.00     0.143 C 
HETATM    8  O8  UNL     1     -31.896   6.391   3.080  1.00 20.00    -0.265 OA
HETATM    9  O9  UNL     1     -33.247   6.669   4.908  1.00 20.00    -0.315 OA
ENDROOT
TORSDOF 0
