REMARK  3 active torsions:
REMARK  status: ('A' for Active; 'I' for Inactive)
REMARK    1  A    between atoms: C2_2  and  C5_5 
REMARK    2  A    between atoms: C2_2  and  O10_10 
REMARK    3  A    between atoms: C7_7  and  O10_10 
ROOT
HETATM    1  C1  UNL     1     -32.502   8.840   1.592  1.00 20.00     0.065 C 
HETATM    2  C3  UNL     1     -31.542   7.241   3.300  1.00 20.00     0.036 A 
HETATM    3  C4  UNL     1     -32.306   7.488   2.029  1.00 20.00     0.107 A 
HETATM    4  C5  UNL     1     -33.028   7.016   3.269  1.00 20.00     0.104 A 
HETATM    5  N8  UNL     1     -32.660   9.933   1.238  1.00 20.00    -0.197 NA
ENDROOT
BRANCH   4   6
HETATM    6  C2  UNL     1     -33.547   5.643   3.315  1.00 20.00     0.264 C 
HETATM    7  O9  UNL     1     -33.008   4.688   2.772  1.00 20.00    -0.265 OA
BRANCH   6   8
HETATM    8  O10 UNL     1     -34.699   5.616   4.043  1.00 20.00    -0.322 OA
BRANCH   8   9
HETATM    9  C7  UNL     1     -34.675   4.773   5.200  1.00 20.00     0.174 C 
HETATM   10  C6  UNL     1     -34.194   5.580   6.387  1.00 20.00     0.034 C 
ENDBRANCH   8   9
ENDBRANCH   6   8
ENDBRANCH   4   6
TORSDOF 3
