REMARK  0 active torsions:
REMARK  status: ('A' for Active; 'I' for Inactive)
ROOT
HETATM    1  C1  UNL     1     -34.925   4.804   6.468  1.00 20.00     0.006 C 
HETATM    2  C2  UNL     1     -34.891   6.331   6.565  1.00 20.00     0.006 C 
HETATM    3  C3  UNL     1     -33.770   4.412   5.552  1.00 20.00     0.068 C 
HETATM    4  C4  UNL     1     -33.724   6.786   5.693  1.00 20.00     0.068 C 
HETATM    5  C5  UNL     1     -33.790   5.520   2.454  1.00 20.00     0.197 C 
HETATM    6  C6  UNL     1     -32.421   6.055   2.779  1.00 20.00     0.197 C 
HETATM    7  C7  UNL     1     -33.536   5.649   4.696  1.00 20.00     0.164 C 
HETATM    8  O8  UNL     1     -34.522   5.739   3.658  1.00 20.00    -0.353 OA
HETATM    9  O9  UNL     1     -32.225   5.651   4.133  1.00 20.00    -0.353 OA
ENDROOT
TORSDOF 0
