REMARK  0 active torsions:
REMARK  status: ('A' for Active; 'I' for Inactive)
ROOT
HETATM    1  C1  UNL     1     -34.317   5.489   6.965  1.00 20.00     0.000 C 
HETATM    2  C2  UNL     1     -33.631   6.764   6.905  1.00 20.00     0.017 C 
HETATM    3  C3  UNL     1     -34.792   4.911   5.847  1.00 20.00     0.010 C 
HETATM    4  C4  UNL     1     -33.277   7.259   5.708  1.00 20.00     0.092 C 
HETATM    5  C5  UNL     1     -33.144   5.656   2.473  1.00 20.00     0.072 C 
HETATM    6  C6  UNL     1     -32.902   6.681   3.311  1.00 20.00     0.015 C 
HETATM    7  C7  UNL     1     -34.674   5.598   4.516  1.00 20.00     0.178 C 
HETATM    8  C8  UNL     1     -31.935   7.780   3.011  1.00 20.00     0.069 C 
HETATM    9  N9  UNL     1     -33.599   6.620   4.522  1.00 20.00    -0.343 N 
HETATM   10  S10 UNL     1     -34.250   4.476   3.131  1.00 20.00    -0.110 SA
ENDROOT
TORSDOF 0
