REMARK  1 active torsions:
REMARK  status: ('A' for Active; 'I' for Inactive)
REMARK    1  A    between atoms: C9_9  and  C10_10 
ROOT
HETATM    1  C1  UNL     1     -34.328   8.161   2.511  1.00 20.00     0.015 C 
HETATM    2  C2  UNL     1     -31.939   7.301   2.314  1.00 20.00     0.015 C 
HETATM    3  C5  UNL     1     -34.183   9.133   1.347  1.00 20.00     0.074 C 
HETATM    4  C6  UNL     1     -31.602   8.204   1.134  1.00 20.00     0.074 C 
HETATM    5  C9  UNL     1     -33.426   6.924   2.384  1.00 20.00    -0.009 C 
HETATM    6  S11 UNL     1     -32.494   9.782   1.214  1.00 20.00    -0.169 SA
ENDROOT
BRANCH   5   7
HETATM    7  C10 UNL     1     -33.672   5.971   3.555  1.00 20.00    -0.009 C 
HETATM    8  C3  UNL     1     -33.805   6.765   4.863  1.00 20.00     0.015 C 
HETATM    9  C7  UNL     1     -33.993   5.879   6.088  1.00 20.00     0.074 C 
HETATM   10  S12 UNL     1     -35.505   4.883   5.976  1.00 20.00    -0.169 SA
HETATM   11  C8  UNL     1     -35.188   4.086   4.378  1.00 20.00     0.074 C 
HETATM   12  C4  UNL     1     -34.910   5.105   3.280  1.00 20.00     0.015 C 
ENDBRANCH   5   7
TORSDOF 1
