REMARK  0 active torsions:
REMARK  status: ('A' for Active; 'I' for Inactive)
ROOT
HETATM    1  C1  UNL     1     -34.060   6.491   3.542  1.00 20.00     0.197 C 
HETATM    2  C2  UNL     1     -35.142   5.458   3.387  1.00 20.00     0.197 C 
HETATM    3  C3  UNL     1     -34.391   5.446   5.526  1.00 20.00     0.156 C 
HETATM    4  C4  UNL     1     -34.762   6.358   6.689  1.00 20.00     0.078 C 
HETATM    5  C5  UNL     1     -33.853   4.109   6.021  1.00 20.00     0.078 C 
HETATM    6  O6  UNL     1     -33.380   6.081   4.728  1.00 20.00    -0.354 OA
HETATM    7  O7  UNL     1     -35.565   5.219   4.729  1.00 20.00    -0.354 OA
ENDROOT
TORSDOF 0
