REMARK  2 active torsions:
REMARK  status: ('A' for Active; 'I' for Inactive)
REMARK    1  A    between atoms: C5_5  and  C6_6 
REMARK    2  A    between atoms: C6_6  and  N8_8 
ROOT
HETATM    1  C1  UNL     1     -34.450   4.180   6.324  1.00 20.00     0.135 A 
HETATM    2  C2  UNL     1     -33.925   5.423   6.058  1.00 20.00     0.111 A 
HETATM    3  C3  UNL     1     -34.839   4.532   4.261  1.00 20.00     0.209 A 
HETATM    4  N7  UNL     1     -35.016   3.631   5.201  1.00 20.00    -0.255 NA
HETATM    5  N8  UNL     1     -34.182   5.635   4.732  1.00 20.00    -0.350 N 
ENDROOT
BRANCH   5   6
HETATM    6  C6  UNL     1     -33.822   6.819   3.961  1.00 20.00     0.129 C 
BRANCH   6   7
HETATM    7  C5  UNL     1     -32.599   6.581   3.079  1.00 20.00     0.016 C 
HETATM    8  C4  UNL     1     -32.232   7.828   2.292  1.00 20.00     0.006 C 
ENDBRANCH   6   7
ENDBRANCH   5   6
TORSDOF 2
