REMARK  0 active torsions:
REMARK  status: ('A' for Active; 'I' for Inactive)
ROOT
HETATM    1  C1  UNL     1     -34.055   6.065   2.612  1.00 20.00    -0.007 C 
HETATM    2  C2  UNL     1     -33.080   6.854   3.082  1.00 20.00     0.008 C 
HETATM    3  C3  UNL     1     -34.669   4.959   3.414  1.00 20.00     0.035 C 
HETATM    4  C4  UNL     1     -32.485   6.725   4.451  1.00 20.00     0.058 C 
HETATM    5  C5  UNL     1     -34.799   4.071   5.773  1.00 20.00     0.172 C 
HETATM    6  C6  UNL     1     -34.419   6.351   6.116  1.00 20.00     0.172 C 
HETATM    7  C7  UNL     1     -33.871   4.569   4.674  1.00 20.00     0.019 C 
HETATM    8  C8  UNL     1     -33.230   5.760   5.371  1.00 20.00     0.021 C 
HETATM    9  O9  UNL     1     -35.259   5.240   6.477  1.00 20.00    -0.390 OA
HETATM   10 CL10 UNL     1     -32.427   8.116   2.098  1.00 20.00    -0.089 Cl
ENDROOT
TORSDOF 0
