REMARK  0 active torsions:
REMARK  status: ('A' for Active; 'I' for Inactive)
ROOT
HETATM    1  C1  UNL     1     -34.047   5.342   2.634  1.00 20.00     0.089 A 
HETATM    2  C2  UNL     1     -32.885   6.901   4.170  1.00 20.00     0.089 A 
HETATM    3  C3  UNL     1     -34.292   5.067   3.956  1.00 20.00     0.109 A 
HETATM    4  C4  UNL     1     -33.652   5.975   4.833  1.00 20.00     0.109 A 
HETATM    5  C5  UNL     1     -34.895   3.794   5.767  1.00 20.00     0.202 C 
HETATM    6  C6  UNL     1     -34.859   5.096   6.574  1.00 20.00     0.202 C 
HETATM    7  O7  UNL     1     -35.080   4.044   4.363  1.00 20.00    -0.346 OA
HETATM    8  O8  UNL     1     -33.759   5.934   6.181  1.00 20.00    -0.346 OA
HETATM    9  S9  UNL     1     -32.989   6.688   2.467  1.00 20.00    -0.108 SA
ENDROOT
TORSDOF 0
