REMARK  0 active torsions:
REMARK  status: ('A' for Active; 'I' for Inactive)
ROOT
HETATM    1  C1  UNL     1     -34.118   6.013   5.617  1.00 20.00     0.226 C 
HETATM    2  C2  UNL     1     -33.120   4.807   3.795  1.00 20.00     0.043 C 
HETATM    3  C3  UNL     1     -32.424   6.156   3.961  1.00 20.00     0.081 C 
HETATM    4  C4  UNL     1     -34.419   4.899   4.624  1.00 20.00     0.035 C 
HETATM    5  C5  UNL     1     -32.608   7.092   2.776  1.00 20.00     0.032 C 
HETATM    6  C6  UNL     1     -34.708   3.588   5.354  1.00 20.00     0.025 C 
HETATM    7  C7  UNL     1     -35.624   5.298   3.768  1.00 20.00     0.025 C 
HETATM    8  N8  UNL     1     -33.000   6.698   5.164  1.00 20.00    -0.356 N 
HETATM    9  O9  UNL     1     -34.772   6.271   6.617  1.00 20.00    -0.273 OA
HETATM   10  H22 UNL     1     -32.617   7.517   5.643  1.00 20.00     0.162 HD
ENDROOT
TORSDOF 0
