REMARK  1 active torsions:
REMARK  status: ('A' for Active; 'I' for Inactive)
REMARK    1  A    between atoms: C3_3  and  O11_11 
ROOT
HETATM    1  C1  UNL     1     -33.238   6.898   5.835  1.00 20.00    -0.019 A 
HETATM    2  C2  UNL     1     -32.567   7.466   4.757  1.00 20.00    -0.029 A 
HETATM    3  C3  UNL     1     -33.988   5.742   5.649  1.00 20.00     0.096 A 
HETATM    4  C4  UNL     1     -32.678   6.844   3.524  1.00 20.00     0.037 A 
HETATM    5  C5  UNL     1     -34.035   5.198   4.375  1.00 20.00     0.064 A 
HETATM    6  C6  UNL     1     -33.157   7.523   7.190  1.00 20.00     0.052 C 
HETATM    7  C7  UNL     1     -31.755   8.706   4.926  1.00 20.00     0.051 C 
HETATM    8  C8  UNL     1     -31.979   7.408   2.330  1.00 20.00     0.071 C 
HETATM    9  C9  UNL     1     -34.827   3.957   4.119  1.00 20.00     0.073 C 
HETATM   10  N10 UNL     1     -33.397   5.721   3.305  1.00 20.00    -0.255 NA
ENDROOT
BRANCH   3  11
HETATM   11  O11 UNL     1     -34.654   5.165   6.683  1.00 20.00    -0.358 OA
HETATM   12  H24 UNL     1     -35.125   4.371   6.382  1.00 20.00     0.217 HD
ENDBRANCH   3  11
TORSDOF 1
