REMARK  0 active torsions:
REMARK  status: ('A' for Active; 'I' for Inactive)
ROOT
HETATM    1  C1  UNL     1     -35.196   4.242   4.601  1.00 20.00    -0.024 C 
HETATM    2  C2  UNL     1     -34.090   4.398   5.356  1.00 20.00    -0.083 C 
HETATM    3  C3  UNL     1     -35.517   5.217   3.486  1.00 20.00     0.033 C 
HETATM    4  C4  UNL     1     -34.162   6.870   4.864  1.00 20.00     0.015 C 
HETATM    5  C5  UNL     1     -33.245   5.604   5.034  1.00 20.00     0.022 C 
HETATM    6  C6  UNL     1     -34.422   6.304   3.428  1.00 20.00    -0.002 C 
HETATM    7  C7  UNL     1     -32.923   5.771   3.481  1.00 20.00    -0.036 C 
HETATM    8  C8  UNL     1     -33.671   3.489   6.459  1.00 20.00     0.043 C 
HETATM    9  C9  UNL     1     -32.594   4.510   2.672  1.00 20.00     0.016 C 
HETATM   10  C10 UNL     1     -31.843   6.822   3.155  1.00 20.00     0.016 C 
ENDROOT
TORSDOF 0
