REMARK  1 active torsions:
REMARK  status: ('A' for Active; 'I' for Inactive)
REMARK    1  A    between atoms: C3_3  and  N6_6 
ROOT
HETATM    1  C1  UNL     1     -34.381   4.952   3.448  1.00 20.00     0.123 C 
HETATM    2  C2  UNL     1     -33.089   6.577   5.044  1.00 20.00     0.123 C 
HETATM    3  C3  UNL     1     -33.813   6.365   3.697  1.00 20.00     0.242 C 
HETATM    4  S7  UNL     1     -35.755   4.513   4.564  1.00 20.00    -0.084 SA
HETATM    5  S8  UNL     1     -34.196   6.473   6.490  1.00 20.00    -0.084 SA
HETATM    6  S9  UNL     1     -34.766   4.515   6.353  1.00 20.00    -0.025 SA
ENDROOT
BRANCH   3   7
HETATM    7  N6  UNL     1     -32.859   6.645   2.613  1.00 20.00     0.086 N 
HETATM    8  C4  UNL     1     -31.580   5.997   2.888  1.00 20.00     0.310 C 
HETATM    9  C5  UNL     1     -32.685   8.086   2.456  1.00 20.00     0.310 C 
ENDBRANCH   3   7
TORSDOF 1
