REMARK  0 active torsions:
REMARK  status: ('A' for Active; 'I' for Inactive)
ROOT
HETATM    1  C1  UNL     1     -33.541   6.082   5.511  1.00 20.00    -0.017 C 
HETATM    2  C2  UNL     1     -34.604   5.101   5.113  1.00 20.00     0.155 C 
HETATM    3  C3  UNL     1     -33.400   6.496   6.774  1.00 20.00     0.023 C 
HETATM    4  C4  UNL     1     -34.665   4.796   3.619  1.00 20.00     0.089 C 
HETATM    5  C5  UNL     1     -32.194   5.375   3.517  1.00 20.00     0.016 C 
HETATM    6  C6  UNL     1     -32.646   6.579   4.417  1.00 20.00     0.030 C 
HETATM    7  C7  UNL     1     -33.581   5.544   2.818  1.00 20.00     0.002 C 
HETATM    8  C8  UNL     1     -33.438   7.094   3.135  1.00 20.00    -0.036 C 
HETATM    9  C9  UNL     1     -32.577   7.881   2.128  1.00 20.00     0.016 C 
HETATM   10  C10 UNL     1     -34.732   7.885   3.360  1.00 20.00     0.016 C 
HETATM   11  O11 UNL     1     -35.371   4.586   5.920  1.00 20.00    -0.293 OA
ENDROOT
TORSDOF 0
