REMARK  1 active torsions:
REMARK  status: ('A' for Active; 'I' for Inactive)
REMARK    1  A    between atoms: C4_4  and  C6_6 
REMARK       I    between atoms: C4_4  and  N8_8 
ROOT
HETATM    1  C1  UNL     1     -34.394   6.186   6.633  1.00 20.00     0.135 A 
HETATM    2  C2  UNL     1     -33.536   6.555   5.624  1.00 20.00     0.120 A 
HETATM    3  C3  UNL     1     -34.990   5.060   4.935  1.00 20.00     0.216 A 
HETATM    4  C4  UNL     1     -33.372   5.830   3.235  1.00 20.00     0.228 C 
HETATM    5  N7  UNL     1     -35.296   5.256   6.198  1.00 20.00    -0.254 NA
HETATM    6  N8  UNL     1     -33.920   5.826   4.521  1.00 20.00    -0.286 N 
HETATM    7  O9  UNL     1     -33.854   5.103   2.378  1.00 20.00    -0.273 OA
ENDROOT
BRANCH   4   8
HETATM    8  C6  UNL     1     -32.209   6.752   3.029  1.00 20.00     0.099 C 
HETATM    9  C5  UNL     1     -32.689   8.102   2.545  1.00 20.00     0.014 C 
ENDBRANCH   4   8
TORSDOF 1
