REMARK  1 active torsions:
REMARK  status: ('A' for Active; 'I' for Inactive)
REMARK    1  A    between atoms: C11_11  and  C12_12 
ROOT
HETATM    1  C1  UNL     1     -32.314   8.576   2.587  1.00 20.00     0.059 C 
HETATM    2  C12 UNL     1     -32.284   8.108   3.966  1.00 20.00     0.133 C 
HETATM    3  N13 UNL     1     -32.319   8.976   1.498  1.00 20.00    -0.197 NA
ENDROOT
BRANCH   2   4
HETATM    4  C11 UNL     1     -33.082   6.802   3.932  1.00 20.00    -0.027 C 
HETATM    5  C5  UNL     1     -32.417   5.791   2.968  1.00 20.00     0.015 C 
HETATM    6  C8  UNL     1     -33.217   4.476   2.933  1.00 20.00    -0.013 C 
HETATM    7  C2  UNL     1     -33.266   3.875   4.347  1.00 20.00     0.009 C 
HETATM    8  C3  UNL     1     -34.649   4.768   2.456  1.00 20.00     0.009 C 
HETATM    9  C9  UNL     1     -33.943   4.860   5.315  1.00 20.00    -0.013 C 
HETATM   10  C4  UNL     1     -35.371   5.150   4.827  1.00 20.00     0.009 C 
HETATM   11  C6  UNL     1     -33.141   6.173   5.345  1.00 20.00     0.015 C 
HETATM   12  C10 UNL     1     -35.333   5.757   3.415  1.00 20.00    -0.013 C 
HETATM   13  C7  UNL     1     -34.527   7.068   3.449  1.00 20.00     0.015 C 
ENDBRANCH   2   4
TORSDOF 1
