REMARK  1 active torsions:
REMARK  status: ('A' for Active; 'I' for Inactive)
REMARK    1  A    between atoms: C1_1  and  C10_10 
ROOT
HETATM    1  C2  UNL     1     -35.070   4.260   4.701  1.00 20.00     0.009 C 
HETATM    2  C3  UNL     1     -35.739   6.579   3.963  1.00 20.00     0.010 C 
HETATM    3  C4  UNL     1     -34.626   6.278   6.149  1.00 20.00     0.010 C 
HETATM    4  C5  UNL     1     -33.914   5.598   2.898  1.00 20.00     0.022 C 
HETATM    5  C6  UNL     1     -32.799   5.295   5.086  1.00 20.00     0.022 C 
HETATM    6  C7  UNL     1     -35.275   5.205   3.478  1.00 20.00    -0.013 C 
HETATM    7  C8  UNL     1     -34.114   4.891   5.757  1.00 20.00    -0.013 C 
HETATM    8  C9  UNL     1     -34.528   7.014   4.803  1.00 20.00     0.002 C 
HETATM    9  C10 UNL     1     -33.301   6.345   4.089  1.00 20.00     0.024 C 
ENDROOT
BRANCH   9  10
HETATM   10  C1  UNL     1     -32.249   7.320   3.673  1.00 20.00     0.132 C 
HETATM   11  C11 UNL     1     -31.581   8.105   4.769  1.00 20.00     0.091 C 
HETATM   12  O12 UNL     1     -31.941   7.472   2.492  1.00 20.00    -0.298 OA
ENDBRANCH   9  10
TORSDOF 1
