REMARK  2 active torsions:
REMARK  status: ('A' for Active; 'I' for Inactive)
REMARK    1  A    between atoms: C2_2  and  C4_4 
REMARK    2  A    between atoms: C4_4  and  O5_5 
ROOT
HETATM    1  C1  UNL     1     -34.076   6.982   4.783  1.00 20.00     0.052 A 
HETATM    2  C2  UNL     1     -33.705   5.609   5.272  1.00 20.00     0.051 A 
HETATM    3  C3  UNL     1     -33.333   6.038   3.871  1.00 20.00     0.119 A 
HETATM    4 CL6  UNL     1     -34.188   5.387   2.479  1.00 20.00    -0.101 Cl
HETATM    5 CL7  UNL     1     -31.633   6.380   3.545  1.00 20.00    -0.101 Cl
ENDROOT
BRANCH   2   6
HETATM    6  C4  UNL     1     -34.772   4.605   5.552  1.00 20.00     0.172 C 
BRANCH   6   7
HETATM    7  O5  UNL     1     -35.793   4.693   4.559  1.00 20.00    -0.400 OA
HETATM    8  H13 UNL     1     -36.456   4.024   4.788  1.00 20.00     0.209 HD
ENDBRANCH   6   7
ENDBRANCH   2   6
TORSDOF 2
