REMARK  2 active torsions:
REMARK  status: ('A' for Active; 'I' for Inactive)
REMARK    1  A    between atoms: C3_3  and  C10_10 
REMARK    2  A    between atoms: C5_5  and  C10_10 
ROOT
HETATM    1  C1  UNL     1     -33.648   6.719   5.990  1.00 20.00    -0.023 C 
HETATM    2  C2  UNL     1     -33.870   5.453   5.614  1.00 20.00    -0.079 C 
HETATM    3  C4  UNL     1     -33.784   7.673   4.850  1.00 20.00     0.033 C 
HETATM    4  C5  UNL     1     -33.700   6.749   3.619  1.00 20.00     0.007 C 
HETATM    5  C6  UNL     1     -34.203   5.360   4.136  1.00 20.00    -0.021 C 
HETATM    6  C7  UNL     1     -33.861   4.269   6.518  1.00 20.00     0.044 C 
HETATM    7  C8  UNL     1     -35.731   5.254   3.956  1.00 20.00     0.020 C 
HETATM    8  C9  UNL     1     -33.541   4.162   3.443  1.00 20.00     0.020 C 
ENDROOT
BRANCH   4   9
HETATM    9  C10 UNL     1     -32.268   6.754   3.066  1.00 20.00     0.075 C 
BRANCH   9  10
HETATM   10  C3  UNL     1     -31.971   7.984   2.249  1.00 20.00     0.231 C 
HETATM   11  O11 UNL     1     -32.758   8.904   2.052  1.00 20.00    -0.307 OA
ENDBRANCH   9  10
ENDBRANCH   4   9
TORSDOF 2
