REMARK  0 active torsions:
REMARK  status: ('A' for Active; 'I' for Inactive)
ROOT
HETATM    1  C1  UNL     1     -33.236   6.278   3.076  1.00 20.00    -0.080 C 
HETATM    2  C2  UNL     1     -32.249   7.048   2.606  1.00 20.00     0.015 C 
HETATM    3  C3  UNL     1     -33.833   5.100   2.335  1.00 20.00     0.039 C 
HETATM    4  C4  UNL     1     -36.018   5.688   3.372  1.00 20.00     0.007 C 
HETATM    5  C5  UNL     1     -35.367   6.881   4.102  1.00 20.00     0.015 C 
HETATM    6  C6  UNL     1     -34.888   4.630   3.363  1.00 20.00    -0.002 C 
HETATM    7  C7  UNL     1     -33.944   6.357   4.433  1.00 20.00    -0.014 C 
HETATM    8  C8  UNL     1     -34.186   4.846   4.732  1.00 20.00    -0.033 C 
HETATM    9  C9  UNL     1     -33.253   7.156   5.525  1.00 20.00     0.021 C 
HETATM   10  C10 UNL     1     -35.090   4.548   5.946  1.00 20.00     0.016 C 
HETATM   11  C11 UNL     1     -32.906   4.005   4.930  1.00 20.00     0.016 C 
ENDROOT
TORSDOF 0
