REMARK  2 active torsions:
REMARK  status: ('A' for Active; 'I' for Inactive)
REMARK    1  A    between atoms: C1_1  and  C7_7 
REMARK    2  A    between atoms: C7_7  and  S10_10 
ROOT
HETATM    1  C1  UNL     1     -34.081   6.653   4.945  1.00 20.00     0.009 A 
HETATM    2  C2  UNL     1     -34.801   5.460   4.755  1.00 20.00     0.068 A 
HETATM    3  C3  UNL     1     -33.644   6.566   6.240  1.00 20.00     0.084 A 
HETATM    4  C4  UNL     1     -35.502   5.006   3.543  1.00 20.00     0.073 C 
HETATM    5  C5  UNL     1     -32.843   7.441   7.106  1.00 20.00     0.079 C 
HETATM    6  N8  UNL     1     -34.810   4.694   5.849  1.00 20.00    -0.133 NA
HETATM    7  O9  UNL     1     -34.072   5.402   6.790  1.00 20.00    -0.217 OA
ENDROOT
BRANCH   1   8
HETATM    8  C7  UNL     1     -33.843   7.765   3.961  1.00 20.00     0.116 C 
BRANCH   8   9
HETATM    9  S10 UNL     1     -32.584   7.335   2.737  1.00 20.00    -0.169 SA
HETATM   10  C6  UNL     1     -32.598   8.873   1.785  1.00 20.00     0.090 C 
ENDBRANCH   8   9
ENDBRANCH   1   8
TORSDOF 2
