REMARK  2 active torsions:
REMARK  status: ('A' for Active; 'I' for Inactive)
REMARK    1  A    between atoms: C1_1  and  C6_6 
REMARK    2  A    between atoms: C7_7  and  C9_9 
ROOT
HETATM    1  C2  UNL     1     -34.743   7.132   4.012  1.00 20.00     0.015 C 
HETATM    2  C3  UNL     1     -32.649   5.736   4.209  1.00 20.00     0.015 C 
HETATM    3  C4  UNL     1     -34.228   7.723   2.701  1.00 20.00     0.005 C 
HETATM    4  C5  UNL     1     -32.130   6.325   2.899  1.00 20.00     0.005 C 
HETATM    5  C6  UNL     1     -34.173   5.739   4.251  1.00 20.00     0.087 C 
HETATM    6  C7  UNL     1     -32.694   7.731   2.647  1.00 20.00    -0.015 C 
ENDROOT
BRANCH   5   7
HETATM    7  C1  UNL     1     -34.596   5.300   5.640  1.00 20.00     0.177 C 
HETATM    8  O10 UNL     1     -34.194   6.036   6.583  1.00 20.00    -0.648 OA
HETATM    9  O11 UNL     1     -35.299   4.252   5.673  1.00 20.00    -0.648 OA
ENDBRANCH   5   7
BRANCH   6  10
HETATM   10  C9  UNL     1     -32.204   8.276   1.307  1.00 20.00     0.000 C 
HETATM   11  C8  UNL     1     -32.707   9.660   1.058  1.00 20.00     0.005 C 
ENDBRANCH   6  10
TORSDOF 2
