REMARK  2 active torsions:
REMARK  status: ('A' for Active; 'I' for Inactive)
REMARK    1  A    between atoms: C3_3  and  C9_9 
REMARK    2  A    between atoms: C4_4  and  C10_10 
ROOT
HETATM    1  C1  UNL     1     -31.353   8.586   3.100  1.00 20.00     0.009 A 
HETATM    2  C2  UNL     1     -31.625   7.551   3.890  1.00 20.00     0.009 A 
HETATM    3  C3  UNL     1     -32.273   8.591   1.926  1.00 20.00     0.076 A 
HETATM    4  C4  UNL     1     -32.755   6.758   3.326  1.00 20.00     0.076 A 
HETATM    5  C5  UNL     1     -31.517   8.422   0.611  1.00 20.00     0.050 C 
HETATM    6  C6  UNL     1     -32.328   5.337   2.967  1.00 20.00     0.050 C 
HETATM    7  O11 UNL     1     -33.130   7.438   2.104  1.00 20.00    -0.362 OA
ENDROOT
BRANCH   3   8
HETATM    8  C9  UNL     1     -33.153   9.838   1.899  1.00 20.00     0.037 C 
HETATM    9  C7  UNL     1     -32.338  11.087   1.822  1.00 20.00     0.008 C 
ENDBRANCH   3   8
BRANCH   4  10
HETATM   10  C10 UNL     1     -33.965   6.751   4.257  1.00 20.00     0.037 C 
HETATM   11  C8  UNL     1     -35.095   5.956   3.688  1.00 20.00     0.008 C 
ENDBRANCH   4  10
TORSDOF 2
