REMARK  1 active torsions:
REMARK  status: ('A' for Active; 'I' for Inactive)
REMARK    1  A    between atoms: C4_4  and  C7_7 
ROOT
HETATM    1  C1  UNL     1     -34.961   4.460   5.057  1.00 20.00     0.015 A 
HETATM    2  C2  UNL     1     -33.674   4.999   4.999  1.00 20.00     0.008 A 
HETATM    3  C3  UNL     1     -35.702   5.917   3.254  1.00 20.00     0.022 A 
HETATM    4  C4  UNL     1     -35.968   4.916   4.191  1.00 20.00     0.002 A 
HETATM    5  C5  UNL     1     -33.416   5.982   4.059  1.00 20.00    -0.052 A 
HETATM    6  C6  UNL     1     -34.420   6.437   3.196  1.00 20.00    -0.051 A 
HETATM    7  C8  UNL     1     -32.140   6.730   3.833  1.00 20.00     0.039 C 
HETATM    8  C9  UNL     1     -33.909   7.532   2.314  1.00 20.00     0.039 C 
HETATM    9  C10 UNL     1     -32.391   7.333   2.443  1.00 20.00     0.009 C 
ENDROOT
BRANCH   4  10
HETATM   10  C7  UNL     1     -37.303   4.344   4.275  1.00 20.00     0.269 C 
HETATM   11  O11 UNL     1     -37.608   3.461   5.082  1.00 20.00    -0.301 OA
ENDBRANCH   4  10
TORSDOF 1
