REMARK  1 active torsions:
REMARK  status: ('A' for Active; 'I' for Inactive)
REMARK    1  A    between atoms: C5_5  and  C7_7 
ROOT
HETATM    1  C1  UNL     1     -33.822   6.631   4.040  1.00 20.00     0.010 C 
HETATM    2  C2  UNL     1     -34.876   5.729   3.329  1.00 20.00    -0.004 A 
HETATM    3  C3  UNL     1     -33.816   5.988   5.460  1.00 20.00    -0.004 A 
HETATM    4  C4  UNL     1     -34.793   4.345   3.947  1.00 20.00    -0.000 A 
HETATM    5  C5  UNL     1     -35.880   5.280   4.374  1.00 20.00    -0.000 A 
HETATM    6  C6  UNL     1     -34.119   4.510   5.300  1.00 20.00    -0.000 A 
HETATM    7  C7  UNL     1     -35.207   5.444   5.728  1.00 20.00    -0.000 A 
ENDROOT
TORSDOF 1
