REMARK  0 active torsions:
REMARK  status: ('A' for Active; 'I' for Inactive)
ROOT
HETATM    1  C1  UNL     1     -34.916   3.722   5.562  1.00 20.00    -0.029 C 
HETATM    2  C2  UNL     1     -34.454   4.516   6.532  1.00 20.00    -0.023 C 
HETATM    3  C3  UNL     1     -33.684   6.259   4.047  1.00 20.00     0.264 C 
HETATM    4  C4  UNL     1     -35.469   4.508   4.417  1.00 20.00     0.042 C 
HETATM    5  C5  UNL     1     -33.387   6.797   6.261  1.00 20.00     0.188 C 
HETATM    6  C6  UNL     1     -34.646   5.966   6.201  1.00 20.00     0.046 C 
HETATM    7  C7  UNL     1     -34.997   5.931   4.720  1.00 20.00     0.098 C 
HETATM    8  O8  UNL     1     -33.452   6.152   2.852  1.00 20.00    -0.265 OA
HETATM    9  O9  UNL     1     -32.780   6.706   4.968  1.00 20.00    -0.320 OA
ENDROOT
TORSDOF 0
