REMARK  4 active torsions:
REMARK  status: ('A' for Active; 'I' for Inactive)
REMARK    1  A    between atoms: C1_1  and  C7_7 
REMARK    2  A    between atoms: C1_1  and  C8_8 
REMARK    3  A    between atoms: C7_7  and  C9_9 
REMARK    4  A    between atoms: C8_8  and  C10_10 
ROOT
HETATM    1  C1  UNL     1     -33.186   6.240   3.118  1.00 20.00     0.131 C 
HETATM    2  O11 UNL     1     -33.878   5.444   2.483  1.00 20.00    -0.298 OA
ENDROOT
BRANCH   1   3
HETATM    3  C7  UNL     1     -33.440   6.524   4.594  1.00 20.00     0.082 C 
BRANCH   3   4
HETATM    4  C9  UNL     1     -34.572   5.677   5.192  1.00 20.00    -0.016 C 
HETATM    5  C3  UNL     1     -34.265   4.181   5.085  1.00 20.00     0.010 C 
HETATM    6  C4  UNL     1     -34.794   6.058   6.656  1.00 20.00     0.010 C 
ENDBRANCH   3   4
ENDBRANCH   1   3
BRANCH   1   7
HETATM    7  C8  UNL     1     -32.046   7.023   2.460  1.00 20.00     0.054 C 
HETATM    8  C2  UNL     1     -30.906   7.240   3.456  1.00 20.00     0.018 C 
BRANCH   7   9
HETATM    9  C10 UNL     1     -32.592   8.317   1.809  1.00 20.00    -0.012 C 
HETATM   10  C5  UNL     1     -31.660   8.820   0.702  1.00 20.00     0.010 C 
HETATM   11  C6  UNL     1     -32.858   9.444   2.812  1.00 20.00     0.010 C 
ENDBRANCH   7   9
ENDBRANCH   1   7
TORSDOF 4
