REMARK  1 active torsions:
REMARK  status: ('A' for Active; 'I' for Inactive)
REMARK    1  A    between atoms: C3_3  and  C6_6 
ROOT
HETATM    1  C1  UNL     1     -33.574   6.584   5.820  1.00 20.00     0.100 C 
HETATM    2  C2  UNL     1     -32.984   5.978   3.405  1.00 20.00     0.169 A 
HETATM    3  C3  UNL     1     -33.955   6.002   4.567  1.00 20.00     0.174 A 
HETATM    4  C4  UNL     1     -31.603   6.530   3.478  1.00 20.00     0.044 C 
HETATM    5  N7  UNL     1     -33.266   7.055   6.834  1.00 20.00    -0.194 NA
HETATM    6  O8  UNL     1     -34.020   6.962   3.499  1.00 20.00    -0.354 OA
ENDROOT
BRANCH   3   7
HETATM    7  C6  UNL     1     -35.103   5.044   4.577  1.00 20.00     0.052 C 
HETATM    8  C5  UNL     1     -34.735   3.698   5.142  1.00 20.00     0.009 C 
ENDBRANCH   3   7
TORSDOF 1
