REMARK  1 active torsions:
REMARK  status: ('A' for Active; 'I' for Inactive)
REMARK    1  A    between atoms: C4_4  and  C12_12 
ROOT
HETATM    1  C1  UNL     1     -32.476   6.141   4.019  1.00 20.00     0.005 C 
HETATM    2  C2  UNL     1     -31.522   6.920   3.490  1.00 20.00     0.001 C 
HETATM    3  C3  UNL     1     -34.244   7.726   3.527  1.00 20.00    -0.012 C 
HETATM    4  C4  UNL     1     -33.878   6.504   3.954  1.00 20.00    -0.058 C 
HETATM    5  C5  UNL     1     -32.737   8.696   0.835  1.00 20.00     0.004 C 
HETATM    6  C6  UNL     1     -33.620   9.441   1.784  1.00 20.00     0.065 C 
HETATM    7  C7  UNL     1     -33.245   8.774   3.097  1.00 20.00     0.042 C 
HETATM    8  C8  UNL     1     -31.832   8.222   2.810  1.00 20.00     0.138 C 
HETATM    9  C9  UNL     1     -32.974   8.771  -0.638  1.00 20.00     0.065 C 
HETATM   10  N13 UNL     1     -31.752   8.025   1.343  1.00 20.00    -0.289 NA
ENDROOT
BRANCH   4  11
HETATM   11  C12 UNL     1     -34.867   5.473   4.407  1.00 20.00     0.010 C 
HETATM   12  C10 UNL     1     -34.767   4.226   3.535  1.00 20.00     0.015 C 
HETATM   13  C11 UNL     1     -34.654   5.127   5.878  1.00 20.00     0.015 C 
ENDBRANCH   4  11
TORSDOF 1
