REMARK  1 active torsions:
REMARK  status: ('A' for Active; 'I' for Inactive)
REMARK    1  A    between atoms: C8_8  and  O9_9 
ROOT
HETATM    1  C1  UNL     1     -32.484   8.576   1.766  1.00 20.00     0.015 C 
HETATM    2  C2  UNL     1     -32.758   7.706   2.546  1.00 20.00    -0.079 C 
HETATM    3  C3  UNL     1     -35.037   5.420   5.395  1.00 20.00     0.000 C 
HETATM    4  C4  UNL     1     -33.823   6.191   5.903  1.00 20.00     0.004 C 
HETATM    5  C5  UNL     1     -34.776   4.799   4.026  1.00 20.00     0.004 C 
HETATM    6  C6  UNL     1     -33.358   7.241   4.891  1.00 20.00     0.051 C 
HETATM    7  C7  UNL     1     -34.317   5.846   3.011  1.00 20.00     0.051 C 
HETATM    8  C8  UNL     1     -33.095   6.638   3.503  1.00 20.00     0.120 C 
ENDROOT
BRANCH   8   9
HETATM    9  O9  UNL     1     -31.978   5.753   3.613  1.00 20.00    -0.378 OA
HETATM   10  H21 UNL     1     -31.823   5.396   2.726  1.00 20.00     0.211 HD
ENDBRANCH   8   9
TORSDOF 1
