REMARK  0 active torsions:
REMARK  status: ('A' for Active; 'I' for Inactive)
ROOT
HETATM    1  C1  UNL     1     -33.480   6.857   5.748  1.00 20.00     0.128 C 
HETATM    2  C2  UNL     1     -33.812   5.406   5.484  1.00 20.00     0.087 C 
HETATM    3  C3  UNL     1     -33.268   7.769   4.561  1.00 20.00     0.087 C 
HETATM    4  C4  UNL     1     -33.714   5.820   2.957  1.00 20.00     0.018 C 
HETATM    5  C5  UNL     1     -34.510   5.190   4.133  1.00 20.00    -0.041 C 
HETATM    6  C6  UNL     1     -32.789   7.017   3.310  1.00 20.00    -0.041 C 
HETATM    7  C7  UNL     1     -34.646   3.673   3.887  1.00 20.00     0.015 C 
HETATM    8  C8  UNL     1     -35.940   5.773   4.179  1.00 20.00     0.015 C 
HETATM    9  C9  UNL     1     -31.338   6.527   3.512  1.00 20.00     0.015 C 
HETATM   10  C10 UNL     1     -32.773   8.002   2.122  1.00 20.00     0.015 C 
HETATM   11  O11 UNL     1     -33.384   7.284   6.899  1.00 20.00    -0.298 OA
ENDROOT
TORSDOF 0
