REMARK  0 active torsions:
REMARK  status: ('A' for Active; 'I' for Inactive)
ROOT
HETATM    1  C1  UNL     1     -33.546   5.469   3.576  1.00 20.00    -0.018 C 
HETATM    2  C2  UNL     1     -33.813   4.185   3.868  1.00 20.00    -0.025 C 
HETATM    3  C3  UNL     1     -34.394   6.160   5.689  1.00 20.00     0.135 C 
HETATM    4  C4  UNL     1     -34.747   4.733   6.107  1.00 20.00     0.087 C 
HETATM    5  C5  UNL     1     -35.812   5.344   4.057  1.00 20.00     0.025 C 
HETATM    6  C6  UNL     1     -34.631   6.309   4.193  1.00 20.00     0.078 C 
HETATM    7  C7  UNL     1     -35.076   4.162   4.706  1.00 20.00     0.016 C 
HETATM    8  O8  UNL     1     -33.950   7.024   6.429  1.00 20.00    -0.297 OA
ENDROOT
TORSDOF 0
