REMARK  0 active torsions:
REMARK  status: ('A' for Active; 'I' for Inactive)
ROOT
HETATM    1  C1  UNL     1     -33.698   6.373   6.003  1.00 20.00    -0.021 C 
HETATM    2  C2  UNL     1     -34.837   5.961   6.596  1.00 20.00    -0.021 C 
HETATM    3  C3  UNL     1     -34.606   5.718   3.805  1.00 20.00    -0.021 C 
HETATM    4  C4  UNL     1     -35.744   5.306   4.397  1.00 20.00    -0.021 C 
HETATM    5  C5  UNL     1     -34.014   4.175   5.404  1.00 20.00     0.024 C 
HETATM    6  C6  UNL     1     -33.479   5.480   4.795  1.00 20.00     0.031 C 
HETATM    7  C7  UNL     1     -35.368   4.797   5.777  1.00 20.00     0.031 C 
ENDROOT
TORSDOF 0
