REMARK  2 active torsions:
REMARK  status: ('A' for Active; 'I' for Inactive)
REMARK    1  A    between atoms: C1_1  and  C2_2 
REMARK    2  A    between atoms: C1_1  and  C3_3 
ROOT
HETATM    1  C1  UNL     1     -33.804   6.123   4.899  1.00 20.00     0.168 C 
HETATM    2  O4  UNL     1     -33.837   6.483   6.075  1.00 20.00    -0.294 OA
ENDROOT
BRANCH   1   3
HETATM    3  C2  UNL     1     -32.877   6.791   3.916  1.00 20.00     0.301 C 
HETATM    4  F5  UNL     1     -31.990   5.902   3.392  1.00 20.00    -0.248 F 
ENDBRANCH   1   3
BRANCH   1   5
HETATM    5  C3  UNL     1     -34.660   5.011   4.340  1.00 20.00     0.195 C 
HETATM    6 CL6  UNL     1     -34.998   3.796   5.583  1.00 20.00    -0.122 Cl
ENDBRANCH   1   5
TORSDOF 2
