REMARK  3 active torsions:
REMARK  status: ('A' for Active; 'I' for Inactive)
REMARK    1  A    between atoms: C3_3  and  C4_4 
REMARK    2  A    between atoms: C3_3  and  S7_7 
REMARK    3  A    between atoms: C4_4  and  S8_8 
ROOT
HETATM    1  C1  UNL     1     -34.397   4.806   5.259  1.00 20.00     0.133 C 
HETATM    2  N5  UNL     1     -34.139   4.023   6.074  1.00 20.00    -0.184 NA
HETATM    3  S7  UNL     1     -34.783   5.952   4.078  1.00 20.00    -0.050 SA
ENDROOT
BRANCH   3   4
HETATM    4  C3  UNL     1     -33.520   5.502   2.851  1.00 20.00     0.101 C 
BRANCH   4   5
HETATM    5  C4  UNL     1     -32.185   6.136   3.215  1.00 20.00     0.101 C 
BRANCH   5   6
HETATM    6  S8  UNL     1     -32.344   7.946   3.264  1.00 20.00    -0.050 SA
HETATM    7  C2  UNL     1     -32.296   8.241   1.600  1.00 20.00     0.133 C 
HETATM    8  N6  UNL     1     -32.264   8.452   0.460  1.00 20.00    -0.184 NA
ENDBRANCH   5   6
ENDBRANCH   4   5
ENDBRANCH   3   4
TORSDOF 3
