REMARK  1 active torsions:
REMARK  status: ('A' for Active; 'I' for Inactive)
REMARK    1  A    between atoms: C6_6  and  C10_10 
ROOT
HETATM    1  C1  UNL     1     -34.050   4.108   6.191  1.00 20.00     0.053 A 
HETATM    2  C2  UNL     1     -34.287   3.497   5.018  1.00 20.00    -0.075 A 
HETATM    3  C3  UNL     1     -33.814   5.537   5.880  1.00 20.00     0.159 A 
HETATM    4  C4  UNL     1     -35.181   5.514   3.674  1.00 20.00     0.029 A 
HETATM    5  C5  UNL     1     -34.228   4.362   3.826  1.00 20.00     0.032 A 
HETATM    6  C6  UNL     1     -33.870   5.736   4.394  1.00 20.00     0.035 A 
HETATM    7  C7  UNL     1     -34.597   2.047   4.863  1.00 20.00     0.044 C 
HETATM    8  O11 UNL     1     -33.606   6.422   6.691  1.00 20.00    -0.292 OA
ENDROOT
BRANCH   6   9
HETATM    9  C10 UNL     1     -32.809   6.550   3.714  1.00 20.00    -0.006 C 
HETATM   10  C8  UNL     1     -33.027   6.604   2.194  1.00 20.00     0.011 C 
HETATM   11  C9  UNL     1     -32.748   7.979   4.275  1.00 20.00     0.011 C 
ENDBRANCH   6   9
TORSDOF 1
