REMARK  2 active torsions:
REMARK  status: ('A' for Active; 'I' for Inactive)
REMARK    1  A    between atoms: C2_2  and  C3_3 
REMARK    2  A    between atoms: N9_9  and  N10_10 
ROOT
HETATM    1  C1  UNL     1     -35.119   5.362   4.451  1.00 20.00    -0.018 C 
HETATM    2  C2  UNL     1     -34.059   6.177   4.402  1.00 20.00    -0.043 C 
HETATM    3  C5  UNL     1     -35.505   5.045   5.858  1.00 20.00     0.028 C 
HETATM    4  C6  UNL     1     -33.568   6.534   5.768  1.00 20.00     0.040 C 
HETATM    5  C7  UNL     1     -34.295   5.524   6.658  1.00 20.00     0.008 C 
ENDROOT
BRANCH   2   6
HETATM    6  C3  UNL     1     -33.442   6.691   3.220  1.00 20.00     0.147 C 
HETATM    7  N9  UNL     1     -32.411   7.481   3.242  1.00 20.00    -0.163 NA
BRANCH   7   8
HETATM    8  N10 UNL     1     -32.017   7.829   1.955  1.00 20.00    -0.168 NA
HETATM    9  C4  UNL     1     -32.625   8.902   1.571  1.00 20.00     0.109 C 
HETATM   10  C8  UNL     1     -32.372   9.480   0.215  1.00 20.00     0.059 C 
ENDBRANCH   7   8
ENDBRANCH   2   6
TORSDOF 2
