REMARK  2 active torsions:
REMARK  status: ('A' for Active; 'I' for Inactive)
REMARK    1  A    between atoms: C2_2  and  C4_4 
REMARK    2  A    between atoms: C5_5  and  C9_9 
ROOT
HETATM    1  C1  UNL     1     -31.771   6.495   2.683  1.00 20.00    -0.016 C 
HETATM    2  C2  UNL     1     -32.480   7.574   2.321  1.00 20.00    -0.024 C 
HETATM    3  C6  UNL     1     -32.351   5.388   3.517  1.00 20.00     0.036 C 
HETATM    4  C7  UNL     1     -33.902   7.814   2.727  1.00 20.00     0.042 C 
HETATM    5  C8  UNL     1     -34.351   6.896   3.870  1.00 20.00     0.014 C 
HETATM    6  C9  UNL     1     -33.884   5.453   3.637  1.00 20.00     0.017 C 
ENDROOT
BRANCH   6   7
HETATM    7  C5  UNL     1     -34.365   4.544   4.726  1.00 20.00    -0.089 C 
HETATM    8  C3  UNL     1     -35.183   3.511   4.477  1.00 20.00     0.014 C 
HETATM    9  C10 UNL     1     -33.879   4.856   6.110  1.00 20.00     0.043 C 
ENDBRANCH   6   7
BRANCH   2  10
HETATM   10  C4  UNL     1     -31.809   8.585   1.498  1.00 20.00     0.265 C 
HETATM   11  O11 UNL     1     -32.372   9.603   1.117  1.00 20.00    -0.302 OA
ENDBRANCH   2  10
TORSDOF 2
