REMARK  1 active torsions:
REMARK  status: ('A' for Active; 'I' for Inactive)
REMARK    1  A    between atoms: C1_1  and  C5_5 
ROOT
HETATM    1  C2  UNL     1     -35.728   5.410   4.350  1.00 20.00     0.022 C 
HETATM    2  C3  UNL     1     -33.223   5.548   4.440  1.00 20.00     0.022 C 
HETATM    3  C4  UNL     1     -34.419   3.680   5.616  1.00 20.00     0.022 C 
HETATM    4  C5  UNL     1     -34.487   5.156   5.212  1.00 20.00     0.002 C 
ENDROOT
BRANCH   4   5
HETATM    5  C1  UNL     1     -34.622   5.985   6.484  1.00 20.00     0.239 C 
HETATM    6  O6  UNL     1     -33.833   6.856   6.836  1.00 20.00    -0.306 OA
ENDBRANCH   4   5
TORSDOF 1
