REMARK  0 active torsions:
REMARK  status: ('A' for Active; 'I' for Inactive)
ROOT
HETATM    1  C1  UNL     1     -34.216   6.177   6.009  1.00 20.00     0.118 C 
HETATM    2  C2  UNL     1     -33.119   5.666   3.871  1.00 20.00     0.118 C 
HETATM    3  C3  UNL     1     -34.163   5.307   4.833  1.00 20.00     0.288 C 
HETATM    4  N4  UNL     1     -34.256   6.869   6.940  1.00 20.00    -0.193 NA
HETATM    5  N5  UNL     1     -32.291   5.950   3.109  1.00 20.00    -0.193 NA
HETATM    6 CL6  UNL     1     -33.866   3.641   5.385  1.00 20.00    -0.069 Cl
HETATM    7 CL7  UNL     1     -35.737   5.392   4.006  1.00 20.00    -0.069 Cl
ENDROOT
TORSDOF 0
