REMARK  1 active torsions:
REMARK  status: ('A' for Active; 'I' for Inactive)
REMARK    1  A    between atoms: C1_1  and  C3_3 
ROOT
HETATM    1  C1  UNL     1     -32.429   8.860   1.915  1.00 20.00     0.000 C 
HETATM    2  C2  UNL     1     -32.294   9.351   0.680  1.00 20.00     0.081 C 
HETATM    3 CL4  UNL     1     -32.883  10.893   0.219  1.00 20.00    -0.097 Cl
ENDROOT
BRANCH   1   4
HETATM    4  C3  UNL     1     -31.910   7.521   2.324  1.00 20.00     0.142 C 
HETATM    5 CL5  UNL     1     -33.250   6.500   2.888  1.00 20.00    -0.126 Cl
ENDBRANCH   1   4
TORSDOF 1
