REMARK  1 active torsions:
REMARK  status: ('A' for Active; 'I' for Inactive)
REMARK    1  A    between atoms: C3_3  and  C8_8 
ROOT
HETATM    1  C1  UNL     1     -34.358   5.368   5.831  1.00 20.00    -0.026 C 
HETATM    2  C2  UNL     1     -34.264   6.503   5.122  1.00 20.00    -0.025 C 
HETATM    3  C4  UNL     1     -35.979   5.274   4.185  1.00 20.00     0.017 C 
HETATM    4  C5  UNL     1     -34.027   3.957   3.830  1.00 20.00     0.021 C 
HETATM    5  C6  UNL     1     -35.026   4.345   4.944  1.00 20.00     0.009 C 
HETATM    6  C7  UNL     1     -34.861   6.232   3.758  1.00 20.00     0.019 C 
HETATM    7  C8  UNL     1     -33.943   5.258   2.980  1.00 20.00     0.055 C 
ENDROOT
BRANCH   7   8
HETATM    8  C3  UNL     1     -32.542   5.762   2.816  1.00 20.00     0.236 C 
HETATM    9  O9  UNL     1     -32.261   6.951   2.703  1.00 20.00    -0.306 OA
ENDBRANCH   7   8
TORSDOF 1
