REMARK  1 active torsions:
REMARK  status: ('A' for Active; 'I' for Inactive)
REMARK    1  A    between atoms: C1_1  and  C6_6 
ROOT
HETATM    1  C3  UNL     1     -34.930   5.390   2.899  1.00 20.00     0.022 C 
HETATM    2  C4  UNL     1     -32.519   5.667   3.561  1.00 20.00     0.022 C 
HETATM    3  C5  UNL     1     -34.130   7.542   3.892  1.00 20.00     0.022 C 
HETATM    4  C6  UNL     1     -33.970   6.012   3.920  1.00 20.00     0.009 C 
ENDROOT
BRANCH   4   5
HETATM    5  C1  UNL     1     -34.326   5.485   5.324  1.00 20.00     0.130 C 
HETATM    6  C2  UNL     1     -34.258   3.997   5.573  1.00 20.00     0.091 C 
HETATM    7  O7  UNL     1     -34.680   6.240   6.233  1.00 20.00    -0.298 OA
ENDBRANCH   4   5
TORSDOF 1
