REMARK  2 active torsions:
REMARK  status: ('A' for Active; 'I' for Inactive)
REMARK    1  A    between atoms: C2_2  and  C4_4 
REMARK    2  A    between atoms: C3_3  and  C4_4 
ROOT
HETATM    1  C4  UNL     1     -34.249   6.259   4.041  1.00 20.00     0.127 C 
HETATM    2 CL7  UNL     1     -35.773   5.521   3.461  1.00 20.00    -0.121 Cl
ENDROOT
BRANCH   1   3
HETATM    3  C2  UNL     1     -33.881   5.678   5.400  1.00 20.00     0.164 A 
HETATM    4  C1  UNL     1     -34.905   4.979   6.251  1.00 20.00     0.201 A 
HETATM    5  O5  UNL     1     -34.499   6.331   6.514  1.00 20.00    -0.380 OA
ENDBRANCH   1   3
BRANCH   1   6
HETATM    6  C3  UNL     1     -33.148   6.116   2.989  1.00 20.00     0.137 C 
HETATM    7 CL6  UNL     1     -31.861   7.340   3.129  1.00 20.00    -0.129 Cl
ENDBRANCH   1   6
TORSDOF 2
