REMARK  1 active torsions:
REMARK  status: ('A' for Active; 'I' for Inactive)
REMARK    1  A    between atoms: C3_3  and  C6_6 
ROOT
HETATM    1  C1  UNL     1     -35.076   4.005   5.997  1.00 20.00    -0.030 C 
HETATM    2  C2  UNL     1     -34.919   3.861   4.676  1.00 20.00    -0.026 C 
HETATM    3  C4  UNL     1     -34.523   5.163   6.766  1.00 20.00     0.031 C 
HETATM    4  C5  UNL     1     -34.202   4.861   3.805  1.00 20.00     0.014 C 
HETATM    5  C6  UNL     1     -33.878   6.187   4.540  1.00 20.00     0.058 C 
HETATM    6  C7  UNL     1     -33.438   5.940   5.998  1.00 20.00    -0.004 C 
HETATM    7  C8  UNL     1     -35.033   5.134   2.545  1.00 20.00     0.015 C 
HETATM    8  C9  UNL     1     -33.127   7.244   6.741  1.00 20.00     0.011 C 
ENDROOT
BRANCH   5   9
HETATM    9  C3  UNL     1     -32.786   6.891   3.785  1.00 20.00     0.236 C 
HETATM   10  O10 UNL     1     -31.669   6.416   3.612  1.00 20.00    -0.306 OA
ENDBRANCH   5   9
TORSDOF 1
