REMARK  0 active torsions:
REMARK  status: ('A' for Active; 'I' for Inactive)
ROOT
HETATM    1  C1  UNL     1     -34.352   6.215   5.505  1.00 20.00    -0.017 C 
HETATM    2  C2  UNL     1     -33.611   6.026   4.220  1.00 20.00     0.159 C 
HETATM    3  C3  UNL     1     -34.080   7.128   6.434  1.00 20.00     0.023 C 
HETATM    4  C4  UNL     1     -34.805   3.777   5.550  1.00 20.00     0.010 C 
HETATM    5  C5  UNL     1     -34.026   3.616   4.220  1.00 20.00     0.013 C 
HETATM    6  C6  UNL     1     -35.768   5.221   3.930  1.00 20.00     0.022 C 
HETATM    7  C7  UNL     1     -35.446   5.175   5.430  1.00 20.00     0.022 C 
HETATM    8  C8  UNL     1     -34.333   4.923   3.475  1.00 20.00     0.061 C 
HETATM    9  O9  UNL     1     -32.603   6.610   3.873  1.00 20.00    -0.292 OA
ENDROOT
TORSDOF 0
