REMARK  1 active torsions:
REMARK  status: ('A' for Active; 'I' for Inactive)
REMARK    1  A    between atoms: C6_6  and  C10_10 
ROOT
HETATM    1  C1  UNL     1     -33.917   6.492   5.232  1.00 20.00     0.127 C 
HETATM    2  C2  UNL     1     -33.943   5.166   4.504  1.00 20.00     0.082 C 
HETATM    3  C3  UNL     1     -33.554   7.721   4.428  1.00 20.00     0.083 C 
HETATM    4  C4  UNL     1     -33.712   6.405   2.275  1.00 20.00     0.010 C 
HETATM    5  C5  UNL     1     -34.467   5.321   3.073  1.00 20.00    -0.011 C 
HETATM    6  C6  UNL     1     -32.833   7.324   3.140  1.00 20.00    -0.004 C 
HETATM    7  C7  UNL     1     -35.977   5.587   3.066  1.00 20.00     0.010 C 
HETATM    8  O11 UNL     1     -34.170   6.568   6.434  1.00 20.00    -0.298 OA
ENDROOT
BRANCH   6   9
HETATM    9  C10 UNL     1     -32.402   8.560   2.352  1.00 20.00    -0.018 C 
HETATM   10  C8  UNL     1     -31.652   8.154   1.086  1.00 20.00     0.010 C 
HETATM   11  C9  UNL     1     -33.613   9.424   2.006  1.00 20.00     0.010 C 
ENDBRANCH   6   9
TORSDOF 1
