REMARK  3 active torsions:
REMARK  status: ('A' for Active; 'I' for Inactive)
REMARK    1  A    between atoms: C5_5  and  C7_7 
REMARK    2  A    between atoms: C6_6  and  C8_8 
REMARK    3  A    between atoms: C7_7  and  C8_8 
ROOT
HETATM    1  C1  UNL     1     -32.401   8.760   0.943  1.00 20.00     0.012 C 
HETATM    2  C3  UNL     1     -32.009   8.192   1.926  1.00 20.00    -0.117 C 
HETATM    3  C5  UNL     1     -31.523   7.497   3.126  1.00 20.00     0.093 C 
ENDROOT
BRANCH   3   4
HETATM    4  C7  UNL     1     -32.668   7.002   4.013  1.00 20.00     0.013 C 
BRANCH   4   5
HETATM    5  C8  UNL     1     -33.640   6.076   3.267  1.00 20.00     0.013 C 
BRANCH   5   6
HETATM    6  C6  UNL     1     -34.823   5.639   4.133  1.00 20.00     0.093 C 
HETATM    7  C4  UNL     1     -34.401   4.841   5.292  1.00 20.00    -0.117 C 
HETATM    8  C2  UNL     1     -34.061   4.187   6.240  1.00 20.00     0.012 C 
ENDBRANCH   5   6
ENDBRANCH   4   5
ENDBRANCH   3   4
TORSDOF 3
