REMARK  3 active torsions:
REMARK  status: ('A' for Active; 'I' for Inactive)
REMARK    1  A    between atoms: C2_2  and  C6_6 
REMARK    2  A    between atoms: C2_2  and  C7_7 
REMARK    3  A    between atoms: C6_6  and  C8_8 
ROOT
HETATM    1  C6  UNL     1     -33.745   6.973   4.210  1.00 20.00     0.042 C 
ENDROOT
BRANCH   1   2
HETATM    2  C2  UNL     1     -34.315   5.570   4.131  1.00 20.00    -0.075 C 
HETATM    3  C1  UNL     1     -35.194   5.231   3.173  1.00 20.00     0.015 C 
BRANCH   2   4
HETATM    4  C7  UNL     1     -33.914   4.578   5.187  1.00 20.00     0.147 C 
HETATM    5 CL9  UNL     1     -35.014   4.673   6.582  1.00 20.00    -0.126 Cl
ENDBRANCH   2   4
ENDBRANCH   1   2
BRANCH   1   6
HETATM    6  C8  UNL     1     -32.394   7.243   3.484  1.00 20.00    -0.048 C 
HETATM    7  C3  UNL     1     -32.526   8.382   2.458  1.00 20.00     0.015 C 
HETATM    8  C4  UNL     1     -31.361   7.668   4.548  1.00 20.00     0.015 C 
HETATM    9  C5  UNL     1     -31.864   5.989   2.772  1.00 20.00     0.015 C 
ENDBRANCH   1   6
TORSDOF 3
