REMARK  2 active torsions:
REMARK  status: ('A' for Active; 'I' for Inactive)
REMARK    1  A    between atoms: C1_1  and  C3_3 
REMARK    2  A    between atoms: C2_2  and  C4_4 
ROOT
HETATM    1  C1  UNL     1     -32.127   7.528   2.546  1.00 20.00    -0.015 C 
HETATM    2  C2  UNL     1     -32.834   6.391   2.624  1.00 20.00    -0.015 C 
ENDROOT
BRANCH   1   3
HETATM    3  C3  UNL     1     -31.625   8.104   1.262  1.00 20.00     0.141 C 
HETATM    4 CL5  UNL     1     -32.305   9.727   1.021  1.00 20.00    -0.126 Cl
ENDBRANCH   1   3
BRANCH   2   5
HETATM    5  C4  UNL     1     -33.320   5.806   3.908  1.00 20.00     0.141 C 
HETATM    6 CL6  UNL     1     -35.091   5.664   3.877  1.00 20.00    -0.126 Cl
ENDBRANCH   2   5
TORSDOF 2
