REMARK  3 active torsions:
REMARK  status: ('A' for Active; 'I' for Inactive)
REMARK    1  A    between atoms: C2_2  and  C8_8 
REMARK    2  A    between atoms: C4_4  and  C7_7 
REMARK    3  A    between atoms: C7_7  and  C8_8 
ROOT
HETATM    1  C7  UNL     1     -32.424   6.167   3.787  1.00 20.00     0.034 C 
ENDROOT
BRANCH   1   2
HETATM    2  C4  UNL     1     -32.054   6.875   2.513  1.00 20.00    -0.030 C 
HETATM    3  C3  UNL     1     -32.378   8.148   2.246  1.00 20.00    -0.035 C 
HETATM    4  C5  UNL     1     -32.009   8.852   0.982  1.00 20.00     0.035 C 
ENDBRANCH   1   2
BRANCH   1   5
HETATM    5  C8  UNL     1     -33.948   6.109   4.015  1.00 20.00     0.007 C 
HETATM    6  C6  UNL     1     -34.629   5.408   2.836  1.00 20.00     0.014 C 
BRANCH   5   7
HETATM    7  C2  UNL     1     -34.289   5.381   5.293  1.00 20.00    -0.032 C 
HETATM    8  C1  UNL     1     -33.950   4.110   5.542  1.00 20.00     0.007 C 
ENDBRANCH   5   7
ENDBRANCH   1   5
TORSDOF 3
