REMARK  1 active torsions:
REMARK  status: ('A' for Active; 'I' for Inactive)
REMARK    1  A    between atoms: C7_7  and  C8_8 
ROOT
HETATM    1  C1  UNL     1     -34.270   5.883   5.770  1.00 20.00     0.064 C 
HETATM    2  C2  UNL     1     -33.395   4.511   3.160  1.00 20.00     0.002 C 
HETATM    3  C3  UNL     1     -34.806   4.976   3.534  1.00 20.00     0.019 C 
HETATM    4  C4  UNL     1     -32.380   5.650   3.044  1.00 20.00     0.005 C 
HETATM    5  C5  UNL     1     -34.055   7.391   3.807  1.00 20.00     0.024 C 
HETATM    6  C6  UNL     1     -34.817   6.211   4.438  1.00 20.00     0.093 C 
HETATM    7  C7  UNL     1     -33.051   6.983   2.711  1.00 20.00    -0.003 C 
HETATM    8  N9  UNL     1     -33.841   5.625   6.817  1.00 20.00    -0.197 NA
ENDROOT
BRANCH   7   9
HETATM    9  C8  UNL     1     -32.015   8.083   2.490  1.00 20.00     0.089 C 
HETATM   10 BR10 UNL     1     -32.802   9.511   1.441  1.00 20.00    -0.096 Br
ENDBRANCH   7   9
TORSDOF 1
