REMARK  1 active torsions:
REMARK  status: ('A' for Active; 'I' for Inactive)
REMARK    1  A    between atoms: C1_1  and  C3_3 
ROOT
HETATM    1  C2  UNL     1     -34.044   4.269   6.381  1.00 20.00     0.208 A 
HETATM    2  C3  UNL     1     -35.098   4.703   5.396  1.00 20.00     0.206 A 
HETATM    3  O5  UNL     1     -34.366   5.651   6.188  1.00 20.00    -0.374 OA
ENDROOT
BRANCH   2   4
HETATM    4  C1  UNL     1     -34.789   4.776   3.969  1.00 20.00     0.265 C 
HETATM    5  O4  UNL     1     -35.279   5.608   3.213  1.00 20.00    -0.304 OA
ENDBRANCH   2   4
TORSDOF 1
