REMARK  0 active torsions:
REMARK  status: ('A' for Active; 'I' for Inactive)
ROOT
HETATM    1  C1  UNL     1     -32.426   6.456   3.457  1.00 20.00     0.064 C 
HETATM    2  C2  UNL     1     -34.301   5.071   6.238  1.00 20.00     0.005 C 
HETATM    3  C3  UNL     1     -34.565   6.424   5.562  1.00 20.00     0.006 C 
HETATM    4  C4  UNL     1     -33.281   4.192   4.129  1.00 20.00     0.024 C 
HETATM    5  C5  UNL     1     -35.606   4.724   4.278  1.00 20.00     0.010 C 
HETATM    6  C6  UNL     1     -33.553   5.521   3.398  1.00 20.00     0.097 C 
HETATM    7  C7  UNL     1     -34.484   4.070   5.085  1.00 20.00    -0.013 C 
HETATM    8  C8  UNL     1     -34.834   6.034   4.094  1.00 20.00     0.003 C 
HETATM    9  N9  UNL     1     -31.534   7.196   3.504  1.00 20.00    -0.197 NA
ENDROOT
TORSDOF 0
