REMARK  3 active torsions:
REMARK  status: ('A' for Active; 'I' for Inactive)
REMARK    1  A    between atoms: C1_1  and  S7_7 
REMARK    2  A    between atoms: C1_1  and  S8_8 
REMARK    3  A    between atoms: C5_5  and  S8_8 
ROOT
HETATM    1  S8  UNL     1     -34.407   5.260   2.867  1.00 20.00    -0.103 SA
ENDROOT
BRANCH   1   2
HETATM    2  C1  UNL     1     -35.636   4.702   3.988  1.00 20.00     0.102 C 
HETATM    3  S6  UNL     1     -37.267   5.008   3.777  1.00 20.00    -0.065 SA
BRANCH   2   4
HETATM    4  S7  UNL     1     -35.022   3.728   5.317  1.00 20.00    -0.124 SA
HETATM    5  H18 UNL     1     -36.209   3.458   5.880  1.00 20.00     0.108 HD
ENDBRANCH   2   4
ENDBRANCH   1   2
BRANCH   1   6
HETATM    6  C5  UNL     1     -34.049   6.886   3.639  1.00 20.00     0.003 C 
HETATM    7  C2  UNL     1     -34.292   6.778   5.147  1.00 20.00     0.026 C 
HETATM    8  C3  UNL     1     -32.585   7.240   3.360  1.00 20.00     0.026 C 
HETATM    9  C4  UNL     1     -34.976   7.937   3.023  1.00 20.00     0.026 C 
ENDBRANCH   1   6
TORSDOF 3
