REMARK  3 active torsions:
REMARK  status: ('A' for Active; 'I' for Inactive)
REMARK    1  A    between atoms: C6_6  and  C7_7 
REMARK    2  A    between atoms: C6_6  and  C8_8 
REMARK    3  A    between atoms: C7_7  and  C9_9 
ROOT
HETATM    1  C7  UNL     1     -33.493   5.463   4.311  1.00 20.00     0.008 C 
ENDROOT
BRANCH   1   2
HETATM    2  C6  UNL     1     -33.554   6.874   3.708  1.00 20.00     0.004 C 
BRANCH   2   3
HETATM    3  C8  UNL     1     -32.452   7.138   2.662  1.00 20.00    -0.023 C 
HETATM    4  C1  UNL     1     -31.045   6.993   3.244  1.00 20.00     0.009 C 
HETATM    5  C2  UNL     1     -32.623   8.540   2.072  1.00 20.00     0.009 C 
ENDBRANCH   2   3
ENDBRANCH   1   2
BRANCH   1   6
HETATM    6  C9  UNL     1     -34.608   5.119   5.337  1.00 20.00    -0.051 C 
HETATM    7  C3  UNL     1     -34.535   6.038   6.567  1.00 20.00     0.014 C 
HETATM    8  C4  UNL     1     -34.401   3.663   5.800  1.00 20.00     0.014 C 
HETATM    9  C5  UNL     1     -36.005   5.232   4.703  1.00 20.00     0.014 C 
ENDBRANCH   1   6
TORSDOF 3
