REMARK  2 active torsions:
REMARK  status: ('A' for Active; 'I' for Inactive)
REMARK    1  A    between atoms: C4_4  and  C5_5 
REMARK    2  A    between atoms: C4_4  and  C6_6 
ROOT
HETATM    1  C1  UNL     1     -33.959   5.935   5.765  1.00 20.00     0.068 C 
HETATM    2  C2  UNL     1     -34.826   3.741   5.098  1.00 20.00     0.031 C 
HETATM    3  C3  UNL     1     -35.252   5.754   3.678  1.00 20.00     0.031 C 
HETATM    4  C6  UNL     1     -34.227   5.068   4.594  1.00 20.00     0.043 C 
HETATM    5  N7  UNL     1     -33.749   6.614   6.682  1.00 20.00    -0.196 NA
ENDROOT
BRANCH   4   6
HETATM    6  C4  UNL     1     -32.906   4.758   3.842  1.00 20.00     0.039 C 
BRANCH   6   7
HETATM    7  C5  UNL     1     -32.391   5.885   2.948  1.00 20.00     0.116 C 
HETATM    8 CL8  UNL     1     -32.104   7.354   3.916  1.00 20.00    -0.130 Cl
ENDBRANCH   6   7
ENDBRANCH   4   6
TORSDOF 2
