REMARK  0 active torsions:
REMARK  status: ('A' for Active; 'I' for Inactive)
ROOT
HETATM    1  C1  UNL     1     -34.281   6.312   6.332  1.00 20.00     0.111 C 
HETATM    2  C2  UNL     1     -35.126   4.058   6.207  1.00 20.00     0.049 C 
HETATM    3  C3  UNL     1     -34.658   5.155   5.602  1.00 20.00     0.104 C 
HETATM    4  N4  UNL     1     -33.973   7.259   6.928  1.00 20.00    -0.190 NA
HETATM    5 CL5  UNL     1     -34.492   5.214   3.885  1.00 20.00    -0.073 Cl
ENDROOT
TORSDOF 0
