REMARK  1 active torsions:
REMARK  status: ('A' for Active; 'I' for Inactive)
REMARK    1  A    between atoms: C7_7  and  O12_12 
ROOT
HETATM    1  C1  UNL     1     -35.439   1.994   4.890  1.00 20.00     0.015 C 
HETATM    2  C2  UNL     1     -34.817   3.017   4.983  1.00 20.00    -0.079 C 
HETATM    3  C3  UNL     1     -34.705   5.179   6.155  1.00 20.00     0.055 C 
HETATM    4  C4  UNL     1     -34.021   7.255   4.849  1.00 20.00     0.013 C 
HETATM    5  C5  UNL     1     -34.014   4.970   3.724  1.00 20.00     0.060 C 
HETATM    6  C6  UNL     1     -34.130   6.600   6.235  1.00 20.00    -0.014 C 
HETATM    7  C7  UNL     1     -34.051   4.275   5.097  1.00 20.00     0.121 C 
HETATM    8  C8  UNL     1     -33.411   6.397   3.716  1.00 20.00    -0.044 C 
HETATM    9  C9  UNL     1     -32.845   6.682   7.059  1.00 20.00     0.010 C 
HETATM   10  C10 UNL     1     -33.771   7.062   2.365  1.00 20.00     0.015 C 
HETATM   11  C11 UNL     1     -31.874   6.367   3.785  1.00 20.00     0.015 C 
ENDROOT
BRANCH   7  12
HETATM   12  O12 UNL     1     -32.724   3.941   5.488  1.00 20.00    -0.378 OA
HETATM   13  H30 UNL     1     -32.801   3.486   6.339  1.00 20.00     0.211 HD
ENDBRANCH   7  12
TORSDOF 1
