REMARK  0 active torsions:
REMARK  status: ('A' for Active; 'I' for Inactive)
ROOT
HETATM    1  C1  UNL     1     -34.848   5.785   5.209  1.00 20.00     0.064 C 
HETATM    2  C2  UNL     1     -32.240   8.232   2.792  1.00 20.00     0.005 C 
HETATM    3  C3  UNL     1     -31.869   5.770   3.030  1.00 20.00     0.005 C 
HETATM    4  C4  UNL     1     -33.667   7.957   2.297  1.00 20.00     0.006 C 
HETATM    5  C5  UNL     1     -33.307   5.507   2.564  1.00 20.00     0.006 C 
HETATM    6  C6  UNL     1     -32.738   7.088   4.966  1.00 20.00     0.024 C 
HETATM    7  C7  UNL     1     -34.194   6.895   4.494  1.00 20.00     0.097 C 
HETATM    8  C8  UNL     1     -31.785   7.123   3.756  1.00 20.00    -0.013 C 
HETATM    9  C9  UNL     1     -34.223   6.683   2.961  1.00 20.00     0.003 C 
HETATM   10  N10 UNL     1     -35.362   4.911   5.772  1.00 20.00    -0.197 NA
ENDROOT
TORSDOF 0
