REMARK  1 active torsions:
REMARK  status: ('A' for Active; 'I' for Inactive)
REMARK    1  A    between atoms: C1_1  and  N7_7 
ROOT
HETATM    1  C2  UNL     1     -35.168   4.715   6.351  1.00 20.00     0.003 C 
HETATM    2  C3  UNL     1     -34.893   3.691   5.249  1.00 20.00     0.020 C 
HETATM    3  C4  UNL     1     -34.240   5.923   6.219  1.00 20.00     0.020 C 
HETATM    4  C5  UNL     1     -34.965   4.332   3.867  1.00 20.00     0.123 C 
HETATM    5  C6  UNL     1     -34.320   6.533   4.822  1.00 20.00     0.123 C 
HETATM    6  N7  UNL     1     -34.116   5.516   3.797  1.00 20.00    -0.381 N 
ENDROOT
BRANCH   6   7
HETATM    7  C1  UNL     1     -33.228   5.694   2.787  1.00 20.00     0.168 C 
HETATM    8  S8  UNL     1     -32.237   7.026   2.667  1.00 20.00    -0.074 SA
ENDBRANCH   6   7
TORSDOF 1
