REMARK  1 active torsions:
REMARK  status: ('A' for Active; 'I' for Inactive)
REMARK    1  A    between atoms: C4_4  and  C9_9 
ROOT
HETATM    1  C1  UNL     1     -35.202   3.994   6.153  1.00 20.00    -0.025 C 
HETATM    2  C2  UNL     1     -34.918   3.534   4.925  1.00 20.00    -0.025 C 
HETATM    3  C5  UNL     1     -35.851   5.629   4.658  1.00 20.00     0.017 C 
HETATM    4  C6  UNL     1     -33.827   6.029   5.833  1.00 20.00     0.017 C 
HETATM    5  C7  UNL     1     -35.262   5.502   6.064  1.00 20.00     0.009 C 
HETATM    6  C8  UNL     1     -34.774   4.738   4.021  1.00 20.00     0.016 C 
HETATM    7  C9  UNL     1     -33.472   5.458   4.436  1.00 20.00     0.015 C 
ENDROOT
BRANCH   7   8
HETATM    8  C4  UNL     1     -33.072   6.528   3.468  1.00 20.00    -0.031 C 
HETATM    9  C3  UNL     1     -31.892   6.565   2.839  1.00 20.00     0.007 C 
ENDBRANCH   7   8
TORSDOF 1
