REMARK  2 active torsions:
REMARK  status: ('A' for Active; 'I' for Inactive)
REMARK    1  A    between atoms: C3_3  and  C5_5 
REMARK    2  A    between atoms: C5_5  and  N6_6 
ROOT
HETATM    1  C1  UNL     1     -32.400   6.821   2.833  1.00 20.00     0.157 C 
HETATM    2  N6  UNL     1     -32.507   5.845   3.477  1.00 20.00    -0.271 NA
HETATM    3  S7  UNL     1     -32.239   8.130   1.940  1.00 20.00    -0.055 SA
ENDROOT
BRANCH   2   4
HETATM    4  C5  UNL     1     -33.233   6.014   4.737  1.00 20.00     0.183 C 
BRANCH   4   5
HETATM    5  C3  UNL     1     -34.416   5.087   4.781  1.00 20.00    -0.073 C 
HETATM    6  C2  UNL     1     -34.537   4.145   5.729  1.00 20.00     0.015 C 
HETATM    7  C4  UNL     1     -35.442   5.245   3.695  1.00 20.00     0.044 C 
ENDBRANCH   4   5
ENDBRANCH   2   4
TORSDOF 2
