REMARK  7 active torsions:
REMARK  status: ('A' for Active; 'I' for Inactive)
REMARK    1  A    between atoms: C1_1  and  C4_4 
REMARK    2  A    between atoms: C1_1  and  O10_10 
REMARK    3  A    between atoms: C4_4  and  C5_5 
REMARK    4  A    between atoms: C5_5  and  C6_6 
REMARK    5  A    between atoms: C6_6  and  C7_7 
REMARK    6  A    between atoms: C7_7  and  C8_8 
REMARK    7  A    between atoms: C8_8  and  O11_11 
ROOT
HETATM    1  C5  UNL     1     -33.476   5.588   2.485  1.00 20.00     0.010 C 
ENDROOT
BRANCH   1   2
HETATM    2  C4  UNL     1     -34.834   5.031   2.912  1.00 20.00     0.111 C 
BRANCH   2   3
HETATM    3  C1  UNL     1     -34.841   4.499   4.329  1.00 20.00     0.258 C 
HETATM    4  O9  UNL     1     -34.574   3.350   4.651  1.00 20.00    -0.265 OA
BRANCH   3   5
HETATM    5  O10 UNL     1     -35.163   5.516   5.183  1.00 20.00    -0.326 OA
HETATM    6  C2  UNL     1     -35.180   5.172   6.572  1.00 20.00     0.213 C 
ENDBRANCH   3   5
ENDBRANCH   2   3
ENDBRANCH   1   2
BRANCH   1   7
HETATM    7  C6  UNL     1     -32.981   6.701   3.415  1.00 20.00     0.002 C 
BRANCH   7   8
HETATM    8  C7  UNL     1     -31.609   7.213   2.982  1.00 20.00     0.026 C 
BRANCH   8   9
HETATM    9  C8  UNL     1     -31.649   7.818   1.586  1.00 20.00     0.167 C 
BRANCH   9  10
HETATM   10  O11 UNL     1     -32.574   8.896   1.579  1.00 20.00    -0.396 OA
HETATM   11  C3  UNL     1     -32.643   9.517   0.302  1.00 20.00     0.201 C 
ENDBRANCH   9  10
ENDBRANCH   8   9
ENDBRANCH   7   8
ENDBRANCH   1   7
TORSDOF 7
