REMARK  1 active torsions:
REMARK  status: ('A' for Active; 'I' for Inactive)
REMARK    1  A    between atoms: C3_3  and  C4_4 
ROOT
HETATM    1  C1  UNL     1     -33.898   3.842   5.959  1.00 20.00     0.033 C 
HETATM    2  C2  UNL     1     -34.522   6.245   6.360  1.00 20.00     0.033 C 
HETATM    3  C4  UNL     1     -34.278   5.170   5.295  1.00 20.00     0.042 C 
HETATM    4 CL6  UNL     1     -35.839   4.911   4.418  1.00 20.00    -0.119 Cl
ENDROOT
BRANCH   3   5
HETATM    5  C3  UNL     1     -33.241   5.614   4.250  1.00 20.00     0.139 C 
HETATM    6 CL5  UNL     1     -33.648   7.155   3.450  1.00 20.00    -0.129 Cl
ENDBRANCH   3   5
TORSDOF 1
