REMARK  2 active torsions:
REMARK  status: ('A' for Active; 'I' for Inactive)
REMARK    1  A    between atoms: C6_6  and  C11_11 
REMARK    2  A    between atoms: C11_11  and  O12_12 
ROOT
HETATM    1  C1  UNL     1     -33.629   5.432   5.633  1.00 20.00    -0.024 C 
HETATM    2  C2  UNL     1     -34.464   4.612   4.972  1.00 20.00    -0.087 C 
HETATM    3  C3  UNL     1     -32.914   6.585   4.993  1.00 20.00     0.035 C 
HETATM    4  C4  UNL     1     -34.782   4.808   3.511  1.00 20.00     0.034 C 
HETATM    5  C5  UNL     1     -34.336   6.166   2.959  1.00 20.00     0.012 C 
HETATM    6  C6  UNL     1     -32.935   6.533   3.457  1.00 20.00     0.023 C 
HETATM    7  C7  UNL     1     -35.131   3.448   5.643  1.00 20.00     0.043 C 
ENDROOT
BRANCH   6   8
HETATM    8  C11 UNL     1     -32.470   7.861   2.863  1.00 20.00     0.057 C 
HETATM    9  C8  UNL     1     -31.058   8.198   3.338  1.00 20.00     0.046 C 
HETATM   10  C9  UNL     1     -33.438   8.988   3.220  1.00 20.00     0.046 C 
BRANCH   8  11
HETATM   11  O12 UNL     1     -32.425   7.734   1.441  1.00 20.00    -0.385 OA
HETATM   12  C10 UNL     1     -31.998   8.940   0.830  1.00 20.00     0.202 C 
ENDBRANCH   8  11
ENDBRANCH   6   8
TORSDOF 2
