REMARK  0 active torsions:
REMARK  status: ('A' for Active; 'I' for Inactive)
ROOT
HETATM    1  C1  UNL     1     -34.300   5.731   3.468  1.00 20.00    -0.077 C 
HETATM    2  C2  UNL     1     -35.596   5.576   3.178  1.00 20.00     0.015 C 
HETATM    3  C3  UNL     1     -32.682   7.342   2.526  1.00 20.00     0.009 C 
HETATM    4  C4  UNL     1     -31.912   7.362   3.859  1.00 20.00     0.006 C 
HETATM    5  C5  UNL     1     -32.063   5.125   3.133  1.00 20.00     0.014 C 
HETATM    6  C6  UNL     1     -33.191   5.892   2.445  1.00 20.00     0.015 C 
HETATM    7  C7  UNL     1     -32.162   5.947   4.428  1.00 20.00    -0.002 C 
HETATM    8  C8  UNL     1     -33.655   5.735   4.850  1.00 20.00    -0.021 C 
HETATM    9  C9  UNL     1     -33.835   4.387   5.573  1.00 20.00     0.020 C 
HETATM   10  C10 UNL     1     -34.197   6.851   5.754  1.00 20.00     0.020 C 
ENDROOT
TORSDOF 0
