REMARK  2 active torsions:
REMARK  status: ('A' for Active; 'I' for Inactive)
REMARK    1  A    between atoms: C1_1  and  C6_6 
REMARK    2  A    between atoms: C5_5  and  C10_10 
ROOT
HETATM    1  C2  UNL     1     -32.234   6.052   2.709  1.00 20.00     0.006 C 
HETATM    2  C3  UNL     1     -32.968   5.182   3.730  1.00 20.00     0.016 C 
HETATM    3  C4  UNL     1     -34.204   7.252   3.293  1.00 20.00     0.021 C 
HETATM    4  C5  UNL     1     -32.722   7.470   2.987  1.00 20.00    -0.010 C 
HETATM    5  C6  UNL     1     -34.217   5.981   4.158  1.00 20.00     0.010 C 
HETATM    6  C7  UNL     1     -35.507   5.185   3.979  1.00 20.00     0.023 C 
ENDROOT
BRANCH   4   7
HETATM    7  C10 UNL     1     -32.485   8.421   1.827  1.00 20.00    -0.019 C 
HETATM    8  C8  UNL     1     -33.024   9.817   2.148  1.00 20.00     0.010 C 
HETATM    9  C9  UNL     1     -30.997   8.495   1.479  1.00 20.00     0.010 C 
ENDBRANCH   4   7
BRANCH   5  10
HETATM   10  C1  UNL     1     -34.118   6.350   5.617  1.00 20.00     0.240 C 
HETATM   11  O11 UNL     1     -34.029   5.523   6.518  1.00 20.00    -0.306 OA
ENDBRANCH   5  10
TORSDOF 2
