REMARK  2 active torsions:
REMARK  status: ('A' for Active; 'I' for Inactive)
REMARK    1  A    between atoms: C1_1  and  C3_3 
REMARK    2  A    between atoms: C1_1  and  O5_5 
ROOT
HETATM    1  C1  UNL     1     -33.759   6.082   4.582  1.00 20.00     0.291 C 
HETATM    2  O4  UNL     1     -34.581   5.852   3.704  1.00 20.00    -0.262 OA
ENDROOT
BRANCH   1   3
HETATM    3  C3  UNL     1     -33.888   5.673   6.025  1.00 20.00     0.277 C 
HETATM    4 CL6  UNL     1     -33.830   7.109   7.060  1.00 20.00    -0.097 Cl
HETATM    5 CL7  UNL     1     -35.426   4.821   6.216  1.00 20.00    -0.097 Cl
ENDBRANCH   1   3
BRANCH   1   6
HETATM    6  O5  UNL     1     -32.566   6.726   4.402  1.00 20.00    -0.324 OA
HETATM    7  C2  UNL     1     -32.289   7.152   3.064  1.00 20.00     0.213 C 
ENDBRANCH   1   6
TORSDOF 2
