REMARK  1 active torsions:
REMARK  status: ('A' for Active; 'I' for Inactive)
REMARK    1  A    between atoms: C8_8  and  O10_10 
ROOT
HETATM    1  C1  UNL     1     -34.000   5.217   2.762  1.00 20.00     0.005 C 
HETATM    2  C2  UNL     1     -32.710   7.285   3.342  1.00 20.00     0.005 C 
HETATM    3  C3  UNL     1     -35.245   5.840   3.409  1.00 20.00     0.008 C 
HETATM    4  C4  UNL     1     -33.965   7.876   4.000  1.00 20.00     0.008 C 
HETATM    5  C5  UNL     1     -32.742   5.346   4.926  1.00 20.00     0.042 C 
HETATM    6  C6  UNL     1     -32.724   5.749   3.437  1.00 20.00    -0.012 C 
HETATM    7  C7  UNL     1     -34.829   6.744   4.589  1.00 20.00     0.019 C 
HETATM    8  C8  UNL     1     -34.003   5.919   5.617  1.00 20.00     0.058 C 
HETATM    9  C9  UNL     1     -33.630   6.724   6.865  1.00 20.00     0.046 C 
ENDROOT
BRANCH   8  10
HETATM   10  O10 UNL     1     -34.798   4.814   6.065  1.00 20.00    -0.390 OA
HETATM   11  H26 UNL     1     -34.242   4.318   6.683  1.00 20.00     0.210 HD
ENDBRANCH   8  10
TORSDOF 1
