REMARK  0 active torsions:
REMARK  status: ('A' for Active; 'I' for Inactive)
ROOT
HETATM    1  C1  UNL     1     -34.091   4.721   2.223  1.00 20.00     0.002 A 
HETATM    2  C2  UNL     1     -34.572   4.628   3.528  1.00 20.00     0.016 A 
HETATM    3  C3  UNL     1     -33.262   5.790   1.841  1.00 20.00     0.019 A 
HETATM    4  C4  UNL     1     -34.200   5.623   4.414  1.00 20.00     0.017 A 
HETATM    5  C5  UNL     1     -33.381   6.687   4.057  1.00 20.00    -0.026 A 
HETATM    6  C6  UNL     1     -32.903   6.781   2.761  1.00 20.00     0.018 A 
HETATM    7  C7  UNL     1     -34.553   5.771   5.816  1.00 20.00     0.160 A 
HETATM    8  C8  UNL     1     -33.125   7.627   5.191  1.00 20.00     0.048 A 
HETATM    9  C9  UNL     1     -33.905   7.018   6.369  1.00 20.00     0.088 A 
HETATM   10  O10 UNL     1     -35.264   4.997   6.430  1.00 20.00    -0.292 OA
HETATM   11 BR11 UNL     1     -31.786   8.201   2.205  1.00 20.00    -0.051 Br
ENDROOT
TORSDOF 0
