REMARK  3 active torsions:
REMARK  status: ('A' for Active; 'I' for Inactive)
REMARK    1  A    between atoms: C3_3  and  C8_8 
REMARK    2  A    between atoms: C6_6  and  C7_7 
REMARK    3  A    between atoms: C7_7  and  C8_8 
ROOT
HETATM    1  C5  UNL     1     -34.474   5.099   3.077  1.00 20.00     0.010 C 
HETATM    2  C8  UNL     1     -34.185   6.139   4.160  1.00 20.00    -0.014 C 
ENDROOT
BRANCH   2   3
HETATM    3  C3  UNL     1     -34.779   5.675   5.492  1.00 20.00    -0.011 A 
HETATM    4  C1  UNL     1     -34.293   4.407   6.139  1.00 20.00     0.005 A 
HETATM    5  C2  UNL     1     -33.959   5.739   6.751  1.00 20.00     0.005 A 
ENDBRANCH   2   3
BRANCH   2   6
HETATM    6  C7  UNL     1     -32.678   6.411   4.328  1.00 20.00     0.004 C 
BRANCH   6   7
HETATM    7  C6  UNL     1     -32.010   6.944   3.058  1.00 20.00    -0.004 C 
HETATM    8  C4  UNL     1     -32.682   8.219   2.571  1.00 20.00     0.005 C 
ENDBRANCH   6   7
ENDBRANCH   2   6
TORSDOF 3
