REMARK  2 active torsions:
REMARK  status: ('A' for Active; 'I' for Inactive)
REMARK    1  A    between atoms: C1_1  and  C6_6 
REMARK    2  A    between atoms: C1_1  and  C7_7 
ROOT
HETATM    1  C1  UNL     1     -34.234   5.685   4.200  1.00 20.00     0.135 C 
HETATM    2  O8  UNL     1     -35.366   5.822   3.738  1.00 20.00    -0.297 OA
ENDROOT
BRANCH   1   3
HETATM    3  C6  UNL     1     -33.040   6.057   3.434  1.00 20.00     0.056 A 
HETATM    4  C2  UNL     1     -32.919   7.453   2.886  1.00 20.00     0.013 A 
HETATM    5  C3  UNL     1     -32.053   7.023   4.032  1.00 20.00     0.013 A 
ENDBRANCH   1   3
BRANCH   1   6
HETATM    6  C7  UNL     1     -34.008   5.130   5.580  1.00 20.00     0.056 A 
HETATM    7  C4  UNL     1     -34.507   5.912   6.741  1.00 20.00     0.013 A 
HETATM    8  C5  UNL     1     -35.188   4.639   6.339  1.00 20.00     0.013 A 
ENDBRANCH   1   6
TORSDOF 2
