REMARK  0 active torsions:
REMARK  status: ('A' for Active; 'I' for Inactive)
ROOT
HETATM    1  C1  UNL     1     -32.943   5.865   2.882  1.00 20.00     0.047 C 
HETATM    2  C2  UNL     1     -34.021   5.138   3.200  1.00 20.00    -0.013 C 
HETATM    3  C3  UNL     1     -34.313   5.083   6.712  1.00 20.00    -0.030 C 
HETATM    4  C4  UNL     1     -35.203   4.262   6.146  1.00 20.00    -0.030 C 
HETATM    5  C5  UNL     1     -32.852   7.292   3.279  1.00 20.00     0.149 C 
HETATM    6  C6  UNL     1     -33.887   6.378   6.101  1.00 20.00     0.033 C 
HETATM    7  C7  UNL     1     -35.870   4.551   4.838  1.00 20.00     0.040 C 
HETATM    8  C8  UNL     1     -33.973   7.902   4.099  1.00 20.00     0.088 C 
HETATM    9  C9  UNL     1     -34.749   6.842   4.897  1.00 20.00     0.008 C 
HETATM   10  C10 UNL     1     -35.208   5.668   3.985  1.00 20.00    -0.019 C 
HETATM   11  C11 UNL     1     -36.258   6.139   2.953  1.00 20.00     0.020 C 
HETATM   12  O12 UNL     1     -31.893   7.966   2.905  1.00 20.00    -0.293 OA
ENDROOT
TORSDOF 0
