REMARK  3 active torsions:
REMARK  status: ('A' for Active; 'I' for Inactive)
REMARK    1  A    between atoms: C1_1  and  C7_7 
REMARK    2  A    between atoms: C1_1  and  C9_9 
REMARK    3  A    between atoms: C7_7  and  C8_8 
ROOT
HETATM    1  C1  UNL     1     -34.314   5.622   4.126  1.00 20.00     0.134 C 
HETATM    2  O10 UNL     1     -34.723   4.789   3.314  1.00 20.00    -0.297 OA
ENDROOT
BRANCH   1   3
HETATM    3  C7  UNL     1     -33.992   7.049   3.688  1.00 20.00     0.083 C 
BRANCH   3   4
HETATM    4  C8  UNL     1     -32.864   7.129   2.647  1.00 20.00    -0.016 C 
HETATM    5  C2  UNL     1     -31.577   6.533   3.222  1.00 20.00     0.010 C 
HETATM    6  C3  UNL     1     -32.614   8.574   2.208  1.00 20.00     0.010 C 
ENDBRANCH   3   4
ENDBRANCH   1   3
BRANCH   1   7
HETATM    7  C9  UNL     1     -34.101   5.255   5.610  1.00 20.00     0.009 C 
HETATM    8  C4  UNL     1     -33.577   6.485   6.372  1.00 20.00     0.022 C 
HETATM    9  C5  UNL     1     -35.421   4.811   6.253  1.00 20.00     0.022 C 
HETATM   10  C6  UNL     1     -33.058   4.134   5.701  1.00 20.00     0.022 C 
ENDBRANCH   1   7
TORSDOF 3
