REMARK  3 active torsions:
REMARK  status: ('A' for Active; 'I' for Inactive)
REMARK    1  A    between atoms: C2_2  and  C8_8 
REMARK    2  A    between atoms: C4_4  and  C7_7 
REMARK    3  A    between atoms: C7_7  and  C8_8 
ROOT
HETATM    1  C7  UNL     1     -32.909   6.735   4.121  1.00 20.00     0.034 C 
ENDROOT
BRANCH   1   2
HETATM    2  C4  UNL     1     -32.118   7.014   2.872  1.00 20.00    -0.030 C 
HETATM    3  C3  UNL     1     -32.305   8.090   2.095  1.00 20.00    -0.035 C 
HETATM    4  C5  UNL     1     -31.519   8.368   0.857  1.00 20.00     0.035 C 
ENDBRANCH   1   2
BRANCH   1   5
HETATM    5  C8  UNL     1     -33.691   5.409   4.046  1.00 20.00     0.007 C 
HETATM    6  C6  UNL     1     -34.661   5.439   2.862  1.00 20.00     0.014 C 
BRANCH   5   7
HETATM    7  C2  UNL     1     -34.464   5.150   5.318  1.00 20.00    -0.032 C 
HETATM    8  C1  UNL     1     -34.286   4.075   6.094  1.00 20.00     0.007 C 
ENDBRANCH   5   7
ENDBRANCH   1   5
TORSDOF 3
