REMARK  1 active torsions:
REMARK  status: ('A' for Active; 'I' for Inactive)
REMARK    1  A    between atoms: C5_5  and  S6_6 
ROOT
HETATM    1  C1  UNL     1     -34.976   5.342   3.219  1.00 20.00     0.026 C 
HETATM    2  C2  UNL     1     -33.940   4.465   5.335  1.00 20.00     0.026 C 
HETATM    3  C3  UNL     1     -34.146   6.943   4.971  1.00 20.00     0.026 C 
HETATM    4  C5  UNL     1     -33.915   5.589   4.295  1.00 20.00    -0.003 C 
ENDROOT
BRANCH   4   5
HETATM    5  S6  UNL     1     -32.262   5.603   3.499  1.00 20.00    -0.165 SA
HETATM    6  C4  UNL     1     -32.548   6.982   2.370  1.00 20.00     0.090 C 
ENDBRANCH   4   5
TORSDOF 1
