REMARK  0 active torsions:
REMARK  status: ('A' for Active; 'I' for Inactive)
ROOT
HETATM    1  C1  UNL     1     -33.772   6.404   4.020  1.00 20.00     0.282 C 
HETATM    2  C2  UNL     1     -34.519   5.173   3.548  1.00 20.00     0.278 C 
HETATM    3  C3  UNL     1     -34.583   5.873   6.246  1.00 20.00     0.205 C 
HETATM    4  C4  UNL     1     -34.805   4.467   5.747  1.00 20.00     0.195 C 
HETATM    5  O5  UNL     1     -33.184   7.138   3.231  1.00 20.00    -0.263 OA
HETATM    6  O6  UNL     1     -33.726   6.614   5.358  1.00 20.00    -0.318 OA
HETATM    7  O7  UNL     1     -35.406   4.575   4.465  1.00 20.00    -0.379 OA
ENDROOT
TORSDOF 0
