REMARK  4 active torsions:
REMARK  status: ('A' for Active; 'I' for Inactive)
REMARK    1  A    between atoms: C2_2  and  C5_5 
REMARK    2  A    between atoms: C4_4  and  C6_6 
REMARK    3  A    between atoms: C5_5  and  O8_8 
REMARK    4  A    between atoms: C6_6  and  O8_8 
ROOT
HETATM    1  O8  UNL     1     -34.398   6.038   3.360  1.00 20.00    -0.383 OA
ENDROOT
BRANCH   1   2
HETATM    2  C5  UNL     1     -33.092   5.805   2.850  1.00 20.00     0.218 C 
BRANCH   2   3
HETATM    3  C2  UNL     1     -32.304   7.074   2.892  1.00 20.00     0.026 C 
HETATM    4  C1  UNL     1     -32.266   7.968   1.896  1.00 20.00     0.034 C 
HETATM    5 CL9  UNL     1     -31.365   7.335   4.323  1.00 20.00    -0.088 Cl
ENDBRANCH   2   3
ENDBRANCH   1   2
BRANCH   1   6
HETATM    6  C6  UNL     1     -35.023   4.829   3.768  1.00 20.00     0.202 C 
BRANCH   6   7
HETATM    7  C4  UNL     1     -34.503   4.443   5.136  1.00 20.00     0.169 A 
HETATM    8  C3  UNL     1     -34.260   5.479   6.198  1.00 20.00     0.202 A 
HETATM    9  O7  UNL     1     -35.432   4.649   6.205  1.00 20.00    -0.379 OA
ENDBRANCH   6   7
ENDBRANCH   1   6
TORSDOF 4
