REMARK  2 active torsions:
REMARK  status: ('A' for Active; 'I' for Inactive)
REMARK    1  A    between atoms: C6_6  and  C7_7 
REMARK    2  A    between atoms: C7_7  and  C8_8 
ROOT
HETATM    1  C1  UNL     1     -34.982   5.791   3.719  1.00 20.00     0.069 C 
HETATM    2  C2  UNL     1     -34.596   6.010   6.756  1.00 20.00     0.002 C 
HETATM    3  C3  UNL     1     -34.309   4.542   6.440  1.00 20.00     0.002 C 
HETATM    4  C4  UNL     1     -33.874   6.825   5.683  1.00 20.00     0.024 C 
HETATM    5  C5  UNL     1     -33.428   4.538   5.191  1.00 20.00     0.024 C 
HETATM    6  C6  UNL     1     -33.723   5.870   4.492  1.00 20.00     0.050 C 
HETATM    7  N9  UNL     1     -35.969   5.729   3.113  1.00 20.00    -0.196 NA
ENDROOT
BRANCH   6   8
HETATM    8  C7  UNL     1     -32.586   6.292   3.562  1.00 20.00     0.039 C 
BRANCH   8   9
HETATM    9  C8  UNL     1     -32.853   7.608   2.846  1.00 20.00     0.116 C 
HETATM   10 CL10 UNL     1     -31.524   8.055   1.751  1.00 20.00    -0.130 Cl
ENDBRANCH   8   9
ENDBRANCH   6   8
TORSDOF 2
