REMARK  1 active torsions:
REMARK  status: ('A' for Active; 'I' for Inactive)
REMARK    1  A    between atoms: C1_1  and  C2_2 
ROOT
HETATM    1  C1  UNL     1     -34.181   5.630   4.588  1.00 20.00    -0.005 C 
HETATM    2  C3  UNL     1     -34.130   4.519   5.338  1.00 20.00    -0.031 C 
HETATM    3  C5  UNL     1     -35.236   4.076   6.238  1.00 20.00     0.036 C 
ENDROOT
BRANCH   1   4
HETATM    4  C2  UNL     1     -33.104   6.049   3.720  1.00 20.00    -0.005 C 
HETATM    5  C4  UNL     1     -33.156   7.160   2.970  1.00 20.00    -0.031 C 
HETATM    6  C6  UNL     1     -32.050   7.603   2.070  1.00 20.00     0.036 C 
ENDBRANCH   1   4
TORSDOF 1
