REMARK  2 active torsions:
REMARK  status: ('A' for Active; 'I' for Inactive)
REMARK    1  A    between atoms: C1_1  and  C3_3 
REMARK    2  A    between atoms: C2_2  and  C3_3 
ROOT
HETATM    1  C3  UNL     1     -34.461   6.282   4.574  1.00 20.00     0.109 C 
HETATM    2 CL6  UNL     1     -35.401   5.277   3.419  1.00 20.00    -0.123 Cl
ENDROOT
BRANCH   1   3
HETATM    3  C1  UNL     1     -32.984   6.303   4.165  1.00 20.00     0.135 C 
HETATM    4 CL4  UNL     1     -32.712   6.898   2.509  1.00 20.00    -0.129 Cl
ENDBRANCH   1   3
BRANCH   1   5
HETATM    5  C2  UNL     1     -34.751   5.794   5.995  1.00 20.00     0.135 C 
HETATM    6 CL5  UNL     1     -34.149   4.140   6.265  1.00 20.00    -0.129 Cl
ENDBRANCH   1   5
TORSDOF 2
