REMARK  1 active torsions:
REMARK  status: ('A' for Active; 'I' for Inactive)
REMARK    1  A    between atoms: C7_7  and  C8_8 
ROOT
HETATM    1  C1  UNL     1     -33.701   4.900   2.726  1.00 20.00     0.015 C 
HETATM    2  C2  UNL     1     -35.995   5.661   3.309  1.00 20.00     0.015 C 
HETATM    3  C3  UNL     1     -34.033   7.080   3.875  1.00 20.00     0.015 C 
HETATM    4  C7  UNL     1     -34.534   5.616   3.817  1.00 20.00    -0.045 C 
ENDROOT
BRANCH   4   5
HETATM    5  C8  UNL     1     -34.416   4.887   5.234  1.00 20.00    -0.045 C 
HETATM    6  C4  UNL     1     -32.955   4.842   5.742  1.00 20.00     0.015 C 
HETATM    7  C5  UNL     1     -34.916   3.423   5.176  1.00 20.00     0.015 C 
HETATM    8  C6  UNL     1     -35.248   5.603   6.325  1.00 20.00     0.015 C 
ENDBRANCH   4   5
TORSDOF 1
