REMARK  1 active torsions:
REMARK  status: ('A' for Active; 'I' for Inactive)
REMARK    1  A    between atoms: C1_1  and  C3_3 
ROOT
HETATM    1  C2  UNL     1     -34.828   4.830   3.210  1.00 20.00     0.018 A 
HETATM    2  C3  UNL     1     -34.720   6.114   3.992  1.00 20.00     0.076 A 
HETATM    3  C4  UNL     1     -35.240   4.860   4.654  1.00 20.00    -0.005 A 
HETATM    4  C5  UNL     1     -34.446   4.113   5.671  1.00 20.00     0.011 C 
ENDROOT
BRANCH   2   5
HETATM    5  C1  UNL     1     -33.394   6.647   4.322  1.00 20.00     0.223 C 
HETATM    6  O6  UNL     1     -33.077   6.922   5.475  1.00 20.00    -0.279 OA
HETATM    7 CL7  UNL     1     -32.391   6.823   2.913  1.00 20.00    -0.043 Cl
ENDBRANCH   2   5
TORSDOF 1
