REMARK  3 active torsions:
REMARK  status: ('A' for Active; 'I' for Inactive)
REMARK    1  A    between atoms: C4_4  and  C10_10 
REMARK    2  A    between atoms: C5_5  and  C11_11 
REMARK    3  A    between atoms: C6_6  and  C12_12 
ROOT
HETATM    1  C7  UNL     1     -31.801   7.381   3.232  1.00 20.00     0.009 C 
HETATM    2  C8  UNL     1     -32.486   6.743   4.438  1.00 20.00     0.010 C 
HETATM    3  C9  UNL     1     -33.954   7.235   1.924  1.00 20.00     0.017 C 
HETATM    4  C10 UNL     1     -32.801   8.148   2.362  1.00 20.00     0.008 C 
HETATM    5  C11 UNL     1     -33.650   5.831   4.024  1.00 20.00     0.015 C 
HETATM    6  C12 UNL     1     -34.659   6.588   3.129  1.00 20.00     0.015 C 
ENDROOT
BRANCH   4   7
HETATM    7  C4  UNL     1     -32.111   8.748   1.176  1.00 20.00    -0.032 C 
HETATM    8  C1  UNL     1     -32.044  10.062   0.935  1.00 20.00     0.007 C 
ENDBRANCH   4   7
BRANCH   6   9
HETATM    9  C6  UNL     1     -35.758   5.687   2.641  1.00 20.00    -0.031 C 
HETATM   10  C3  UNL     1     -37.054   5.872   2.912  1.00 20.00     0.007 C 
ENDBRANCH   6   9
BRANCH   5  11
HETATM   11  C5  UNL     1     -34.294   5.267   5.258  1.00 20.00    -0.031 C 
HETATM   12  C2  UNL     1     -34.326   3.964   5.557  1.00 20.00     0.007 C 
ENDBRANCH   5  11
TORSDOF 3
