REMARK  0 active torsions:
REMARK  status: ('A' for Active; 'I' for Inactive)
ROOT
HETATM    1  C1  UNL     1     -32.831   6.530   4.034  1.00 20.00     0.131 C 
HETATM    2  C2  UNL     1     -32.972   5.552   2.883  1.00 20.00     0.079 C 
HETATM    3  C3  UNL     1     -34.418   5.201   2.542  1.00 20.00     0.012 C 
HETATM    4  C4  UNL     1     -33.892   3.925   5.472  1.00 20.00     0.001 C 
HETATM    5  C5  UNL     1     -33.595   5.291   6.095  1.00 20.00     0.012 C 
HETATM    6  C6  UNL     1     -35.170   3.897   4.635  1.00 20.00     0.005 C 
HETATM    7  C7  UNL     1     -35.253   6.404   4.561  1.00 20.00     0.016 C 
HETATM    8  C8  UNL     1     -33.855   6.474   5.158  1.00 20.00     0.056 C 
HETATM    9  C9  UNL     1     -35.382   5.126   3.737  1.00 20.00    -0.013 C 
HETATM   10  O10 UNL     1     -31.856   7.281   4.104  1.00 20.00    -0.298 OA
ENDROOT
TORSDOF 0
