REMARK  2 active torsions:
REMARK  status: ('A' for Active; 'I' for Inactive)
REMARK    1  A    between atoms: C9_9  and  C11_11 
REMARK    2  A    between atoms: C10_10  and  C11_11 
ROOT
HETATM    1  C6  UNL     1     -32.325   7.862   2.751  1.00 20.00     0.207 A 
HETATM    2  C11 UNL     1     -32.971   6.892   3.709  1.00 20.00     0.089 A 
HETATM    3  O12 UNL     1     -31.654   7.409   3.938  1.00 20.00    -0.374 OA
ENDROOT
BRANCH   2   4
HETATM    4  C9  UNL     1     -33.035   5.416   3.395  1.00 20.00     0.023 C 
HETATM    5  C2  UNL     1     -32.882   4.627   4.709  1.00 20.00     0.012 C 
HETATM    6  C7  UNL     1     -33.984   5.041   5.706  1.00 20.00    -0.013 C 
HETATM    7  C1  UNL     1     -35.362   4.755   5.085  1.00 20.00     0.009 C 
HETATM    8  C3  UNL     1     -33.861   6.551   5.997  1.00 20.00     0.012 C 
HETATM    9  C8  UNL     1     -35.529   5.546   3.776  1.00 20.00    -0.013 C 
HETATM   10  C4  UNL     1     -34.421   5.127   2.786  1.00 20.00     0.012 C 
HETATM   11  C5  UNL     1     -35.402   7.056   4.076  1.00 20.00     0.012 C 
HETATM   12  C10 UNL     1     -34.021   7.354   4.692  1.00 20.00     0.023 C 
ENDBRANCH   2   4
TORSDOF 2
