REMARK  1 active torsions:
REMARK  status: ('A' for Active; 'I' for Inactive)
REMARK    1  A    between atoms: C1_1  and  C8_8 
ROOT
HETATM    1  C1  UNL     1     -32.742   6.974   2.786  1.00 20.00     0.139 C 
HETATM    2  C2  UNL     1     -32.954   5.027   3.764  1.00 20.00     0.209 C 
HETATM    3  C3  UNL     1     -34.180   5.898   4.015  1.00 20.00     0.070 C 
HETATM    4  C4  UNL     1     -35.399   5.409   3.227  1.00 20.00     0.042 C 
HETATM    5  C5  UNL     1     -34.512   6.011   5.499  1.00 20.00     0.042 C 
HETATM    6  N9  UNL     1     -33.796   7.226   3.494  1.00 20.00    -0.258 NA
HETATM    7  O10 UNL     1     -32.236   5.721   2.752  1.00 20.00    -0.335 OA
ENDROOT
BRANCH   1   8
HETATM    8  C8  UNL     1     -31.997   7.971   1.977  1.00 20.00     0.054 C 
HETATM    9  C6  UNL     1     -31.951   7.552   0.506  1.00 20.00     0.018 C 
HETATM   10  C7  UNL     1     -32.608   9.368   2.115  1.00 20.00     0.018 C 
ENDBRANCH   1   8
TORSDOF 1
