REMARK  0 active torsions:
REMARK  status: ('A' for Active; 'I' for Inactive)
ROOT
HETATM    1  C1  UNL     1     -33.535   6.028   2.944  1.00 20.00     0.053 A 
HETATM    2  C2  UNL     1     -34.348   5.584   3.904  1.00 20.00    -0.072 A 
HETATM    3  C3  UNL     1     -32.855   7.197   3.516  1.00 20.00     0.150 A 
HETATM    4  C4  UNL     1     -35.213   4.367   3.860  1.00 20.00     0.034 C 
HETATM    5  C5  UNL     1     -33.273   7.455   4.938  1.00 20.00     0.092 A 
HETATM    6  C6  UNL     1     -34.923   3.473   5.069  1.00 20.00     0.004 C 
HETATM    7  C7  UNL     1     -34.957   4.251   6.390  1.00 20.00     0.001 C 
HETATM    8  C8  UNL     1     -34.012   5.459   6.363  1.00 20.00     0.009 C 
HETATM    9  C9  UNL     1     -34.329   6.377   5.180  1.00 20.00     0.022 A 
HETATM   10  O10 UNL     1     -32.040   7.864   2.897  1.00 20.00    -0.293 OA
ENDROOT
TORSDOF 0
