REMARK  0 active torsions:
REMARK  status: ('A' for Active; 'I' for Inactive)
ROOT
HETATM    1  C1  UNL     1     -32.894   7.649   2.869  1.00 20.00     0.005 C 
HETATM    2  C2  UNL     1     -34.345   7.763   3.356  1.00 20.00     0.008 C 
HETATM    3  C3  UNL     1     -34.025   5.591   2.490  1.00 20.00     0.012 C 
HETATM    4  C4  UNL     1     -32.501   5.657   4.338  1.00 20.00     0.047 C 
HETATM    5  C5  UNL     1     -32.648   6.131   2.875  1.00 20.00    -0.011 C 
HETATM    6  C6  UNL     1     -34.728   6.299   3.657  1.00 20.00     0.025 C 
HETATM    7  C7  UNL     1     -33.948   5.740   4.876  1.00 20.00     0.117 C 
HETATM    8 CL8  UNL     1     -34.068   6.755   6.334  1.00 20.00    -0.101 Cl
HETATM    9 CL9  UNL     1     -34.552   4.102   5.305  1.00 20.00    -0.101 Cl
ENDROOT
TORSDOF 0
