REMARK  0 active torsions:
REMARK  status: ('A' for Active; 'I' for Inactive)
ROOT
HETATM    1  C1  UNL     1     -33.804   6.692   5.837  1.00 20.00     0.223 A 
HETATM    2  C2  UNL     1     -34.373   4.410   4.806  1.00 20.00     0.027 A 
HETATM    3  C3  UNL     1     -34.819   5.747   5.318  1.00 20.00     0.089 A 
HETATM    4  C4  UNL     1     -34.561   5.566   3.836  1.00 20.00    -0.006 A 
HETATM    5  C5  UNL     1     -33.383   6.491   3.482  1.00 20.00     0.034 A 
HETATM    6  C6  UNL     1     -35.710   5.455   2.876  1.00 20.00     0.018 C 
HETATM    7  C7  UNL     1     -33.787   7.654   2.567  1.00 20.00     0.039 C 
HETATM    8  C8  UNL     1     -32.225   5.713   2.854  1.00 20.00     0.039 C 
HETATM    9  N9  UNL     1     -32.989   7.050   4.779  1.00 20.00    -0.351 N 
HETATM   10  O10 UNL     1     -33.742   7.040   7.004  1.00 20.00    -0.273 OA
HETATM   11  H23 UNL     1     -32.207   7.690   4.885  1.00 20.00     0.163 HD
ENDROOT
TORSDOF 0
