REMARK  0 active torsions:
REMARK  status: ('A' for Active; 'I' for Inactive)
ROOT
HETATM    1  C1  UNL     1     -34.857   4.278   6.424  1.00 20.00     0.000 C 
HETATM    2  C2  UNL     1     -34.978   5.777   6.688  1.00 20.00     0.003 C 
HETATM    3  C3  UNL     1     -34.603   3.978   4.949  1.00 20.00     0.003 C 
HETATM    4  C4  UNL     1     -33.758   7.314   2.545  1.00 20.00     0.029 C 
HETATM    5  C5  UNL     1     -33.761   6.532   6.162  1.00 20.00     0.038 C 
HETATM    6  C6  UNL     1     -33.409   4.762   4.408  1.00 20.00     0.038 C 
HETATM    7  C7  UNL     1     -34.555   6.964   3.778  1.00 20.00     0.040 C 
HETATM    8  C8  UNL     1     -32.415   7.673   3.135  1.00 20.00     0.168 C 
HETATM    9  C9  UNL     1     -33.514   6.277   4.669  1.00 20.00     0.061 C 
HETATM   10  O10 UNL     1     -32.246   6.868   4.309  1.00 20.00    -0.380 OA
ENDROOT
TORSDOF 0
