REMARK  2 active torsions:
REMARK  status: ('A' for Active; 'I' for Inactive)
REMARK    1  A    between atoms: C5_5  and  C9_9 
REMARK    2  A    between atoms: C9_9  and  O10_10 
ROOT
HETATM    1  C1  UNL     1     -32.178   7.252   3.525  1.00 20.00    -0.024 C 
HETATM    2  C2  UNL     1     -32.615   6.499   2.508  1.00 20.00    -0.087 C 
HETATM    3  C3  UNL     1     -32.843   6.887   4.811  1.00 20.00     0.035 C 
HETATM    4  C4  UNL     1     -33.643   5.508   2.958  1.00 20.00     0.041 C 
HETATM    5  C5  UNL     1     -33.472   5.526   4.484  1.00 20.00     0.026 C 
HETATM    6  C6  UNL     1     -32.213   6.601   1.082  1.00 20.00     0.043 C 
ENDROOT
BRANCH   5   7
HETATM    7  C9  UNL     1     -34.770   5.273   5.233  1.00 20.00     0.055 C 
HETATM    8  C7  UNL     1     -35.814   6.338   4.891  1.00 20.00     0.045 C 
HETATM    9  C8  UNL     1     -34.535   5.226   6.745  1.00 20.00     0.045 C 
BRANCH   7  10
HETATM   10  O10 UNL     1     -35.302   4.010   4.822  1.00 20.00    -0.390 OA
HETATM   11  H26 UNL     1     -36.124   3.887   5.320  1.00 20.00     0.210 HD
ENDBRANCH   7  10
ENDBRANCH   5   7
TORSDOF 2
