REMARK  0 active torsions:
REMARK  status: ('A' for Active; 'I' for Inactive)
ROOT
HETATM    1  C1  UNL     1     -35.224   5.102   3.693  1.00 20.00    -0.089 C 
HETATM    2  C2  UNL     1     -36.322   5.683   3.181  1.00 20.00     0.014 C 
HETATM    3  C3  UNL     1     -33.859   5.390   3.120  1.00 20.00     0.033 C 
HETATM    4  C4  UNL     1     -35.330   4.107   4.821  1.00 20.00     0.033 C 
HETATM    5  C5  UNL     1     -33.255   6.725   3.569  1.00 20.00     0.004 C 
HETATM    6  C6  UNL     1     -34.308   4.254   5.952  1.00 20.00     0.004 C 
HETATM    7  C7  UNL     1     -32.914   6.852   5.058  1.00 20.00     0.000 C 
HETATM    8  C8  UNL     1     -34.379   5.557   6.748  1.00 20.00     0.000 C 
HETATM    9  C9  UNL     1     -34.128   6.863   5.990  1.00 20.00     0.000 C 
ENDROOT
TORSDOF 0
