REMARK  2 active torsions:
REMARK  status: ('A' for Active; 'I' for Inactive)
REMARK    1  A    between atoms: C1_1  and  C2_2 
REMARK    2  A    between atoms: C3_3  and  C4_4 
ROOT
HETATM    1  C1  UNL     1     -34.116   6.352   3.079  1.00 20.00     0.051 C 
HETATM    2  C3  UNL     1     -34.930   5.775   3.980  1.00 20.00    -0.014 C 
HETATM    3  C5  UNL     1     -36.394   5.476   3.806  1.00 20.00     0.052 C 
ENDROOT
BRANCH   2   4
HETATM    4  C4  UNL     1     -34.372   5.364   5.322  1.00 20.00     0.151 C 
HETATM    5  C6  UNL     1     -34.422   3.918   5.754  1.00 20.00     0.096 C 
HETATM    6  O8  UNL     1     -33.874   6.210   6.068  1.00 20.00    -0.293 OA
ENDBRANCH   2   4
BRANCH   1   7
HETATM    7  C2  UNL     1     -32.677   6.627   3.298  1.00 20.00     0.259 C 
HETATM    8  O7  UNL     1     -31.986   7.156   2.434  1.00 20.00    -0.302 OA
ENDBRANCH   1   7
TORSDOF 2
