REMARK  0 active torsions:
REMARK  status: ('A' for Active; 'I' for Inactive)
ROOT
HETATM    1  C1  UNL     1     -34.460   5.251   2.497  1.00 20.00     0.005 C 
HETATM    2  C2  UNL     1     -35.752   5.418   3.310  1.00 20.00     0.008 C 
HETATM    3  C3  UNL     1     -34.362   7.277   3.742  1.00 20.00     0.012 C 
HETATM    4  C4  UNL     1     -33.067   5.439   4.573  1.00 20.00     0.047 C 
HETATM    5  C5  UNL     1     -33.461   6.142   3.254  1.00 20.00    -0.011 C 
HETATM    6  C6  UNL     1     -35.314   6.324   4.480  1.00 20.00     0.025 C 
HETATM    7  C7  UNL     1     -34.338   5.592   5.439  1.00 20.00     0.117 C 
HETATM    8 CL8  UNL     1     -33.996   6.612   6.879  1.00 20.00    -0.101 Cl
HETATM    9 CL9  UNL     1     -34.946   4.024   6.024  1.00 20.00    -0.101 Cl
ENDROOT
TORSDOF 0
