REMARK  1 active torsions:
REMARK  status: ('A' for Active; 'I' for Inactive)
REMARK    1  A    between atoms: C2_2  and  C3_3 
ROOT
HETATM    1  C3  UNL     1     -33.841   6.009   4.194  1.00 20.00     0.423 C 
HETATM    2  F4  UNL     1     -34.412   5.051   3.418  1.00 20.00    -0.166 F 
HETATM    3  F5  UNL     1     -32.512   5.986   3.914  1.00 20.00    -0.166 F 
HETATM    4  F6  UNL     1     -34.306   7.205   3.748  1.00 20.00    -0.166 F 
ENDROOT
BRANCH   1   5
HETATM    5  C2  UNL     1     -34.135   5.801   5.642  1.00 20.00     0.085 C 
HETATM    6  C1  UNL     1     -33.689   6.606   6.615  1.00 20.00     0.036 C 
HETATM    7 BR7  UNL     1     -35.194   4.306   6.024  1.00 20.00    -0.047 Br
ENDBRANCH   1   5
TORSDOF 1
