REMARK  2 active torsions:
REMARK  status: ('A' for Active; 'I' for Inactive)
REMARK    1  A    between atoms: C1_1  and  C3_3 
REMARK    2  A    between atoms: C2_2  and  C5_5 
ROOT
HETATM    1  C1  UNL     1     -32.405   6.907   3.843  1.00 20.00     0.003 C 
HETATM    2  C2  UNL     1     -33.664   6.451   3.842  1.00 20.00     0.041 C 
ENDROOT
BRANCH   1   3
HETATM    3  C3  UNL     1     -31.946   7.932   2.932  1.00 20.00    -0.004 C 
HETATM    4  C4  UNL     1     -32.314   7.987   1.643  1.00 20.00    -0.031 C 
HETATM    5  C6  UNL     1     -31.846   9.040   0.693  1.00 20.00     0.036 C 
ENDBRANCH   1   3
BRANCH   2   6
HETATM    6  C5  UNL     1     -34.046   5.402   4.808  1.00 20.00     0.258 C 
HETATM    7  O7  UNL     1     -35.182   4.946   4.854  1.00 20.00    -0.302 OA
ENDBRANCH   2   6
TORSDOF 2
