REMARK  1 active torsions:
REMARK  status: ('A' for Active; 'I' for Inactive)
REMARK    1  A    between atoms: C1_1  and  O7_7 
ROOT
HETATM    1  C1  UNL     1     -33.621   6.021   4.863  1.00 20.00     0.294 A 
HETATM    2  C2  UNL     1     -33.314   5.761   3.403  1.00 20.00     0.106 A 
HETATM    3  C3  UNL     1     -31.894   5.830   2.938  1.00 20.00     0.051 C 
HETATM    4  C4  UNL     1     -34.266   4.988   2.545  1.00 20.00     0.051 C 
HETATM    5  O6  UNL     1     -33.837   7.019   3.853  1.00 20.00    -0.343 OA
ENDROOT
BRANCH   1   6
HETATM    6  O7  UNL     1     -34.802   5.415   5.408  1.00 20.00    -0.363 OA
HETATM    7  C5  UNL     1     -34.572   4.055   5.730  1.00 20.00     0.204 C 
ENDBRANCH   1   6
TORSDOF 1
