REMARK  2 active torsions:
REMARK  status: ('A' for Active; 'I' for Inactive)
REMARK    1  A    between atoms: C1_1  and  C7_7 
REMARK       I    between atoms: C1_1  and  N9_9 
REMARK    2  A    between atoms: C7_7  and  C8_8 
ROOT
HETATM    1  C1  UNL     1     -33.196   6.135   3.828  1.00 20.00     0.219 C 
HETATM    2  C2  UNL     1     -35.409   4.500   6.267  1.00 20.00     0.021 C 
HETATM    3  C3  UNL     1     -35.096   5.805   6.990  1.00 20.00     0.021 C 
HETATM    4  C4  UNL     1     -35.057   4.821   4.823  1.00 20.00     0.126 C 
HETATM    5  C5  UNL     1     -33.841   6.295   6.280  1.00 20.00     0.126 C 
HETATM    6  N9  UNL     1     -33.972   5.786   4.918  1.00 20.00    -0.352 N 
HETATM    7  O10 UNL     1     -33.348   5.670   2.697  1.00 20.00    -0.273 OA
ENDROOT
BRANCH   1   8
HETATM    8  C7  UNL     1     -32.118   7.154   4.096  1.00 20.00     0.103 C 
BRANCH   8   9
HETATM    9  C8  UNL     1     -31.340   7.451   2.826  1.00 20.00     0.005 C 
HETATM   10  C6  UNL     1     -32.204   8.063   1.732  1.00 20.00     0.005 C 
ENDBRANCH   8   9
ENDBRANCH   1   8
TORSDOF 2
