REMARK  0 active torsions:
REMARK  status: ('A' for Active; 'I' for Inactive)
ROOT
HETATM    1  C1  UNL     1     -34.037   5.479   6.841  1.00 20.00    -0.030 C 
HETATM    2  C2  UNL     1     -34.865   4.659   6.165  1.00 20.00    -0.030 C 
HETATM    3  C3  UNL     1     -32.700   6.723   2.541  1.00 20.00    -0.030 C 
HETATM    4  C4  UNL     1     -32.585   7.306   3.745  1.00 20.00    -0.025 C 
HETATM    5  C5  UNL     1     -33.115   6.473   6.172  1.00 20.00     0.035 C 
HETATM    6  C6  UNL     1     -34.924   4.592   4.656  1.00 20.00     0.032 C 
HETATM    7  C7  UNL     1     -33.677   5.578   2.566  1.00 20.00     0.032 C 
HETATM    8  C8  UNL     1     -33.527   6.670   4.715  1.00 20.00     0.016 C 
HETATM    9  C9  UNL     1     -33.708   5.292   4.062  1.00 20.00     0.000 C 
ENDROOT
TORSDOF 0
