REMARK  3 active torsions:
REMARK  status: ('A' for Active; 'I' for Inactive)
REMARK    1  A    between atoms: C5_5  and  C7_7 
REMARK    2  A    between atoms: C5_5  and  C8_8 
REMARK    3  A    between atoms: C6_6  and  C8_8 
ROOT
HETATM    1  C3  UNL     1     -32.635   5.439   2.272  1.00 20.00     0.016 C 
HETATM    2  C4  UNL     1     -34.595   6.984   2.430  1.00 20.00     0.016 C 
HETATM    3  C8  UNL     1     -33.208   6.654   3.030  1.00 20.00    -0.035 C 
ENDROOT
BRANCH   3   4
HETATM    4  C5  UNL     1     -33.439   6.280   4.530  1.00 20.00     0.013 C 
BRANCH   4   5
HETATM    5  C7  UNL     1     -34.768   5.566   4.877  1.00 20.00    -0.022 C 
HETATM    6  C1  UNL     1     -34.908   4.236   4.128  1.00 20.00     0.009 C 
HETATM    7  C2  UNL     1     -34.844   5.294   6.383  1.00 20.00     0.009 C 
ENDBRANCH   4   5
ENDBRANCH   3   4
BRANCH   3   8
HETATM    8  C6  UNL     1     -32.265   7.873   2.910  1.00 20.00     0.123 C 
HETATM    9 CL9  UNL     1     -31.972   8.413   1.233  1.00 20.00    -0.130 Cl
ENDBRANCH   3   8
TORSDOF 3
