REMARK  0 active torsions:
REMARK  status: ('A' for Active; 'I' for Inactive)
ROOT
HETATM    1  C1  UNL     1     -35.045   4.690   6.679  1.00 20.00     0.000 C 
HETATM    2  C2  UNL     1     -34.492   4.043   5.416  1.00 20.00     0.000 C 
HETATM    3  C3  UNL     1     -34.934   6.208   6.796  1.00 20.00     0.000 C 
HETATM    4  C4  UNL     1     -35.185   4.403   4.109  1.00 20.00     0.001 C 
HETATM    5  C5  UNL     1     -33.625   6.812   6.288  1.00 20.00     0.001 C 
HETATM    6  C6  UNL     1     -35.230   5.865   3.657  1.00 20.00     0.012 C 
HETATM    7  C7  UNL     1     -33.747   7.537   4.944  1.00 20.00     0.012 C 
HETATM    8  C8  UNL     1     -32.659   5.922   3.271  1.00 20.00     0.038 C 
HETATM    9  C9  UNL     1     -31.753   6.976   2.657  1.00 20.00     0.168 C 
HETATM   10  C10 UNL     1     -33.955   7.682   2.459  1.00 20.00     0.177 C 
HETATM   11  C11 UNL     1     -33.923   6.692   3.647  1.00 20.00    -0.017 C 
HETATM   12  O12 UNL     1     -32.594   8.020   2.157  1.00 20.00    -0.390 OA
ENDROOT
TORSDOF 0
