REMARK  1 active torsions:
REMARK  status: ('A' for Active; 'I' for Inactive)
REMARK    1  A    between atoms: C3_3  and  C7_7 
ROOT
HETATM    1  C1  UNL     1     -34.527   5.623   5.775  1.00 20.00     0.001 C 
HETATM    2  C2  UNL     1     -34.616   4.877   4.662  1.00 20.00    -0.083 C 
HETATM    3  C5  UNL     1     -33.740   6.899   5.822  1.00 20.00     0.196 C 
HETATM    4  C6  UNL     1     -33.944   5.327   3.390  1.00 20.00     0.069 C 
HETATM    5  C7  UNL     1     -33.545   6.807   3.459  1.00 20.00     0.148 C 
HETATM    6  C8  UNL     1     -35.367   3.582   4.613  1.00 20.00     0.043 C 
HETATM    7  O11 UNL     1     -32.868   7.048   4.696  1.00 20.00    -0.378 OA
ENDROOT
BRANCH   5   8
HETATM    8  C3  UNL     1     -32.626   7.180   2.342  1.00 20.00     0.007 C 
HETATM    9  C4  UNL     1     -32.477   8.388   1.766  1.00 20.00    -0.089 C 
HETATM   10  C9  UNL     1     -31.501   8.599   0.642  1.00 20.00     0.042 C 
HETATM   11  C10 UNL     1     -33.248   9.610   2.177  1.00 20.00     0.042 C 
ENDBRANCH   5   8
TORSDOF 1
