REMARK  3 active torsions:
REMARK  status: ('A' for Active; 'I' for Inactive)
REMARK    1  A    between atoms: C1_1  and  C10_10 
REMARK    2  A    between atoms: C2_2  and  C8_8 
REMARK    3  A    between atoms: C9_9  and  C10_10 
ROOT
HETATM    1  C1  UNL     1     -33.797   6.627   2.760  1.00 20.00    -0.016 C 
HETATM    2  C2  UNL     1     -32.598   7.211   2.547  1.00 20.00    -0.087 C 
HETATM    3  C3  UNL     1     -31.488   7.001   3.552  1.00 20.00     0.043 C 
ENDROOT
BRANCH   1   4
HETATM    4  C10 UNL     1     -34.302   5.732   3.891  1.00 20.00    -0.030 C 
HETATM    5  C6  UNL     1     -35.772   5.338   3.636  1.00 20.00     0.019 C 
HETATM    6  C7  UNL     1     -33.482   4.416   3.858  1.00 20.00     0.019 C 
BRANCH   4   7
HETATM    7  C9  UNL     1     -34.171   6.361   5.306  1.00 20.00     0.008 C 
HETATM    8  C5  UNL     1     -34.667   5.491   6.457  1.00 20.00     0.006 C 
ENDBRANCH   4   7
ENDBRANCH   1   4
BRANCH   2   9
HETATM    9  C8  UNL     1     -32.204   8.045   1.351  1.00 20.00     0.029 C 
HETATM   10  C4  UNL     1     -32.493   9.529   1.538  1.00 20.00     0.010 C 
ENDBRANCH   2   9
TORSDOF 3
