REMARK  2 active torsions:
REMARK  status: ('A' for Active; 'I' for Inactive)
REMARK    1  A    between atoms: C1_1  and  C2_2 
REMARK    2  A    between atoms: C2_2  and  C3_3 
ROOT
HETATM    1  C2  UNL     1     -34.126   5.829   4.188  1.00 20.00     0.391 C 
HETATM    2  F5  UNL     1     -35.072   6.787   4.006  1.00 20.00    -0.188 F 
HETATM    3  F6  UNL     1     -34.626   4.687   3.649  1.00 20.00    -0.188 F 
ENDROOT
BRANCH   1   4
HETATM    4  C1  UNL     1     -32.836   6.206   3.515  1.00 20.00     0.319 C 
HETATM    5  O4  UNL     1     -32.674   7.260   2.908  1.00 20.00    -0.300 OA
ENDBRANCH   1   4
BRANCH   1   6
HETATM    6  C3  UNL     1     -33.921   5.620   5.666  1.00 20.00     0.461 C 
HETATM    7  F7  UNL     1     -33.458   6.740   6.261  1.00 20.00    -0.165 F 
HETATM    8  F8  UNL     1     -35.086   5.288   6.265  1.00 20.00    -0.165 F 
HETATM    9  F9  UNL     1     -33.039   4.627   5.907  1.00 20.00    -0.165 F 
ENDBRANCH   1   6
TORSDOF 2
