REMARK  2 active torsions:
REMARK  status: ('A' for Active; 'I' for Inactive)
REMARK    1  A    between atoms: C1_1  and  C2_2 
REMARK    2  A    between atoms: C1_1  and  C3_3 
ROOT
HETATM    1  C3  UNL     1     -33.313   6.267   3.302  1.00 20.00     0.321 C 
HETATM    2  F4  UNL     1     -32.999   7.443   2.696  1.00 20.00    -0.188 F 
HETATM    3  F5  UNL     1     -32.135   5.659   3.592  1.00 20.00    -0.188 F 
HETATM    4 CL7  UNL     1     -34.238   5.265   2.172  1.00 20.00    -0.048 Cl
ENDROOT
BRANCH   1   5
HETATM    5  C1  UNL     1     -34.067   6.566   4.591  1.00 20.00     0.112 C 
BRANCH   5   6
HETATM    6  C2  UNL     1     -34.054   5.411   5.585  1.00 20.00     0.122 C 
HETATM    7 CL6  UNL     1     -34.785   3.961   4.855  1.00 20.00    -0.130 Cl
ENDBRANCH   5   6
ENDBRANCH   1   5
TORSDOF 2
