REMARK  2 active torsions:
REMARK  status: ('A' for Active; 'I' for Inactive)
REMARK    1  A    between atoms: C3_3  and  C8_8 
REMARK    2  A    between atoms: C4_4  and  C7_7 
ROOT
HETATM    1  C5  UNL     1     -35.373   5.810   3.293  1.00 20.00     0.040 C 
HETATM    2  C6  UNL     1     -35.740   4.821   4.376  1.00 20.00     0.045 C 
HETATM    3  C7  UNL     1     -33.875   5.588   3.169  1.00 20.00     0.151 C 
HETATM    4  C8  UNL     1     -34.537   4.901   5.316  1.00 20.00     0.075 C 
HETATM    5  C10 UNL     1     -34.267   3.576   6.020  1.00 20.00     0.050 C 
HETATM    6  O11 UNL     1     -33.405   5.217   4.478  1.00 20.00    -0.367 OA
ENDROOT
BRANCH   3   7
HETATM    7  C4  UNL     1     -33.142   6.793   2.692  1.00 20.00    -0.065 C 
HETATM    8  C2  UNL     1     -33.687   7.655   1.822  1.00 20.00     0.016 C 
HETATM    9  C9  UNL     1     -31.760   6.986   3.240  1.00 20.00     0.045 C 
ENDBRANCH   3   7
BRANCH   4  10
HETATM   10  C3  UNL     1     -34.679   5.997   6.331  1.00 20.00     0.000 C 
HETATM   11  C1  UNL     1     -33.648   6.664   6.862  1.00 20.00     0.010 C 
ENDBRANCH   4  10
TORSDOF 2
