REMARK  2 active torsions:
REMARK  status: ('A' for Active; 'I' for Inactive)
REMARK    1  A    between atoms: C3_3  and  C8_8 
REMARK    2  A    between atoms: C4_4  and  C7_7 
ROOT
HETATM    1  C5  UNL     1     -34.629   5.801   3.250  1.00 20.00     0.040 C 
HETATM    2  C6  UNL     1     -35.344   5.393   4.518  1.00 20.00     0.045 C 
HETATM    3  C7  UNL     1     -33.758   6.946   3.743  1.00 20.00     0.151 C 
HETATM    4  C8  UNL     1     -34.257   5.567   5.578  1.00 20.00     0.075 C 
HETATM    5  C10 UNL     1     -34.833   5.956   6.936  1.00 20.00     0.050 C 
HETATM    6  O11 UNL     1     -33.418   6.642   5.108  1.00 20.00    -0.367 OA
ENDROOT
BRANCH   3   7
HETATM    7  C4  UNL     1     -32.516   7.132   2.943  1.00 20.00    -0.065 C 
HETATM    8  C2  UNL     1     -32.217   8.302   2.360  1.00 20.00     0.016 C 
HETATM    9  C9  UNL     1     -31.618   5.936   2.828  1.00 20.00     0.045 C 
ENDBRANCH   3   7
BRANCH   4  10
HETATM   10  C3  UNL     1     -33.400   4.342   5.722  1.00 20.00     0.000 C 
HETATM   11  C1  UNL     1     -33.565   3.225   5.005  1.00 20.00     0.010 C 
ENDBRANCH   4  10
TORSDOF 2
