REMARK  0 active torsions:
REMARK  status: ('A' for Active; 'I' for Inactive)
ROOT
HETATM    1  C1  UNL     1     -31.689   6.565   3.202  1.00 20.00     0.047 C 
HETATM    2  C2  UNL     1     -32.419   6.061   4.205  1.00 20.00    -0.014 C 
HETATM    3  C3  UNL     1     -32.268   7.568   2.278  1.00 20.00     0.149 C 
HETATM    4  C4  UNL     1     -33.714   7.965   2.461  1.00 20.00     0.084 C 
HETATM    5  C5  UNL     1     -34.127   7.865   3.924  1.00 20.00     0.021 C 
HETATM    6  C6  UNL     1     -35.018   4.266   6.219  1.00 20.00     0.000 C 
HETATM    7  C7  UNL     1     -34.021   5.251   6.818  1.00 20.00     0.001 C 
HETATM    8  C8  UNL     1     -34.799   4.085   4.722  1.00 20.00     0.001 C 
HETATM    9  C9  UNL     1     -34.031   6.590   6.078  1.00 20.00     0.013 C 
HETATM   10  C10 UNL     1     -34.838   5.423   3.981  1.00 20.00     0.013 C 
HETATM   11  C11 UNL     1     -33.844   6.471   4.542  1.00 20.00    -0.022 C 
HETATM   12  O12 UNL     1     -31.589   8.010   1.354  1.00 20.00    -0.293 OA
ENDROOT
TORSDOF 0
