REMARK  0 active torsions:
REMARK  status: ('A' for Active; 'I' for Inactive)
ROOT
HETATM    1  C1  UNL     1     -34.269   6.844   5.763  1.00 20.00     0.044 C 
HETATM    2  C2  UNL     1     -32.950   5.850   3.855  1.00 20.00     0.044 C 
HETATM    3  C3  UNL     1     -34.151   5.691   4.776  1.00 20.00     0.087 C 
HETATM    4 CL4  UNL     1     -35.645   5.566   3.808  1.00 20.00    -0.107 Cl
HETATM    5 BR5  UNL     1     -33.943   4.023   5.788  1.00 20.00    -0.069 Br
ENDROOT
TORSDOF 0
