REMARK  2 active torsions:
REMARK  status: ('A' for Active; 'I' for Inactive)
REMARK    1  A    between atoms: C1_1  and  C2_2 
REMARK    2  A    between atoms: C1_1  and  C3_3 
ROOT
HETATM    1  C1  UNL     1     -33.238   6.112   4.872  1.00 20.00     0.188 C 
ENDROOT
BRANCH   1   2
HETATM    2  C2  UNL     1     -32.801   5.501   3.556  1.00 20.00     0.361 C 
HETATM    3  F4  UNL     1     -31.868   6.301   2.980  1.00 20.00    -0.214 F 
HETATM    4  F5  UNL     1     -33.850   5.450   2.698  1.00 20.00    -0.214 F 
ENDBRANCH   1   2
BRANCH   1   5
HETATM    5  C3  UNL     1     -34.303   5.289   5.561  1.00 20.00     0.392 C 
HETATM    6  F6  UNL     1     -34.712   5.870   6.708  1.00 20.00    -0.171 F 
HETATM    7  F7  UNL     1     -35.383   5.121   4.769  1.00 20.00    -0.171 F 
HETATM    8  F8  UNL     1     -33.827   4.062   5.870  1.00 20.00    -0.171 F 
ENDBRANCH   1   5
TORSDOF 2
