REMARK  2 active torsions:
REMARK  status: ('A' for Active; 'I' for Inactive)
REMARK    1  A    between atoms: C1_1  and  C2_2 
REMARK    2  A    between atoms: C2_2  and  C3_3 
ROOT
HETATM    1  C3  UNL     1     -34.410   5.395   3.803  1.00 20.00     0.393 C 
HETATM    2  F5  UNL     1     -33.967   5.228   2.539  1.00 20.00    -0.171 F 
HETATM    3  F6  UNL     1     -35.757   5.287   3.780  1.00 20.00    -0.171 F 
HETATM    4  F7  UNL     1     -34.109   6.652   4.193  1.00 20.00    -0.171 F 
ENDROOT
BRANCH   1   5
HETATM    5  C2  UNL     1     -33.816   4.369   4.737  1.00 20.00     0.186 C 
BRANCH   5   6
HETATM    6  C1  UNL     1     -34.296   4.516   6.160  1.00 20.00     0.239 C 
HETATM    7  O4  UNL     1     -35.061   5.389   6.554  1.00 20.00    -0.307 OA
ENDBRANCH   5   6
ENDBRANCH   1   5
TORSDOF 2
