REMARK  2 active torsions:
REMARK  status: ('A' for Active; 'I' for Inactive)
REMARK    1  A    between atoms: C1_1  and  C3_3 
REMARK    2  A    between atoms: C2_2  and  C4_4 
ROOT
HETATM    1  C1  UNL     1     -32.845   7.971   2.130  1.00 20.00     0.017 C 
HETATM    2  C2  UNL     1     -33.104   7.152   2.968  1.00 20.00     0.017 C 
ENDROOT
BRANCH   1   3
HETATM    3  C3  UNL     1     -32.533   8.960   1.115  1.00 20.00     0.459 C 
HETATM    4  F5  UNL     1     -31.275   8.793   0.650  1.00 20.00    -0.159 F 
HETATM    5  F6  UNL     1     -33.382   8.862   0.068  1.00 20.00    -0.159 F 
HETATM    6  F7  UNL     1     -32.630  10.212   1.616  1.00 20.00    -0.159 F 
ENDBRANCH   1   3
BRANCH   2   7
HETATM    7  C4  UNL     1     -33.416   6.161   3.982  1.00 20.00     0.459 C 
HETATM    8  F8  UNL     1     -34.540   5.482   3.661  1.00 20.00    -0.159 F 
HETATM    9  F9  UNL     1     -33.610   6.746   5.185  1.00 20.00    -0.159 F 
HETATM   10  F10 UNL     1     -32.410   5.267   4.109  1.00 20.00    -0.159 F 
ENDBRANCH   2   7
TORSDOF 2
