REMARK  1 active torsions:
REMARK  status: ('A' for Active; 'I' for Inactive)
REMARK    1  A    between atoms: C4_4  and  O5_5 
ROOT
HETATM    1  C1  UNL     1     -34.712   3.871   6.145  1.00 20.00     0.014 C 
HETATM    2  C2  UNL     1     -34.829   4.324   5.039  1.00 20.00    -0.091 C 
HETATM    3  C4  UNL     1     -34.974   4.873   3.691  1.00 20.00     0.259 C 
ENDROOT
BRANCH   3   4
HETATM    4  O5  UNL     1     -34.311   6.127   3.591  1.00 20.00    -0.384 OA
HETATM    5  C3  UNL     1     -32.911   5.964   3.409  1.00 20.00     0.202 C 
ENDBRANCH   3   4
TORSDOF 1
