REMARK  3 active torsions:
REMARK  status: ('A' for Active; 'I' for Inactive)
REMARK    1  A    between atoms: C1_1  and  C3_3 
REMARK    2  A    between atoms: C1_1  and  O4_4 
REMARK    3  A    between atoms: C2_2  and  O4_4 
ROOT
HETATM    1  C1  UNL     1     -33.671   6.694   3.858  1.00 20.00     0.291 C 
ENDROOT
BRANCH   1   2
HETATM    2  C3  UNL     1     -32.639   6.613   2.763  1.00 20.00     0.408 C 
HETATM    3  F7  UNL     1     -31.434   6.272   3.270  1.00 20.00    -0.169 F 
HETATM    4  F8  UNL     1     -32.500   7.798   2.132  1.00 20.00    -0.169 F 
HETATM    5  F9  UNL     1     -32.974   5.684   1.842  1.00 20.00    -0.169 F 
ENDBRANCH   1   2
BRANCH   1   6
HETATM    6  O4  UNL     1     -33.767   5.431   4.499  1.00 20.00    -0.324 OA
BRANCH   6   7
HETATM    7  C2  UNL     1     -34.734   5.419   5.539  1.00 20.00     0.500 C 
HETATM    8  F5  UNL     1     -34.760   4.196   6.119  1.00 20.00    -0.185 F 
HETATM    9  F6  UNL     1     -34.390   6.323   6.487  1.00 20.00    -0.185 F 
ENDBRANCH   6   7
ENDBRANCH   1   6
TORSDOF 3
