REMARK  0 active torsions:
REMARK  status: ('A' for Active; 'I' for Inactive)
ROOT
HETATM    1  C1  UNL     1     -34.047   4.238   5.916  1.00 20.00     0.009 A 
HETATM    2  C2  UNL     1     -35.342   4.841   6.379  1.00 20.00     0.009 A 
HETATM    3  C3  UNL     1     -34.727   5.292   5.074  1.00 20.00    -0.048 A 
HETATM    4  C4  UNL     1     -34.108   6.661   5.022  1.00 20.00     0.015 C 
HETATM    5  C5  UNL     1     -35.388   4.855   3.795  1.00 20.00     0.015 C 
ENDROOT
TORSDOF 0
