REMARK  1 active torsions:
REMARK  status: ('A' for Active; 'I' for Inactive)
REMARK    1  A    between atoms: C2_2  and  C3_3 
ROOT
HETATM    1  C1  UNL     1     -34.439   5.959   6.637  1.00 20.00     0.023 C 
HETATM    2  C2  UNL     1     -34.644   5.161   5.579  1.00 20.00    -0.009 C 
HETATM    3  C4  UNL     1     -34.909   3.692   5.741  1.00 20.00     0.052 C 
ENDROOT
BRANCH   2   4
HETATM    4  C3  UNL     1     -34.621   5.689   4.166  1.00 20.00     0.247 C 
HETATM    5  O5  UNL     1     -35.641   5.563   3.488  1.00 20.00    -0.274 OA
HETATM    6 CL6  UNL     1     -33.170   6.452   3.540  1.00 20.00    -0.039 Cl
ENDBRANCH   2   4
TORSDOF 1
