REMARK  0 active torsions:
REMARK  status: ('A' for Active; 'I' for Inactive)
ROOT
HETATM    1  C1  UNL     1     -35.027   5.047   6.408  1.00 20.00     0.000 C 
HETATM    2  C2  UNL     1     -35.159   4.059   5.253  1.00 20.00     0.000 C 
HETATM    3  C3  UNL     1     -33.853   6.021   6.309  1.00 20.00     0.004 C 
HETATM    4  C4  UNL     1     -35.221   4.683   3.859  1.00 20.00     0.004 C 
HETATM    5  C5  UNL     1     -34.068   7.094   5.237  1.00 20.00     0.049 C 
HETATM    6  C6  UNL     1     -33.873   5.247   3.411  1.00 20.00     0.049 C 
HETATM    7  C7  UNL     1     -31.765   7.384   2.523  1.00 20.00     0.180 C 
HETATM    8  C8  UNL     1     -32.702   8.517   2.158  1.00 20.00     0.103 C 
HETATM    9  C9  UNL     1     -33.583   6.697   3.835  1.00 20.00     0.108 C 
HETATM   10  O10 UNL     1     -32.149   6.883   3.808  1.00 20.00    -0.369 OA
HETATM   11  S11 UNL     1     -34.314   7.867   2.620  1.00 20.00    -0.129 SA
ENDROOT
TORSDOF 0
