REMARK  1 active torsions:
REMARK  status: ('A' for Active; 'I' for Inactive)
REMARK    1  A    between atoms: C4_4  and  C7_7 
ROOT
HETATM    1  C1  UNL     1     -35.311   5.370   6.766  1.00 20.00     0.135 A 
HETATM    2  C2  UNL     1     -35.397   4.525   5.682  1.00 20.00     0.136 A 
HETATM    3  C3  UNL     1     -33.612   6.509   5.744  1.00 20.00     0.143 A 
HETATM    4  C4  UNL     1     -33.697   5.663   4.660  1.00 20.00     0.055 A 
HETATM    5  N8  UNL     1     -34.417   6.378   6.816  1.00 20.00    -0.270 NA
HETATM    6  N9  UNL     1     -34.591   4.656   4.609  1.00 20.00    -0.262 NA
ENDROOT
BRANCH   4   7
HETATM    7  C7  UNL     1     -32.772   5.841   3.470  1.00 20.00     0.031 C 
HETATM    8  C5  UNL     1     -32.328   7.298   3.315  1.00 20.00     0.016 C 
HETATM    9  C6  UNL     1     -33.412   5.326   2.178  1.00 20.00     0.016 C 
ENDBRANCH   4   7
TORSDOF 1
