REMARK  2 active torsions:
REMARK  status: ('A' for Active; 'I' for Inactive)
REMARK    1  A    between atoms: C1_1  and  C2_2 
REMARK    2  A    between atoms: C1_1  and  C3_3 
ROOT
HETATM    1  C1  UNL     1     -33.686   6.490   4.091  1.00 20.00     0.148 C 
HETATM    2 CL4  UNL     1     -34.243   5.242   2.907  1.00 20.00    -0.119 Cl
ENDROOT
BRANCH   1   3
HETATM    3  C2  UNL     1     -32.238   6.905   3.751  1.00 20.00     0.199 C 
HETATM    4 CL5  UNL     1     -32.095   7.465   2.053  1.00 20.00    -0.106 Cl
HETATM    5 CL6  UNL     1     -31.657   8.231   4.801  1.00 20.00    -0.106 Cl
ENDBRANCH   1   3
BRANCH   1   6
HETATM    6  C3  UNL     1     -33.884   5.982   5.537  1.00 20.00     0.199 C 
HETATM    7 CL7  UNL     1     -35.354   4.990   5.735  1.00 20.00    -0.106 Cl
HETATM    8 CL8  UNL     1     -33.914   7.330   6.715  1.00 20.00    -0.106 Cl
ENDBRANCH   1   6
TORSDOF 2
