REMARK  0 active torsions:
REMARK  status: ('A' for Active; 'I' for Inactive)
ROOT
HETATM    1  C1  UNL     1     -33.209   6.194   4.701  1.00 20.00    -0.011 C 
HETATM    2  C2  UNL     1     -34.203   5.297   4.043  1.00 20.00     0.155 C 
HETATM    3  C3  UNL     1     -32.174   6.633   3.973  1.00 20.00    -0.078 C 
HETATM    4  C4  UNL     1     -33.419   6.525   6.147  1.00 20.00     0.042 C 
HETATM    5  C5  UNL     1     -34.801   4.197   4.894  1.00 20.00     0.083 C 
HETATM    6  C6  UNL     1     -33.851   5.302   6.952  1.00 20.00     0.005 C 
HETATM    7  C7  UNL     1     -35.076   4.646   6.324  1.00 20.00     0.008 C 
HETATM    8  C8  UNL     1     -31.124   7.538   4.548  1.00 20.00     0.043 C 
HETATM    9  C9  UNL     1     -31.995   6.248   2.533  1.00 20.00     0.043 C 
HETATM   10  O10 UNL     1     -34.469   5.396   2.846  1.00 20.00    -0.293 OA
ENDROOT
TORSDOF 0
