REMARK  0 active torsions:
REMARK  status: ('A' for Active; 'I' for Inactive)
ROOT
HETATM    1  C1  UNL     1     -34.828   3.883   5.879  1.00 20.00     0.196 C 
HETATM    2  C2  UNL     1     -35.117   4.320   4.469  1.00 20.00     0.196 C 
HETATM    3  C3  UNL     1     -33.997   5.955   5.548  1.00 20.00     0.337 C 
HETATM    4  O4  UNL     1     -34.565   5.112   6.554  1.00 20.00    -0.365 OA
HETATM    5  O5  UNL     1     -34.179   5.373   4.253  1.00 20.00    -0.365 OA
ENDROOT
TORSDOF 0
