REMARK  3 active torsions:
REMARK  status: ('A' for Active; 'I' for Inactive)
REMARK    1  A    between atoms: C6_6  and  C9_9 
REMARK    2  A    between atoms: C7_7  and  C8_8 
REMARK    3  A    between atoms: C7_7  and  C9_9 
ROOT
HETATM    1  C4  UNL     1     -34.853   4.475   3.566  1.00 20.00     0.015 C 
HETATM    2  C5  UNL     1     -32.519   4.756   4.378  1.00 20.00     0.015 C 
HETATM    3  C9  UNL     1     -33.756   5.519   3.848  1.00 20.00    -0.048 C 
ENDROOT
BRANCH   3   4
HETATM    4  C6  UNL     1     -34.285   6.480   4.950  1.00 20.00     0.004 C 
HETATM    5  C1  UNL     1     -34.643   5.835   6.283  1.00 20.00     0.006 C 
ENDBRANCH   3   4
BRANCH   3   6
HETATM    6  C7  UNL     1     -33.331   6.257   2.543  1.00 20.00     0.012 C 
BRANCH   6   7
HETATM    7  C8  UNL     1     -32.688   7.655   2.701  1.00 20.00    -0.022 C 
HETATM    8  C2  UNL     1     -31.409   7.552   3.540  1.00 20.00     0.009 C 
HETATM    9  C3  UNL     1     -32.335   8.280   1.347  1.00 20.00     0.009 C 
ENDBRANCH   6   7
ENDBRANCH   3   6
TORSDOF 3
