REMARK  0 active torsions:
REMARK  status: ('A' for Active; 'I' for Inactive)
ROOT
HETATM    1  C1  UNL     1     -33.908   4.721   5.347  1.00 20.00     0.002 C 
HETATM    2  C2  UNL     1     -34.954   4.533   4.246  1.00 20.00     0.002 C 
HETATM    3  C3  UNL     1     -33.443   6.176   5.248  1.00 20.00     0.032 C 
HETATM    4  C4  UNL     1     -35.068   5.881   3.530  1.00 20.00     0.032 C 
HETATM    5  C5  UNL     1     -32.982   8.546   2.080  1.00 20.00     0.086 C 
HETATM    6  C6  UNL     1     -31.803   7.600   2.154  1.00 20.00     0.086 C 
HETATM    7  C7  UNL     1     -33.737   6.586   3.803  1.00 20.00     0.056 C 
HETATM    8  S8  UNL     1     -33.888   8.396   3.638  1.00 20.00    -0.147 SA
HETATM    9  S9  UNL     1     -32.430   5.979   2.661  1.00 20.00    -0.147 SA
ENDROOT
TORSDOF 0
