REMARK  3 active torsions:
REMARK  status: ('A' for Active; 'I' for Inactive)
REMARK    1  A    between atoms: C2_2  and  C3_3 
REMARK    2  A    between atoms: C3_3  and  C5_5 
REMARK    3  A    between atoms: C4_4  and  C5_5 
ROOT
HETATM    1  C5  UNL     1     -34.076   5.177   3.485  1.00 20.00     0.096 C 
HETATM    2 CL7  UNL     1     -35.739   5.850   3.378  1.00 20.00    -0.124 Cl
ENDROOT
BRANCH   1   3
HETATM    3  C3  UNL     1     -33.118   5.990   2.598  1.00 20.00     0.021 C 
BRANCH   3   4
HETATM    4  C2  UNL     1     -32.967   7.449   3.043  1.00 20.00    -0.003 C 
HETATM    5  C1  UNL     1     -31.984   8.200   2.157  1.00 20.00     0.005 C 
ENDBRANCH   3   4
ENDBRANCH   1   3
BRANCH   1   6
HETATM    6  C4  UNL     1     -33.667   5.174   4.959  1.00 20.00     0.134 C 
HETATM    7 CL6  UNL     1     -34.430   3.839   5.860  1.00 20.00    -0.129 Cl
ENDBRANCH   1   6
TORSDOF 3
