REMARK  0 active torsions:
REMARK  status: ('A' for Active; 'I' for Inactive)
ROOT
HETATM    1  C1  UNL     1     -33.689   6.824   3.594  1.00 20.00     0.117 C 
HETATM    2  C2  UNL     1     -34.336   4.814   5.476  1.00 20.00     0.117 C 
HETATM    3  C3  UNL     1     -32.419   7.546   3.164  1.00 20.00     0.033 C 
HETATM    4  C4  UNL     1     -35.281   4.698   6.664  1.00 20.00     0.033 C 
HETATM    5  S5  UNL     1     -33.640   6.514   5.405  1.00 20.00    -0.137 SA
HETATM    6  S6  UNL     1     -33.862   5.272   2.678  1.00 20.00    -0.081 SA
HETATM    7  S7  UNL     1     -35.211   4.410   3.944  1.00 20.00    -0.081 SA
ENDROOT
TORSDOF 0
