REMARK  3 active torsions:
REMARK  status: ('A' for Active; 'I' for Inactive)
REMARK    1  A    between atoms: C1_1  and  C5_5 
REMARK    2  A    between atoms: C2_2  and  C6_6 
REMARK    3  A    between atoms: C6_6  and  C7_7 
ROOT
HETATM    1  C1  UNL     1     -31.743   7.520   3.123  1.00 20.00     0.150 A 
HETATM    2  C2  UNL     1     -32.604   6.872   4.180  1.00 20.00     0.151 A 
HETATM    3  O8  UNL     1     -31.841   6.095   3.247  1.00 20.00    -0.376 OA
ENDROOT
BRANCH   2   4
HETATM    4  C6  UNL     1     -34.111   6.724   4.051  1.00 20.00     0.034 C 
BRANCH   4   5
HETATM    5  C7  UNL     1     -34.578   5.342   4.503  1.00 20.00    -0.002 C 
HETATM    6  C4  UNL     1     -34.195   5.070   5.949  1.00 20.00     0.005 C 
ENDBRANCH   4   5
ENDBRANCH   2   4
BRANCH   1   7
HETATM    7  C5  UNL     1     -32.288   8.074   1.856  1.00 20.00     0.030 C 
HETATM    8  C3  UNL     1     -32.834   9.472   2.006  1.00 20.00     0.007 C 
ENDBRANCH   1   7
TORSDOF 3
