REMARK  0 active torsions:
REMARK  status: ('A' for Active; 'I' for Inactive)
ROOT
HETATM    1  C1  UNL     1     -32.770   6.204   3.993  1.00 20.00     0.050 C 
HETATM    2  C2  UNL     1     -33.536   5.624   2.819  1.00 20.00     0.171 C 
HETATM    3  C3  UNL     1     -33.903   6.637   4.895  1.00 20.00     0.128 C 
HETATM    4  C4  UNL     1     -34.912   5.511   4.708  1.00 20.00     0.235 C 
HETATM    5  O5  UNL     1     -34.778   5.110   3.333  1.00 20.00    -0.369 OA
HETATM    6 CL6  UNL     1     -33.393   6.959   6.554  1.00 20.00    -0.121 Cl
HETATM    7 CL7  UNL     1     -34.611   4.066   5.714  1.00 20.00    -0.094 Cl
ENDROOT
TORSDOF 0
