REMARK  2 active torsions:
REMARK  status: ('A' for Active; 'I' for Inactive)
REMARK    1  A    between atoms: C6_6  and  C7_7 
REMARK    2  A    between atoms: C7_7  and  O8_8 
ROOT
HETATM    1  C1  UNL     1     -32.691   7.562   2.759  1.00 20.00     0.015 C 
HETATM    2  C2  UNL     1     -33.280   6.680   3.322  1.00 20.00    -0.079 C 
HETATM    3  C5  UNL     1     -33.581   4.244   3.417  1.00 20.00     0.061 C 
HETATM    4  C7  UNL     1     -34.008   5.594   4.008  1.00 20.00     0.119 C 
ENDROOT
BRANCH   4   5
HETATM    5  C6  UNL     1     -33.818   5.642   5.553  1.00 20.00     0.024 C 
HETATM    6  C3  UNL     1     -34.276   6.957   6.195  1.00 20.00     0.014 C 
HETATM    7  C4  UNL     1     -34.490   4.460   6.268  1.00 20.00     0.014 C 
ENDBRANCH   4   5
BRANCH   4   8
HETATM    8  O8  UNL     1     -35.403   5.748   3.718  1.00 20.00    -0.378 OA
HETATM    9  H20 UNL     1     -35.486   5.686   2.756  1.00 20.00     0.211 HD
ENDBRANCH   4   8
TORSDOF 2
