REMARK  3 active torsions:
REMARK  status: ('A' for Active; 'I' for Inactive)
REMARK    1  A    between atoms: C2_2  and  C6_6 
REMARK    2  A    between atoms: C6_6  and  O9_9 
REMARK    3  A    between atoms: C7_7  and  O9_9 
ROOT
HETATM    1  O9  UNL     1     -33.100   6.673   3.987  1.00 20.00    -0.379 OA
ENDROOT
BRANCH   1   2
HETATM    2  C6  UNL     1     -32.776   6.681   2.606  1.00 20.00     0.202 C 
BRANCH   2   3
HETATM    3  C2  UNL     1     -32.049   7.968   2.277  1.00 20.00     0.169 A 
HETATM    4  C1  UNL     1     -32.801   9.251   2.054  1.00 20.00     0.202 A 
HETATM    5  O8  UNL     1     -32.295   8.470   0.959  1.00 20.00    -0.379 OA
ENDBRANCH   2   3
ENDBRANCH   1   2
BRANCH   1   6
HETATM    6  C7  UNL     1     -33.789   5.477   4.351  1.00 20.00     0.050 C 
HETATM    7  C3  UNL     1     -32.885   4.283   4.044  1.00 20.00     0.045 C 
HETATM    8  C4  UNL     1     -34.088   5.554   5.846  1.00 20.00     0.045 C 
HETATM    9  C5  UNL     1     -35.086   5.398   3.546  1.00 20.00     0.045 C 
ENDBRANCH   1   6
TORSDOF 3
