REMARK  0 active torsions:
REMARK  status: ('A' for Active; 'I' for Inactive)
ROOT
HETATM    1  C1  UNL     1     -32.835   6.483   4.026  1.00 20.00    -0.007 C 
HETATM    2  C2  UNL     1     -33.072   5.085   3.504  1.00 20.00     0.056 C 
HETATM    3  C3  UNL     1     -35.167   7.030   4.283  1.00 20.00     0.011 C 
HETATM    4  C4  UNL     1     -35.504   5.605   3.789  1.00 20.00     0.011 C 
HETATM    5  C5  UNL     1     -33.868   6.820   5.088  1.00 20.00     0.034 C 
HETATM    6  C6  UNL     1     -34.334   4.744   4.353  1.00 20.00    -0.032 C 
HETATM    7  C7  UNL     1     -34.053   5.422   5.733  1.00 20.00    -0.032 C 
HETATM    8  C8  UNL     1     -34.642   3.259   4.370  1.00 20.00     0.016 C 
HETATM    9  C9  UNL     1     -35.215   5.356   6.744  1.00 20.00     0.016 C 
HETATM   10  C10 UNL     1     -32.800   4.917   6.478  1.00 20.00     0.016 C 
HETATM   11  S11 UNL     1     -31.633   7.502   3.499  1.00 20.00    -0.089 SA
ENDROOT
TORSDOF 0
