REMARK  0 active torsions:
REMARK  status: ('A' for Active; 'I' for Inactive)
ROOT
HETATM    1  C1  UNL     1     -32.897   5.887   2.406  1.00 20.00     0.003 C 
HETATM    2  C2  UNL     1     -33.979   5.118   2.243  1.00 20.00    -0.025 C 
HETATM    3  C3  UNL     1     -32.635   6.589   3.654  1.00 20.00    -0.059 C 
HETATM    4  C4  UNL     1     -33.284   6.237   4.791  1.00 20.00    -0.070 C 
HETATM    5  C5  UNL     1     -34.965   4.929   3.352  1.00 20.00     0.040 C 
HETATM    6  C6  UNL     1     -34.351   5.116   4.773  1.00 20.00    -0.021 C 
HETATM    7  C7  UNL     1     -31.602   7.676   3.533  1.00 20.00     0.048 C 
HETATM    8  C8  UNL     1     -32.980   6.858   6.133  1.00 20.00     0.044 C 
HETATM    9  C9  UNL     1     -35.525   5.407   5.733  1.00 20.00     0.020 C 
HETATM   10  C10 UNL     1     -33.678   3.796   5.210  1.00 20.00     0.020 C 
ENDROOT
TORSDOF 0
