REMARK  1 active torsions:
REMARK  status: ('A' for Active; 'I' for Inactive)
REMARK    1  A    between atoms: C5_5  and  O10_10 
ROOT
HETATM    1  C1  UNL     1     -33.529   7.518   4.626  1.00 20.00     0.007 C 
HETATM    2  C2  UNL     1     -33.718   6.735   5.702  1.00 20.00    -0.084 C 
HETATM    3  C3  UNL     1     -34.053   5.266   5.577  1.00 20.00     0.042 C 
HETATM    4  C4  UNL     1     -33.640   5.491   3.103  1.00 20.00     0.045 C 
HETATM    5  C5  UNL     1     -33.614   7.021   3.212  1.00 20.00     0.142 C 
HETATM    6  C6  UNL     1     -34.538   4.832   4.170  1.00 20.00    -0.042 C 
HETATM    7  C7  UNL     1     -33.597   7.268   7.099  1.00 20.00     0.043 C 
HETATM    8  C8  UNL     1     -36.014   5.229   3.964  1.00 20.00     0.015 C 
HETATM    9  C9  UNL     1     -34.434   3.301   4.048  1.00 20.00     0.015 C 
ENDROOT
BRANCH   5  10
HETATM   10  O10 UNL     1     -32.506   7.518   2.465  1.00 20.00    -0.392 OA
HETATM   11  H26 UNL     1     -32.604   7.173   1.564  1.00 20.00     0.210 HD
ENDBRANCH   5  10
TORSDOF 1
