REMARK  2 active torsions:
REMARK  status: ('A' for Active; 'I' for Inactive)
REMARK    1  A    between atoms: C1_1  and  C2_2 
REMARK    2  A    between atoms: C1_1  and  C3_3 
ROOT
HETATM    1  C1  UNL     1     -34.381   5.753   4.099  1.00 20.00     0.173 C 
HETATM    2  O4  UNL     1     -35.164   5.090   3.418  1.00 20.00    -0.294 OA
ENDROOT
BRANCH   1   3
HETATM    3  C2  UNL     1     -33.726   7.021   3.594  1.00 20.00     0.195 C 
HETATM    4 CL5  UNL     1     -32.207   6.655   2.762  1.00 20.00    -0.122 Cl
ENDBRANCH   1   3
BRANCH   1   5
HETATM    5  C3  UNL     1     -33.979   5.321   5.492  1.00 20.00     0.248 C 
HETATM    6 CL6  UNL     1     -34.846   3.827   5.865  1.00 20.00    -0.100 Cl
HETATM    7 CL7  UNL     1     -34.380   6.607   6.638  1.00 20.00    -0.100 Cl
ENDBRANCH   1   5
TORSDOF 2
