REMARK  2 active torsions:
REMARK  status: ('A' for Active; 'I' for Inactive)
REMARK    1  A    between atoms: C7_7  and  O9_9 
REMARK    2  A    between atoms: C8_8  and  O9_9 
ROOT
HETATM    1  O9  UNL     1     -33.521   4.915   4.389  1.00 20.00    -0.371 OA
ENDROOT
BRANCH   1   2
HETATM    2  C7  UNL     1     -34.655   5.271   5.181  1.00 20.00     0.051 C 
HETATM    3  C1  UNL     1     -35.909   5.147   4.316  1.00 20.00     0.045 C 
HETATM    4  C2  UNL     1     -34.717   4.300   6.358  1.00 20.00     0.045 C 
HETATM    5  C3  UNL     1     -34.473   6.705   5.675  1.00 20.00     0.045 C 
ENDBRANCH   1   2
BRANCH   1   6
HETATM    6  C8  UNL     1     -33.391   5.768   3.263  1.00 20.00     0.051 C 
HETATM    7  C4  UNL     1     -33.960   7.140   3.623  1.00 20.00     0.045 C 
HETATM    8  C5  UNL     1     -31.904   5.872   2.933  1.00 20.00     0.045 C 
HETATM    9  C6  UNL     1     -34.159   5.150   2.095  1.00 20.00     0.045 C 
ENDBRANCH   1   6
TORSDOF 2
