REMARK  5 active torsions:
REMARK  status: ('A' for Active; 'I' for Inactive)
REMARK    1  A    between atoms: C1_1  and  C5_5 
REMARK    2  A    between atoms: C1_1  and  C9_9 
REMARK    3  A    between atoms: C5_5  and  C6_6 
REMARK    4  A    between atoms: C7_7  and  C9_9 
REMARK    5  A    between atoms: C8_8  and  C9_9 
ROOT
HETATM    1  C1  UNL     1     -33.545   6.011   4.271  1.00 20.00     0.131 C 
HETATM    2  O10 UNL     1     -33.459   6.505   5.395  1.00 20.00    -0.298 OA
ENDROOT
BRANCH   1   3
HETATM    3  C5  UNL     1     -32.467   6.198   3.212  1.00 20.00     0.078 C 
BRANCH   3   4
HETATM    4  C6  UNL     1     -32.191   7.659   2.866  1.00 20.00     0.003 C 
HETATM    5  C2  UNL     1     -33.403   8.356   2.262  1.00 20.00     0.005 C 
ENDBRANCH   3   4
ENDBRANCH   1   3
BRANCH   1   6
HETATM    6  C9  UNL     1     -34.741   5.146   3.870  1.00 20.00     0.054 C 
BRANCH   6   7
HETATM    7  C7  UNL     1     -36.032   5.978   3.942  1.00 20.00     0.007 C 
HETATM    8  C3  UNL     1     -37.268   5.187   3.534  1.00 20.00     0.006 C 
ENDBRANCH   6   7
BRANCH   6   9
HETATM    9  C8  UNL     1     -34.839   3.920   4.793  1.00 20.00     0.007 C 
HETATM   10  C4  UNL     1     -35.039   4.297   6.256  1.00 20.00     0.006 C 
ENDBRANCH   6   9
ENDBRANCH   1   6
TORSDOF 5
