REMARK  3 active torsions:
REMARK  status: ('A' for Active; 'I' for Inactive)
REMARK    1  A    between atoms: C3_3  and  C5_5 
REMARK    2  A    between atoms: C4_4  and  C6_6 
REMARK    3  A    between atoms: C5_5  and  C6_6 
ROOT
HETATM    1  C6  UNL     1     -34.004   5.299   4.222  1.00 20.00     0.082 C 
HETATM    2 CL7  UNL     1     -35.697   5.657   3.757  1.00 20.00    -0.125 Cl
ENDROOT
BRANCH   1   3
HETATM    3  C4  UNL     1     -33.658   5.986   5.552  1.00 20.00     0.016 C 
HETATM    4  C2  UNL     1     -34.583   5.598   6.699  1.00 20.00     0.006 C 
ENDBRANCH   1   3
BRANCH   1   5
HETATM    5  C5  UNL     1     -33.040   5.751   3.113  1.00 20.00     0.020 C 
BRANCH   5   6
HETATM    6  C3  UNL     1     -33.062   7.262   2.863  1.00 20.00    -0.003 C 
HETATM    7  C1  UNL     1     -32.034   7.665   1.816  1.00 20.00     0.005 C 
ENDBRANCH   5   6
ENDBRANCH   1   5
TORSDOF 3
