REMARK  3 active torsions:
REMARK  status: ('A' for Active; 'I' for Inactive)
REMARK    1  A    between atoms: C1_1  and  C5_5 
REMARK    2  A    between atoms: C1_1  and  O8_8 
REMARK    3  A    between atoms: C6_6  and  O8_8 
ROOT
HETATM    1  O8  UNL     1     -33.013   5.289   4.721  1.00 20.00    -0.310 OA
ENDROOT
BRANCH   1   2
HETATM    2  C1  UNL     1     -33.247   6.405   3.964  1.00 20.00     0.273 C 
HETATM    3  O7  UNL     1     -34.333   6.947   3.816  1.00 20.00    -0.264 OA
BRANCH   2   4
HETATM    4  C5  UNL     1     -31.946   6.849   3.351  1.00 20.00     0.225 C 
HETATM    5 CL9  UNL     1     -32.206   8.278   2.337  1.00 20.00    -0.120 Cl
ENDBRANCH   2   4
ENDBRANCH   1   2
BRANCH   1   6
HETATM    6  C6  UNL     1     -34.154   4.737   5.379  1.00 20.00     0.060 C 
HETATM    7  C2  UNL     1     -35.183   4.345   4.320  1.00 20.00     0.045 C 
HETATM    8  C3  UNL     1     -33.687   3.508   6.156  1.00 20.00     0.045 C 
HETATM    9  C4  UNL     1     -34.724   5.789   6.329  1.00 20.00     0.045 C 
ENDBRANCH   1   6
TORSDOF 3
