REMARK  2 active torsions:
REMARK  status: ('A' for Active; 'I' for Inactive)
REMARK    1  A    between atoms: C5_5  and  C7_7 
REMARK    2  A    between atoms: C7_7  and  C8_8 
ROOT
HETATM    1  C1  UNL     1     -35.328   4.839   5.516  1.00 20.00    -0.030 C 
HETATM    2  C2  UNL     1     -34.752   4.758   4.313  1.00 20.00    -0.026 C 
HETATM    3  C3  UNL     1     -34.548   5.702   6.449  1.00 20.00     0.027 C 
HETATM    4  C4  UNL     1     -33.580   6.424   5.510  1.00 20.00     0.012 C 
HETATM    5  C5  UNL     1     -33.483   5.551   4.250  1.00 20.00     0.008 C 
ENDROOT
BRANCH   5   6
HETATM    6  C7  UNL     1     -33.359   6.382   2.981  1.00 20.00     0.008 C 
BRANCH   6   7
HETATM    7  C8  UNL     1     -32.071   7.203   2.975  1.00 20.00    -0.004 C 
HETATM    8  C6  UNL     1     -31.934   8.011   1.695  1.00 20.00     0.005 C 
ENDBRANCH   6   7
ENDBRANCH   5   6
TORSDOF 2
