REMARK  0 active torsions:
REMARK  status: ('A' for Active; 'I' for Inactive)
ROOT
HETATM    1  C1  UNL     1     -34.527   4.816   4.420  1.00 20.00    -0.013 A 
HETATM    2  C2  UNL     1     -34.203   5.720   3.485  1.00 20.00    -0.070 A 
HETATM    3  C3  UNL     1     -33.988   5.337   5.692  1.00 20.00     0.160 A 
HETATM    4  C4  UNL     1     -33.419   6.908   3.997  1.00 20.00     0.022 A 
HETATM    5  C5  UNL     1     -33.300   6.666   5.513  1.00 20.00     0.064 A 
HETATM    6  C6  UNL     1     -35.268   3.535   4.351  1.00 20.00     0.052 C 
HETATM    7  C7  UNL     1     -34.570   5.665   2.037  1.00 20.00     0.044 C 
HETATM    8  C8  UNL     1     -32.039   7.018   3.348  1.00 20.00     0.015 C 
HETATM    9  C9  UNL     1     -33.993   7.741   6.336  1.00 20.00     0.019 C 
HETATM   10  O10 UNL     1     -34.105   4.754   6.760  1.00 20.00    -0.292 OA
ENDROOT
TORSDOF 0
