REMARK  2 active torsions:
REMARK  status: ('A' for Active; 'I' for Inactive)
REMARK    1  A    between atoms: C2_2  and  C3_3 
REMARK    2  A    between atoms: C3_3  and  O4_4 
ROOT
HETATM    1  C3  UNL     1     -33.902   6.010   3.960  1.00 20.00     0.398 C 
HETATM    2  F6  UNL     1     -34.222   7.325   3.900  1.00 20.00    -0.171 F 
HETATM    3  F7  UNL     1     -34.873   5.322   3.307  1.00 20.00    -0.171 F 
ENDROOT
BRANCH   1   4
HETATM    4  C2  UNL     1     -33.844   5.542   5.397  1.00 20.00     0.367 C 
HETATM    5  F5  UNL     1     -34.069   6.608   6.210  1.00 20.00    -0.223 F 
HETATM    6 CL8  UNL     1     -35.074   4.304   5.732  1.00 20.00    -0.080 Cl
ENDBRANCH   1   4
BRANCH   1   7
HETATM    7  O4  UNL     1     -32.662   5.786   3.298  1.00 20.00    -0.328 OA
HETATM    8  C1  UNL     1     -31.695   6.782   3.600  1.00 20.00     0.208 C 
ENDBRANCH   1   7
TORSDOF 2
