REMARK  4 active torsions:
REMARK  status: ('A' for Active; 'I' for Inactive)
REMARK    1  A    between atoms: C5_5  and  C6_6 
REMARK    2  A    between atoms: C6_6  and  C9_9 
REMARK    3  A    between atoms: C7_7  and  C8_8 
REMARK    4  A    between atoms: C7_7  and  C9_9 
ROOT
HETATM    1  C4  UNL     1     -31.876   5.876   2.887  1.00 20.00     0.010 C 
HETATM    2  C9  UNL     1     -33.071   6.835   2.955  1.00 20.00    -0.018 C 
ENDROOT
BRANCH   2   3
HETATM    3  C6  UNL     1     -32.608   8.240   2.506  1.00 20.00     0.004 C 
BRANCH   3   4
HETATM    4  C5  UNL     1     -32.500   8.399   0.987  1.00 20.00    -0.004 C 
HETATM    5  C1  UNL     1     -32.016   9.792   0.610  1.00 20.00     0.005 C 
ENDBRANCH   3   4
ENDBRANCH   2   3
BRANCH   2   6
HETATM    6  C7  UNL     1     -33.700   6.868   4.366  1.00 20.00     0.008 C 
BRANCH   6   7
HETATM    7  C8  UNL     1     -34.290   5.538   4.879  1.00 20.00    -0.022 C 
HETATM    8  C2  UNL     1     -35.400   5.067   3.934  1.00 20.00     0.009 C 
HETATM    9  C3  UNL     1     -34.840   5.654   6.301  1.00 20.00     0.009 C 
ENDBRANCH   6   7
ENDBRANCH   2   6
TORSDOF 4
