REMARK  5 active torsions:
REMARK  status: ('A' for Active; 'I' for Inactive)
REMARK    1  A    between atoms: C3_3  and  C7_7 
REMARK    2  A    between atoms: C4_4  and  C8_8 
REMARK    3  A    between atoms: C7_7  and  C9_9 
REMARK    4  A    between atoms: C8_8  and  C10_10 
REMARK    5  A    between atoms: C9_9  and  C10_10 
ROOT
HETATM    1  C1  UNL     1     -32.078   8.796   0.988  1.00 20.00    -0.111 C 
HETATM    2  C3  UNL     1     -32.141   8.482   2.145  1.00 20.00    -0.107 C 
HETATM    3  C5  UNL     1     -32.005   9.177  -0.422  1.00 20.00     0.112 C 
ENDROOT
BRANCH   2   4
HETATM    4  C7  UNL     1     -32.217   8.098   3.562  1.00 20.00     0.094 C 
BRANCH   4   5
HETATM    5  C9  UNL     1     -33.018   6.811   3.770  1.00 20.00     0.013 C 
BRANCH   5   6
HETATM    6  C10 UNL     1     -34.488   6.952   3.351  1.00 20.00     0.013 C 
BRANCH   6   7
HETATM    7  C8  UNL     1     -35.289   5.665   3.557  1.00 20.00     0.094 C 
BRANCH   7   8
HETATM    8  C4  UNL     1     -35.309   5.241   4.964  1.00 20.00    -0.107 C 
HETATM    9  C2  UNL     1     -35.325   4.894   6.113  1.00 20.00    -0.111 C 
HETATM   10  C6  UNL     1     -35.343   4.474   7.513  1.00 20.00     0.112 C 
ENDBRANCH   7   8
ENDBRANCH   6   7
ENDBRANCH   5   6
ENDBRANCH   4   5
ENDBRANCH   2   4
TORSDOF 5
