REMARK  2 active torsions:
REMARK  status: ('A' for Active; 'I' for Inactive)
REMARK    1  A    between atoms: C1_1  and  C4_4 
REMARK    2  A    between atoms: C5_5  and  C8_8 
ROOT
HETATM    1  C2  UNL     1     -33.253   7.383   4.001  1.00 20.00     0.020 C 
HETATM    2  C3  UNL     1     -32.682   5.730   2.782  1.00 20.00     0.020 C 
HETATM    3  C4  UNL     1     -33.057   5.872   4.277  1.00 20.00     0.087 C 
HETATM    4  C5  UNL     1     -32.264   7.223   2.818  1.00 20.00    -0.010 C 
ENDROOT
BRANCH   3   5
HETATM    5  C1  UNL     1     -34.273   5.135   4.707  1.00 20.00     0.177 C 
HETATM    6  O9  UNL     1     -35.294   5.314   3.986  1.00 20.00    -0.648 OA
HETATM    7  O10 UNL     1     -34.125   4.424   5.740  1.00 20.00    -0.648 OA
ENDBRANCH   3   5
BRANCH   4   8
HETATM    8  C8  UNL     1     -32.554   8.039   1.575  1.00 20.00    -0.019 C 
HETATM    9  C6  UNL     1     -32.585   9.536   1.897  1.00 20.00     0.010 C 
HETATM   10  C7  UNL     1     -31.521   7.757   0.480  1.00 20.00     0.010 C 
ENDBRANCH   4   8
TORSDOF 2
