REMARK  2 active torsions:
REMARK  status: ('A' for Active; 'I' for Inactive)
REMARK    1  A    between atoms: C1_1  and  C3_3 
REMARK    2  A    between atoms: C2_2  and  C5_5 
ROOT
HETATM    1  C1  UNL     1     -32.561   6.795   4.026  1.00 20.00     0.003 C 
HETATM    2  C2  UNL     1     -33.736   6.205   3.766  1.00 20.00     0.049 C 
ENDROOT
BRANCH   1   3
HETATM    3  C3  UNL     1     -31.682   7.274   2.981  1.00 20.00    -0.004 C 
HETATM    4  C4  UNL     1     -32.124   7.894   1.877  1.00 20.00    -0.031 C 
HETATM    5  C6  UNL     1     -31.226   8.393   0.793  1.00 20.00     0.036 C 
ENDBRANCH   1   3
BRANCH   2   6
HETATM    6  C5  UNL     1     -34.658   5.703   4.822  1.00 20.00     0.145 C 
HETATM    7  C7  UNL     1     -34.285   5.848   6.274  1.00 20.00     0.096 C 
HETATM    8  O8  UNL     1     -35.718   5.174   4.487  1.00 20.00    -0.294 OA
ENDBRANCH   2   6
TORSDOF 2
