REMARK  2 active torsions:
REMARK  status: ('A' for Active; 'I' for Inactive)
REMARK    1  A    between atoms: C1_1  and  C2_2 
REMARK    2  A    between atoms: C2_2  and  C3_3 
ROOT
HETATM    1  C2  UNL     1     -33.453   5.604   4.286  1.00 20.00     0.203 C 
HETATM    2 CL8  UNL     1     -33.282   4.441   2.934  1.00 20.00    -0.115 Cl
ENDROOT
BRANCH   1   3
HETATM    3  C1  UNL     1     -33.716   7.013   3.757  1.00 20.00     0.143 C 
HETATM    4 CL7  UNL     1     -32.417   7.568   2.668  1.00 20.00    -0.129 Cl
ENDBRANCH   1   3
BRANCH   1   5
HETATM    5  C3  UNL     1     -34.579   5.140   5.193  1.00 20.00     0.405 C 
HETATM    6  F4  UNL     1     -34.707   5.928   6.281  1.00 20.00    -0.169 F 
HETATM    7  F5  UNL     1     -35.761   5.154   4.536  1.00 20.00    -0.169 F 
HETATM    8  F6  UNL     1     -34.375   3.873   5.619  1.00 20.00    -0.169 F 
ENDBRANCH   1   5
TORSDOF 2
