REMARK  0 active torsions:
REMARK  status: ('A' for Active; 'I' for Inactive)
ROOT
HETATM    1  C1  UNL     1     -33.111   6.721   3.055  1.00 20.00    -0.089 C 
HETATM    2  C2  UNL     1     -34.895   5.390   4.886  1.00 20.00    -0.089 C 
HETATM    3  C3  UNL     1     -32.675   7.732   2.289  1.00 20.00     0.014 C 
HETATM    4  C4  UNL     1     -35.329   4.379   5.652  1.00 20.00     0.014 C 
HETATM    5  C5  UNL     1     -32.716   6.572   4.504  1.00 20.00     0.037 C 
HETATM    6  C6  UNL     1     -34.051   5.658   2.539  1.00 20.00     0.037 C 
HETATM    7  C7  UNL     1     -33.954   6.453   5.401  1.00 20.00     0.037 C 
HETATM    8  C8  UNL     1     -35.289   5.538   3.436  1.00 20.00     0.037 C 
ENDROOT
TORSDOF 0
