REMARK  3 active torsions:
REMARK  status: ('A' for Active; 'I' for Inactive)
REMARK    1  A    between atoms: C2_2  and  C7_7 
REMARK    2  A    between atoms: C5_5  and  C6_6 
REMARK    3  A    between atoms: C6_6  and  C7_7 
ROOT
HETATM    1  C4  UNL     1     -34.422   5.256   2.300  1.00 20.00     0.012 C 
HETATM    2  C7  UNL     1     -34.158   6.109   3.542  1.00 20.00     0.012 C 
ENDROOT
BRANCH   2   3
HETATM    3  C2  UNL     1     -34.900   5.515   4.742  1.00 20.00     0.149 A 
HETATM    4  C1  UNL     1     -34.312   4.385   5.540  1.00 20.00     0.200 A 
HETATM    5  O8  UNL     1     -34.265   5.743   6.005  1.00 20.00    -0.381 OA
ENDBRANCH   2   3
BRANCH   2   6
HETATM    6  C6  UNL     1     -32.657   6.229   3.864  1.00 20.00     0.006 C 
BRANCH   6   7
HETATM    7  C5  UNL     1     -31.842   6.876   2.741  1.00 20.00    -0.004 C 
HETATM    8  C3  UNL     1     -32.377   8.257   2.394  1.00 20.00     0.005 C 
ENDBRANCH   6   7
ENDBRANCH   2   6
TORSDOF 3
