REMARK  2 active torsions:
REMARK  status: ('A' for Active; 'I' for Inactive)
REMARK    1  A    between atoms: C1_1  and  C5_5 
REMARK    2  A    between atoms: C1_1  and  C6_6 
ROOT
HETATM    1  C1  UNL     1     -33.593   6.868   4.216  1.00 20.00     0.167 C 
HETATM    2  O7  UNL     1     -34.681   7.285   3.809  1.00 20.00    -0.294 OA
ENDROOT
BRANCH   1   3
HETATM    3  C5  UNL     1     -33.497   6.135   5.539  1.00 20.00     0.248 C 
HETATM    4 CL8  UNL     1     -34.512   4.687   5.443  1.00 20.00    -0.100 Cl
HETATM    5 CL9  UNL     1     -34.054   7.227   6.816  1.00 20.00    -0.100 Cl
ENDBRANCH   1   3
BRANCH   1   6
HETATM    6  C6  UNL     1     -32.300   7.076   3.398  1.00 20.00     0.012 C 
HETATM    7  C2  UNL     1     -31.686   5.708   3.048  1.00 20.00     0.022 C 
HETATM    8  C3  UNL     1     -32.624   7.814   2.093  1.00 20.00     0.022 C 
HETATM    9  C4  UNL     1     -31.282   7.869   4.228  1.00 20.00     0.022 C 
ENDBRANCH   1   6
TORSDOF 2
