REMARK  2 active torsions:
REMARK  status: ('A' for Active; 'I' for Inactive)
REMARK    1  A    between atoms: C2_2  and  C3_3 
REMARK    2  A    between atoms: C2_2  and  C4_4 
ROOT
HETATM    1  C1  UNL     1     -35.042   5.468   3.262  1.00 20.00     0.016 C 
HETATM    2  C2  UNL     1     -33.950   5.632   4.027  1.00 20.00    -0.062 C 
ENDROOT
BRANCH   2   3
HETATM    3  C3  UNL     1     -34.057   5.680   5.526  1.00 20.00     0.149 C 
HETATM    4 CL5  UNL     1     -34.737   4.163   6.159  1.00 20.00    -0.126 Cl
ENDBRANCH   2   3
BRANCH   2   5
HETATM    5  C4  UNL     1     -32.587   5.775   3.409  1.00 20.00     0.149 C 
HETATM    6 CL6  UNL     1     -32.212   7.485   3.099  1.00 20.00    -0.126 Cl
ENDBRANCH   2   5
TORSDOF 2
