REMARK  2 active torsions:
REMARK  status: ('A' for Active; 'I' for Inactive)
REMARK    1  A    between atoms: C1_1  and  C2_2 
REMARK    2  A    between atoms: C1_1  and  C3_3 
ROOT
HETATM    1  C1  UNL     1     -33.522   5.268   4.774  1.00 20.00     0.234 C 
ENDROOT
BRANCH   1   2
HETATM    2  C2  UNL     1     -34.876   4.759   5.217  1.00 20.00     0.396 C 
HETATM    3  F4  UNL     1     -35.218   5.252   6.426  1.00 20.00    -0.171 F 
HETATM    4  F5  UNL     1     -35.832   5.133   4.337  1.00 20.00    -0.171 F 
HETATM    5  F6  UNL     1     -34.896   3.412   5.293  1.00 20.00    -0.171 F 
ENDBRANCH   1   2
BRANCH   1   6
HETATM    6  C3  UNL     1     -33.489   6.773   4.626  1.00 20.00     0.396 C 
HETATM    7  F7  UNL     1     -32.273   7.179   4.197  1.00 20.00    -0.171 F 
HETATM    8  F8  UNL     1     -33.736   7.391   5.800  1.00 20.00    -0.171 F 
HETATM    9  F9  UNL     1     -34.401   7.201   3.728  1.00 20.00    -0.171 F 
ENDBRANCH   1   6
TORSDOF 2
