REMARK  0 active torsions:
REMARK  status: ('A' for Active; 'I' for Inactive)
ROOT
HETATM    1  C1  UNL     1     -33.956   3.935   5.985  1.00 20.00     0.051 C 
HETATM    2  C2  UNL     1     -35.791   5.301   4.942  1.00 20.00     0.051 C 
HETATM    3  C3  UNL     1     -33.385   5.870   4.485  1.00 20.00     0.051 C 
HETATM    4  C4  UNL     1     -34.375   5.318   5.503  1.00 20.00     0.092 C 
HETATM    5  F5  UNL     1     -34.367   6.153   6.583  1.00 20.00    -0.244 F 
ENDROOT
TORSDOF 0
