REMARK  1 active torsions:
REMARK  status: ('A' for Active; 'I' for Inactive)
REMARK    1  A    between atoms: C4_4  and  C5_5 
ROOT
HETATM    1  C1  UNL     1     -34.662   6.249   6.037  1.00 20.00     0.015 C 
HETATM    2  C2  UNL     1     -35.703   5.576   3.868  1.00 20.00     0.015 C 
HETATM    3  C3  UNL     1     -34.636   3.849   5.345  1.00 20.00     0.015 C 
HETATM    4  C5  UNL     1     -34.538   5.296   4.833  1.00 20.00    -0.039 C 
ENDROOT
BRANCH   4   5
HETATM    5  C4  UNL     1     -33.174   5.560   4.155  1.00 20.00     0.122 C 
HETATM    6 CL6  UNL     1     -32.972   7.224   3.549  1.00 20.00    -0.130 Cl
ENDBRANCH   4   5
TORSDOF 1
