REMARK  0 active torsions:
REMARK  status: ('A' for Active; 'I' for Inactive)
ROOT
HETATM    1  C1  UNL     1     -32.509   6.621   3.792  1.00 20.00     0.053 A 
HETATM    2  C2  UNL     1     -33.528   6.347   4.608  1.00 20.00    -0.072 A 
HETATM    3  C3  UNL     1     -32.902   6.085   2.482  1.00 20.00     0.150 A 
HETATM    4  C4  UNL     1     -33.603   6.614   6.076  1.00 20.00     0.034 C 
HETATM    5  C5  UNL     1     -34.248   5.415   2.525  1.00 20.00     0.092 A 
HETATM    6  C6  UNL     1     -33.954   5.327   6.827  1.00 20.00     0.004 C 
HETATM    7  C7  UNL     1     -35.174   4.617   6.228  1.00 20.00     0.001 C 
HETATM    8  C8  UNL     1     -34.996   4.346   4.730  1.00 20.00     0.009 C 
HETATM    9  C9  UNL     1     -34.690   5.640   3.970  1.00 20.00     0.022 A 
HETATM   10  O10 UNL     1     -32.198   6.176   1.487  1.00 20.00    -0.293 OA
ENDROOT
TORSDOF 0
