REMARK  2 active torsions:
REMARK  status: ('A' for Active; 'I' for Inactive)
REMARK    1  A    between atoms: C1_1  and  C3_3 
REMARK    2  A    between atoms: C2_2  and  C3_3 
ROOT
HETATM    1  C3  UNL     1     -33.956   6.217   3.556  1.00 20.00     0.187 C 
HETATM    2 BR7  UNL     1     -34.047   4.850   2.157  1.00 20.00    -0.077 Br
ENDROOT
BRANCH   1   3
HETATM    3  C1  UNL     1     -34.464   5.532   4.827  1.00 20.00     0.190 C 
HETATM    4  O4  UNL     1     -34.056   6.051   5.907  1.00 20.00    -0.647 OA
HETATM    5  O5  UNL     1     -35.212   4.529   4.660  1.00 20.00    -0.647 OA
ENDBRANCH   1   3
BRANCH   1   6
HETATM    6  C2  UNL     1     -32.553   6.788   3.601  1.00 20.00     0.248 C 
HETATM    7  F6  UNL     1     -32.230   7.346   2.403  1.00 20.00    -0.254 F 
ENDBRANCH   1   6
TORSDOF 2
