REMARK  4 active torsions:
REMARK  status: ('A' for Active; 'I' for Inactive)
REMARK    1  A    between atoms: C5_5  and  O8_8 
REMARK    2  A    between atoms: C6_6  and  O9_9 
REMARK    3  A    between atoms: C7_7  and  O8_8 
REMARK    4  A    between atoms: C7_7  and  O9_9 
ROOT
HETATM    1  C1  UNL     1     -32.481  10.074   1.261  1.00 20.00     0.014 C 
HETATM    2  C2  UNL     1     -32.427   8.937   1.644  1.00 20.00    -0.091 C 
HETATM    3  C5  UNL     1     -32.359   7.552   2.110  1.00 20.00     0.263 C 
ENDROOT
BRANCH   3   4
HETATM    4  O8  UNL     1     -33.422   7.278   3.013  1.00 20.00    -0.350 OA
BRANCH   4   5
HETATM    5  C7  UNL     1     -33.406   5.935   3.503  1.00 20.00     0.256 C 
HETATM    6  C4  UNL     1     -34.014   5.010   2.455  1.00 20.00     0.070 C 
BRANCH   5   7
HETATM    7  O9  UNL     1     -34.209   5.806   4.684  1.00 20.00    -0.362 OA
BRANCH   7   8
HETATM    8  C6  UNL     1     -33.884   4.641   5.431  1.00 20.00     0.166 C 
HETATM    9  C3  UNL     1     -34.771   4.578   6.656  1.00 20.00     0.033 C 
ENDBRANCH   7   8
ENDBRANCH   5   7
ENDBRANCH   4   5
ENDBRANCH   3   4
TORSDOF 4
