REMARK  2 active torsions:
REMARK  status: ('A' for Active; 'I' for Inactive)
REMARK    1  A    between atoms: C6_6  and  C7_7 
REMARK    2  A    between atoms: C6_6  and  C8_8 
ROOT
HETATM    1  C1  UNL     1     -32.806   7.837   2.432  1.00 20.00     0.068 C 
HETATM    2  C4  UNL     1     -34.043   5.738   2.304  1.00 20.00     0.031 C 
HETATM    3  C5  UNL     1     -31.813   5.811   3.428  1.00 20.00     0.031 C 
HETATM    4  C8  UNL     1     -33.110   6.597   3.184  1.00 20.00     0.042 C 
HETATM    5  N9  UNL     1     -32.573   8.804   1.835  1.00 20.00    -0.196 NA
ENDROOT
BRANCH   4   6
HETATM    6  C6  UNL     1     -33.855   6.921   4.509  1.00 20.00     0.027 C 
BRANCH   6   7
HETATM    7  C7  UNL     1     -33.831   5.870   5.645  1.00 20.00    -0.021 C 
HETATM    8  C2  UNL     1     -34.465   4.567   5.141  1.00 20.00     0.009 C 
HETATM    9  C3  UNL     1     -34.550   6.317   6.917  1.00 20.00     0.009 C 
ENDBRANCH   6   7
ENDBRANCH   4   6
TORSDOF 2
