REMARK  3 active torsions:
REMARK  status: ('A' for Active; 'I' for Inactive)
REMARK    1  A    between atoms: C3_3  and  C4_4 
REMARK    2  A    between atoms: C3_3  and  N5_5 
REMARK    3  A    between atoms: C4_4  and  O6_6 
ROOT
HETATM    1  C1  UNL     1     -31.892   7.580   2.556  1.00 20.00     0.157 C 
HETATM    2  N5  UNL     1     -31.782   6.820   3.444  1.00 20.00    -0.273 NA
HETATM    3  S7  UNL     1     -32.013   8.606   1.344  1.00 20.00    -0.055 SA
ENDROOT
BRANCH   2   4
HETATM    4  C3  UNL     1     -33.008   6.587   4.212  1.00 20.00     0.176 C 
BRANCH   4   5
HETATM    5  C4  UNL     1     -33.784   5.448   3.576  1.00 20.00     0.189 C 
BRANCH   5   6
HETATM    6  O6  UNL     1     -34.979   5.223   4.313  1.00 20.00    -0.394 OA
HETATM    7  C2  UNL     1     -34.739   4.421   5.462  1.00 20.00     0.201 C 
ENDBRANCH   5   6
ENDBRANCH   4   5
ENDBRANCH   2   4
TORSDOF 3
