REMARK  3 active torsions:
REMARK  status: ('A' for Active; 'I' for Inactive)
REMARK    1  A    between atoms: C3_3  and  C4_4 
REMARK    2  A    between atoms: C5_5  and  C8_8 
REMARK    3  A    between atoms: C6_6  and  C8_8 
ROOT
HETATM    1  C4  UNL     1     -33.432   6.970   3.638  1.00 20.00    -0.004 C 
HETATM    2  C6  UNL     1     -33.407   5.795   4.286  1.00 20.00    -0.019 C 
ENDROOT
BRANCH   2   3
HETATM    3  C8  UNL     1     -34.501   5.333   5.218  1.00 20.00     0.026 C 
HETATM    4  C7  UNL     1     -34.188   3.929   5.740  1.00 20.00     0.018 C 
BRANCH   3   5
HETATM    5  C5  UNL     1     -34.657   6.292   6.372  1.00 20.00    -0.029 C 
HETATM    6  C2  UNL     1     -33.657   7.029   6.871  1.00 20.00     0.007 C 
ENDBRANCH   3   5
ENDBRANCH   2   3
BRANCH   1   7
HETATM    7  C3  UNL     1     -32.380   7.402   2.748  1.00 20.00    -0.011 C 
HETATM    8  C1  UNL     1     -32.399   8.573   2.100  1.00 20.00     0.011 C 
ENDBRANCH   1   7
TORSDOF 3
