REMARK  1 active torsions:
REMARK  status: ('A' for Active; 'I' for Inactive)
REMARK    1  A    between atoms: C1_1  and  C7_7 
ROOT
HETATM    1  C2  UNL     1     -35.058   3.888   6.127  1.00 20.00     0.000 C 
HETATM    2  C3  UNL     1     -34.944   5.313   6.657  1.00 20.00     0.001 C 
HETATM    3  C4  UNL     1     -35.184   3.866   4.608  1.00 20.00     0.001 C 
HETATM    4  C5  UNL     1     -33.788   6.070   6.003  1.00 20.00     0.018 C 
HETATM    5  C6  UNL     1     -34.029   4.608   3.933  1.00 20.00     0.018 C 
HETATM    6  C7  UNL     1     -33.840   6.028   4.473  1.00 20.00     0.032 C 
HETATM    7  C8  UNL     1     -34.975   6.920   3.975  1.00 20.00     0.025 C 
ENDROOT
BRANCH   6   8
HETATM    8  C1  UNL     1     -32.603   6.688   3.862  1.00 20.00     0.227 C 
HETATM    9  O9  UNL     1     -31.834   6.068   3.134  1.00 20.00    -0.279 OA
HETATM   10 CL10 UNL     1     -32.455   8.355   4.328  1.00 20.00    -0.043 Cl
ENDBRANCH   6   8
TORSDOF 1
