REMARK  3 active torsions:
REMARK  status: ('A' for Active; 'I' for Inactive)
REMARK    1  A    between atoms: C5_5  and  C8_8 
REMARK    2  A    between atoms: C6_6  and  O10_10 
REMARK    3  A    between atoms: C8_8  and  C9_9 
ROOT
HETATM    1  C1  UNL     1     -33.791   5.271   2.707  1.00 20.00     0.007 C 
HETATM    2  C2  UNL     1     -33.307   6.936   4.549  1.00 20.00     0.007 C 
HETATM    3  C3  UNL     1     -34.579   4.414   3.694  1.00 20.00     0.032 C 
HETATM    4  C4  UNL     1     -34.096   6.074   5.530  1.00 20.00     0.032 C 
HETATM    5  C5  UNL     1     -32.705   6.094   3.414  1.00 20.00    -0.014 C 
HETATM    6  C6  UNL     1     -35.172   5.255   4.822  1.00 20.00     0.118 C 
ENDROOT
BRANCH   5   7
HETATM    7  C8  UNL     1     -31.967   6.984   2.416  1.00 20.00     0.004 C 
BRANCH   7   8
HETATM    8  C9  UNL     1     -32.928   7.929   1.703  1.00 20.00    -0.004 C 
HETATM    9  C7  UNL     1     -32.190   8.832   0.728  1.00 20.00     0.005 C 
ENDBRANCH   7   8
ENDBRANCH   5   7
BRANCH   6  10
HETATM   10  O10 UNL     1     -35.796   4.403   5.777  1.00 20.00    -0.396 OA
HETATM   11  H28 UNL     1     -36.493   3.920   5.305  1.00 20.00     0.210 HD
ENDBRANCH   6  10
TORSDOF 3
