REMARK  2 active torsions:
REMARK  status: ('A' for Active; 'I' for Inactive)
REMARK    1  A    between atoms: C5_5  and  C7_7 
REMARK    2  A    between atoms: C6_6  and  O8_8 
ROOT
HETATM    1  C1  UNL     1     -34.703   5.760   6.047  1.00 20.00     0.003 C 
HETATM    2  C2  UNL     1     -33.192   5.755   5.829  1.00 20.00     0.014 C 
HETATM    3  C3  UNL     1     -35.365   4.542   5.404  1.00 20.00     0.032 C 
HETATM    4  C4  UNL     1     -33.515   4.465   3.671  1.00 20.00     0.045 C 
HETATM    5  C5  UNL     1     -32.798   5.646   4.350  1.00 20.00     0.096 C 
HETATM    6  C6  UNL     1     -35.025   4.412   3.921  1.00 20.00     0.118 C 
ENDROOT
BRANCH   5   7
HETATM    7  C7  UNL     1     -33.012   6.968   3.609  1.00 20.00     0.391 C 
HETATM    8  F9  UNL     1     -32.593   6.857   2.339  1.00 20.00    -0.171 F 
HETATM    9  F10 UNL     1     -34.314   7.291   3.610  1.00 20.00    -0.171 F 
HETATM   10  F11 UNL     1     -32.320   7.949   4.210  1.00 20.00    -0.171 F 
ENDBRANCH   5   7
BRANCH   6  11
HETATM   11  O8  UNL     1     -35.689   5.446   3.202  1.00 20.00    -0.396 OA
HETATM   12  H22 UNL     1     -36.640   5.325   3.355  1.00 20.00     0.210 HD
ENDBRANCH   6  11
TORSDOF 2
