REMARK  0 active torsions:
REMARK  status: ('A' for Active; 'I' for Inactive)
ROOT
HETATM    1  C1  UNL     1     -32.936   7.651   2.761  1.00 20.00    -0.077 C 
HETATM    2  C2  UNL     1     -33.727   6.811   3.445  1.00 20.00    -0.077 C 
HETATM    3  C3  UNL     1     -32.160   7.220   1.545  1.00 20.00     0.034 C 
HETATM    4  C4  UNL     1     -32.778   9.101   3.139  1.00 20.00     0.034 C 
HETATM    5  C5  UNL     1     -34.503   7.243   4.662  1.00 20.00     0.034 C 
HETATM    6  C6  UNL     1     -33.885   5.362   3.067  1.00 20.00     0.034 C 
HETATM    7  C7  UNL     1     -32.459   8.136   0.358  1.00 20.00     0.004 C 
HETATM    8  C8  UNL     1     -33.073  10.008   1.944  1.00 20.00     0.004 C 
HETATM    9  C9  UNL     1     -34.205   6.326   5.849  1.00 20.00     0.004 C 
HETATM   10  C10 UNL     1     -33.589   4.455   4.262  1.00 20.00     0.004 C 
HETATM   11  C11 UNL     1     -32.258   9.610   0.713  1.00 20.00     0.001 C 
HETATM   12  C12 UNL     1     -34.405   4.852   5.494  1.00 20.00     0.001 C 
ENDROOT
TORSDOF 0
