REMARK  0 active torsions:
REMARK  status: ('A' for Active; 'I' for Inactive)
ROOT
HETATM    1  C1  UNL     1     -33.668   6.126   3.697  1.00 20.00     0.132 C 
HETATM    2  C2  UNL     1     -35.277   5.735   5.859  1.00 20.00     0.064 C 
HETATM    3  C3  UNL     1     -34.258   6.866   5.919  1.00 20.00     0.128 C 
HETATM    4  C4  UNL     1     -34.810   4.526   5.040  1.00 20.00     0.051 C 
HETATM    5  C5  UNL     1     -32.993   6.583   2.442  1.00 20.00     0.099 C 
HETATM    6  C6  UNL     1     -33.136   6.686   6.931  1.00 20.00     0.040 C 
HETATM    7  C7  UNL     1     -36.042   3.694   4.640  1.00 20.00     0.040 C 
HETATM    8  C8  UNL     1     -33.847   3.610   5.805  1.00 20.00     0.040 C 
HETATM    9  N9  UNL     1     -34.157   4.943   3.799  1.00 20.00    -0.261 NA
HETATM   10  O10 UNL     1     -33.685   7.116   4.624  1.00 20.00    -0.333 OA
ENDROOT
TORSDOF 0
