REMARK  0 active torsions:
REMARK  status: ('A' for Active; 'I' for Inactive)
ROOT
HETATM    1  C1  UNL     1     -34.688   5.931   5.441  1.00 20.00     0.127 C 
HETATM    2  C2  UNL     1     -35.441   4.708   4.979  1.00 20.00     0.078 C 
HETATM    3  C3  UNL     1     -34.400   6.984   4.391  1.00 20.00     0.087 C 
HETATM    4  C4  UNL     1     -34.778   4.110   3.748  1.00 20.00     0.008 C 
HETATM    5  C5  UNL     1     -31.329   8.116   2.558  1.00 20.00     0.000 C 
HETATM    6  C6  UNL     1     -31.301   7.110   3.702  1.00 20.00     0.001 C 
HETATM    7  C7  UNL     1     -32.744   8.596   2.263  1.00 20.00     0.001 C 
HETATM    8  C8  UNL     1     -34.547   5.159   2.660  1.00 20.00     0.010 C 
HETATM    9  C9  UNL     1     -32.258   5.942   3.458  1.00 20.00     0.010 C 
HETATM   10  C10 UNL     1     -33.688   7.424   1.999  1.00 20.00     0.010 C 
HETATM   11  C11 UNL     1     -33.715   6.379   3.144  1.00 20.00    -0.034 C 
HETATM   12  O12 UNL     1     -34.405   6.107   6.626  1.00 20.00    -0.298 OA
ENDROOT
TORSDOF 0
