REMARK  1 active torsions:
REMARK  status: ('A' for Active; 'I' for Inactive)
REMARK    1  A    between atoms: C6_6  and  C8_8 
ROOT
HETATM    1  C1  UNL     1     -34.975   4.242   5.954  1.00 20.00     0.000 C 
HETATM    2  C2  UNL     1     -35.221   3.766   4.526  1.00 20.00     0.002 C 
HETATM    3  C3  UNL     1     -34.898   5.762   6.039  1.00 20.00     0.002 C 
HETATM    4  C4  UNL     1     -34.180   4.328   3.556  1.00 20.00     0.026 C 
HETATM    5  C5  UNL     1     -33.855   6.329   5.074  1.00 20.00     0.026 C 
HETATM    6  C6  UNL     1     -34.051   5.861   3.619  1.00 20.00     0.037 C 
HETATM    7 CL9  UNL     1     -35.549   6.614   2.947  1.00 20.00    -0.119 Cl
ENDROOT
BRANCH   6   8
HETATM    8  C8  UNL     1     -32.877   6.328   2.753  1.00 20.00     0.021 C 
HETATM    9  C7  UNL     1     -32.725   7.812   2.791  1.00 20.00     0.007 C 
ENDBRANCH   6   8
TORSDOF 1
