REMARK  3 active torsions:
REMARK  status: ('A' for Active; 'I' for Inactive)
REMARK    1  A    between atoms: C7_7  and  C8_8 
REMARK    2  A    between atoms: C7_7  and  C9_9 
REMARK    3  A    between atoms: C9_9  and  S10_10 
ROOT
HETATM    1  C7  UNL     1     -33.819   6.982   2.663  1.00 20.00     0.028 C 
ENDROOT
BRANCH   1   2
HETATM    2  C8  UNL     1     -32.619   7.982   2.728  1.00 20.00    -0.050 C 
HETATM    3  C1  UNL     1     -32.026   8.333   1.359  1.00 20.00     0.014 C 
HETATM    4  C2  UNL     1     -33.158   9.293   3.354  1.00 20.00     0.014 C 
HETATM    5  C3  UNL     1     -31.497   7.475   3.654  1.00 20.00     0.014 C 
ENDBRANCH   1   2
BRANCH   1   6
HETATM    6  C9  UNL     1     -34.232   6.060   3.848  1.00 20.00     0.001 C 
HETATM    7  C4  UNL     1     -35.537   5.334   3.457  1.00 20.00     0.026 C 
HETATM    8  C5  UNL     1     -34.465   6.789   5.172  1.00 20.00     0.026 C 
BRANCH   6   9
HETATM    9  S10 UNL     1     -32.989   4.732   4.138  1.00 20.00    -0.164 SA
HETATM   10  C6  UNL     1     -33.857   3.883   5.471  1.00 20.00     0.090 C 
ENDBRANCH   6   9
ENDBRANCH   1   6
TORSDOF 3
