REMARK  0 active torsions:
REMARK  status: ('A' for Active; 'I' for Inactive)
ROOT
HETATM    1  C1  UNL     1     -33.937   5.000   5.130  1.00 20.00     0.288 C 
HETATM    2  C2  UNL     1     -33.425   6.387   5.580  1.00 20.00     0.288 C 
HETATM    3  C3  UNL     1     -34.609   5.709   3.931  1.00 20.00     0.343 C 
HETATM    4  C4  UNL     1     -33.575   6.848   4.111  1.00 20.00     0.343 C 
HETATM    5  F5  UNL     1     -34.774   4.374   5.988  1.00 20.00    -0.240 F 
HETATM    6  F6  UNL     1     -34.215   7.033   6.471  1.00 20.00    -0.240 F 
HETATM    7  F7  UNL     1     -35.900   6.067   4.121  1.00 20.00    -0.196 F 
HETATM    8  F8  UNL     1     -34.554   5.049   2.753  1.00 20.00    -0.196 F 
HETATM    9  F9  UNL     1     -34.049   8.101   3.935  1.00 20.00    -0.196 F 
HETATM   10  F10 UNL     1     -32.459   6.740   3.354  1.00 20.00    -0.196 F 
ENDROOT
TORSDOF 0
