REMARK  2 active torsions:
REMARK  status: ('A' for Active; 'I' for Inactive)
REMARK    1  A    between atoms: C1_1  and  C5_5 
REMARK    2  A    between atoms: C5_5  and  C6_6 
ROOT
HETATM    1  C5  UNL     1     -33.868   6.889   4.010  1.00 20.00     0.104 C 
ENDROOT
BRANCH   1   2
HETATM    2  C1  UNL     1     -33.901   5.860   5.129  1.00 20.00     0.219 C 
HETATM    3  O7  UNL     1     -34.090   4.668   4.901  1.00 20.00    -0.280 OA
HETATM    4 CL8  UNL     1     -33.642   6.558   6.702  1.00 20.00    -0.044 Cl
ENDBRANCH   1   2
BRANCH   1   5
HETATM    5  C6  UNL     1     -32.483   7.096   3.355  1.00 20.00    -0.044 C 
HETATM    6  C2  UNL     1     -31.447   7.580   4.381  1.00 20.00     0.015 C 
HETATM    7  C3  UNL     1     -32.015   5.739   2.791  1.00 20.00     0.015 C 
HETATM    8  C4  UNL     1     -32.557   8.102   2.194  1.00 20.00     0.015 C 
ENDBRANCH   1   5
TORSDOF 2
