REMARK  4 active torsions:
REMARK  status: ('A' for Active; 'I' for Inactive)
REMARK    1  A    between atoms: C3_3  and  C4_4 
REMARK    2  A    between atoms: C4_4  and  C5_5 
REMARK    3  A    between atoms: C5_5  and  C6_6 
REMARK    4  A    between atoms: C6_6  and  C7_7 
ROOT
HETATM    1  C1  UNL     1     -32.300   8.614   1.319  1.00 20.00    -0.176 C 
HETATM    2  C2  UNL     1     -32.523   9.090   0.132  1.00 20.00     0.091 C 
HETATM    3  C3  UNL     1     -32.076   8.138   2.510  1.00 20.00     0.066 C 
ENDROOT
BRANCH   3   4
HETATM    4  C4  UNL     1     -32.441   6.755   2.962  1.00 20.00     0.017 C 
BRANCH   4   5
HETATM    5  C5  UNL     1     -33.364   6.793   4.181  1.00 20.00     0.002 C 
BRANCH   5   6
HETATM    6  C6  UNL     1     -33.763   5.383   4.620  1.00 20.00     0.015 C 
BRANCH   6   7
HETATM    7  C7  UNL     1     -34.709   5.426   5.813  1.00 20.00     0.114 C 
HETATM    8 CL8  UNL     1     -35.148   3.779   6.318  1.00 20.00    -0.130 Cl
ENDBRANCH   6   7
ENDBRANCH   5   6
ENDBRANCH   4   5
ENDBRANCH   3   4
TORSDOF 4
