REMARK  1 active torsions:
REMARK  status: ('A' for Active; 'I' for Inactive)
REMARK    1  A    between atoms: C3_3  and  C5_5 
ROOT
HETATM    1  C1  UNL     1     -34.680   4.905   3.854  1.00 20.00     0.065 A 
HETATM    2  C2  UNL     1     -34.340   4.682   6.280  1.00 20.00     0.069 A 
HETATM    3  C3  UNL     1     -34.026   5.994   4.387  1.00 20.00     0.026 A 
HETATM    4  C4  UNL     1     -33.829   5.865   5.792  1.00 20.00     0.031 A 
HETATM    5  S7  UNL     1     -35.054   3.733   5.045  1.00 20.00    -0.111 SA
HETATM    6 BR8  UNL     1     -32.969   7.168   6.850  1.00 20.00    -0.050 Br
ENDROOT
BRANCH   3   7
HETATM    7  C5  UNL     1     -33.616   7.103   3.562  1.00 20.00     0.271 C 
HETATM    8  O6  UNL     1     -32.832   6.994   2.607  1.00 20.00    -0.301 OA
ENDBRANCH   3   7
TORSDOF 1
