REMARK  5 active torsions:
REMARK  status: ('A' for Active; 'I' for Inactive)
REMARK    1  A    between atoms: C1_1  and  C8_8 
REMARK    2  A    between atoms: C4_4  and  C6_6 
REMARK    3  A    between atoms: C5_5  and  C8_8 
REMARK    4  A    between atoms: C6_6  and  C7_7 
REMARK    5  A    between atoms: C7_7  and  C8_8 
ROOT
HETATM    1  C8  UNL     1     -33.386   6.060   4.168  1.00 20.00     0.072 C 
ENDROOT
BRANCH   1   2
HETATM    2  C1  UNL     1     -34.268   5.673   2.982  1.00 20.00     0.223 C 
HETATM    3  O9  UNL     1     -33.840   5.009   2.041  1.00 20.00    -0.279 OA
HETATM    4 CL10 UNL     1     -35.896   6.274   3.132  1.00 20.00    -0.043 Cl
ENDBRANCH   1   2
BRANCH   1   5
HETATM    5  C5  UNL     1     -33.484   4.982   5.262  1.00 20.00     0.009 C 
HETATM    6  C3  UNL     1     -34.902   4.805   5.790  1.00 20.00     0.006 C 
ENDBRANCH   1   5
BRANCH   1   7
HETATM    7  C7  UNL     1     -31.925   6.214   3.701  1.00 20.00     0.013 C 
BRANCH   7   8
HETATM    8  C6  UNL     1     -31.649   7.588   3.078  1.00 20.00     0.000 C 
BRANCH   8   9
HETATM    9  C4  UNL     1     -32.471   7.854   1.815  1.00 20.00    -0.005 C 
HETATM   10  C2  UNL     1     -32.219   9.224   1.205  1.00 20.00     0.005 C 
ENDBRANCH   8   9
ENDBRANCH   7   8
ENDBRANCH   1   7
TORSDOF 5
