REMARK  3 active torsions:
REMARK  status: ('A' for Active; 'I' for Inactive)
REMARK    1  A    between atoms: C2_2  and  C3_3 
REMARK    2  A    between atoms: C2_2  and  C4_4 
REMARK    3  A    between atoms: C3_3  and  O5_5 
ROOT
HETATM    1  C2  UNL     1     -32.985   6.047   4.014  1.00 20.00     0.379 C 
HETATM    2  F6  UNL     1     -32.875   5.057   3.084  1.00 20.00    -0.231 F 
ENDROOT
BRANCH   1   3
HETATM    3  C3  UNL     1     -33.208   7.354   3.278  1.00 20.00     0.393 C 
HETATM    4  F7  UNL     1     -33.256   8.370   4.176  1.00 20.00    -0.172 F 
HETATM    5  F8  UNL     1     -34.394   7.327   2.624  1.00 20.00    -0.172 F 
BRANCH   3   6
HETATM    6  O5  UNL     1     -32.162   7.610   2.350  1.00 20.00    -0.329 OA
HETATM    7  C1  UNL     1     -32.343   8.829   1.644  1.00 20.00     0.208 C 
ENDBRANCH   3   6
ENDBRANCH   1   3
BRANCH   1   8
HETATM    8  C4  UNL     1     -34.106   5.673   4.957  1.00 20.00     0.426 C 
HETATM    9  F9  UNL     1     -34.212   6.585   5.949  1.00 20.00    -0.168 F 
HETATM   10  F10 UNL     1     -33.890   4.472   5.533  1.00 20.00    -0.168 F 
HETATM   11  F11 UNL     1     -35.293   5.621   4.317  1.00 20.00    -0.168 F 
ENDBRANCH   1   8
TORSDOF 3
