REMARK  0 active torsions:
REMARK  status: ('A' for Active; 'I' for Inactive)
ROOT
HETATM    1  C1  UNL     1     -32.512   8.201   2.285  1.00 20.00     0.014 C 
HETATM    2  C2  UNL     1     -32.962   7.331   2.980  1.00 20.00    -0.091 C 
HETATM    3  C3  UNL     1     -34.988   4.810   5.811  1.00 20.00     0.000 C 
HETATM    4  C4  UNL     1     -35.676   5.035   4.464  1.00 20.00     0.003 C 
HETATM    5  C5  UNL     1     -34.261   6.054   6.297  1.00 20.00     0.003 C 
HETATM    6  C6  UNL     1     -35.026   6.130   3.611  1.00 20.00     0.039 C 
HETATM    7  C7  UNL     1     -33.187   6.537   5.314  1.00 20.00     0.039 C 
HETATM    8  C8  UNL     1     -33.513   6.263   3.832  1.00 20.00     0.099 C 
HETATM    9 CL9  UNL     1     -32.695   4.750   3.292  1.00 20.00    -0.105 Cl
ENDROOT
TORSDOF 0
