REMARK  5 active torsions:
REMARK  status: ('A' for Active; 'I' for Inactive)
REMARK    1  A    between atoms: C1_1  and  C2_2 
REMARK    2  A    between atoms: C1_1  and  C3_3 
REMARK    3  A    between atoms: C2_2  and  P11_11 
REMARK    4  A    between atoms: C8_8  and  P11_11 
REMARK    5  A    between atoms: C9_9  and  P11_11 
ROOT
HETATM    1  O10 UNL     1     -34.632   6.613   2.620  1.00 20.00    -0.317 OA
HETATM    2  P11 UNL     1     -33.486   6.431   3.580  1.00 20.00     0.105 P 
ENDROOT
BRANCH   2   3
HETATM    3  C2  UNL     1     -31.846   6.856   3.197  1.00 20.00     0.096 C 
BRANCH   3   4
HETATM    4  C1  UNL     1     -31.639   7.750   2.276  1.00 20.00    -0.141 C 
BRANCH   4   5
HETATM    5  C3  UNL     1     -31.424   8.647   1.353  1.00 20.00     0.026 C 
HETATM    6  C4  UNL     1     -32.543   9.321   0.613  1.00 20.00     0.030 C 
HETATM    7  C5  UNL     1     -30.040   9.075   0.958  1.00 20.00     0.030 C 
ENDBRANCH   4   5
ENDBRANCH   3   4
ENDBRANCH   2   3
BRANCH   2   8
HETATM    8  C8  UNL     1     -33.363   4.719   4.104  1.00 20.00     0.073 C 
HETATM    9  C6  UNL     1     -34.706   4.136   4.493  1.00 20.00     0.013 C 
ENDBRANCH   2   8
BRANCH   2  10
HETATM   10  C9  UNL     1     -33.798   7.306   5.116  1.00 20.00     0.073 C 
HETATM   11  C7  UNL     1     -32.853   6.888   6.222  1.00 20.00     0.013 C 
ENDBRANCH   2  10
TORSDOF 5
