REMARK  2 active torsions:
REMARK  status: ('A' for Active; 'I' for Inactive)
REMARK    1  A    between atoms: C1_1  and  C5_5 
REMARK    2  A    between atoms: C4_4  and  C5_5 
ROOT
HETATM    1  C1  UNL     1     -34.848   5.839   4.557  1.00 20.00     0.164 C 
HETATM    2  C2  UNL     1     -34.561   5.375   5.778  1.00 20.00     0.301 C 
HETATM    3  F7  UNL     1     -35.751   5.153   3.818  1.00 20.00    -0.205 F 
HETATM    4  F8  UNL     1     -35.175   4.261   6.230  1.00 20.00    -0.170 F 
HETATM    5  F9  UNL     1     -33.667   6.010   6.564  1.00 20.00    -0.170 F 
ENDROOT
BRANCH   1   6
HETATM    6  C5  UNL     1     -34.226   7.060   3.947  1.00 20.00     0.110 C 
BRANCH   6   7
HETATM    7  C4  UNL     1     -32.729   7.015   3.865  1.00 20.00     0.151 A 
HETATM    8  C3  UNL     1     -31.992   7.680   2.736  1.00 20.00     0.200 A 
HETATM    9  O6  UNL     1     -32.216   6.261   2.761  1.00 20.00    -0.381 OA
ENDBRANCH   6   7
ENDBRANCH   1   6
TORSDOF 2
