REMARK  0 active torsions:
REMARK  status: ('A' for Active; 'I' for Inactive)
REMARK       I    between atoms: C2_2  and  N4_4 
ROOT
HETATM    1  C1  UNL     1     -34.159   5.589   3.644  1.00 20.00     0.166 C 
HETATM    2  C2  UNL     1     -34.902   4.938   5.598  1.00 20.00     0.240 C 
HETATM    3  C3  UNL     1     -34.792   3.454   5.738  1.00 20.00     0.119 C 
HETATM    4  N4  UNL     1     -35.105   5.359   4.301  1.00 20.00    -0.200 NA
HETATM    5  O5  UNL     1     -34.806   5.635   6.604  1.00 20.00    -0.272 OA
HETATM    6  S6  UNL     1     -32.900   5.911   2.723  1.00 20.00    -0.055 SA
ENDROOT
TORSDOF 0
