REMARK  2 active torsions:
REMARK  status: ('A' for Active; 'I' for Inactive)
REMARK    1  A    between atoms: C2_2  and  C3_3 
REMARK    2  A    between atoms: C2_2  and  N4_4 
ROOT
HETATM    1  C1  UNL     1     -32.850   6.177   3.916  1.00 20.00     0.157 C 
HETATM    2  N4  UNL     1     -31.831   6.620   3.535  1.00 20.00    -0.274 NA
HETATM    3  S5  UNL     1     -34.219   5.569   4.458  1.00 20.00    -0.055 SA
ENDROOT
BRANCH   2   4
HETATM    4  C2  UNL     1     -31.861   7.146   2.168  1.00 20.00     0.165 C 
BRANCH   4   5
HETATM    5  C3  UNL     1     -32.245   8.615   2.188  1.00 20.00     0.136 C 
HETATM    6 CL6  UNL     1     -32.296   9.292   0.542  1.00 20.00    -0.129 Cl
ENDBRANCH   4   5
ENDBRANCH   2   4
TORSDOF 2
