REMARK  2 active torsions:
REMARK  status: ('A' for Active; 'I' for Inactive)
REMARK    1  A    between atoms: C3_3  and  C7_7 
REMARK    2  A    between atoms: C7_7  and  C8_8 
ROOT
HETATM    1  C1  UNL     1     -32.517   6.997   4.005  1.00 20.00     0.263 C 
HETATM    2  C2  UNL     1     -34.012   5.693   2.760  1.00 20.00     0.046 C 
HETATM    3  C3  UNL     1     -33.137   6.925   2.632  1.00 20.00     0.088 C 
HETATM    4  C4  UNL     1     -34.433   5.760   4.212  1.00 20.00     0.128 C 
HETATM    5  C5  UNL     1     -34.798   4.407   4.793  1.00 20.00     0.040 C 
HETATM    6  O9  UNL     1     -31.505   7.610   4.307  1.00 20.00    -0.265 OA
HETATM    7  O10 UNL     1     -33.283   6.286   4.891  1.00 20.00    -0.316 OA
ENDROOT
BRANCH   3   8
HETATM    8  C7  UNL     1     -32.107   6.801   1.526  1.00 20.00     0.014 C 
BRANCH   8   9
HETATM    9  C8  UNL     1     -31.511   8.160   1.157  1.00 20.00    -0.004 C 
HETATM   10  C6  UNL     1     -32.575   9.117   0.644  1.00 20.00     0.005 C 
ENDBRANCH   8   9
ENDBRANCH   3   8
TORSDOF 2
