REMARK  3 active torsions:
REMARK  status: ('A' for Active; 'I' for Inactive)
REMARK    1  A    between atoms: C2_2  and  O5_5 
REMARK    2  A    between atoms: C3_3  and  C4_4 
REMARK    3  A    between atoms: C3_3  and  O5_5 
ROOT
HETATM    1  C3  UNL     1     -34.077   5.794   2.993  1.00 20.00     0.454 C 
HETATM    2  F6  UNL     1     -34.036   5.071   1.848  1.00 20.00    -0.166 F 
HETATM    3  F7  UNL     1     -35.121   6.652   2.906  1.00 20.00    -0.166 F 
ENDROOT
BRANCH   1   4
HETATM    4  C4  UNL     1     -32.797   6.564   3.154  1.00 20.00     0.484 C 
HETATM    5  F8  UNL     1     -31.739   5.728   3.226  1.00 20.00    -0.163 F 
HETATM    6  F9  UNL     1     -32.595   7.398   2.112  1.00 20.00    -0.163 F 
HETATM    7  F10 UNL     1     -32.814   7.307   4.282  1.00 20.00    -0.163 F 
ENDBRANCH   1   4
BRANCH   1   8
HETATM    8  O5  UNL     1     -34.274   4.920   4.096  1.00 20.00    -0.319 OA
BRANCH   8   9
HETATM    9  C2  UNL     1     -34.794   5.590   5.236  1.00 20.00     0.170 C 
HETATM   10  C1  UNL     1     -34.972   4.590   6.358  1.00 20.00     0.033 C 
ENDBRANCH   8   9
ENDBRANCH   1   8
TORSDOF 3
