REMARK  1 active torsions:
REMARK  status: ('A' for Active; 'I' for Inactive)
REMARK    1  A    between atoms: C2_2  and  C7_7 
ROOT
HETATM    1  C1  UNL     1     -32.498   8.753   2.220  1.00 20.00    -0.110 C 
HETATM    2  C2  UNL     1     -32.657   7.740   2.846  1.00 20.00    -0.098 C 
HETATM    3  C3  UNL     1     -32.304   9.986   1.459  1.00 20.00     0.112 C 
ENDROOT
BRANCH   2   4
HETATM    4  C7  UNL     1     -32.853   6.492   3.618  1.00 20.00     0.013 C 
HETATM    5  C4  UNL     1     -32.920   6.824   5.115  1.00 20.00     0.028 C 
HETATM    6  C5  UNL     1     -31.677   5.540   3.355  1.00 20.00     0.028 C 
HETATM    7  C6  UNL     1     -34.163   5.823   3.181  1.00 20.00     0.028 C 
ENDBRANCH   2   4
TORSDOF 1
