REMARK  2 active torsions:
REMARK  status: ('A' for Active; 'I' for Inactive)
REMARK    1  A    between atoms: C1_1  and  C2_2 
REMARK    2  A    between atoms: C1_1  and  C3_3 
ROOT
HETATM    1  C1  UNL     1     -33.527   5.974   3.329  1.00 20.00     0.245 C 
HETATM    2  O4  UNL     1     -34.244   5.372   2.532  1.00 20.00    -0.287 OA
ENDROOT
BRANCH   1   3
HETATM    3  C2  UNL     1     -32.168   6.533   2.976  1.00 20.00     0.202 C 
HETATM    4 CL8  UNL     1     -32.307   8.200   2.399  1.00 20.00    -0.122 Cl
ENDBRANCH   1   3
BRANCH   1   5
HETATM    5  C3  UNL     1     -33.977   6.195   4.747  1.00 20.00     0.452 C 
HETATM    6  F5  UNL     1     -33.051   6.876   5.468  1.00 20.00    -0.163 F 
HETATM    7  F6  UNL     1     -34.199   5.023   5.392  1.00 20.00    -0.163 F 
HETATM    8  F7  UNL     1     -35.130   6.907   4.813  1.00 20.00    -0.163 F 
ENDBRANCH   1   5
TORSDOF 2
