REMARK  0 active torsions:
REMARK  status: ('A' for Active; 'I' for Inactive)
ROOT
HETATM    1  C1  UNL     1     -33.963   6.584   4.532  1.00 20.00     0.134 C 
HETATM    2  C2  UNL     1     -35.129   4.481   4.637  1.00 20.00     0.134 C 
HETATM    3  C3  UNL     1     -33.728   6.496   6.037  1.00 20.00     0.183 C 
HETATM    4  C4  UNL     1     -34.866   4.443   6.139  1.00 20.00     0.183 C 
HETATM    5  N5  UNL     1     -34.070   5.238   3.959  1.00 20.00    -0.224 NA
HETATM    6  O6  UNL     1     -34.784   5.768   6.664  1.00 20.00    -0.389 OA
HETATM    7 CL7  UNL     1     -34.306   5.282   2.208  1.00 20.00    -0.022 Cl
ENDROOT
TORSDOF 0
