REMARK  4 active torsions:
REMARK  status: ('A' for Active; 'I' for Inactive)
REMARK    1  A    between atoms: C1_1  and  C4_4 
REMARK    2  A    between atoms: C2_2  and  C8_8 
REMARK    3  A    between atoms: C8_8  and  C9_9 
REMARK    4  A    between atoms: C8_8  and  O10_10 
ROOT
HETATM    1  C8  UNL     1     -33.419   5.429   3.599  1.00 20.00     0.200 C 
ENDROOT
BRANCH   1   2
HETATM    2  C2  UNL     1     -33.027   6.606   2.809  1.00 20.00    -0.069 C 
HETATM    3  C1  UNL     1     -32.706   7.569   2.167  1.00 20.00    -0.070 C 
BRANCH   3   4
HETATM    4  C4  UNL     1     -32.325   8.713   1.404  1.00 20.00    -0.018 C 
HETATM    5  C3  UNL     1     -32.787   9.921   1.760  1.00 20.00     0.028 C 
HETATM    6  C5  UNL     1     -31.417   8.530   0.225  1.00 20.00     0.057 C 
ENDBRANCH   3   4
ENDBRANCH   1   2
BRANCH   1   7
HETATM    7  C9  UNL     1     -34.336   5.772   4.792  1.00 20.00     0.018 C 
HETATM    8  C6  UNL     1     -33.719   6.797   5.751  1.00 20.00     0.013 C 
HETATM    9  C7  UNL     1     -34.774   4.521   5.558  1.00 20.00     0.013 C 
ENDBRANCH   1   7
BRANCH   1  10
HETATM   10  O10 UNL     1     -34.074   4.500   2.738  1.00 20.00    -0.383 OA
HETATM   11  H24 UNL     1     -33.434   4.264   2.049  1.00 20.00     0.211 HD
ENDBRANCH   1  10
TORSDOF 4
