REMARK  4 active torsions:
REMARK  status: ('A' for Active; 'I' for Inactive)
REMARK    1  A    between atoms: C1_1  and  C5_5 
REMARK    2  A    between atoms: C1_1  and  C8_8 
REMARK    3  A    between atoms: C6_6  and  C8_8 
REMARK    4  A    between atoms: C7_7  and  C8_8 
ROOT
HETATM    1  C8  UNL     1     -34.461   6.435   5.148  1.00 20.00     0.054 C 
ENDROOT
BRANCH   1   2
HETATM    2  C1  UNL     1     -34.184   5.839   3.764  1.00 20.00     0.130 C 
HETATM    3  O9  UNL     1     -34.625   4.738   3.432  1.00 20.00    -0.298 OA
BRANCH   2   4
HETATM    4  C5  UNL     1     -33.354   6.693   2.818  1.00 20.00     0.074 C 
HETATM    5  C2  UNL     1     -31.866   6.410   2.930  1.00 20.00     0.013 C 
ENDBRANCH   2   4
ENDBRANCH   1   2
BRANCH   1   6
HETATM    6  C6  UNL     1     -33.163   6.775   5.898  1.00 20.00     0.007 C 
HETATM    7  C3  UNL     1     -33.426   7.435   7.246  1.00 20.00     0.006 C 
ENDBRANCH   1   6
BRANCH   1   8
HETATM    8  C7  UNL     1     -35.382   5.501   5.953  1.00 20.00     0.007 C 
HETATM    9  C4  UNL     1     -34.789   4.135   6.276  1.00 20.00     0.006 C 
ENDBRANCH   1   8
TORSDOF 4
