REMARK  3 active torsions:
REMARK  status: ('A' for Active; 'I' for Inactive)
REMARK    1  A    between atoms: C1_1  and  C7_7 
REMARK    2  A    between atoms: C5_5  and  C6_6 
REMARK    3  A    between atoms: C6_6  and  C7_7 
ROOT
HETATM    1  C3  UNL     1     -33.773   5.562   1.986  1.00 20.00     0.024 C 
HETATM    2  C4  UNL     1     -31.748   5.685   3.421  1.00 20.00     0.024 C 
HETATM    3  C7  UNL     1     -33.192   6.206   3.260  1.00 20.00     0.029 C 
ENDROOT
BRANCH   3   4
HETATM    4  C1  UNL     1     -34.031   5.760   4.481  1.00 20.00     0.226 C 
HETATM    5  O8  UNL     1     -34.996   5.008   4.365  1.00 20.00    -0.279 OA
HETATM    6 CL9  UNL     1     -33.489   6.416   6.008  1.00 20.00    -0.043 Cl
ENDBRANCH   3   4
BRANCH   3   7
HETATM    7  C6  UNL     1     -33.189   7.748   3.097  1.00 20.00     0.017 C 
BRANCH   7   8
HETATM    8  C5  UNL     1     -32.433   8.265   1.866  1.00 20.00    -0.003 C 
HETATM    9  C2  UNL     1     -32.556   9.777   1.740  1.00 20.00     0.005 C 
ENDBRANCH   7   8
ENDBRANCH   3   7
TORSDOF 3
