REMARK  2 active torsions:
REMARK  status: ('A' for Active; 'I' for Inactive)
REMARK    1  A    between atoms: C7_7  and  C10_10 
REMARK    2  A    between atoms: C8_8  and  C9_9 
ROOT
HETATM    1  C1  UNL     1     -34.488   5.998   4.242  1.00 20.00    -0.019 A 
HETATM    2  C3  UNL     1     -34.211   5.875   5.545  1.00 20.00    -0.087 A 
HETATM    3  C5  UNL     1     -33.248   6.915   6.030  1.00 20.00     0.039 A 
HETATM    4  C8  UNL     1     -33.783   7.154   3.613  1.00 20.00     0.021 A 
HETATM    5  C10 UNL     1     -32.945   7.766   4.789  1.00 20.00     0.005 A 
HETATM    6  C11 UNL     1     -34.746   4.842   6.470  1.00 20.00     0.043 C 
ENDROOT
BRANCH   4   7
HETATM    7  C9  UNL     1     -32.692   6.780   2.577  1.00 20.00     0.022 C 
HETATM    8  C4  UNL     1     -32.095   8.080   2.076  1.00 20.00    -0.082 C 
HETATM    9  C2  UNL     1     -31.373   8.602   3.082  1.00 20.00    -0.019 C 
HETATM   10  C12 UNL     1     -32.357   8.628   0.727  1.00 20.00     0.043 C 
HETATM   11  C7  UNL     1     -31.491   7.652   4.255  1.00 20.00     0.014 C 
HETATM   12  C6  UNL     1     -31.524   6.336   3.470  1.00 20.00     0.018 C 
ENDBRANCH   4   7
TORSDOF 2
