REMARK  2 active torsions:
REMARK  status: ('A' for Active; 'I' for Inactive)
REMARK    1  A    between atoms: C2_2  and  C3_3 
REMARK    2  A    between atoms: C3_3  and  O9_9 
ROOT
HETATM    1  C1  UNL     1     -34.039   6.068   5.262  1.00 20.00    -0.013 C 
HETATM    2  C2  UNL     1     -33.734   6.156   3.962  1.00 20.00     0.013 C 
HETATM    3  C4  UNL     1     -35.188   5.146   5.497  1.00 20.00     0.028 C 
HETATM    4  C5  UNL     1     -34.633   5.306   3.122  1.00 20.00     0.045 C 
HETATM    5  C6  UNL     1     -35.759   4.950   4.093  1.00 20.00     0.009 C 
ENDROOT
BRANCH   2   6
HETATM    6  C3  UNL     1     -32.679   6.934   3.392  1.00 20.00     0.288 C 
HETATM    7  O8  UNL     1     -31.490   6.786   3.663  1.00 20.00    -0.260 OA
BRANCH   6   8
HETATM    8  O9  UNL     1     -33.208   7.838   2.522  1.00 20.00    -0.323 OA
HETATM    9  C7  UNL     1     -32.270   8.697   1.865  1.00 20.00     0.213 C 
ENDBRANCH   6   8
ENDBRANCH   2   6
TORSDOF 2
