REMARK  1 active torsions:
REMARK  status: ('A' for Active; 'I' for Inactive)
REMARK    1  A    between atoms: C4_4  and  C7_7 
ROOT
HETATM    1  C1  UNL     1     -32.222   7.645   2.616  1.00 20.00     0.063 C 
HETATM    2  C7  UNL     1     -31.862   6.436   3.373  1.00 20.00     0.165 C 
HETATM    3  N8  UNL     1     -32.506   8.597   2.017  1.00 20.00    -0.197 NA
ENDROOT
BRANCH   2   4
HETATM    4  C4  UNL     1     -32.972   6.035   4.283  1.00 20.00    -0.006 A 
HETATM    5  C3  UNL     1     -32.873   6.302   5.639  1.00 20.00     0.128 A 
HETATM    6  N9  UNL     1     -33.822   5.980   6.545  1.00 20.00    -0.248 NA
HETATM    7  C6  UNL     1     -34.924   5.360   6.066  1.00 20.00     0.127 A 
HETATM    8  C2  UNL     1     -35.120   5.049   4.730  1.00 20.00     0.068 A 
HETATM    9 CL11 UNL     1     -36.102   4.969   7.251  1.00 20.00    -0.062 Cl
HETATM   10  C5  UNL     1     -34.121   5.396   3.828  1.00 20.00     0.045 A 
HETATM   11 CL10 UNL     1     -34.338   5.021   2.158  1.00 20.00    -0.084 Cl
ENDBRANCH   2   4
TORSDOF 1
