REMARK  2 active torsions:
REMARK  status: ('A' for Active; 'I' for Inactive)
REMARK    1  A    between atoms: C1_1  and  C2_2 
REMARK    2  A    between atoms: C1_1  and  C3_3 
ROOT
HETATM    1  C3  UNL     1     -34.615   4.797   5.210  1.00 20.00     0.390 C 
HETATM    2  F5  UNL     1     -34.528   3.490   5.543  1.00 20.00    -0.171 F 
HETATM    3  F6  UNL     1     -34.740   5.504   6.353  1.00 20.00    -0.171 F 
HETATM    4  F7  UNL     1     -35.746   4.961   4.492  1.00 20.00    -0.171 F 
ENDROOT
BRANCH   1   5
HETATM    5  C1  UNL     1     -33.394   5.227   4.427  1.00 20.00     0.148 C 
BRANCH   5   6
HETATM    6  C2  UNL     1     -33.442   6.697   4.051  1.00 20.00     0.230 C 
HETATM    7  F4  UNL     1     -32.323   7.018   3.349  1.00 20.00    -0.255 F 
ENDBRANCH   5   6
ENDBRANCH   1   5
TORSDOF 2
