REMARK  4 active torsions:
REMARK  status: ('A' for Active; 'I' for Inactive)
REMARK    1  A    between atoms: C1_1  and  C6_6 
REMARK    2  A    between atoms: C6_6  and  C8_8 
REMARK    3  A    between atoms: C7_7  and  C8_8 
REMARK    4  A    between atoms: C7_7  and  C9_9 
ROOT
HETATM    1  C2  UNL     1     -32.376   5.660   2.022  1.00 20.00     0.010 C 
HETATM    2  C8  UNL     1     -32.939   6.733   2.963  1.00 20.00    -0.010 C 
ENDROOT
BRANCH   2   3
HETATM    3  C6  UNL     1     -32.010   7.964   2.896  1.00 20.00     0.100 C 
BRANCH   3   4
HETATM    4  C1  UNL     1     -32.202   8.800   1.640  1.00 20.00     0.219 C 
HETATM    5  O10 UNL     1     -32.016   8.358   0.511  1.00 20.00    -0.280 OA
HETATM    6 CL11 UNL     1     -32.655  10.439   2.020  1.00 20.00    -0.044 Cl
ENDBRANCH   3   4
ENDBRANCH   2   3
BRANCH   2   7
HETATM    7  C7  UNL     1     -33.043   6.204   4.418  1.00 20.00     0.013 C 
BRANCH   7   8
HETATM    8  C9  UNL     1     -34.314   5.386   4.790  1.00 20.00    -0.051 C 
HETATM    9  C3  UNL     1     -33.856   4.017   5.333  1.00 20.00     0.014 C 
HETATM   10  C4  UNL     1     -35.232   5.143   3.584  1.00 20.00     0.014 C 
HETATM   11  C5  UNL     1     -35.116   6.095   5.897  1.00 20.00     0.014 C 
ENDBRANCH   7   8
ENDBRANCH   2   7
TORSDOF 4
