REMARK  1 active torsions:
REMARK  status: ('A' for Active; 'I' for Inactive)
REMARK    1  A    between atoms: C4_4  and  N7_7 
ROOT
HETATM    1  C1  UNL     1     -32.243   8.680   2.528  1.00 20.00     0.163 C 
HETATM    2  N7  UNL     1     -31.782   7.861   3.251  1.00 20.00    -0.231 NA
HETATM    3  S9  UNL     1     -32.850   9.786   1.554  1.00 20.00    -0.055 SA
ENDROOT
BRANCH   2   4
HETATM    4  C4  UNL     1     -32.711   6.955   3.735  1.00 20.00     0.094 A 
HETATM    5  C2  UNL     1     -33.522   6.077   2.990  1.00 20.00     0.171 A 
HETATM    6  N6  UNL     1     -34.315   5.329   3.760  1.00 20.00    -0.183 NA
HETATM    7  N8  UNL     1     -34.005   5.734   5.003  1.00 20.00    -0.283 N 
HETATM    8  C3  UNL     1     -33.049   6.707   5.043  1.00 20.00     0.145 A 
HETATM    9  C5  UNL     1     -34.671   5.141   6.138  1.00 20.00     0.179 C 
ENDBRANCH   2   4
TORSDOF 1
