REMARK  0 active torsions:
REMARK  status: ('A' for Active; 'I' for Inactive)
ROOT
HETATM    1  C1  UNL     1     -33.577   4.639   3.122  1.00 20.00     0.009 C 
HETATM    2  C2  UNL     1     -34.805   3.490   4.983  1.00 20.00     0.009 C 
HETATM    3  C3  UNL     1     -35.880   5.400   3.763  1.00 20.00     0.009 C 
HETATM    4  C4  UNL     1     -32.820   4.933   5.494  1.00 20.00     0.048 C 
HETATM    5  C5  UNL     1     -33.894   6.843   4.275  1.00 20.00     0.048 C 
HETATM    6  C6  UNL     1     -35.121   5.694   6.135  1.00 20.00     0.048 C 
HETATM    7  C7  UNL     1     -33.420   3.940   4.484  1.00 20.00    -0.011 C 
HETATM    8  C8  UNL     1     -34.501   5.863   3.257  1.00 20.00    -0.011 C 
HETATM    9  C9  UNL     1     -35.738   4.706   5.130  1.00 20.00    -0.011 C 
HETATM   10  C10 UNL     1     -33.744   6.149   5.635  1.00 20.00     0.104 C 
HETATM   11  F11 UNL     1     -33.209   7.019   6.526  1.00 20.00    -0.243 F 
ENDROOT
TORSDOF 0
