REMARK  1 active torsions:
REMARK  status: ('A' for Active; 'I' for Inactive)
REMARK    1  A    between atoms: C1_1  and  C3_3 
ROOT
HETATM    1  C2  UNL     1     -32.964   6.169   5.229  1.00 20.00     0.110 C 
HETATM    2  C3  UNL     1     -33.565   6.733   3.910  1.00 20.00     0.110 C 
HETATM    3  C4  UNL     1     -34.216   5.289   5.401  1.00 20.00     0.310 C 
HETATM    4  C5  UNL     1     -34.492   5.472   3.887  1.00 20.00     0.323 C 
HETATM    5  C6  UNL     1     -34.327   8.046   4.106  1.00 20.00     0.031 C 
HETATM    6  F8  UNL     1     -35.166   5.787   6.225  1.00 20.00    -0.200 F 
HETATM    7  F9  UNL     1     -33.986   4.018   5.799  1.00 20.00    -0.200 F 
HETATM    8  F10 UNL     1     -34.062   4.451   3.109  1.00 20.00    -0.198 F 
HETATM    9  F11 UNL     1     -35.784   5.692   3.554  1.00 20.00    -0.198 F 
ENDROOT
BRANCH   2  10
HETATM   10  C1  UNL     1     -32.571   6.845   2.720  1.00 20.00     0.233 C 
HETATM   11  O7  UNL     1     -31.994   5.861   2.267  1.00 20.00    -0.279 OA
HETATM   12 CL12 UNL     1     -32.407   8.481   2.157  1.00 20.00    -0.043 Cl
ENDBRANCH   2  10
TORSDOF 1
