REMARK  2 active torsions:
REMARK  status: ('A' for Active; 'I' for Inactive)
REMARK    1  A    between atoms: C1_1  and  C4_4 
REMARK    2  A    between atoms: C1_1  and  O8_8 
ROOT
HETATM    1  C2  UNL     1     -33.886   4.408   5.750  1.00 20.00     0.020 A 
HETATM    2  C3  UNL     1     -35.216   4.885   5.254  1.00 20.00     0.020 A 
HETATM    3  C4  UNL     1     -34.030   5.826   5.240  1.00 20.00     0.044 A 
HETATM    4  C5  UNL     1     -34.018   6.929   6.269  1.00 20.00     0.026 C 
ENDROOT
BRANCH   3   5
HETATM    5  C1  UNL     1     -33.429   6.130   3.919  1.00 20.00     0.266 C 
HETATM    6  O7  UNL     1     -33.747   5.572   2.877  1.00 20.00    -0.264 OA
BRANCH   5   7
HETATM    7  O8  UNL     1     -32.490   7.108   4.059  1.00 20.00    -0.326 OA
HETATM    8  C6  UNL     1     -31.826   7.501   2.853  1.00 20.00     0.213 C 
ENDBRANCH   5   7
ENDBRANCH   3   5
TORSDOF 2
