REMARK  1 active torsions:
REMARK  status: ('A' for Active; 'I' for Inactive)
REMARK    1  A    between atoms: C2_2  and  C3_3 
ROOT
HETATM    1  C1  UNL     1     -32.921   6.953   3.558  1.00 20.00    -0.019 C 
HETATM    2  C2  UNL     1     -33.713   5.942   3.959  1.00 20.00    -0.004 C 
HETATM    3  C4  UNL     1     -32.610   7.365   2.152  1.00 20.00     0.036 C 
HETATM    4  C5  UNL     1     -34.428   4.991   3.038  1.00 20.00     0.053 C 
ENDROOT
BRANCH   2   5
HETATM    5  C3  UNL     1     -33.942   5.682   5.436  1.00 20.00     0.247 C 
HETATM    6  O6  UNL     1     -33.898   6.646   6.202  1.00 20.00    -0.274 OA
HETATM    7 CL7  UNL     1     -34.267   4.056   6.013  1.00 20.00    -0.039 Cl
ENDBRANCH   2   5
TORSDOF 1
