REMARK  1 active torsions:
REMARK  status: ('A' for Active; 'I' for Inactive)
REMARK    1  A    between atoms: C2_2  and  C4_4 
ROOT
HETATM    1  C4  UNL     1     -34.023   5.325   5.223  1.00 20.00     0.407 C 
HETATM    2  F5  UNL     1     -33.840   4.036   5.609  1.00 20.00    -0.167 F 
HETATM    3  F6  UNL     1     -33.844   6.094   6.327  1.00 20.00    -0.167 F 
HETATM    4  F7  UNL     1     -35.327   5.446   4.869  1.00 20.00    -0.167 F 
ENDROOT
BRANCH   1   5
HETATM    5  C2  UNL     1     -33.077   5.705   4.139  1.00 20.00     0.084 C 
HETATM    6  C1  UNL     1     -33.030   6.914   3.563  1.00 20.00    -0.026 C 
HETATM    7  C3  UNL     1     -32.075   7.280   2.476  1.00 20.00     0.036 C 
ENDBRANCH   1   5
TORSDOF 1
