REMARK  1 active torsions:
REMARK  status: ('A' for Active; 'I' for Inactive)
REMARK    1  A    between atoms: C1_1  and  C6_6 
ROOT
HETATM    1  C2  UNL     1     -34.164   5.195   5.926  1.00 20.00     0.005 C 
HETATM    2  C3  UNL     1     -34.093   6.602   5.314  1.00 20.00     0.006 C 
HETATM    3  C4  UNL     1     -33.682   4.166   3.696  1.00 20.00     0.016 C 
HETATM    4  C5  UNL     1     -35.711   5.349   4.122  1.00 20.00     0.010 C 
HETATM    5  C6  UNL     1     -33.611   5.556   3.042  1.00 20.00     0.051 C 
HETATM    6  C7  UNL     1     -34.757   4.354   4.784  1.00 20.00    -0.013 C 
HETATM    7  C8  UNL     1     -34.609   6.384   3.879  1.00 20.00    -0.003 C 
ENDROOT
BRANCH   5   8
HETATM    8  C1  UNL     1     -32.229   6.128   3.013  1.00 20.00     0.236 C 
HETATM    9  O9  UNL     1     -31.994   7.330   3.070  1.00 20.00    -0.306 OA
ENDBRANCH   5   8
TORSDOF 1
