REMARK  2 active torsions:
REMARK  status: ('A' for Active; 'I' for Inactive)
REMARK    1  A    between atoms: C7_7  and  O9_9 
REMARK    2  A    between atoms: C8_8  and  O9_9 
ROOT
HETATM    1  C1  UNL     1     -34.569   3.579   5.668  1.00 20.00     0.015 C 
HETATM    2  C2  UNL     1     -34.387   4.762   5.567  1.00 20.00    -0.086 C 
HETATM    3  C3  UNL     1     -34.223   6.893   6.797  1.00 20.00     0.053 C 
HETATM    4  C7  UNL     1     -34.168   6.207   5.440  1.00 20.00     0.196 C 
ENDROOT
BRANCH   4   5
HETATM    5  O9  UNL     1     -32.896   6.436   4.854  1.00 20.00    -0.364 OA
BRANCH   5   6
HETATM    6  C8  UNL     1     -33.014   7.138   3.617  1.00 20.00     0.051 C 
HETATM    7  C4  UNL     1     -33.688   8.483   3.884  1.00 20.00     0.045 C 
HETATM    8  C5  UNL     1     -31.603   7.344   3.068  1.00 20.00     0.045 C 
HETATM    9  C6  UNL     1     -33.847   6.293   2.654  1.00 20.00     0.045 C 
ENDBRANCH   5   6
ENDBRANCH   4   5
TORSDOF 2
