REMARK  1 active torsions:
REMARK  status: ('A' for Active; 'I' for Inactive)
REMARK    1  A    between atoms: C4_4  and  C5_5 
ROOT
HETATM    1  C1  UNL     1     -33.105   6.244   3.733  1.00 20.00     0.059 C 
HETATM    2  C5  UNL     1     -34.172   5.293   4.062  1.00 20.00     0.128 C 
HETATM    3  N6  UNL     1     -32.262   6.997   3.470  1.00 20.00    -0.197 NA
ENDROOT
BRANCH   2   4
HETATM    4  C4  UNL     1     -33.845   4.777   5.421  1.00 20.00    -0.002 A 
HETATM    5  C2  UNL     1     -34.365   5.481   6.644  1.00 20.00     0.006 A 
HETATM    6  C3  UNL     1     -34.912   4.134   6.262  1.00 20.00     0.006 A 
ENDBRANCH   2   4
TORSDOF 1
