REMARK  2 active torsions:
REMARK  status: ('A' for Active; 'I' for Inactive)
REMARK    1  A    between atoms: C2_2  and  C3_3 
REMARK    2  A    between atoms: C3_3  and  C4_4 
ROOT
HETATM    1  C1  UNL     1     -33.143   7.505   2.708  1.00 20.00     0.059 C 
HETATM    2  C2  UNL     1     -34.049   6.991   3.743  1.00 20.00     0.132 C 
HETATM    3  N5  UNL     1     -32.428   7.912   1.889  1.00 20.00    -0.197 NA
ENDROOT
BRANCH   2   4
HETATM    4  C3  UNL     1     -33.488   5.723   4.384  1.00 20.00     0.131 C 
BRANCH   4   5
HETATM    5  C4  UNL     1     -34.424   5.157   5.429  1.00 20.00     0.388 C 
HETATM    6  F6  UNL     1     -34.612   6.026   6.444  1.00 20.00    -0.171 F 
HETATM    7  F7  UNL     1     -35.631   4.863   4.901  1.00 20.00    -0.171 F 
HETATM    8  F8  UNL     1     -33.918   4.018   5.952  1.00 20.00    -0.171 F 
ENDBRANCH   4   5
ENDBRANCH   2   4
TORSDOF 2
