REMARK  0 active torsions:
REMARK  status: ('A' for Active; 'I' for Inactive)
ROOT
HETATM    1  C1  UNL     1     -33.846   5.796   2.921  1.00 20.00    -0.003 A 
HETATM    2  C2  UNL     1     -35.247   5.426   2.949  1.00 20.00    -0.003 A 
HETATM    3  C3  UNL     1     -33.381   5.768   4.185  1.00 20.00    -0.013 A 
HETATM    4  C4  UNL     1     -35.591   5.186   4.228  1.00 20.00    -0.013 A 
HETATM    5  C5  UNL     1     -34.571   5.971   6.486  1.00 20.00     0.019 A 
HETATM    6  C6  UNL     1     -34.192   4.520   6.315  1.00 20.00     0.019 A 
HETATM    7  C7  UNL     1     -34.443   5.380   5.122  1.00 20.00    -0.005 A 
ENDROOT
TORSDOF 0
