REMARK  4 active torsions:
REMARK  status: ('A' for Active; 'I' for Inactive)
REMARK    1  A    between atoms: C1_1  and  C4_4 
REMARK    2  A    between atoms: C2_2  and  C6_6 
REMARK    3  A    between atoms: C6_6  and  C7_7 
REMARK    4  A    between atoms: C7_7  and  O8_8 
ROOT
HETATM    1  C1  UNL     1     -32.819   6.542   3.810  1.00 20.00    -0.072 C 
HETATM    2  C2  UNL     1     -33.257   6.243   4.888  1.00 20.00    -0.099 C 
ENDROOT
BRANCH   2   3
HETATM    3  C6  UNL     1     -33.793   5.876   6.207  1.00 20.00     0.120 C 
BRANCH   3   4
HETATM    4  C7  UNL     1     -34.629   4.605   6.135  1.00 20.00     0.176 C 
BRANCH   4   5
HETATM    5  O8  UNL     1     -35.712   4.797   5.233  1.00 20.00    -0.400 OA
HETATM    6  H18 UNL     1     -36.214   3.966   5.220  1.00 20.00     0.209 HD
ENDBRANCH   4   5
ENDBRANCH   3   4
ENDBRANCH   2   3
BRANCH   1   7
HETATM    7  C4  UNL     1     -32.297   6.902   2.532  1.00 20.00    -0.018 C 
HETATM    8  C3  UNL     1     -32.099   5.946   1.611  1.00 20.00     0.028 C 
HETATM    9  C5  UNL     1     -31.986   8.343   2.254  1.00 20.00     0.057 C 
ENDBRANCH   1   7
TORSDOF 4
