REMARK  2 active torsions:
REMARK  status: ('A' for Active; 'I' for Inactive)
REMARK    1  A    between atoms: C1_1  and  C4_4 
REMARK    2  A    between atoms: C3_3  and  C4_4 
ROOT
HETATM    1  C4  UNL     1     -33.932   6.281   3.759  1.00 20.00     0.359 C 
HETATM    2  F10 UNL     1     -34.601   7.406   3.384  1.00 20.00    -0.192 F 
HETATM    3  F11 UNL     1     -34.216   5.343   2.814  1.00 20.00    -0.192 F 
ENDROOT
BRANCH   1   4
HETATM    4  C1  UNL     1     -34.375   5.860   5.125  1.00 20.00     0.238 C 
HETATM    5  C2  UNL     1     -34.945   4.688   5.423  1.00 20.00     0.307 C 
HETATM    6  F6  UNL     1     -35.312   4.398   6.688  1.00 20.00    -0.170 F 
HETATM    7  F7  UNL     1     -35.161   3.785   4.444  1.00 20.00    -0.170 F 
HETATM    8  F5  UNL     1     -34.198   6.742   6.137  1.00 20.00    -0.198 F 
ENDBRANCH   1   4
BRANCH   1   9
HETATM    9  C3  UNL     1     -32.448   6.573   3.708  1.00 20.00     0.432 C 
HETATM   10  F8  UNL     1     -32.098   7.006   2.472  1.00 20.00    -0.207 F 
HETATM   11  F9  UNL     1     -32.164   7.584   4.568  1.00 20.00    -0.207 F 
ENDBRANCH   1   9
TORSDOF 2
