REMARK  2 active torsions:
REMARK  status: ('A' for Active; 'I' for Inactive)
REMARK    1  A    between atoms: C2_2  and  C6_6 
REMARK    2  A    between atoms: C2_2  and  O9_9 
ROOT
HETATM    1  C1  UNL     1     -31.573   7.648   3.925  1.00 20.00     0.079 C 
HETATM    2  C3  UNL     1     -31.826   5.660   2.510  1.00 20.00     0.042 C 
HETATM    3  C4  UNL     1     -33.340   7.655   2.225  1.00 20.00     0.042 C 
HETATM    4  C6  UNL     1     -32.566   6.794   3.232  1.00 20.00     0.129 C 
HETATM    5  N7  UNL     1     -30.793   8.316   4.465  1.00 20.00    -0.196 NA
ENDROOT
BRANCH   4   6
HETATM    6  C2  UNL     1     -33.539   6.201   4.255  1.00 20.00     0.280 C 
HETATM    7  O8  UNL     1     -33.493   6.409   5.462  1.00 20.00    -0.263 OA
BRANCH   6   8
HETATM    8  O9  UNL     1     -34.463   5.409   3.632  1.00 20.00    -0.325 OA
HETATM    9  C5  UNL     1     -35.431   4.793   4.487  1.00 20.00     0.213 C 
ENDBRANCH   6   8
ENDBRANCH   4   6
TORSDOF 2
