REMARK  2 active torsions:
REMARK  status: ('A' for Active; 'I' for Inactive)
REMARK    1  A    between atoms: C1_1  and  C2_2 
REMARK    2  A    between atoms: C1_1  and  C3_3 
ROOT
HETATM    1  C1  UNL     1     -33.392   5.737   4.720  1.00 20.00     0.341 C 
HETATM    2  F4  UNL     1     -33.775   7.000   4.379  1.00 20.00    -0.234 F 
ENDROOT
BRANCH   1   3
HETATM    3  C2  UNL     1     -33.097   4.977   3.446  1.00 20.00     0.395 C 
HETATM    4  F5  UNL     1     -32.109   5.608   2.764  1.00 20.00    -0.211 F 
HETATM    5  F6  UNL     1     -34.188   4.972   2.642  1.00 20.00    -0.211 F 
ENDBRANCH   1   3
BRANCH   1   6
HETATM    6  C3  UNL     1     -34.501   5.114   5.533  1.00 20.00     0.423 C 
HETATM    7  F7  UNL     1     -34.780   5.872   6.615  1.00 20.00    -0.168 F 
HETATM    8  F8  UNL     1     -34.151   3.887   5.974  1.00 20.00    -0.168 F 
HETATM    9  F9  UNL     1     -35.635   4.989   4.812  1.00 20.00    -0.168 F 
ENDBRANCH   1   6
TORSDOF 2
