REMARK  2 active torsions:
REMARK  status: ('A' for Active; 'I' for Inactive)
REMARK    1  A    between atoms: C2_2  and  C3_3 
REMARK    2  A    between atoms: C4_4  and  C5_5 
ROOT
HETATM    1  C3  UNL     1     -33.889   5.434   3.997  1.00 20.00    -0.001 C 
HETATM    2  C4  UNL     1     -32.929   6.323   3.701  1.00 20.00    -0.000 C 
ENDROOT
BRANCH   2   3
HETATM    3  C5  UNL     1     -32.805   6.945   2.402  1.00 20.00    -0.004 C 
HETATM    4  C6  UNL     1     -31.846   7.834   2.103  1.00 20.00    -0.031 C 
HETATM    5  C7  UNL     1     -31.707   8.483   0.765  1.00 20.00     0.036 C 
ENDBRANCH   2   3
BRANCH   1   6
HETATM    6  C2  UNL     1     -34.013   4.813   5.296  1.00 20.00    -0.010 C 
HETATM    7  C1  UNL     1     -34.968   3.925   5.599  1.00 20.00     0.011 C 
ENDBRANCH   1   6
TORSDOF 2
