REMARK  0 active torsions:
REMARK  status: ('A' for Active; 'I' for Inactive)
ROOT
HETATM    1  C1  UNL     1     -33.566   6.822   2.211  1.00 20.00     0.031 A 
HETATM    2  C2  UNL     1     -33.239   7.897   4.366  1.00 20.00     0.043 A 
HETATM    3  C3  UNL     1     -34.139   5.670   4.222  1.00 20.00     0.033 A 
HETATM    4  C4  UNL     1     -34.064   5.678   2.836  1.00 20.00    -0.045 A 
HETATM    5  C5  UNL     1     -33.735   6.758   4.986  1.00 20.00     0.017 A 
HETATM    6  C6  UNL     1     -33.156   7.925   2.971  1.00 20.00     0.035 A 
HETATM    7  C7  UNL     1     -34.635   4.557   5.037  1.00 20.00     0.171 A 
HETATM    8  C8  UNL     1     -34.599   4.835   6.522  1.00 20.00     0.163 A 
HETATM    9  C9  UNL     1     -34.492   4.528   1.991  1.00 20.00     0.049 C 
HETATM   10  O10 UNL     1     -35.039   3.505   4.565  1.00 20.00    -0.291 OA
HETATM   11  S11 UNL     1     -33.926   6.512   6.724  1.00 20.00    -0.121 SA
HETATM   12 CL12 UNL     1     -32.543   9.327   2.181  1.00 20.00    -0.084 Cl
ENDROOT
TORSDOF 0
