REMARK  1 active torsions:
REMARK  status: ('A' for Active; 'I' for Inactive)
REMARK    1  A    between atoms: C1_1  and  C6_6 
ROOT
HETATM    1  C2  UNL     1     -33.433   6.567   5.743  1.00 20.00     0.022 C 
HETATM    2  C3  UNL     1     -34.615   5.474   3.770  1.00 20.00     0.022 C 
HETATM    3  C4  UNL     1     -34.478   6.115   6.755  1.00 20.00     0.074 C 
HETATM    4  C5  UNL     1     -35.757   4.931   4.620  1.00 20.00     0.074 C 
HETATM    5  C6  UNL     1     -34.006   6.757   4.337  1.00 20.00     0.048 C 
HETATM    6  S8  UNL     1     -35.211   4.517   6.301  1.00 20.00    -0.169 SA
ENDROOT
BRANCH   5   7
HETATM    7  C1  UNL     1     -32.920   7.225   3.416  1.00 20.00     0.235 C 
HETATM    8  O7  UNL     1     -31.757   7.388   3.770  1.00 20.00    -0.306 OA
ENDBRANCH   5   7
TORSDOF 1
