REMARK  2 active torsions:
REMARK  status: ('A' for Active; 'I' for Inactive)
REMARK    1  A    between atoms: C1_1  and  C2_2 
REMARK    2  A    between atoms: C1_1  and  C3_3 
ROOT
HETATM    1  C3  UNL     1     -34.599   5.151   5.327  1.00 20.00     0.256 C 
HETATM    2  F4  UNL     1     -35.772   5.517   4.734  1.00 20.00    -0.207 F 
HETATM    3 CL5  UNL     1     -34.400   6.133   6.800  1.00 20.00    -0.066 Cl
HETATM    4 CL6  UNL     1     -34.720   3.428   5.765  1.00 20.00    -0.066 Cl
ENDROOT
BRANCH   1   5
HETATM    5  C1  UNL     1     -33.473   5.403   4.321  1.00 20.00     0.089 C 
BRANCH   5   6
HETATM    6  C2  UNL     1     -33.322   6.846   3.859  1.00 20.00     0.090 C 
HETATM    7 BR7  UNL     1     -31.797   6.985   2.649  1.00 20.00    -0.096 Br
ENDBRANCH   5   6
ENDBRANCH   1   5
TORSDOF 2
