REMARK  1 active torsions:
REMARK  status: ('A' for Active; 'I' for Inactive)
REMARK    1  A    between atoms: C1_1  and  C5_5 
ROOT
HETATM    1  C2  UNL     1     -34.272   3.853   3.197  1.00 20.00     0.006 C 
HETATM    2  C3  UNL     1     -35.081   3.880   4.502  1.00 20.00     0.006 C 
HETATM    3  C4  UNL     1     -35.256   5.995   3.482  1.00 20.00     0.011 C 
HETATM    4  C5  UNL     1     -32.901   5.814   3.946  1.00 20.00     0.067 C 
HETATM    5  C6  UNL     1     -33.982   5.344   2.942  1.00 20.00    -0.002 C 
HETATM    6  C7  UNL     1     -35.092   5.376   4.875  1.00 20.00    -0.006 C 
HETATM    7  C8  UNL     1     -33.676   5.890   5.299  1.00 20.00    -0.033 C 
HETATM    8  C10 UNL     1     -33.790   7.311   5.889  1.00 20.00     0.016 C 
HETATM    9  C11 UNL     1     -33.002   5.013   6.367  1.00 20.00     0.016 C 
ENDROOT
BRANCH   4  10
HETATM   10  C1  UNL     1     -32.283   7.104   3.494  1.00 20.00     0.128 C 
HETATM   11  C9  UNL     1     -30.847   7.339   3.880  1.00 20.00     0.091 C 
HETATM   12  O12 UNL     1     -32.918   7.929   2.838  1.00 20.00    -0.298 OA
ENDBRANCH   4  10
TORSDOF 1
