REMARK  0 active torsions:
REMARK  status: ('A' for Active; 'I' for Inactive)
ROOT
HETATM    1  C1  UNL     1     -33.360   6.704   3.195  1.00 20.00     0.000 C 
HETATM    2  C2  UNL     1     -33.863   5.296   2.873  1.00 20.00     0.001 C 
HETATM    3  C3  UNL     1     -32.913   6.818   4.653  1.00 20.00     0.001 C 
HETATM    4  C4  UNL     1     -34.975   4.867   3.830  1.00 20.00     0.009 C 
HETATM    5  C5  UNL     1     -34.022   6.392   5.613  1.00 20.00     0.009 C 
HETATM    6  C6  UNL     1     -33.885   3.818   5.943  1.00 20.00     0.010 A 
HETATM    7  C7  UNL     1     -35.275   4.239   6.326  1.00 20.00     0.010 A 
HETATM    8  C8  UNL     1     -34.523   5.009   5.266  1.00 20.00    -0.040 A 
ENDROOT
TORSDOF 0
