REMARK  3 active torsions:
REMARK  status: ('A' for Active; 'I' for Inactive)
REMARK    1  A    between atoms: C3_3  and  C4_4 
REMARK    2  A    between atoms: C4_4  and  O10_10 
REMARK    3  A    between atoms: C7_7  and  O10_10 
ROOT
HETATM    1  C1  UNL     1     -34.029   5.802   5.250  1.00 20.00     0.105 C 
HETATM    2  C2  UNL     1     -35.143   5.398   3.167  1.00 20.00     0.042 C 
HETATM    3  C3  UNL     1     -34.080   5.877   3.829  1.00 20.00     0.110 C 
HETATM    4  N8  UNL     1     -33.987   5.744   6.409  1.00 20.00    -0.191 NA
ENDROOT
BRANCH   3   5
HETATM    5  C4  UNL     1     -32.977   6.478   3.028  1.00 20.00     0.303 C 
HETATM    6  O9  UNL     1     -31.823   6.075   3.024  1.00 20.00    -0.258 OA
BRANCH   5   7
HETATM    7  O10 UNL     1     -33.457   7.533   2.312  1.00 20.00    -0.312 OA
BRANCH   7   8
HETATM    8  C7  UNL     1     -32.518   8.580   2.046  1.00 20.00     0.124 C 
HETATM    9  C5  UNL     1     -32.340   8.722   0.542  1.00 20.00     0.040 C 
HETATM   10  C6  UNL     1     -33.013   9.870   2.682  1.00 20.00     0.040 C 
ENDBRANCH   7   8
ENDBRANCH   5   7
ENDBRANCH   3   5
TORSDOF 3
