REMARK  0 active torsions:
REMARK  status: ('A' for Active; 'I' for Inactive)
ROOT
HETATM    1  C1  UNL     1     -34.067   6.862   5.166  1.00 20.00     0.027 A 
HETATM    2  C2  UNL     1     -33.208   5.909   4.374  1.00 20.00     0.027 A 
HETATM    3  C3  UNL     1     -34.670   5.587   4.610  1.00 20.00     0.120 A 
HETATM    4  C4  UNL     1     -33.805   7.064   6.619  1.00 20.00     0.014 C 
HETATM    5  C5  UNL     1     -32.676   6.321   3.043  1.00 20.00     0.014 C 
HETATM    6 CL6  UNL     1     -35.043   4.242   5.687  1.00 20.00    -0.101 Cl
HETATM    7 CL7  UNL     1     -35.834   5.745   3.295  1.00 20.00    -0.101 Cl
ENDROOT
TORSDOF 0
