REMARK  2 active torsions:
REMARK  status: ('A' for Active; 'I' for Inactive)
REMARK    1  A    between atoms: C5_5  and  C6_6 
REMARK    2  A    between atoms: C5_5  and  N7_7 
ROOT
HETATM    1  C1  UNL     1     -32.176   7.726   2.838  1.00 20.00     0.157 C 
HETATM    2  N7  UNL     1     -32.169   6.995   3.757  1.00 20.00    -0.275 NA
HETATM    3  S8  UNL     1     -32.169   8.737   1.608  1.00 20.00    -0.055 SA
ENDROOT
BRANCH   2   4
HETATM    4  C5  UNL     1     -32.916   5.749   3.558  1.00 20.00     0.158 C 
BRANCH   4   5
HETATM    5  C6  UNL     1     -34.025   5.592   4.620  1.00 20.00    -0.033 C 
HETATM    6  C2  UNL     1     -35.407   5.492   3.952  1.00 20.00     0.016 C 
HETATM    7  C3  UNL     1     -34.006   6.831   5.533  1.00 20.00     0.016 C 
HETATM    8  C4  UNL     1     -33.782   4.340   5.480  1.00 20.00     0.016 C 
ENDBRANCH   4   5
ENDBRANCH   2   4
TORSDOF 2
