REMARK  1 active torsions:
REMARK  status: ('A' for Active; 'I' for Inactive)
REMARK    1  A    between atoms: C1_1  and  C4_4 
ROOT
HETATM    1  C1  UNL     1     -32.265   8.624   1.601  1.00 20.00    -0.080 C 
HETATM    2  C2  UNL     1     -32.389   9.634   0.962  1.00 20.00    -0.106 C 
HETATM    3  C5  UNL     1     -32.540  10.863   0.185  1.00 20.00     0.112 C 
ENDROOT
BRANCH   1   4
HETATM    4  C4  UNL     1     -32.115   7.429   2.352  1.00 20.00     0.054 C 
HETATM    5  C3  UNL     1     -32.885   7.157   3.409  1.00 20.00     0.020 C 
ENDBRANCH   1   4
TORSDOF 1
