REMARK  6 active torsions:
REMARK  status: ('A' for Active; 'I' for Inactive)
REMARK    1  A    between atoms: C1_1  and  C4_4 
REMARK    2  A    between atoms: C4_4  and  C5_5 
REMARK    3  A    between atoms: C5_5  and  C6_6 
REMARK    4  A    between atoms: C6_6  and  C7_7 
REMARK    5  A    between atoms: C7_7  and  C8_8 
REMARK    6  A    between atoms: C8_8  and  C9_9 
ROOT
HETATM    1  C6  UNL     1     -32.073   6.021   2.671  1.00 20.00     0.000 C 
ENDROOT
BRANCH   1   2
HETATM    2  C5  UNL     1     -32.377   5.704   4.136  1.00 20.00     0.008 C 
BRANCH   2   3
HETATM    3  C4  UNL     1     -33.873   5.816   4.430  1.00 20.00     0.096 C 
BRANCH   3   4
HETATM    4  C1  UNL     1     -34.205   5.470   5.871  1.00 20.00     0.218 C 
HETATM    5  O10 UNL     1     -34.498   4.336   6.236  1.00 20.00    -0.280 OA
HETATM    6 CL11 UNL     1     -34.112   6.871   6.902  1.00 20.00    -0.044 Cl
ENDBRANCH   3   4
ENDBRANCH   2   3
ENDBRANCH   1   2
BRANCH   1   7
HETATM    7  C7  UNL     1     -32.476   7.454   2.319  1.00 20.00     0.000 C 
BRANCH   7   8
HETATM    8  C8  UNL     1     -32.198   7.827   0.858  1.00 20.00     0.004 C 
BRANCH   8   9
HETATM    9  C9  UNL     1     -32.643   9.237   0.427  1.00 20.00    -0.023 C 
HETATM   10  C2  UNL     1     -31.960  10.339   1.237  1.00 20.00     0.009 C 
HETATM   11  C3  UNL     1     -32.353   9.437  -1.064  1.00 20.00     0.009 C 
ENDBRANCH   8   9
ENDBRANCH   7   8
ENDBRANCH   1   7
TORSDOF 6
