REMARK  2 active torsions:
REMARK  status: ('A' for Active; 'I' for Inactive)
REMARK    1  A    between atoms: C1_1  and  C3_3 
REMARK    2  A    between atoms: C2_2  and  C3_3 
ROOT
HETATM    1  C3  UNL     1     -34.255   6.053   5.401  1.00 20.00     0.139 C 
HETATM    2 CL6  UNL     1     -33.329   7.001   6.605  1.00 20.00    -0.120 Cl
ENDROOT
BRANCH   1   3
HETATM    3  C1  UNL     1     -33.598   6.184   4.036  1.00 20.00     0.244 C 
HETATM    4  F4  UNL     1     -34.314   5.490   3.111  1.00 20.00    -0.254 F 
ENDBRANCH   1   3
BRANCH   1   5
HETATM    5  C2  UNL     1     -34.335   4.603   5.854  1.00 20.00     0.244 C 
HETATM    6  F5  UNL     1     -35.072   3.895   4.955  1.00 20.00    -0.254 F 
ENDBRANCH   1   5
TORSDOF 2
