REMARK  1 active torsions:
REMARK  status: ('A' for Active; 'I' for Inactive)
REMARK    1  A    between atoms: C1_1  and  C6_6 
ROOT
HETATM    1  C2  UNL     1     -35.387   5.406   2.765  1.00 20.00     0.002 C 
HETATM    2  C3  UNL     1     -35.027   6.872   3.009  1.00 20.00     0.012 C 
HETATM    3  C4  UNL     1     -34.728   4.420   3.728  1.00 20.00     0.009 C 
HETATM    4  C5  UNL     1     -33.635   6.267   5.085  1.00 20.00     0.021 C 
HETATM    5  C6  UNL     1     -33.731   7.080   3.784  1.00 20.00     0.055 C 
HETATM    6  C7  UNL     1     -34.507   4.985   5.143  1.00 20.00    -0.047 C 
HETATM    7  C9  UNL     1     -33.783   3.923   5.996  1.00 20.00     0.015 C 
HETATM    8  C10 UNL     1     -35.858   5.279   5.825  1.00 20.00     0.015 C 
ENDROOT
BRANCH   5   9
HETATM    9  C1  UNL     1     -32.545   6.795   2.906  1.00 20.00     0.127 C 
HETATM   10  C8  UNL     1     -32.039   7.933   2.062  1.00 20.00     0.091 C 
HETATM   11  O11 UNL     1     -32.014   5.686   2.879  1.00 20.00    -0.298 OA
ENDBRANCH   5   9
TORSDOF 1
