REMARK  2 active torsions:
REMARK  status: ('A' for Active; 'I' for Inactive)
REMARK    1  A    between atoms: C1_1  and  C4_4 
REMARK    2  A    between atoms: C3_3  and  C4_4 
ROOT
HETATM    1  C4  UNL     1     -34.421   5.681   4.401  1.00 20.00     0.359 C 
HETATM    2  F8  UNL     1     -34.957   4.555   3.859  1.00 20.00    -0.191 F 
HETATM    3  F9  UNL     1     -35.239   6.705   4.038  1.00 20.00    -0.191 F 
ENDROOT
BRANCH   1   4
HETATM    4  C1  UNL     1     -34.337   5.562   5.905  1.00 20.00     0.200 C 
HETATM    5  C2  UNL     1     -34.815   4.276   6.527  1.00 20.00     0.098 C 
HETATM    6  O5  UNL     1     -33.926   6.492   6.599  1.00 20.00    -0.292 OA
ENDBRANCH   1   4
BRANCH   1   7
HETATM    7  C3  UNL     1     -33.058   5.908   3.791  1.00 20.00     0.432 C 
HETATM    8  F6  UNL     1     -33.170   6.063   2.449  1.00 20.00    -0.207 F 
HETATM    9  F7  UNL     1     -32.539   7.065   4.274  1.00 20.00    -0.207 F 
ENDBRANCH   1   7
TORSDOF 2
