REMARK  1 active torsions:
REMARK  status: ('A' for Active; 'I' for Inactive)
REMARK    1  A    between atoms: C1_1  and  C6_6 
ROOT
HETATM    1  C2  UNL     1     -33.440   6.299   5.017  1.00 20.00     0.038 C 
HETATM    2  C3  UNL     1     -34.690   5.181   3.152  1.00 20.00     0.038 C 
HETATM    3  C4  UNL     1     -34.119   5.319   5.967  1.00 20.00     0.168 C 
HETATM    4  C5  UNL     1     -35.299   4.262   4.205  1.00 20.00     0.168 C 
HETATM    5  C6  UNL     1     -33.335   5.697   3.621  1.00 20.00     0.051 C 
HETATM    6  O8  UNL     1     -35.396   4.929   5.463  1.00 20.00    -0.391 OA
ENDROOT
BRANCH   5   7
HETATM    7  C1  UNL     1     -32.886   6.786   2.666  1.00 20.00     0.235 C 
HETATM    8  O7  UNL     1     -32.175   7.727   3.001  1.00 20.00    -0.306 OA
ENDBRANCH   5   7
TORSDOF 1
