REMARK  1 active torsions:
REMARK  status: ('A' for Active; 'I' for Inactive)
REMARK    1  A    between atoms: C9_9  and  O10_10 
ROOT
HETATM    1  C1  UNL     1     -31.591   7.688   2.857  1.00 20.00     0.001 C 
HETATM    2  C2  UNL     1     -32.458   6.747   2.005  1.00 20.00     0.005 C 
HETATM    3  C3  UNL     1     -31.965   7.420   4.324  1.00 20.00     0.005 C 
HETATM    4  C4  UNL     1     -34.239   4.961   2.624  1.00 20.00     0.007 C 
HETATM    5  C5  UNL     1     -35.172   4.567   3.774  1.00 20.00     0.032 C 
HETATM    6  C6  UNL     1     -33.672   5.808   5.430  1.00 20.00     0.036 C 
HETATM    7  C7  UNL     1     -33.527   6.259   2.972  1.00 20.00    -0.010 C 
HETATM    8  C8  UNL     1     -32.738   6.111   4.271  1.00 20.00    -0.008 C 
HETATM    9  C9  UNL     1     -34.458   4.523   5.135  1.00 20.00     0.118 C 
ENDROOT
BRANCH   9  10
HETATM   10  O10 UNL     1     -35.415   4.328   6.171  1.00 20.00    -0.396 OA
HETATM   11  H26 UNL     1     -35.856   3.484   5.986  1.00 20.00     0.210 HD
ENDBRANCH   9  10
TORSDOF 1
