REMARK  1 active torsions:
REMARK  status: ('A' for Active; 'I' for Inactive)
REMARK    1  A    between atoms: C7_7  and  O8_8 
ROOT
HETATM    1  C1  UNL     1     -34.501   6.971   5.126  1.00 20.00    -0.025 C 
HETATM    2  C2  UNL     1     -33.889   6.163   6.003  1.00 20.00    -0.023 C 
HETATM    3  C3  UNL     1     -33.328   5.402   3.893  1.00 20.00     0.019 C 
HETATM    4  C4  UNL     1     -35.689   5.093   4.060  1.00 20.00     0.041 C 
HETATM    5  C5  UNL     1     -34.636   6.202   3.833  1.00 20.00     0.011 C 
HETATM    6  C6  UNL     1     -33.616   4.855   5.295  1.00 20.00     0.037 C 
HETATM    7  C7  UNL     1     -34.957   4.130   5.035  1.00 20.00     0.126 C 
ENDROOT
BRANCH   7   8
HETATM    8  O8  UNL     1     -35.699   3.915   6.220  1.00 20.00    -0.395 OA
HETATM    9  H18 UNL     1     -36.551   3.525   5.958  1.00 20.00     0.210 HD
ENDBRANCH   7   8
TORSDOF 1
