REMARK  1 active torsions:
REMARK  status: ('A' for Active; 'I' for Inactive)
REMARK    1  A    between atoms: C1_1  and  C4_4 
ROOT
HETATM    1  C3  UNL     1     -34.521   5.758   5.781  1.00 20.00    -0.024 C 
HETATM    2  C4  UNL     1     -34.225   5.728   4.465  1.00 20.00    -0.066 C 
HETATM    3  C6  UNL     1     -35.367   4.810   6.572  1.00 20.00     0.036 C 
HETATM    4  C7  UNL     1     -34.730   4.678   3.511  1.00 20.00     0.048 C 
ENDROOT
BRANCH   2   5
HETATM    5  C1  UNL     1     -33.362   6.779   3.920  1.00 20.00     0.002 C 
HETATM    6  C2  UNL     1     -32.964   6.912   2.644  1.00 20.00    -0.030 C 
HETATM    7  C5  UNL     1     -32.078   8.017   2.168  1.00 20.00     0.036 C 
ENDBRANCH   2   5
TORSDOF 1
