REMARK  0 active torsions:
REMARK  status: ('A' for Active; 'I' for Inactive)
ROOT
HETATM    1  C1  UNL     1     -32.845   6.012   3.859  1.00 20.00     0.135 C 
HETATM    2  C2  UNL     1     -32.820   5.933   5.364  1.00 20.00     0.088 C 
HETATM    3  C3  UNL     1     -35.111   5.817   4.567  1.00 20.00     0.025 C 
HETATM    4  C4  UNL     1     -34.253   5.951   3.292  1.00 20.00     0.014 C 
HETATM    5  C5  UNL     1     -34.187   5.322   5.701  1.00 20.00    -0.040 C 
HETATM    6  C6  UNL     1     -34.571   7.254   2.554  1.00 20.00     0.023 C 
HETATM    7  C7  UNL     1     -34.406   4.762   2.344  1.00 20.00     0.023 C 
HETATM    8  C8  UNL     1     -34.689   5.822   7.062  1.00 20.00     0.015 C 
HETATM    9  C9  UNL     1     -34.102   3.788   5.749  1.00 20.00     0.015 C 
HETATM   10  O10 UNL     1     -31.835   6.153   3.179  1.00 20.00    -0.297 OA
ENDROOT
TORSDOF 0
