REMARK  3 active torsions:
REMARK  status: ('A' for Active; 'I' for Inactive)
REMARK    1  A    between atoms: C4_4  and  C6_6 
REMARK    2  A    between atoms: C5_5  and  C6_6 
REMARK    3  A    between atoms: C6_6  and  N7_7 
ROOT
HETATM    1  C1  UNL     1     -32.953   6.610   3.251  1.00 20.00     0.158 C 
HETATM    2  N7  UNL     1     -33.497   5.709   3.768  1.00 20.00    -0.270 NA
HETATM    3  S8  UNL     1     -32.188   7.812   2.539  1.00 20.00    -0.055 SA
ENDROOT
BRANCH   2   4
HETATM    4  C6  UNL     1     -34.777   6.049   4.405  1.00 20.00     0.109 C 
BRANCH   4   5
HETATM    5  C4  UNL     1     -34.677   5.736   5.903  1.00 20.00     0.023 C 
HETATM    6  C2  UNL     1     -34.403   4.263   6.174  1.00 20.00     0.007 C 
ENDBRANCH   4   5
BRANCH   4   7
HETATM    7  C5  UNL     1     -35.887   5.222   3.746  1.00 20.00     0.023 C 
HETATM    8  C3  UNL     1     -37.242   5.515   4.320  1.00 20.00     0.007 C 
ENDBRANCH   4   7
ENDBRANCH   2   4
TORSDOF 3
