REMARK  3 active torsions:
REMARK  status: ('A' for Active; 'I' for Inactive)
REMARK    1  A    between atoms: C4_4  and  C5_5 
REMARK    2  A    between atoms: C4_4  and  C6_6 
REMARK    3  A    between atoms: C5_5  and  N7_7 
ROOT
HETATM    1  C1  UNL     1     -32.154   8.053   2.111  1.00 20.00     0.157 C 
HETATM    2  N7  UNL     1     -32.202   7.284   2.997  1.00 20.00    -0.276 NA
HETATM    3  S8  UNL     1     -32.061   9.094   0.909  1.00 20.00    -0.055 SA
ENDROOT
BRANCH   2   4
HETATM    4  C5  UNL     1     -33.550   6.984   3.482  1.00 20.00     0.151 C 
BRANCH   4   5
HETATM    5  C4  UNL     1     -33.476   6.041   4.679  1.00 20.00     0.026 C 
BRANCH   5   6
HETATM    6  C6  UNL     1     -34.835   5.689   5.316  1.00 20.00    -0.021 C 
HETATM    7  C2  UNL     1     -35.730   5.006   4.278  1.00 20.00     0.009 C 
HETATM    8  C3  UNL     1     -34.690   4.788   6.543  1.00 20.00     0.009 C 
ENDBRANCH   5   6
ENDBRANCH   4   5
ENDBRANCH   2   4
TORSDOF 3
