REMARK  5 active torsions:
REMARK  status: ('A' for Active; 'I' for Inactive)
REMARK    1  A    between atoms: C3_3  and  C7_7 
REMARK    2  A    between atoms: C4_4  and  C8_8 
REMARK    3  A    between atoms: C7_7  and  C9_9 
REMARK    4  A    between atoms: C8_8  and  C10_10 
REMARK    5  A    between atoms: C9_9  and  C10_10 
ROOT
HETATM    1  C9  UNL     1     -32.867   5.592   2.555  1.00 20.00     0.004 C 
ENDROOT
BRANCH   1   2
HETATM    2  C7  UNL     1     -34.185   6.064   3.174  1.00 20.00     0.026 C 
BRANCH   2   3
HETATM    3  C3  UNL     1     -34.342   5.550   4.576  1.00 20.00    -0.031 C 
HETATM    4  C1  UNL     1     -34.916   4.376   4.879  1.00 20.00    -0.035 C 
HETATM    5  C5  UNL     1     -35.078   3.867   6.273  1.00 20.00     0.035 C 
ENDBRANCH   2   3
ENDBRANCH   1   2
BRANCH   1   6
HETATM    6  C10 UNL     1     -31.667   6.055   3.384  1.00 20.00     0.004 C 
BRANCH   6   7
HETATM    7  C8  UNL     1     -31.591   7.582   3.447  1.00 20.00     0.026 C 
BRANCH   7   8
HETATM    8  C4  UNL     1     -31.486   8.179   2.074  1.00 20.00    -0.031 C 
HETATM    9  C2  UNL     1     -32.358   9.069   1.580  1.00 20.00    -0.035 C 
HETATM   10  C6  UNL     1     -32.251   9.669   0.217  1.00 20.00     0.035 C 
ENDBRANCH   7   8
ENDBRANCH   6   7
ENDBRANCH   1   6
TORSDOF 5
