REMARK  5 active torsions:
REMARK  status: ('A' for Active; 'I' for Inactive)
REMARK    1  A    between atoms: C2_2  and  C3_3 
REMARK    2  A    between atoms: C3_3  and  C4_4 
REMARK    3  A    between atoms: C4_4  and  C5_5 
REMARK    4  A    between atoms: C5_5  and  C6_6 
REMARK    5  A    between atoms: C6_6  and  C7_7 
ROOT
HETATM    1  C1  UNL     1     -34.962   5.007   4.864  1.00 20.00     0.059 C 
HETATM    2  C2  UNL     1     -34.196   5.512   3.716  1.00 20.00     0.124 C 
HETATM    3  N8  UNL     1     -35.569   4.608   5.769  1.00 20.00    -0.197 NA
ENDROOT
BRANCH   2   4
HETATM    4  C3  UNL     1     -32.766   5.895   4.098  1.00 20.00     0.014 C 
BRANCH   4   5
HETATM    5  C4  UNL     1     -31.976   6.490   2.927  1.00 20.00     0.001 C 
BRANCH   5   6
HETATM    6  C5  UNL     1     -32.663   7.741   2.373  1.00 20.00     0.001 C 
BRANCH   6   7
HETATM    7  C6  UNL     1     -31.888   8.318   1.185  1.00 20.00     0.015 C 
BRANCH   7   8
HETATM    8  C7  UNL     1     -32.535   9.565   0.591  1.00 20.00     0.114 C 
HETATM    9 CL9  UNL     1     -32.687  10.873   1.786  1.00 20.00    -0.130 Cl
ENDBRANCH   7   8
ENDBRANCH   6   7
ENDBRANCH   5   6
ENDBRANCH   4   5
ENDBRANCH   2   4
TORSDOF 5
