REMARK  0 active torsions:
REMARK  status: ('A' for Active; 'I' for Inactive)
ROOT
HETATM    1  C1  UNL     1     -32.515   6.352   3.584  1.00 20.00     0.071 C 
HETATM    2  C2  UNL     1     -34.704   4.769   6.353  1.00 20.00    -0.000 C 
HETATM    3  C3  UNL     1     -35.076   4.020   5.308  1.00 20.00    -0.000 C 
HETATM    4  C4  UNL     1     -34.433   6.183   6.374  1.00 20.00    -0.002 C 
HETATM    5  C5  UNL     1     -35.294   4.446   3.950  1.00 20.00    -0.002 C 
HETATM    6  C6  UNL     1     -34.072   6.963   5.346  1.00 20.00    -0.004 C 
HETATM    7  C7  UNL     1     -34.785   5.523   3.337  1.00 20.00    -0.004 C 
HETATM    8  C8  UNL     1     -33.927   6.628   3.887  1.00 20.00     0.138 C 
HETATM    9  N9  UNL     1     -31.401   6.133   3.346  1.00 20.00    -0.196 NA
ENDROOT
TORSDOF 0
