REMARK  0 active torsions:
REMARK  status: ('A' for Active; 'I' for Inactive)
ROOT
HETATM    1  C1  UNL     1     -33.022   6.657   4.834  1.00 20.00     0.131 C 
HETATM    2  C2  UNL     1     -33.940   5.554   5.293  1.00 20.00     0.087 C 
HETATM    3  C3  UNL     1     -33.329   5.219   2.967  1.00 20.00     0.021 C 
HETATM    4  C4  UNL     1     -32.598   6.498   3.391  1.00 20.00     0.052 C 
HETATM    5  C5  UNL     1     -34.479   4.990   3.970  1.00 20.00    -0.041 C 
HETATM    6  C6  UNL     1     -32.943   7.719   2.556  1.00 20.00     0.018 C 
HETATM    7  C7  UNL     1     -34.797   3.496   4.099  1.00 20.00     0.015 C 
HETATM    8  C8  UNL     1     -35.759   5.728   3.545  1.00 20.00     0.015 C 
HETATM    9  O9  UNL     1     -32.634   7.561   5.565  1.00 20.00    -0.298 OA
ENDROOT
TORSDOF 0
