REMARK  2 active torsions:
REMARK  status: ('A' for Active; 'I' for Inactive)
REMARK    1  A    between atoms: C5_5  and  C6_6 
REMARK    2  A    between atoms: C6_6  and  N7_7 
ROOT
HETATM    1  C1  UNL     1     -32.655   6.673   3.128  1.00 20.00     0.158 C 
HETATM    2  N7  UNL     1     -33.156   5.824   3.764  1.00 20.00    -0.270 NA
HETATM    3  S8  UNL     1     -31.949   7.803   2.256  1.00 20.00    -0.055 SA
ENDROOT
BRANCH   2   4
HETATM    4  C6  UNL     1     -34.433   6.198   4.388  1.00 20.00     0.109 C 
HETATM    5  C4  UNL     1     -35.525   5.309   3.804  1.00 20.00     0.035 C 
BRANCH   4   6
HETATM    6  C5  UNL     1     -34.324   6.103   5.925  1.00 20.00     0.002 C 
HETATM    7  C2  UNL     1     -33.210   7.014   6.453  1.00 20.00     0.011 C 
HETATM    8  C3  UNL     1     -34.114   4.677   6.443  1.00 20.00     0.011 C 
ENDBRANCH   4   6
ENDBRANCH   2   4
TORSDOF 2
