REMARK  0 active torsions:
REMARK  status: ('A' for Active; 'I' for Inactive)
ROOT
HETATM    1  C1  UNL     1     -34.193   7.038   4.009  1.00 20.00     0.048 C 
HETATM    2  C2  UNL     1     -33.185   4.955   3.531  1.00 20.00     0.177 C 
HETATM    3  C3  UNL     1     -34.306   5.557   4.369  1.00 20.00    -0.023 C 
HETATM    4  C4  UNL     1     -32.720   7.234   3.616  1.00 20.00     0.054 C 
HETATM    5  C5  UNL     1     -35.670   4.972   4.000  1.00 20.00     0.017 C 
HETATM    6  C6  UNL     1     -34.046   5.327   5.866  1.00 20.00     0.017 C 
HETATM    7  C7  UNL     1     -31.944   8.059   4.641  1.00 20.00     0.045 C 
HETATM    8  C8  UNL     1     -32.592   7.878   2.233  1.00 20.00     0.045 C 
HETATM    9  O9  UNL     1     -32.127   5.922   3.552  1.00 20.00    -0.380 OA
ENDROOT
TORSDOF 0
