REMARK  4 active torsions:
REMARK  status: ('A' for Active; 'I' for Inactive)
REMARK    1  A    between atoms: C3_3  and  C6_6 
REMARK    2  A    between atoms: C5_5  and  C7_7 
REMARK    3  A    between atoms: C6_6  and  C8_8 
REMARK    4  A    between atoms: C7_7  and  C8_8 
ROOT
HETATM    1  C1  UNL     1     -34.504   5.430   5.393  1.00 20.00     0.059 C 
HETATM    2  C5  UNL     1     -33.798   6.443   4.596  1.00 20.00     0.124 C 
HETATM    3  N9  UNL     1     -35.062   4.631   6.022  1.00 20.00    -0.197 NA
ENDROOT
BRANCH   2   4
HETATM    4  C7  UNL     1     -32.793   5.818   3.626  1.00 20.00     0.014 C 
BRANCH   4   5
HETATM    5  C8  UNL     1     -32.041   6.867   2.796  1.00 20.00     0.005 C 
BRANCH   5   6
HETATM    6  C6  UNL     1     -32.975   7.786   1.999  1.00 20.00     0.033 C 
BRANCH   6   7
HETATM    7  C3  UNL     1     -32.275   8.887   1.236  1.00 20.00    -0.093 C 
HETATM    8  C2  UNL     1     -32.561  10.180   1.451  1.00 20.00     0.014 C 
HETATM    9  C4  UNL     1     -31.220   8.473   0.251  1.00 20.00     0.042 C 
ENDBRANCH   6   7
ENDBRANCH   5   6
ENDBRANCH   4   5
ENDBRANCH   2   4
TORSDOF 4
