REMARK  1 active torsions:
REMARK  status: ('A' for Active; 'I' for Inactive)
REMARK    1  A    between atoms: C2_2  and  C7_7 
ROOT
HETATM    1  C1  UNL     1     -34.685   4.544   5.081  1.00 20.00     0.127 C 
HETATM    2  C3  UNL     1     -34.849   4.635   3.581  1.00 20.00     0.079 C 
HETATM    3  C4  UNL     1     -34.403   5.839   5.810  1.00 20.00     0.079 C 
HETATM    4  C5  UNL     1     -33.697   5.415   2.961  1.00 20.00     0.019 C 
HETATM    5  C6  UNL     1     -33.259   6.592   5.143  1.00 20.00     0.019 C 
HETATM    6  C7  UNL     1     -33.501   6.770   3.643  1.00 20.00     0.048 C 
HETATM    7  O8  UNL     1     -34.877   3.492   5.688  1.00 20.00    -0.298 OA
ENDROOT
BRANCH   6   8
HETATM    8  C2  UNL     1     -32.334   7.472   3.019  1.00 20.00     0.235 C 
HETATM    9  O9  UNL     1     -31.343   7.827   3.648  1.00 20.00    -0.306 OA
ENDBRANCH   6   8
TORSDOF 1
