REMARK  2 active torsions:
REMARK  status: ('A' for Active; 'I' for Inactive)
REMARK    1  A    between atoms: C5_5  and  C7_7 
REMARK    2  A    between atoms: C6_6  and  O10_10 
ROOT
HETATM    1  C1  UNL     1     -35.536   5.130   3.701  1.00 20.00     0.006 A 
HETATM    2  C2  UNL     1     -34.227   5.869   5.720  1.00 20.00     0.006 A 
HETATM    3  C3  UNL     1     -34.596   5.651   2.898  1.00 20.00    -0.008 A 
HETATM    4  C4  UNL     1     -33.284   6.391   4.921  1.00 20.00    -0.008 A 
HETATM    5  C6  UNL     1     -35.456   5.180   5.199  1.00 20.00     0.163 A 
HETATM    6  C7  UNL     1     -33.349   6.317   3.418  1.00 20.00     0.044 A 
HETATM    7  C8  UNL     1     -32.100   5.633   2.859  1.00 20.00     0.031 C 
ENDROOT
BRANCH   6   8
HETATM    8  C5  UNL     1     -33.419   7.743   2.941  1.00 20.00     0.248 C 
HETATM    9  O9  UNL     1     -32.573   8.255   2.215  1.00 20.00    -0.305 OA
ENDBRANCH   6   8
BRANCH   5  10
HETATM   10  O10 UNL     1     -35.489   3.842   5.690  1.00 20.00    -0.388 OA
HETATM   11  H20 UNL     1     -36.329   3.459   5.391  1.00 20.00     0.210 HD
ENDBRANCH   5  10
TORSDOF 2
