REMARK  2 active torsions:
REMARK  status: ('A' for Active; 'I' for Inactive)
REMARK    1  A    between atoms: C3_3  and  O6_6 
REMARK    2  A    between atoms: C4_4  and  O6_6 
ROOT
HETATM    1  C1  UNL     1     -32.496   8.395   2.005  1.00 20.00     0.014 C 
HETATM    2  C2  UNL     1     -32.491   7.616   2.919  1.00 20.00    -0.091 C 
HETATM    3  C4  UNL     1     -32.483   6.667   4.032  1.00 20.00     0.272 C 
ENDROOT
BRANCH   3   4
HETATM    4  O6  UNL     1     -33.801   6.472   4.530  1.00 20.00    -0.297 OA
BRANCH   4   5
HETATM    5  C3  UNL     1     -34.530   5.458   3.953  1.00 20.00     0.358 C 
HETATM    6  O5  UNL     1     -34.800   5.430   2.756  1.00 20.00    -0.245 OA
HETATM    7 CL7  UNL     1     -35.017   4.239   5.101  1.00 20.00    -0.012 Cl
ENDBRANCH   4   5
ENDBRANCH   3   4
TORSDOF 2
