REMARK  3 active torsions:
REMARK  status: ('A' for Active; 'I' for Inactive)
REMARK    1  A    between atoms: C5_5  and  C6_6 
REMARK    2  A    between atoms: C5_5  and  N8_8 
REMARK    3  A    between atoms: C6_6  and  N9_9 
ROOT
HETATM    1  C1  UNL     1     -32.355   9.713   1.102  1.00 20.00     0.157 C 
HETATM    2  N8  UNL     1     -32.210   8.595   1.432  1.00 20.00    -0.274 NA
HETATM    3  S10 UNL     1     -32.528  11.226   0.635  1.00 20.00    -0.055 SA
ENDROOT
BRANCH   2   4
HETATM    4  C5  UNL     1     -33.153   8.127   2.451  1.00 20.00     0.172 C 
BRANCH   4   5
HETATM    5  C6  UNL     1     -32.870   6.668   2.791  1.00 20.00     0.172 C 
BRANCH   5   6
HETATM    6  N9  UNL     1     -33.799   6.119   3.774  1.00 20.00    -0.280 N 
HETATM    7  C4  UNL     1     -34.865   5.309   3.515  1.00 20.00     0.113 A 
HETATM    8  C2  UNL     1     -35.441   5.045   4.734  1.00 20.00     0.040 A 
HETATM    9  C3  UNL     1     -34.643   5.745   5.659  1.00 20.00     0.140 A 
HETATM   10  N7  UNL     1     -33.637   6.404   5.077  1.00 20.00    -0.185 NA
ENDBRANCH   5   6
ENDBRANCH   4   5
ENDBRANCH   2   4
TORSDOF 3
