REMARK  0 active torsions:
REMARK  status: ('A' for Active; 'I' for Inactive)
ROOT
HETATM    1  C1  UNL     1     -35.452   5.089   5.737  1.00 20.00     0.072 C 
HETATM    2  C2  UNL     1     -35.415   4.448   4.359  1.00 20.00     0.173 C 
HETATM    3  C3  UNL     1     -34.096   6.367   4.331  1.00 20.00     0.255 C 
HETATM    4  C4  UNL     1     -34.145   5.862   5.773  1.00 20.00     0.154 C 
HETATM    5  O5  UNL     1     -34.628   5.308   3.517  1.00 20.00    -0.367 OA
HETATM    6 CL6  UNL     1     -32.501   6.867   3.748  1.00 20.00    -0.092 Cl
HETATM    7 CL7  UNL     1     -34.184   7.185   6.954  1.00 20.00    -0.098 Cl
HETATM    8 CL8  UNL     1     -32.803   4.743   6.176  1.00 20.00    -0.098 Cl
ENDROOT
TORSDOF 0
