REMARK  0 active torsions:
REMARK  status: ('A' for Active; 'I' for Inactive)
ROOT
HETATM    1  C1  UNL     1     -32.944   5.877   2.462  1.00 20.00    -0.025 C 
HETATM    2  C2  UNL     1     -34.072   5.153   2.381  1.00 20.00    -0.025 C 
HETATM    3  C3  UNL     1     -33.275   6.851   6.160  1.00 20.00    -0.024 A 
HETATM    4  C4  UNL     1     -34.430   6.591   6.778  1.00 20.00    -0.025 A 
HETATM    5  C5  UNL     1     -34.625   7.141   3.404  1.00 20.00     0.018 C 
HETATM    6  C6  UNL     1     -33.128   6.864   3.594  1.00 20.00     0.016 C 
HETATM    7  C7  UNL     1     -35.007   5.658   3.459  1.00 20.00     0.014 C 
HETATM    8  C8  UNL     1     -33.100   6.051   4.913  1.00 20.00     0.021 A 
HETATM    9  C9  UNL     1     -35.271   5.583   6.053  1.00 20.00     0.009 A 
HETATM   10  C10 UNL     1     -34.417   5.200   4.824  1.00 20.00     0.009 A 
HETATM   11  C11 UNL     1     -35.567   4.376   6.936  1.00 20.00     0.014 C 
ENDROOT
TORSDOF 0
