REMARK  6 active torsions:
REMARK  status: ('A' for Active; 'I' for Inactive)
REMARK    1  A    between atoms: C2_2  and  C3_3 
REMARK    2  A    between atoms: C3_3  and  C4_4 
REMARK    3  A    between atoms: C4_4  and  C5_5 
REMARK    4  A    between atoms: C5_5  and  C6_6 
REMARK    5  A    between atoms: C6_6  and  C7_7 
REMARK    6  A    between atoms: C7_7  and  C8_8 
ROOT
HETATM    1  C4  UNL     1     -33.813   5.194   3.308  1.00 20.00     0.005 C 
ENDROOT
BRANCH   1   2
HETATM    2  C3  UNL     1     -34.737   5.846   4.345  1.00 20.00     0.050 C 
BRANCH   2   3
HETATM    3  C2  UNL     1     -34.421   5.492   5.771  1.00 20.00     0.002 C 
HETATM    4  C1  UNL     1     -34.400   4.241   6.247  1.00 20.00     0.032 C 
HETATM    5 CL9  UNL     1     -34.126   6.823   6.838  1.00 20.00    -0.090 Cl
ENDBRANCH   2   3
ENDBRANCH   1   2
BRANCH   1   6
HETATM    6  C5  UNL     1     -32.333   5.512   3.534  1.00 20.00     0.000 C 
BRANCH   6   7
HETATM    7  C6  UNL     1     -32.069   7.016   3.439  1.00 20.00     0.001 C 
BRANCH   7   8
HETATM    8  C7  UNL     1     -32.424   7.557   2.053  1.00 20.00     0.015 C 
BRANCH   8   9
HETATM    9  C8  UNL     1     -32.192   9.060   1.975  1.00 20.00     0.114 C 
HETATM   10 CL10 UNL     1     -32.594   9.667   0.352  1.00 20.00    -0.130 Cl
ENDBRANCH   8   9
ENDBRANCH   7   8
ENDBRANCH   6   7
ENDBRANCH   1   6
TORSDOF 6
