REMARK  2 active torsions:
REMARK  status: ('A' for Active; 'I' for Inactive)
REMARK    1  A    between atoms: C1_1  and  C3_3 
REMARK    2  A    between atoms: C2_2  and  C3_3 
ROOT
HETATM    1  C3  UNL     1     -33.894   6.232   4.875  1.00 20.00     0.358 C 
HETATM    2  F8  UNL     1     -34.980   6.970   4.535  1.00 20.00    -0.194 F 
HETATM    3  F9  UNL     1     -33.191   6.957   5.781  1.00 20.00    -0.194 F 
ENDROOT
BRANCH   1   4
HETATM    4  C1  UNL     1     -34.351   4.947   5.522  1.00 20.00     0.430 C 
HETATM    5  F4  UNL     1     -35.116   5.239   6.605  1.00 20.00    -0.208 F 
HETATM    6  F5  UNL     1     -35.134   4.247   4.667  1.00 20.00    -0.208 F 
ENDBRANCH   1   4
BRANCH   1   7
HETATM    7  C2  UNL     1     -33.043   6.013   3.648  1.00 20.00     0.430 C 
HETATM    8  F6  UNL     1     -33.763   5.331   2.721  1.00 20.00    -0.208 F 
HETATM    9  F7  UNL     1     -32.715   7.203   3.090  1.00 20.00    -0.208 F 
ENDBRANCH   1   7
TORSDOF 2
