REMARK  0 active torsions:
REMARK  status: ('A' for Active; 'I' for Inactive)
ROOT
HETATM    1  C1  UNL     1     -33.956   4.569   5.615  1.00 20.00     0.018 A 
HETATM    2  C2  UNL     1     -34.483   5.940   5.959  1.00 20.00     0.018 A 
HETATM    3  C3  UNL     1     -34.039   5.636   4.543  1.00 20.00     0.083 A 
HETATM    4  C4  UNL     1     -34.868   3.391   5.670  1.00 20.00     0.012 C 
HETATM    5  C5  UNL     1     -33.714   6.817   6.888  1.00 20.00     0.012 C 
HETATM    6 BR6  UNL     1     -32.396   6.335   3.859  1.00 20.00    -0.072 Br
HETATM    7 BR7  UNL     1     -35.386   5.563   3.188  1.00 20.00    -0.072 Br
ENDROOT
TORSDOF 0
