REMARK  0 active torsions:
REMARK  status: ('A' for Active; 'I' for Inactive)
ROOT
HETATM    1  C1  UNL     1     -33.873   6.795   6.353  1.00 20.00     0.064 C 
HETATM    2  C2  UNL     1     -32.458   5.649   3.214  1.00 20.00     0.005 C 
HETATM    3  C3  UNL     1     -33.073   7.032   3.470  1.00 20.00     0.006 C 
HETATM    4  C4  UNL     1     -33.871   4.662   5.027  1.00 20.00     0.024 C 
HETATM    5  C5  UNL     1     -34.825   5.504   3.005  1.00 20.00     0.010 C 
HETATM    6  C6  UNL     1     -34.540   6.023   5.301  1.00 20.00     0.097 C 
HETATM    7  C7  UNL     1     -33.628   4.695   3.506  1.00 20.00    -0.013 C 
HETATM    8  C8  UNL     1     -34.513   6.699   3.911  1.00 20.00     0.003 C 
HETATM    9  N9  UNL     1     -33.344   7.406   7.186  1.00 20.00    -0.197 NA
ENDROOT
TORSDOF 0
