REMARK  1 active torsions:
REMARK  status: ('A' for Active; 'I' for Inactive)
REMARK    1  A    between atoms: C8_8  and  C12_12 
ROOT
HETATM    1  C1  UNL     1     -33.125   8.028   4.568  1.00 20.00    -0.023 C 
HETATM    2  C2  UNL     1     -33.464   6.991   5.357  1.00 20.00    -0.081 C 
HETATM    3  C3  UNL     1     -33.144   7.957   3.064  1.00 20.00     0.034 C 
HETATM    4  C4  UNL     1     -33.291   5.485   3.357  1.00 20.00     0.018 C 
HETATM    5  C5  UNL     1     -35.347   6.761   2.648  1.00 20.00     0.173 C 
HETATM    6  C6  UNL     1     -33.869   5.640   4.771  1.00 20.00     0.043 C 
HETATM    7  C7  UNL     1     -33.809   6.670   2.537  1.00 20.00     0.014 C 
HETATM    8  C8  UNL     1     -35.415   5.532   4.699  1.00 20.00     0.133 C 
HETATM    9  C9  UNL     1     -33.451   7.096   6.854  1.00 20.00     0.043 C 
HETATM   10  O13 UNL     1     -35.895   5.645   3.349  1.00 20.00    -0.384 OA
ENDROOT
BRANCH   8  11
HETATM   11  C12 UNL     1     -35.893   4.178   5.215  1.00 20.00     0.007 C 
HETATM   12  C10 UNL     1     -35.889   4.156   6.742  1.00 20.00     0.012 C 
HETATM   13  C11 UNL     1     -37.285   3.861   4.676  1.00 20.00     0.012 C 
ENDBRANCH   8  11
TORSDOF 1
