REMARK  1 active torsions:
REMARK  status: ('A' for Active; 'I' for Inactive)
REMARK    1  A    between atoms: C6_6  and  C7_7 
ROOT
HETATM    1  C1  UNL     1     -33.421   6.540   4.925  1.00 20.00     0.051 A 
HETATM    2  C2  UNL     1     -34.470   5.431   2.901  1.00 20.00     0.051 A 
HETATM    3  C3  UNL     1     -34.066   5.675   5.715  1.00 20.00    -0.013 A 
HETATM    4  C4  UNL     1     -35.104   4.579   3.714  1.00 20.00    -0.013 A 
HETATM    5  C5  UNL     1     -33.569   6.467   3.454  1.00 20.00     0.171 A 
HETATM    6  C6  UNL     1     -34.969   4.581   5.213  1.00 20.00     0.044 A 
HETATM    7  O8  UNL     1     -32.969   7.243   2.718  1.00 20.00    -0.289 OA
ENDROOT
BRANCH   6   8
HETATM    8  C7  UNL     1     -34.464   3.220   5.697  1.00 20.00     0.127 C 
HETATM    9 CL9  UNL     1     -35.773   2.028   5.630  1.00 20.00    -0.130 Cl
ENDBRANCH   6   8
TORSDOF 1
