REMARK  5 active torsions:
REMARK  status: ('A' for Active; 'I' for Inactive)
REMARK    1  A    between atoms: C1_1  and  C2_2 
REMARK    2  A    between atoms: C1_1  and  C3_3 
REMARK    3  A    between atoms: C2_2  and  C7_7 
REMARK    4  A    between atoms: C7_7  and  C8_8 
REMARK    5  A    between atoms: C8_8  and  O9_9 
ROOT
HETATM    1  C2  UNL     1     -32.590   5.720   3.296  1.00 20.00     0.070 C 
ENDROOT
BRANCH   1   2
HETATM    2  C1  UNL     1     -32.413   6.786   2.571  1.00 20.00    -0.166 C 
BRANCH   2   3
HETATM    3  C3  UNL     1     -32.231   7.851   1.839  1.00 20.00     0.022 C 
HETATM    4  C4  UNL     1     -32.828   9.182   2.199  1.00 20.00     0.029 C 
HETATM    5  C5  UNL     1     -31.408   7.832   0.583  1.00 20.00     0.029 C 
ENDBRANCH   2   3
ENDBRANCH   1   2
BRANCH   1   6
HETATM    6  C7  UNL     1     -33.397   5.669   4.563  1.00 20.00     0.048 C 
BRANCH   6   7
HETATM    7  C8  UNL     1     -34.595   4.723   4.435  1.00 20.00     0.115 C 
HETATM    8  C6  UNL     1     -35.553   5.194   3.349  1.00 20.00     0.039 C 
BRANCH   7   9
HETATM    9  O9  UNL     1     -35.296   4.698   5.677  1.00 20.00    -0.396 OA
HETATM   10  H23 UNL     1     -36.034   4.080   5.564  1.00 20.00     0.210 HD
ENDBRANCH   7   9
ENDBRANCH   6   7
ENDBRANCH   1   6
TORSDOF 5
