REMARK  1 active torsions:
REMARK  status: ('A' for Active; 'I' for Inactive)
REMARK    1  A    between atoms: C1_1  and  C3_3 
ROOT
HETATM    1  C1  UNL     1     -33.995   5.799   4.610  1.00 20.00     0.038 A 
HETATM    2  C2  UNL     1     -35.013   5.099   3.764  1.00 20.00     0.160 A 
HETATM    3  C4  UNL     1     -34.555   5.152   2.318  1.00 20.00     0.090 A 
HETATM    4  C5  UNL     1     -32.877   6.270   3.779  1.00 20.00     0.039 A 
HETATM    5  C6  UNL     1     -33.222   5.868   2.352  1.00 20.00     0.011 A 
HETATM    6  C7  UNL     1     -33.044   7.334   2.713  1.00 20.00    -0.035 A 
HETATM    7  C9  UNL     1     -34.235   8.261   2.737  1.00 20.00     0.016 C 
HETATM    8  C10 UNL     1     -31.785   8.007   2.223  1.00 20.00     0.016 C 
HETATM    9  O12 UNL     1     -36.041   4.580   4.163  1.00 20.00    -0.293 OA
ENDROOT
BRANCH   1  10
HETATM   10  C3  UNL     1     -34.173   5.932   5.927  1.00 20.00     0.155 C 
HETATM   11  C8  UNL     1     -35.439   5.352   6.539  1.00 20.00     0.096 C 
HETATM   12  O11 UNL     1     -33.448   6.479   6.812  1.00 20.00    -0.293 OA
ENDBRANCH   1  10
TORSDOF 1
