REMARK  2 active torsions:
REMARK  status: ('A' for Active; 'I' for Inactive)
REMARK    1  A    between atoms: C7_7  and  C8_8 
REMARK    2  A    between atoms: C9_9  and  C10_10 
ROOT
HETATM    1  C1  UNL     1     -32.023   6.413   2.799  1.00 20.00     0.047 C 
HETATM    2  C2  UNL     1     -32.747   5.273   2.838  1.00 20.00    -0.017 C 
HETATM    3  C5  UNL     1     -32.325   7.113   4.094  1.00 20.00     0.154 C 
HETATM    4  C7  UNL     1     -33.269   5.052   4.216  1.00 20.00     0.028 C 
HETATM    5  C10 UNL     1     -33.598   6.519   4.586  1.00 20.00     0.075 C 
HETATM    6  O11 UNL     1     -31.702   8.045   4.562  1.00 20.00    -0.293 OA
ENDROOT
BRANCH   5   7
HETATM    7  C9  UNL     1     -34.400   6.371   5.870  1.00 20.00     0.021 C 
HETATM    8  C4  UNL     1     -33.826   5.393   6.869  1.00 20.00    -0.025 C 
HETATM    9  C3  UNL     1     -33.921   4.158   6.339  1.00 20.00    -0.025 C 
HETATM   10  C8  UNL     1     -34.442   4.315   4.911  1.00 20.00     0.017 C 
HETATM   11  C6  UNL     1     -35.466   5.409   5.258  1.00 20.00     0.018 C 
ENDBRANCH   5   7
TORSDOF 2
