REMARK  0 active torsions:
REMARK  status: ('A' for Active; 'I' for Inactive)
ROOT
HETATM    1  C1  UNL     1     -34.376   5.346   2.053  1.00 20.00     0.009 C 
HETATM    2  C2  UNL     1     -34.118   7.334   3.560  1.00 20.00     0.012 C 
HETATM    3  C3  UNL     1     -32.278   5.635   3.402  1.00 20.00     0.012 C 
HETATM    4  C4  UNL     1     -35.748   5.520   4.146  1.00 20.00     0.051 C 
HETATM    5  C5  UNL     1     -33.911   3.821   3.987  1.00 20.00     0.051 C 
HETATM    6  C6  UNL     1     -35.122   6.316   2.988  1.00 20.00    -0.010 C 
HETATM    7  C7  UNL     1     -33.271   4.605   2.829  1.00 20.00    -0.010 C 
HETATM    8  C8  UNL     1     -33.010   6.605   4.346  1.00 20.00     0.024 C 
HETATM    9  C9  UNL     1     -33.646   5.801   5.491  1.00 20.00     0.213 C 
HETATM   10  C10 UNL     1     -34.647   4.789   4.924  1.00 20.00     0.135 C 
HETATM   11  F11 UNL     1     -34.300   6.658   6.324  1.00 20.00    -0.246 F 
HETATM   12  F12 UNL     1     -35.202   4.088   5.943  1.00 20.00    -0.240 F 
ENDROOT
TORSDOF 0
