REMARK  0 active torsions:
REMARK  status: ('A' for Active; 'I' for Inactive)
ROOT
HETATM    1  C1  UNL     1     -35.039   4.064   4.641  1.00 20.00     0.028 C 
HETATM    2  C2  UNL     1     -35.239   4.124   6.133  1.00 20.00     0.028 C 
HETATM    3  C3  UNL     1     -34.701   5.502   4.313  1.00 20.00     0.167 C 
HETATM    4  C4  UNL     1     -34.178   5.121   6.550  1.00 20.00     0.167 C 
HETATM    5  O5  UNL     1     -34.022   6.038   5.458  1.00 20.00    -0.391 OA
ENDROOT
TORSDOF 0
