REMARK  0 active torsions:
REMARK  status: ('A' for Active; 'I' for Inactive)
ROOT
HETATM    1  C1  UNL     1     -33.964   6.214   5.562  1.00 20.00     0.201 C 
HETATM    2  C2  UNL     1     -35.531   5.266   3.842  1.00 20.00     0.099 C 
HETATM    3  C3  UNL     1     -35.096   5.228   5.311  1.00 20.00     0.074 C 
HETATM    4  C4  UNL     1     -34.674   3.833   5.770  1.00 20.00     0.020 C 
HETATM    5  O5  UNL     1     -33.628   6.599   6.674  1.00 20.00    -0.284 OA
HETATM    6  S6  UNL     1     -33.122   6.732   4.102  1.00 20.00    -0.019 SA
HETATM    7  S7  UNL     1     -34.037   5.407   2.847  1.00 20.00    -0.089 SA
ENDROOT
TORSDOF 0
