REMARK  0 active torsions:
REMARK  status: ('A' for Active; 'I' for Inactive)
ROOT
HETATM    1  C1  UNL     1     -33.459   6.326   4.327  1.00 20.00     0.260 C 
HETATM    2  C2  UNL     1     -34.224   6.683   5.576  1.00 20.00     0.137 C 
HETATM    3  C3  UNL     1     -34.167   5.570   6.608  1.00 20.00     0.177 C 
HETATM    4  C4  UNL     1     -35.123   4.562   3.956  1.00 20.00     0.205 C 
HETATM    5  C5  UNL     1     -34.963   3.778   5.247  1.00 20.00     0.194 C 
HETATM    6  O6  UNL     1     -32.478   6.970   3.964  1.00 20.00    -0.265 OA
HETATM    7  O7  UNL     1     -33.907   5.262   3.619  1.00 20.00    -0.319 OA
HETATM    8  O8  UNL     1     -35.188   4.602   6.388  1.00 20.00    -0.389 OA
ENDROOT
TORSDOF 0
