REMARK  3 active torsions:
REMARK  status: ('A' for Active; 'I' for Inactive)
REMARK    1  A    between atoms: C1_1  and  C7_7 
REMARK    2  A    between atoms: C1_1  and  O9_9 
REMARK    3  A    between atoms: C5_5  and  C7_7 
ROOT
HETATM    1  C2  UNL     1     -34.243   6.846   5.764  1.00 20.00     0.011 A 
HETATM    2  C3  UNL     1     -32.790   7.262   6.021  1.00 20.00     0.011 A 
HETATM    3  C4  UNL     1     -33.047   7.020   3.336  1.00 20.00     0.015 A 
HETATM    4  C5  UNL     1     -32.728   5.616   3.870  1.00 20.00     0.005 A 
HETATM    5  C6  UNL     1     -33.207   6.680   4.749  1.00 20.00    -0.036 A 
ENDROOT
BRANCH   4   6
HETATM    6  C7  UNL     1     -33.611   4.469   3.521  1.00 20.00     0.115 C 
BRANCH   6   7
HETATM    7  C1  UNL     1     -35.064   4.702   3.894  1.00 20.00     0.139 C 
HETATM    8  O8  UNL     1     -35.775   5.585   3.437  1.00 20.00    -0.650 OA
BRANCH   7   9
HETATM    9  O9  UNL     1     -35.485   3.795   4.813  1.00 20.00    -0.776 OA
HETATM   10  H19 UNL     1     -36.423   3.935   5.062  1.00 20.00     0.167 HD
ENDBRANCH   7   9
ENDBRANCH   6   7
ENDBRANCH   4   6
TORSDOF 3
