REMARK  2 active torsions:
REMARK  status: ('A' for Active; 'I' for Inactive)
REMARK    1  A    between atoms: C1_1  and  C3_3 
REMARK    2  A    between atoms: C3_3  and  O6_6 
ROOT
HETATM    1  C1  UNL     1     -33.127   6.790   4.157  1.00 20.00     0.156 C 
HETATM    2  C2  UNL     1     -33.242   6.410   2.882  1.00 20.00     0.273 C 
HETATM    3  F7  UNL     1     -32.456   6.989   1.948  1.00 20.00    -0.173 F 
HETATM    4  F8  UNL     1     -34.124   5.460   2.506  1.00 20.00    -0.173 F 
ENDROOT
BRANCH   1   5
HETATM    5  C3  UNL     1     -33.963   6.186   5.216  1.00 20.00     0.287 C 
HETATM    6  O5  UNL     1     -34.328   6.745   6.238  1.00 20.00    -0.260 OA
BRANCH   5   7
HETATM    7  O6  UNL     1     -34.243   4.909   4.839  1.00 20.00    -0.323 OA
HETATM    8  C4  UNL     1     -35.052   4.161   5.753  1.00 20.00     0.213 C 
ENDBRANCH   5   7
ENDBRANCH   1   5
TORSDOF 2
