REMARK  0 active torsions:
REMARK  status: ('A' for Active; 'I' for Inactive)
ROOT
HETATM    1  C1  UNL     1     -33.044   6.675   4.357  1.00 20.00     0.127 C 
HETATM    2  C2  UNL     1     -32.799   6.791   5.847  1.00 20.00     0.078 C 
HETATM    3  C3  UNL     1     -34.427   6.974   3.821  1.00 20.00     0.078 C 
HETATM    4  C4  UNL     1     -33.906   6.239   6.737  1.00 20.00     0.007 C 
HETATM    5  C5  UNL     1     -35.165   5.705   3.412  1.00 20.00     0.007 C 
HETATM    6  C6  UNL     1     -34.094   4.723   6.671  1.00 20.00     0.000 C 
HETATM    7  C7  UNL     1     -35.595   4.796   4.569  1.00 20.00     0.000 C 
HETATM    8  C8  UNL     1     -34.435   4.119   5.306  1.00 20.00     0.000 C 
HETATM    9  O9  UNL     1     -32.125   6.375   3.592  1.00 20.00    -0.298 OA
ENDROOT
TORSDOF 0
