REMARK  0 active torsions:
REMARK  status: ('A' for Active; 'I' for Inactive)
ROOT
HETATM    1  C1  UNL     1     -34.611   5.587   3.649  1.00 20.00     0.270 A 
HETATM    2  C2  UNL     1     -33.686   5.579   4.901  1.00 20.00     0.072 A 
HETATM    3  C3  UNL     1     -32.557   5.680   3.803  1.00 20.00     0.079 A 
HETATM    4  C4  UNL     1     -33.778   4.282   5.706  1.00 20.00     0.029 C 
HETATM    5  C5  UNL     1     -33.900   6.787   5.813  1.00 20.00     0.029 C 
HETATM    6  C6  UNL     1     -31.638   4.474   3.616  1.00 20.00     0.047 C 
HETATM    7  C7  UNL     1     -31.760   6.982   3.723  1.00 20.00     0.047 C 
HETATM    8  O8  UNL     1     -35.799   5.538   3.420  1.00 20.00    -0.264 OA
HETATM    9  O9  UNL     1     -33.586   5.675   2.761  1.00 20.00    -0.309 OA
ENDROOT
TORSDOF 0
