REMARK  0 active torsions:
REMARK  status: ('A' for Active; 'I' for Inactive)
ROOT
HETATM    1  C1  UNL     1     -34.114   4.448   6.548  1.00 20.00     0.016 C 
HETATM    2  C2  UNL     1     -34.517   5.918   6.651  1.00 20.00     0.016 C 
HETATM    3  C3  UNL     1     -34.661   3.953   5.213  1.00 20.00     0.140 C 
HETATM    4  C4  UNL     1     -34.117   6.560   5.328  1.00 20.00     0.140 C 
HETATM    5  O5  UNL     1     -35.733   5.613   3.470  1.00 20.00    -0.228 OA
HETATM    6  O6  UNL     1     -33.252   5.109   3.306  1.00 20.00    -0.228 OA
HETATM    7  S7  UNL     1     -34.454   5.323   4.084  1.00 20.00     0.144 S 
ENDROOT
TORSDOF 0
