REMARK  0 active torsions:
REMARK  status: ('A' for Active; 'I' for Inactive)
ROOT
HETATM    1  C1  UNL     1     -33.993   4.738   3.606  1.00 20.00     0.008 C 
HETATM    2  C2  UNL     1     -33.613   5.897   2.838  1.00 20.00     0.028 C 
HETATM    3  C3  UNL     1     -34.036   5.757   5.866  1.00 20.00     0.034 C 
HETATM    4  C4  UNL     1     -34.183   4.657   4.933  1.00 20.00    -0.060 C 
HETATM    5  C5  UNL     1     -32.869   6.935   3.238  1.00 20.00     0.085 C 
HETATM    6  C6  UNL     1     -33.231   6.824   5.763  1.00 20.00     0.086 C 
HETATM    7  C7  UNL     1     -32.350   7.158   4.613  1.00 20.00     0.215 C 
HETATM    8  C8  UNL     1     -34.618   3.359   5.563  1.00 20.00     0.048 C 
HETATM    9  O9  UNL     1     -31.259   7.695   4.793  1.00 20.00    -0.285 OA
HETATM   10 CL10 UNL     1     -32.419   8.150   2.083  1.00 20.00    -0.080 Cl
HETATM   11 CL11 UNL     1     -33.148   7.948   7.086  1.00 20.00    -0.080 Cl
ENDROOT
TORSDOF 0
