REMARK  1 active torsions:
REMARK  status: ('A' for Active; 'I' for Inactive)
REMARK    1  A    between atoms: C3_3  and  C8_8 
ROOT
HETATM    1  C1  UNL     1     -33.750   4.078   5.965  1.00 20.00    -0.026 C 
HETATM    2  C2  UNL     1     -34.539   3.900   4.895  1.00 20.00    -0.025 C 
HETATM    3  C4  UNL     1     -35.646   5.355   6.306  1.00 20.00     0.017 C 
HETATM    4  C5  UNL     1     -33.680   6.527   5.650  1.00 20.00     0.021 C 
HETATM    5  C6  UNL     1     -34.142   5.393   6.594  1.00 20.00     0.009 C 
HETATM    6  C7  UNL     1     -35.451   5.105   4.805  1.00 20.00     0.019 C 
HETATM    7  C8  UNL     1     -34.619   6.352   4.422  1.00 20.00     0.063 C 
ENDROOT
BRANCH   7   8
HETATM    8  C3  UNL     1     -33.875   6.198   3.131  1.00 20.00     0.128 C 
HETATM    9  C9  UNL     1     -32.995   7.346   2.716  1.00 20.00     0.091 C 
HETATM   10  O10 UNL     1     -33.975   5.181   2.446  1.00 20.00    -0.298 OA
ENDBRANCH   7   8
TORSDOF 1
