REMARK  2 active torsions:
REMARK  status: ('A' for Active; 'I' for Inactive)
REMARK    1  A    between atoms: C1_1  and  O10_10 
REMARK    2  A    between atoms: C8_8  and  O10_10 
ROOT
HETATM    1  C2  UNL     1     -35.210   5.111   6.476  1.00 20.00     0.005 C 
HETATM    2  C3  UNL     1     -33.964   4.235   6.278  1.00 20.00     0.007 C 
HETATM    3  C4  UNL     1     -35.206   4.269   4.250  1.00 20.00     0.012 C 
HETATM    4  C5  UNL     1     -34.535   6.537   4.527  1.00 20.00     0.037 C 
HETATM    5  C6  UNL     1     -35.576   5.524   5.039  1.00 20.00    -0.012 C 
HETATM    6  C7  UNL     1     -33.760   4.266   4.754  1.00 20.00     0.015 C 
HETATM    7  C8  UNL     1     -33.276   5.672   4.350  1.00 20.00     0.135 C 
ENDROOT
BRANCH   7   8
HETATM    8  O10 UNL     1     -32.872   5.687   2.988  1.00 20.00    -0.323 OA
BRANCH   8   9
HETATM    9  C1  UNL     1     -31.958   6.639   2.654  1.00 20.00     0.398 C 
HETATM   10  O9  UNL     1     -31.815   7.739   3.165  1.00 20.00    -0.276 OA
ENDBRANCH   8   9
ENDBRANCH   7   8
TORSDOF 2
