REMARK  0 active torsions:
REMARK  status: ('A' for Active; 'I' for Inactive)
ROOT
HETATM    1  C1  UNL     1     -34.458   6.303   3.793  1.00 20.00     0.020 C 
HETATM    2  C2  UNL     1     -35.539   5.229   3.673  1.00 20.00     0.075 C 
HETATM    3  C3  UNL     1     -33.734   6.406   5.134  1.00 20.00     0.075 C 
HETATM    4  C4  UNL     1     -35.189   4.333   6.279  1.00 20.00     0.147 C 
HETATM    5  S5  UNL     1     -35.114   3.715   4.575  1.00 20.00    -0.159 SA
HETATM    6  S6  UNL     1     -34.832   6.092   6.542  1.00 20.00    -0.159 SA
ENDROOT
TORSDOF 0
