REMARK  0 active torsions:
REMARK  status: ('A' for Active; 'I' for Inactive)
ROOT
HETATM    1  C1  UNL     1     -33.866   6.588   6.050  1.00 20.00     0.177 C 
HETATM    2  C2  UNL     1     -35.246   4.700   6.449  1.00 20.00     0.177 C 
HETATM    3  C3  UNL     1     -33.429   6.198   4.647  1.00 20.00     0.100 C 
HETATM    4  C4  UNL     1     -35.018   4.023   5.106  1.00 20.00     0.100 C 
HETATM    5  O5  UNL     1     -34.100   5.440   6.866  1.00 20.00    -0.390 OA
HETATM    6  S6  UNL     1     -34.742   5.264   3.809  1.00 20.00    -0.165 SA
ENDROOT
TORSDOF 0
