REMARK  0 active torsions:
REMARK  status: ('A' for Active; 'I' for Inactive)
ROOT
HETATM    1  C1  UNL     1     -33.103   6.495   4.655  1.00 20.00     0.149 C 
HETATM    2  C2  UNL     1     -34.846   4.406   4.069  1.00 20.00     0.149 C 
HETATM    3  C3  UNL     1     -34.845   5.495   6.630  1.00 20.00     0.149 C 
HETATM    4  S4  UNL     1     -34.511   6.123   3.584  1.00 20.00    -0.149 SA
HETATM    5  S5  UNL     1     -33.557   6.755   6.396  1.00 20.00    -0.149 SA
HETATM    6  S6  UNL     1     -34.497   3.934   5.786  1.00 20.00    -0.149 SA
ENDROOT
TORSDOF 0
