REMARK  2 active torsions:
REMARK  status: ('A' for Active; 'I' for Inactive)
REMARK    1  A    between atoms: C1_1  and  C2_2 
REMARK    2  A    between atoms: C1_1  and  C3_3 
ROOT
HETATM    1  C1  UNL     1     -34.118   6.169   3.237  1.00 20.00     0.374 C 
HETATM    2  O4  UNL     1     -34.354   5.523   2.108  1.00 20.00    -0.216 OA
ENDROOT
BRANCH   1   3
HETATM    3  C2  UNL     1     -32.631   6.543   3.271  1.00 20.00     0.424 C 
HETATM    4  F5  UNL     1     -32.292   7.037   4.485  1.00 20.00    -0.168 F 
HETATM    5  F6  UNL     1     -31.822   5.488   3.028  1.00 20.00    -0.168 F 
HETATM    6  F7  UNL     1     -32.340   7.504   2.363  1.00 20.00    -0.168 F 
ENDBRANCH   1   3
BRANCH   1   7
HETATM    7  C3  UNL     1     -34.456   5.231   4.402  1.00 20.00     0.424 C 
HETATM    8  F8  UNL     1     -35.787   5.000   4.483  1.00 20.00    -0.168 F 
HETATM    9  F9  UNL     1     -34.083   5.784   5.582  1.00 20.00    -0.168 F 
HETATM   10  F10 UNL     1     -33.835   4.034   4.307  1.00 20.00    -0.168 F 
ENDBRANCH   1   7
TORSDOF 2
