REMARK  0 active torsions:
REMARK  status: ('A' for Active; 'I' for Inactive)
ROOT
HETATM    1  C1  UNL     1     -34.304   4.207   6.424  1.00 20.00     0.090 A 
HETATM    2  C2  UNL     1     -34.514   5.765   4.600  1.00 20.00     0.167 A 
HETATM    3  C3  UNL     1     -34.934   3.728   5.295  1.00 20.00     0.109 A 
HETATM    4  N4  UNL     1     -35.056   4.621   4.248  1.00 20.00    -0.246 NA
HETATM    5  S5  UNL     1     -33.838   5.839   6.176  1.00 20.00    -0.092 SA
HETATM    6 BR6  UNL     1     -35.608   1.963   5.149  1.00 20.00    -0.029 Br
ENDROOT
TORSDOF 0
