REMARK  1 active torsions:
REMARK  status: ('A' for Active; 'I' for Inactive)
REMARK    1  A    between atoms: C5_5  and  C6_6 
ROOT
HETATM    1  C1  UNL     1     -32.626   7.571   2.543  1.00 20.00     0.061 C 
HETATM    2  C6  UNL     1     -32.886   6.175   2.881  1.00 20.00     0.155 C 
HETATM    3  N7  UNL     1     -32.399   8.674   2.263  1.00 20.00    -0.197 NA
ENDROOT
BRANCH   2   4
HETATM    4  C5  UNL     1     -34.186   6.206   3.660  1.00 20.00     0.134 C 
HETATM    5  C3  UNL     1     -34.853   4.846   3.781  1.00 20.00     0.035 C 
HETATM    6  C2  UNL     1     -35.655   5.016   5.046  1.00 20.00     0.029 C 
HETATM    7  C4  UNL     1     -34.721   5.847   5.900  1.00 20.00     0.168 C 
HETATM    8  O8  UNL     1     -33.939   6.651   5.004  1.00 20.00    -0.385 OA
ENDBRANCH   2   4
TORSDOF 1
