REMARK  1 active torsions:
REMARK  status: ('A' for Active; 'I' for Inactive)
REMARK    1  A    between atoms: C2_2  and  C4_4 
ROOT
HETATM    1  C1  UNL     1     -34.270   3.874   5.738  1.00 20.00     0.207 A 
HETATM    2  C2  UNL     1     -34.609   5.291   5.338  1.00 20.00     0.091 A 
HETATM    3  C3  UNL     1     -33.865   6.429   5.957  1.00 20.00     0.049 C 
HETATM    4  O5  UNL     1     -35.418   4.555   6.266  1.00 20.00    -0.374 OA
ENDROOT
BRANCH   2   5
HETATM    5  C4  UNL     1     -35.278   5.545   4.026  1.00 20.00     0.154 C 
HETATM    6 CL6  UNL     1     -34.097   5.530   2.689  1.00 20.00    -0.127 Cl
ENDBRANCH   2   5
TORSDOF 1
