REMARK  2 active torsions:
REMARK  status: ('A' for Active; 'I' for Inactive)
REMARK    1  A    between atoms: C1_1  and  C3_3 
REMARK    2  A    between atoms: C2_2  and  C8_8 
ROOT
HETATM    1  C1  UNL     1     -33.608   6.454   3.835  1.00 20.00     0.052 C 
HETATM    2  C2  UNL     1     -34.193   6.137   5.007  1.00 20.00    -0.077 C 
HETATM    3  C4  UNL     1     -33.749   6.660   6.348  1.00 20.00     0.044 C 
ENDROOT
BRANCH   2   4
HETATM    4  C8  UNL     1     -35.395   5.193   5.000  1.00 20.00     0.006 C 
HETATM    5  C6  UNL     1     -36.246   5.351   3.738  1.00 20.00     0.014 C 
HETATM    6  C7  UNL     1     -34.976   3.733   5.194  1.00 20.00     0.014 C 
ENDBRANCH   2   4
BRANCH   1   7
HETATM    7  C3  UNL     1     -32.440   7.365   3.671  1.00 20.00     0.145 C 
HETATM    8  C5  UNL     1     -31.950   7.577   2.263  1.00 20.00     0.096 C 
HETATM    9  O9  UNL     1     -31.870   7.881   4.628  1.00 20.00    -0.294 OA
ENDBRANCH   1   7
TORSDOF 2
