REMARK  0 active torsions:
REMARK  status: ('A' for Active; 'I' for Inactive)
ROOT
HETATM    1  C1  UNL     1     -31.611   6.002   3.414  1.00 20.00    -0.024 C 
HETATM    2  C2  UNL     1     -32.426   5.437   2.513  1.00 20.00    -0.024 C 
HETATM    3  C3  UNL     1     -33.839   4.862   5.147  1.00 20.00     0.164 C 
HETATM    4  C4  UNL     1     -33.592   7.214   3.448  1.00 20.00     0.021 C 
HETATM    5  C5  UNL     1     -32.417   6.856   4.361  1.00 20.00     0.034 C 
HETATM    6  C6  UNL     1     -33.848   5.862   2.778  1.00 20.00     0.034 C 
HETATM    7  C7  UNL     1     -32.895   6.004   5.546  1.00 20.00     0.161 C 
HETATM    8  C8  UNL     1     -34.505   4.886   3.765  1.00 20.00     0.161 C 
HETATM    9  O9  UNL     1     -34.108   3.966   5.953  1.00 20.00    -0.295 OA
HETATM   10 CL10 UNL     1     -33.779   7.001   6.733  1.00 20.00    -0.116 Cl
HETATM   11 CL11 UNL     1     -36.217   5.308   4.036  1.00 20.00    -0.116 Cl
ENDROOT
TORSDOF 0
