REMARK  0 active torsions:
REMARK  status: ('A' for Active; 'I' for Inactive)
ROOT
HETATM    1  C1  UNL     1     -33.607   5.310   2.635  1.00 20.00     0.009 A 
HETATM    2  C2  UNL     1     -32.694   6.336   2.392  1.00 20.00     0.019 A 
HETATM    3  C3  UNL     1     -32.821   7.002   4.710  1.00 20.00     0.034 A 
HETATM    4  C4  UNL     1     -33.738   5.973   4.955  1.00 20.00     0.017 A 
HETATM    5  C5  UNL     1     -34.129   5.109   3.921  1.00 20.00    -0.044 A 
HETATM    6  C6  UNL     1     -32.300   7.179   3.429  1.00 20.00     0.011 A 
HETATM    7  C7  UNL     1     -34.304   5.809   6.319  1.00 20.00     0.160 C 
HETATM    8  C8  UNL     1     -35.129   4.008   4.151  1.00 20.00     0.040 C 
HETATM    9  C9  UNL     1     -35.314   4.706   6.547  1.00 20.00     0.084 C 
HETATM   10  C10 UNL     1     -35.101   3.537   5.600  1.00 20.00     0.012 C 
HETATM   11  O11 UNL     1     -33.994   6.585   7.219  1.00 20.00    -0.292 OA
HETATM   12 BR12 UNL     1     -31.064   8.570   3.095  1.00 20.00    -0.051 Br
ENDROOT
TORSDOF 0
