REMARK  0 active torsions:
REMARK  status: ('A' for Active; 'I' for Inactive)
ROOT
HETATM    1  C1  UNL     1     -34.815   6.038   3.920  1.00 20.00     0.056 C 
HETATM    2  C2  UNL     1     -32.679   6.489   3.586  1.00 20.00     0.264 C 
HETATM    3  C3  UNL     1     -36.099   5.904   3.565  1.00 20.00     0.047 C 
HETATM    4  C4  UNL     1     -32.706   5.496   4.707  1.00 20.00     0.127 C 
HETATM    5  C5  UNL     1     -34.160   5.489   5.152  1.00 20.00     0.010 C 
HETATM    6  C6  UNL     1     -34.602   4.071   5.533  1.00 20.00     0.022 C 
HETATM    7  C7  UNL     1     -34.375   6.441   6.339  1.00 20.00     0.022 C 
HETATM    8  O8  UNL     1     -31.659   6.983   3.125  1.00 20.00    -0.265 OA
HETATM    9  O9  UNL     1     -33.930   6.732   3.095  1.00 20.00    -0.283 OA
ENDROOT
TORSDOF 0
