REMARK  3 active torsions:
REMARK  status: ('A' for Active; 'I' for Inactive)
REMARK    1  A    between atoms: C7_7  and  C8_8 
REMARK    2  A    between atoms: C7_7  and  N9_9 
REMARK    3  A    between atoms: C8_8  and  N10_10 
ROOT
HETATM    1  C1  UNL     1     -32.589   9.474   2.062  1.00 20.00     0.157 C 
HETATM    2  N9  UNL     1     -32.431   8.360   1.724  1.00 20.00    -0.274 NA
HETATM    3  S11 UNL     1     -32.799  10.993   2.493  1.00 20.00    -0.055 SA
ENDROOT
BRANCH   2   4
HETATM    4  C7  UNL     1     -32.525   7.370   2.799  1.00 20.00     0.178 C 
BRANCH   4   5
HETATM    5  C8  UNL     1     -33.960   6.898   2.937  1.00 20.00     0.256 C 
BRANCH   5   6
HETATM    6  N10 UNL     1     -34.060   5.908   4.065  1.00 20.00    -0.070 N 
HETATM    7  C5  UNL     1     -34.160   6.597   5.405  1.00 20.00     0.235 C 
HETATM    8  C3  UNL     1     -34.134   5.554   6.513  1.00 20.00     0.028 C 
HETATM    9  C2  UNL     1     -35.231   4.510   6.331  1.00 20.00     0.003 C 
HETATM   10  C4  UNL     1     -35.164   3.875   4.946  1.00 20.00     0.028 C 
HETATM   11  C6  UNL     1     -35.185   4.924   3.843  1.00 20.00     0.235 C 
HETATM   12  H26 UNL     1     -33.181   5.373   4.061  1.00 20.00     0.279 HD
ENDBRANCH   5   6
ENDBRANCH   4   5
ENDBRANCH   2   4
TORSDOF 3
