REMARK  1 active torsions:
REMARK  status: ('A' for Active; 'I' for Inactive)
REMARK    1  A    between atoms: C7_7  and  C11_11 
ROOT
HETATM    1  C1  UNL     1     -34.471   4.678   4.975  1.00 20.00    -0.018 C 
HETATM    2  C2  UNL     1     -34.113   5.590   3.838  1.00 20.00     0.159 C 
HETATM    3  C3  UNL     1     -34.424   3.357   4.756  1.00 20.00     0.023 C 
HETATM    4  C4  UNL     1     -33.706   6.324   6.705  1.00 20.00     0.010 C 
HETATM    5  C5  UNL     1     -32.878   6.918   5.557  1.00 20.00     0.013 C 
HETATM    6  C6  UNL     1     -34.847   5.394   6.250  1.00 20.00     0.017 C 
HETATM    7  C7  UNL     1     -33.649   6.990   4.235  1.00 20.00     0.063 C 
HETATM    8  C8  UNL     1     -35.291   4.499   7.411  1.00 20.00     0.015 C 
HETATM    9  O12 UNL     1     -34.233   5.238   2.667  1.00 20.00    -0.292 OA
ENDROOT
BRANCH   7  10
HETATM   10  C11 UNL     1     -32.778   7.606   3.143  1.00 20.00    -0.011 C 
HETATM   11  C9  UNL     1     -31.522   6.765   2.920  1.00 20.00     0.010 C 
HETATM   12  C10 UNL     1     -33.567   7.748   1.843  1.00 20.00     0.010 C 
ENDBRANCH   7  10
TORSDOF 1
