REMARK  0 active torsions:
REMARK  status: ('A' for Active; 'I' for Inactive)
ROOT
HETATM    1  C1  UNL     1     -34.142   6.292   5.880  1.00 20.00     0.086 C 
HETATM    2  C2  UNL     1     -34.965   5.340   5.139  1.00 20.00     0.235 C 
HETATM    3  N3  UNL     1     -33.491   7.050   6.471  1.00 20.00    -0.195 NA
HETATM    4 BR4  UNL     1     -34.469   3.512   5.594  1.00 20.00    -0.063 Br
HETATM    5 BR5  UNL     1     -34.830   5.670   3.224  1.00 20.00    -0.063 Br
ENDROOT
TORSDOF 0
