REMARK  1 active torsions:
REMARK  status: ('A' for Active; 'I' for Inactive)
REMARK    1  A    between atoms: C1_1  and  C3_3 
ROOT
HETATM    1  C2  UNL     1     -34.878   7.008   4.119  1.00 20.00     0.065 A 
HETATM    2  C3  UNL     1     -34.670   5.507   4.164  1.00 20.00     0.070 A 
HETATM    3  C4  UNL     1     -33.678   6.456   4.838  1.00 20.00     0.130 A 
HETATM    4  C5  UNL     1     -34.294   4.832   2.865  1.00 20.00     0.028 C 
HETATM    5 CL8  UNL     1     -33.654   6.602   6.600  1.00 20.00    -0.100 Cl
HETATM    6 CL9  UNL     1     -32.089   6.738   4.125  1.00 20.00    -0.100 Cl
ENDROOT
BRANCH   2   7
HETATM    7  C1  UNL     1     -35.585   4.731   5.038  1.00 20.00     0.230 C 
HETATM    8  O6  UNL     1     -35.165   4.052   5.971  1.00 20.00    -0.279 OA
HETATM    9 CL7  UNL     1     -37.248   4.913   4.570  1.00 20.00    -0.043 Cl
ENDBRANCH   2   7
TORSDOF 1
