REMARK  0 active torsions:
REMARK  status: ('A' for Active; 'I' for Inactive)
ROOT
HETATM    1  C1  UNL     1     -33.475   6.356   5.127  1.00 20.00     0.142 C 
HETATM    2  C2  UNL     1     -35.247   5.073   3.073  1.00 20.00     0.002 C 
HETATM    3  C3  UNL     1     -35.668   5.252   4.530  1.00 20.00     0.016 C 
HETATM    4  C4  UNL     1     -33.851   5.598   2.747  1.00 20.00     0.016 C 
HETATM    5  C5  UNL     1     -34.508   5.293   5.537  1.00 20.00     0.014 C 
HETATM    6  C6  UNL     1     -33.368   6.748   3.644  1.00 20.00     0.014 C 
HETATM    7  C7  UNL     1     -35.083   5.667   6.917  1.00 20.00     0.023 C 
HETATM    8  C8  UNL     1     -33.808   3.932   5.653  1.00 20.00     0.023 C 
HETATM    9  C9  UNL     1     -31.890   7.030   3.311  1.00 20.00     0.023 C 
HETATM   10  C10 UNL     1     -34.175   8.032   3.405  1.00 20.00     0.023 C 
HETATM   11  O11 UNL     1     -32.747   6.884   5.972  1.00 20.00    -0.296 OA
ENDROOT
TORSDOF 0
