REMARK  3 active torsions:
REMARK  status: ('A' for Active; 'I' for Inactive)
REMARK    1  A    between atoms: C4_4  and  C5_5 
REMARK    2  A    between atoms: C5_5  and  C6_6 
REMARK    3  A    between atoms: C6_6  and  N7_7 
ROOT
HETATM    1  C1  UNL     1     -35.824   5.176   4.311  1.00 20.00     0.158 C 
HETATM    2  N7  UNL     1     -34.788   4.799   4.712  1.00 20.00    -0.271 NA
HETATM    3  S8  UNL     1     -37.242   5.657   3.767  1.00 20.00    -0.055 SA
ENDROOT
BRANCH   2   4
HETATM    4  C6  UNL     1     -33.778   5.849   4.889  1.00 20.00     0.105 C 
HETATM    5  C3  UNL     1     -34.306   6.837   5.922  1.00 20.00     0.034 C 
BRANCH   4   6
HETATM    6  C5  UNL     1     -33.522   6.537   3.544  1.00 20.00     0.026 C 
BRANCH   6   7
HETATM    7  C4  UNL     1     -32.182   7.279   3.515  1.00 20.00    -0.002 C 
HETATM    8  C2  UNL     1     -31.937   7.931   2.163  1.00 20.00     0.005 C 
ENDBRANCH   6   7
ENDBRANCH   4   6
ENDBRANCH   2   4
TORSDOF 3
