REMARK  1 active torsions:
REMARK  status: ('A' for Active; 'I' for Inactive)
REMARK    1  A    between atoms: C4_4  and  C7_7 
ROOT
HETATM    1  C1  UNL     1     -33.345   6.481   1.883  1.00 20.00     0.015 A 
HETATM    2  C2  UNL     1     -34.167   5.504   2.444  1.00 20.00     0.008 A 
HETATM    3  C3  UNL     1     -32.538   7.058   4.082  1.00 20.00     0.022 A 
HETATM    4  C4  UNL     1     -32.532   7.259   2.703  1.00 20.00     0.002 A 
HETATM    5  C5  UNL     1     -34.190   5.299   3.832  1.00 20.00    -0.052 A 
HETATM    6  C6  UNL     1     -33.354   6.072   4.658  1.00 20.00    -0.051 A 
HETATM    7  C8  UNL     1     -35.069   4.211   4.396  1.00 20.00     0.039 C 
HETATM    8  C9  UNL     1     -33.357   5.908   6.157  1.00 20.00     0.039 C 
HETATM    9  C10 UNL     1     -35.293   4.337   5.902  1.00 20.00     0.005 C 
HETATM   10  C11 UNL     1     -33.972   4.588   6.618  1.00 20.00     0.005 C 
ENDROOT
BRANCH   4  11
HETATM   11  C7  UNL     1     -31.678   8.282   2.121  1.00 20.00     0.269 C 
HETATM   12  O12 UNL     1     -31.628   8.509   0.908  1.00 20.00    -0.301 OA
ENDBRANCH   4  11
TORSDOF 1
