REMARK  1 active torsions:
REMARK  status: ('A' for Active; 'I' for Inactive)
REMARK    1  A    between atoms: C3_3  and  C6_6 
ROOT
HETATM    1  C1  UNL     1     -34.325   6.113   5.813  1.00 20.00     0.272 C 
HETATM    2  C2  UNL     1     -35.244   5.950   3.639  1.00 20.00     0.055 C 
HETATM    3  C3  UNL     1     -34.307   6.801   4.475  1.00 20.00     0.195 C 
HETATM    4  C4  UNL     1     -35.330   4.626   4.370  1.00 20.00     0.129 C 
HETATM    5  C5  UNL     1     -34.409   3.551   3.813  1.00 20.00     0.040 C 
HETATM    6  O7  UNL     1     -33.829   6.554   6.839  1.00 20.00    -0.265 OA
HETATM    7  O8  UNL     1     -34.964   4.910   5.725  1.00 20.00    -0.316 OA
ENDROOT
BRANCH   3   8
HETATM    8  C6  UNL     1     -32.895   6.883   3.921  1.00 20.00     0.400 C 
HETATM    9  F9  UNL     1     -32.096   7.557   4.767  1.00 20.00    -0.170 F 
HETATM   10  F10 UNL     1     -32.387   5.650   3.746  1.00 20.00    -0.170 F 
HETATM   11  F11 UNL     1     -32.892   7.517   2.734  1.00 20.00    -0.170 F 
ENDBRANCH   3   8
TORSDOF 1
