REMARK  1 active torsions:
REMARK  status: ('A' for Active; 'I' for Inactive)
REMARK    1  A    between atoms: C2_2  and  O3_3 
ROOT
HETATM    1  C2  UNL     1     -34.946   5.423   5.252  1.00 20.00     0.314 C 
HETATM    2 CL4  UNL     1     -34.823   3.694   5.651  1.00 20.00    -0.078 Cl
HETATM    3 CL5  UNL     1     -34.461   6.398   6.654  1.00 20.00    -0.078 Cl
ENDROOT
BRANCH   1   4
HETATM    4  O3  UNL     1     -34.085   5.692   4.151  1.00 20.00    -0.362 OA
HETATM    5  C1  UNL     1     -34.643   5.285   2.909  1.00 20.00     0.204 C 
ENDBRANCH   1   4
TORSDOF 1
