REMARK  2 active torsions:
REMARK  status: ('A' for Active; 'I' for Inactive)
REMARK    1  A    between atoms: P5_5  and  P6_6 
REMARK    2  A    between atoms: P5_5  and  S8_8 
ROOT
HETATM    1  C1  UNL     1     -31.935   5.223   2.565  1.00 20.00     0.061 C 
HETATM    2  P5  UNL     1     -32.618   6.309   3.869  1.00 20.00    -0.021 P 
ENDROOT
BRANCH   2   3
HETATM    3  P6  UNL     1     -34.308   5.185   4.581  1.00 20.00    -0.027 P 
HETATM    4  C2  UNL     1     -33.878   3.444   4.665  1.00 20.00     0.060 C 
HETATM    5  C3  UNL     1     -34.502   5.628   6.314  1.00 20.00     0.060 C 
HETATM    6  S7  UNL     1     -35.871   5.586   3.490  1.00 20.00    -0.092 SA
ENDBRANCH   2   3
BRANCH   2   7
HETATM    7  S8  UNL     1     -33.553   7.824   2.740  1.00 20.00    -0.137 SA
HETATM    8  C4  UNL     1     -32.243   8.953   2.221  1.00 20.00     0.095 C 
ENDBRANCH   2   7
TORSDOF 2
