REMARK  1 active torsions:
REMARK  status: ('A' for Active; 'I' for Inactive)
REMARK    1  A    between atoms: C1_1  and  C2_2 
ROOT
HETATM    1  C2  UNL     1     -33.194   6.202   3.680  1.00 20.00     0.391 C 
HETATM    2  F4  UNL     1     -33.390   7.510   3.367  1.00 20.00    -0.178 F 
HETATM    3  F5  UNL     1     -31.891   5.933   3.407  1.00 20.00    -0.178 F 
HETATM    4 CL6  UNL     1     -34.234   5.195   2.662  1.00 20.00    -0.039 Cl
ENDROOT
BRANCH   1   5
HETATM    5  C1  UNL     1     -33.548   5.927   5.107  1.00 20.00     0.282 C 
HETATM    6  O3  UNL     1     -33.453   6.746   6.011  1.00 20.00    -0.277 OA
HETATM    7 BR7  UNL     1     -34.251   4.220   5.580  1.00 20.00    -0.001 Br
ENDBRANCH   1   5
TORSDOF 1
