REMARK  1 active torsions:
REMARK  status: ('A' for Active; 'I' for Inactive)
REMARK    1  A    between atoms: C1_1  and  C2_2 
ROOT
HETATM    1  C2  UNL     1     -34.717   5.058   5.579  1.00 20.00     0.395 C 
HETATM    2  F4  UNL     1     -35.675   5.197   6.533  1.00 20.00    -0.178 F 
HETATM    3  F5  UNL     1     -34.091   3.879   5.837  1.00 20.00    -0.178 F 
HETATM    4 CL7  UNL     1     -35.476   4.975   3.981  1.00 20.00    -0.038 Cl
ENDROOT
BRANCH   1   5
HETATM    5  C1  UNL     1     -33.735   6.200   5.564  1.00 20.00     0.307 C 
HETATM    6  O3  UNL     1     -33.461   6.818   6.590  1.00 20.00    -0.272 OA
HETATM    7 CL6  UNL     1     -33.040   6.485   3.995  1.00 20.00    -0.036 Cl
ENDBRANCH   1   5
TORSDOF 1
