REMARK  1 active torsions:
REMARK  status: ('A' for Active; 'I' for Inactive)
REMARK    1  A    between atoms: C5_5  and  C8_8 
ROOT
HETATM    1  C1  UNL     1     -34.936   5.709   3.410  1.00 20.00     0.010 C 
HETATM    2  C2  UNL     1     -35.432   4.521   4.233  1.00 20.00     0.035 C 
HETATM    3  C3  UNL     1     -33.664   6.735   5.333  1.00 20.00     0.041 C 
HETATM    4  C5  UNL     1     -33.561   6.198   3.895  1.00 20.00     0.019 C 
HETATM    5  C6  UNL     1     -35.322   4.761   5.705  1.00 20.00     0.151 A 
HETATM    6  C7  UNL     1     -34.419   5.832   6.254  1.00 20.00     0.151 A 
HETATM    7  O10 UNL     1     -34.019   4.461   6.240  1.00 20.00    -0.375 OA
ENDROOT
BRANCH   4   8
HETATM    8  C8  UNL     1     -33.006   7.250   2.971  1.00 20.00     0.149 A 
HETATM    9  C4  UNL     1     -32.284   6.857   1.727  1.00 20.00     0.200 A 
HETATM   10  O9  UNL     1     -31.585   7.267   2.914  1.00 20.00    -0.381 OA
ENDBRANCH   4   8
TORSDOF 1
