REMARK  1 active torsions:
REMARK  status: ('A' for Active; 'I' for Inactive)
REMARK    1  A    between atoms: C1_1  and  C6_6 
ROOT
HETATM    1  C2  UNL     1     -35.163   4.036   4.385  1.00 20.00     0.005 C 
HETATM    2  C3  UNL     1     -34.338   4.729   5.481  1.00 20.00     0.006 C 
HETATM    3  C4  UNL     1     -34.053   5.438   2.625  1.00 20.00     0.017 C 
HETATM    4  C5  UNL     1     -35.512   6.384   4.250  1.00 20.00     0.010 C 
HETATM    5  C6  UNL     1     -33.190   6.081   3.724  1.00 20.00     0.059 C 
HETATM    6  C7  UNL     1     -35.382   5.156   3.353  1.00 20.00    -0.013 C 
HETATM    7  C8  UNL     1     -34.157   6.152   4.924  1.00 20.00    -0.003 C 
ENDROOT
BRANCH   5   8
HETATM    8  C1  UNL     1     -32.705   7.439   3.319  1.00 20.00     0.127 C 
HETATM    9  C9  UNL     1     -31.813   7.506   2.109  1.00 20.00     0.091 C 
HETATM   10  O10 UNL     1     -33.023   8.450   3.944  1.00 20.00    -0.298 OA
ENDBRANCH   5   8
TORSDOF 1
