REMARK  2 active torsions:
REMARK  status: ('A' for Active; 'I' for Inactive)
REMARK    1  A    between atoms: C3_3  and  C7_7 
REMARK    2  A    between atoms: C4_4  and  C8_8 
ROOT
HETATM    1  C5  UNL     1     -32.873   6.432   5.263  1.00 20.00     0.014 C 
HETATM    2  C6  UNL     1     -32.088   7.273   4.260  1.00 20.00     0.037 C 
HETATM    3  C7  UNL     1     -34.355   6.382   4.872  1.00 20.00     0.036 C 
HETATM    4  C8  UNL     1     -32.338   6.792   2.830  1.00 20.00     0.144 C 
HETATM    5  C9  UNL     1     -34.527   5.948   3.402  1.00 20.00     0.126 C 
HETATM    6  C10 UNL     1     -34.254   4.468   3.120  1.00 20.00     0.040 C 
HETATM    7  O11 UNL     1     -33.738   6.781   2.540  1.00 20.00    -0.377 OA
ENDROOT
BRANCH   3   8
HETATM    8  C3  UNL     1     -35.147   5.548   5.832  1.00 20.00    -0.030 C 
HETATM    9  C1  UNL     1     -34.666   4.469   6.459  1.00 20.00     0.007 C 
ENDBRANCH   3   8
BRANCH   4  10
HETATM   10  C4  UNL     1     -31.675   7.692   1.838  1.00 20.00    -0.005 C 
HETATM   11  C2  UNL     1     -32.249   8.779   1.312  1.00 20.00     0.009 C 
ENDBRANCH   4  10
TORSDOF 2
