REMARK  2 active torsions:
REMARK  status: ('A' for Active; 'I' for Inactive)
REMARK    1  A    between atoms: C6_6  and  C8_8 
REMARK    2  A    between atoms: C8_8  and  O9_9 
ROOT
HETATM    1  C1  UNL     1     -32.021   6.345   2.758  1.00 20.00    -0.030 C 
HETATM    2  C2  UNL     1     -32.887   5.727   1.945  1.00 20.00    -0.030 C 
HETATM    3  C3  UNL     1     -32.361   6.746   4.161  1.00 20.00     0.031 C 
HETATM    4  C4  UNL     1     -34.294   5.400   2.344  1.00 20.00     0.034 C 
HETATM    5  C5  UNL     1     -33.651   6.088   4.697  1.00 20.00    -0.009 C 
HETATM    6  C6  UNL     1     -34.761   6.132   3.620  1.00 20.00     0.016 C 
HETATM    7  C7  UNL     1     -34.057   6.759   6.011  1.00 20.00     0.011 C 
ENDROOT
BRANCH   6   8
HETATM    8  C8  UNL     1     -36.087   5.533   4.094  1.00 20.00     0.169 C 
BRANCH   8   9
HETATM    9  O9  UNL     1     -35.811   4.331   4.786  1.00 20.00    -0.400 OA
HETATM   10  H23 UNL     1     -36.664   3.966   5.078  1.00 20.00     0.209 HD
ENDBRANCH   8   9
ENDBRANCH   6   8
TORSDOF 2
