REMARK  2 active torsions:
REMARK  status: ('A' for Active; 'I' for Inactive)
REMARK    1  A    between atoms: C3_3  and  C7_7 
REMARK    2  A    between atoms: C4_4  and  C8_8 
ROOT
HETATM    1  C5  UNL     1     -34.899   5.342   3.385  1.00 20.00     0.014 C 
HETATM    2  C6  UNL     1     -33.632   5.603   2.571  1.00 20.00     0.037 C 
HETATM    3  C7  UNL     1     -34.707   5.690   4.868  1.00 20.00     0.036 C 
HETATM    4  C8  UNL     1     -33.102   7.013   2.836  1.00 20.00     0.144 C 
HETATM    5  C9  UNL     1     -34.104   7.104   4.995  1.00 20.00     0.126 C 
HETATM    6  C10 UNL     1     -33.798   7.510   6.433  1.00 20.00     0.040 C 
HETATM    7  O11 UNL     1     -32.894   7.215   4.236  1.00 20.00    -0.377 OA
ENDROOT
BRANCH   3   8
HETATM    8  C3  UNL     1     -33.886   4.629   5.546  1.00 20.00    -0.030 C 
HETATM    9  C1  UNL     1     -34.331   3.864   6.548  1.00 20.00     0.007 C 
ENDBRANCH   3   8
BRANCH   4  10
HETATM   10  C4  UNL     1     -31.801   7.233   2.138  1.00 20.00    -0.005 C 
HETATM   11  C2  UNL     1     -31.591   8.194   1.231  1.00 20.00     0.009 C 
ENDBRANCH   4  10
TORSDOF 2
