REMARK  5 active torsions:
REMARK  status: ('A' for Active; 'I' for Inactive)
REMARK    1  A    between atoms: C2_2  and  C3_3 
REMARK    2  A    between atoms: C3_3  and  N7_7 
REMARK    3  A    between atoms: C4_4  and  C5_5 
REMARK    4  A    between atoms: C4_4  and  N7_7 
REMARK    5  A    between atoms: N6_6  and  N7_7 
ROOT
HETATM    1  N7  UNL     1     -33.376   5.551   4.361  1.00 20.00    -0.205 NA
ENDROOT
BRANCH   1   2
HETATM    2  C3  UNL     1     -32.988   6.105   3.094  1.00 20.00     0.111 C 
BRANCH   2   3
HETATM    3  C2  UNL     1     -32.253   7.432   3.241  1.00 20.00     0.011 C 
HETATM    4  C1  UNL     1     -31.858   8.037   1.902  1.00 20.00     0.006 C 
ENDBRANCH   2   3
ENDBRANCH   1   2
BRANCH   1   5
HETATM    5  C4  UNL     1     -34.066   4.258   4.175  1.00 20.00     0.127 C 
BRANCH   5   6
HETATM    6  C5  UNL     1     -34.426   3.594   5.493  1.00 20.00     0.130 C 
HETATM    7 CL9  UNL     1     -35.250   2.037   5.230  1.00 20.00    -0.129 Cl
ENDBRANCH   5   6
ENDBRANCH   1   5
BRANCH   1   8
HETATM    8  N6  UNL     1     -34.094   6.356   5.140  1.00 20.00     0.030 NA
HETATM    9  O8  UNL     1     -33.513   6.561   6.213  1.00 20.00    -0.082 OA
ENDBRANCH   1   8
TORSDOF 5
