REMARK  0 active torsions:
REMARK  status: ('A' for Active; 'I' for Inactive)
ROOT
HETATM    1  C1  UNL     1     -34.604   5.234   3.189  1.00 20.00     0.025 C 
HETATM    2  C2  UNL     1     -33.763   4.563   4.230  1.00 20.00     0.081 C 
HETATM    3  C3  UNL     1     -34.549   4.953   5.480  1.00 20.00     0.029 C 
HETATM    4  C4  UNL     1     -34.126   5.374   1.783  1.00 20.00     0.067 C 
HETATM    5  C5  UNL     1     -34.714   3.783   6.446  1.00 20.00     0.034 C 
HETATM    6  C6  UNL     1     -33.924   6.158   6.190  1.00 20.00     0.034 C 
HETATM    7  N7  UNL     1     -35.757   5.662   3.592  1.00 20.00    -0.210 NA
HETATM    8  N8  UNL     1     -35.847   5.314   4.897  1.00 20.00    -0.208 NA
HETATM    9  H20 UNL     1     -36.521   4.554   4.989  1.00 20.00     0.149 HD
ENDROOT
TORSDOF 0
