REMARK  1 active torsions:
REMARK  status: ('A' for Active; 'I' for Inactive)
REMARK    1  A    between atoms: C1_1  and  C5_5 
ROOT
HETATM    1  C2  UNL     1     -35.035   4.949   3.649  1.00 20.00     0.006 C 
HETATM    2  C3  UNL     1     -36.006   5.842   4.432  1.00 20.00     0.006 C 
HETATM    3  C4  UNL     1     -34.685   4.655   5.975  1.00 20.00     0.011 C 
HETATM    4  C5  UNL     1     -33.014   5.931   4.889  1.00 20.00     0.067 C 
HETATM    5  C6  UNL     1     -33.901   4.686   4.660  1.00 20.00    -0.002 C 
HETATM    6  C7  UNL     1     -35.267   6.062   5.764  1.00 20.00    -0.006 C 
HETATM    7  C8  UNL     1     -33.985   6.942   5.575  1.00 20.00    -0.033 C 
HETATM    8  C10 UNL     1     -33.425   7.363   6.951  1.00 20.00     0.016 C 
HETATM    9  C11 UNL     1     -34.253   8.231   4.781  1.00 20.00     0.016 C 
ENDROOT
BRANCH   4  10
HETATM   10  C1  UNL     1     -32.326   6.394   3.640  1.00 20.00     0.128 C 
HETATM   11  C9  UNL     1     -32.036   5.346   2.600  1.00 20.00     0.091 C 
HETATM   12  O12 UNL     1     -32.014   7.572   3.474  1.00 20.00    -0.298 OA
ENDBRANCH   4  10
TORSDOF 1
