REMARK  1 active torsions:
REMARK  status: ('A' for Active; 'I' for Inactive)
REMARK    1  A    between atoms: C3_3  and  C7_7 
ROOT
HETATM    1  C1  UNL     1     -33.571   7.203   2.385  1.00 20.00    -0.019 C 
HETATM    2  C2  UNL     1     -32.306   7.656   2.386  1.00 20.00    -0.087 C 
HETATM    3  C4  UNL     1     -31.455   7.644   3.629  1.00 20.00     0.034 C 
HETATM    4  C5  UNL     1     -32.265   7.439   4.910  1.00 20.00     0.016 C 
HETATM    5  C6  UNL     1     -34.259   6.601   3.588  1.00 20.00     0.015 C 
HETATM    6  C7  UNL     1     -33.281   6.308   4.745  1.00 20.00     0.054 C 
HETATM    7  C8  UNL     1     -31.660   8.208   1.150  1.00 20.00     0.043 C 
HETATM    8  C9  UNL     1     -35.000   5.323   3.175  1.00 20.00     0.015 C 
ENDROOT
BRANCH   6   9
HETATM    9  C3  UNL     1     -34.037   6.146   6.031  1.00 20.00     0.236 C 
HETATM   10  O10 UNL     1     -34.014   5.122   6.704  1.00 20.00    -0.306 OA
ENDBRANCH   6   9
TORSDOF 1
