REMARK  1 active torsions:
REMARK  status: ('A' for Active; 'I' for Inactive)
REMARK    1  A    between atoms: C3_3  and  C7_7 
ROOT
HETATM    1  C1  UNL     1     -35.477   4.856   4.844  1.00 20.00    -0.019 C 
HETATM    2  C2  UNL     1     -35.058   4.824   6.121  1.00 20.00    -0.087 C 
HETATM    3  C4  UNL     1     -33.873   5.625   6.593  1.00 20.00     0.034 C 
HETATM    4  C5  UNL     1     -33.455   6.718   5.609  1.00 20.00     0.016 C 
HETATM    5  C6  UNL     1     -34.799   5.644   3.748  1.00 20.00     0.015 C 
HETATM    6  C7  UNL     1     -33.419   6.187   4.176  1.00 20.00     0.054 C 
HETATM    7  C8  UNL     1     -35.748   3.991   7.161  1.00 20.00     0.043 C 
HETATM    8  C9  UNL     1     -34.666   4.777   2.491  1.00 20.00     0.015 C 
ENDROOT
BRANCH   6   9
HETATM    9  C3  UNL     1     -32.984   7.300   3.269  1.00 20.00     0.236 C 
HETATM   10  O10 UNL     1     -31.955   7.266   2.603  1.00 20.00    -0.306 OA
ENDBRANCH   6   9
TORSDOF 1
