REMARK  2 active torsions:
REMARK  status: ('A' for Active; 'I' for Inactive)
REMARK    1  A    between atoms: C6_6  and  C8_8 
REMARK    2  A    between atoms: C8_8  and  O9_9 
ROOT
HETATM    1  C1  UNL     1     -34.859   4.391   6.218  1.00 20.00    -0.030 C 
HETATM    2  C2  UNL     1     -34.255   5.563   6.459  1.00 20.00    -0.030 C 
HETATM    3  C3  UNL     1     -34.931   3.769   4.855  1.00 20.00     0.031 C 
HETATM    4  C4  UNL     1     -33.562   6.363   5.396  1.00 20.00     0.034 C 
HETATM    5  C5  UNL     1     -34.586   4.740   3.705  1.00 20.00    -0.009 C 
HETATM    6  C6  UNL     1     -33.341   5.575   4.091  1.00 20.00     0.016 C 
HETATM    7  C7  UNL     1     -35.806   5.594   3.332  1.00 20.00     0.011 C 
ENDROOT
BRANCH   6   8
HETATM    8  C8  UNL     1     -32.870   6.505   2.973  1.00 20.00     0.169 C 
BRANCH   8   9
HETATM    9  O9  UNL     1     -31.658   7.113   3.377  1.00 20.00    -0.400 OA
HETATM   10  H23 UNL     1     -31.376   7.699   2.654  1.00 20.00     0.209 HD
ENDBRANCH   8   9
ENDBRANCH   6   8
TORSDOF 2
