REMARK  2 active torsions:
REMARK  status: ('A' for Active; 'I' for Inactive)
REMARK    1  A    between atoms: C1_1  and  O5_5 
REMARK    2  A    between atoms: C3_3  and  O5_5 
ROOT
HETATM    1  O5  UNL     1     -33.845   6.651   3.913  1.00 20.00    -0.288 OA
ENDROOT
BRANCH   1   2
HETATM    2  C1  UNL     1     -34.731   5.669   4.274  1.00 20.00     0.359 C 
HETATM    3  O4  UNL     1     -35.673   5.316   3.571  1.00 20.00    -0.245 OA
HETATM    4 CL6  UNL     1     -34.363   4.988   5.837  1.00 20.00    -0.012 Cl
ENDBRANCH   1   2
BRANCH   1   5
HETATM    5  C3  UNL     1     -33.084   6.457   2.709  1.00 20.00     0.224 C 
HETATM    6  C2  UNL     1     -31.857   5.608   2.997  1.00 20.00     0.057 C 
HETATM    7 CL7  UNL     1     -32.575   8.063   2.121  1.00 20.00    -0.095 Cl
ENDBRANCH   1   5
TORSDOF 2
