REMARK  1 active torsions:
REMARK  status: ('A' for Active; 'I' for Inactive)
REMARK    1  A    between atoms: C2_2  and  C5_5 
ROOT
HETATM    1  C3  UNL     1     -34.622   5.821   2.987  1.00 20.00     0.039 C 
HETATM    2  C4  UNL     1     -35.104   4.818   4.008  1.00 20.00     0.040 C 
HETATM    3  C5  UNL     1     -33.125   5.836   3.249  1.00 20.00     0.151 C 
HETATM    4  C6  UNL     1     -34.193   5.097   5.203  1.00 20.00     0.054 C 
HETATM    5  C9  UNL     1     -33.912   3.834   6.011  1.00 20.00     0.045 C 
HETATM    6  C10 UNL     1     -34.756   6.192   6.112  1.00 20.00     0.045 C 
HETATM    7  O11 UNL     1     -32.950   5.577   4.652  1.00 20.00    -0.371 OA
ENDROOT
BRANCH   3   8
HETATM    8  C2  UNL     1     -32.466   7.123   2.896  1.00 20.00    -0.059 C 
HETATM    9  C1  UNL     1     -32.894   7.863   1.855  1.00 20.00    -0.026 C 
HETATM   10  C7  UNL     1     -32.353   9.151   1.380  1.00 20.00     0.036 C 
HETATM   11  C8  UNL     1     -31.315   7.512   3.780  1.00 20.00     0.046 C 
ENDBRANCH   3   8
TORSDOF 1
