REMARK  1 active torsions:
REMARK  status: ('A' for Active; 'I' for Inactive)
REMARK    1  A    between atoms: C3_3  and  C6_6 
ROOT
HETATM    1  C1  UNL     1     -33.739   7.370   4.598  1.00 20.00    -0.024 C 
HETATM    2  C2  UNL     1     -33.467   6.713   3.458  1.00 20.00    -0.087 C 
HETATM    3  C4  UNL     1     -34.621   6.828   5.683  1.00 20.00     0.032 C 
HETATM    4  C5  UNL     1     -34.054   5.357   3.150  1.00 20.00     0.045 C 
HETATM    5  C6  UNL     1     -35.165   4.905   4.111  1.00 20.00     0.055 C 
HETATM    6  C7  UNL     1     -34.906   5.319   5.570  1.00 20.00    -0.004 C 
HETATM    7  C8  UNL     1     -32.555   7.288   2.414  1.00 20.00     0.043 C 
HETATM    8  C9  UNL     1     -33.758   4.499   6.175  1.00 20.00     0.011 C 
ENDROOT
BRANCH   5   9
HETATM    9  C3  UNL     1     -36.496   5.440   3.661  1.00 20.00     0.236 C 
HETATM   10  O10 UNL     1     -37.556   4.849   3.836  1.00 20.00    -0.306 OA
ENDBRANCH   5   9
TORSDOF 1
