REMARK  0 active torsions:
REMARK  status: ('A' for Active; 'I' for Inactive)
ROOT
HETATM    1  C1  UNL     1     -32.921   6.607   2.717  1.00 20.00     0.000 C 
HETATM    2  C2  UNL     1     -33.587   5.248   2.488  1.00 20.00     0.003 C 
HETATM    3  C3  UNL     1     -32.429   6.757   4.159  1.00 20.00     0.003 C 
HETATM    4  C4  UNL     1     -34.721   5.006   3.484  1.00 20.00     0.040 C 
HETATM    5  C5  UNL     1     -33.557   6.521   5.163  1.00 20.00     0.040 C 
HETATM    6  C6  UNL     1     -33.961   4.016   5.778  1.00 20.00     0.207 A 
HETATM    7  C7  UNL     1     -34.223   5.206   4.886  1.00 20.00     0.082 A 
HETATM    8  O8  UNL     1     -35.156   4.802   5.898  1.00 20.00    -0.375 OA
ENDROOT
TORSDOF 0
