REMARK  1 active torsions:
REMARK  status: ('A' for Active; 'I' for Inactive)
REMARK    1  A    between atoms: C1_1  and  C3_3 
ROOT
HETATM    1  C1  UNL     1     -34.005   5.846   6.256  1.00 20.00     0.037 C 
HETATM    2  C2  UNL     1     -34.537   4.639   6.480  1.00 20.00    -0.028 C 
HETATM    3  C4  UNL     1     -34.826   3.655   5.394  1.00 20.00     0.036 C 
ENDROOT
BRANCH   1   4
HETATM    4  C3  UNL     1     -33.679   6.243   4.873  1.00 20.00     0.258 C 
HETATM    5  O5  UNL     1     -34.534   6.305   3.998  1.00 20.00    -0.302 OA
ENDBRANCH   1   4
TORSDOF 1
