REMARK  2 active torsions:
REMARK  status: ('A' for Active; 'I' for Inactive)
REMARK    1  A    between atoms: C1_1  and  S11_11 
REMARK    2  A    between atoms: C8_8  and  S11_11 
ROOT
HETATM    1  C2  UNL     1     -34.417   4.031   6.192  1.00 20.00     0.005 C 
HETATM    2  C3  UNL     1     -33.985   5.494   6.376  1.00 20.00     0.006 C 
HETATM    3  C4  UNL     1     -35.705   5.412   4.743  1.00 20.00     0.010 C 
HETATM    4  C5  UNL     1     -33.941   4.172   3.732  1.00 20.00     0.020 C 
HETATM    5  C6  UNL     1     -35.052   4.032   4.791  1.00 20.00    -0.013 C 
HETATM    6  C7  UNL     1     -34.394   6.146   5.040  1.00 20.00     0.000 C 
HETATM    7  C8  UNL     1     -33.443   5.617   3.942  1.00 20.00     0.059 C 
ENDROOT
BRANCH   7   8
HETATM    8  S11 UNL     1     -33.547   6.604   2.416  1.00 20.00    -0.088 SA
BRANCH   8   9
HETATM    9  C1  UNL     1     -32.463   7.927   2.834  1.00 20.00     0.182 C 
HETATM   10  C9  UNL     1     -32.327   8.950   1.742  1.00 20.00     0.104 C 
HETATM   11  O10 UNL     1     -31.876   8.012   3.905  1.00 20.00    -0.286 OA
ENDBRANCH   8   9
ENDBRANCH   7   8
TORSDOF 2
