REMARK  1 active torsions:
REMARK  status: ('A' for Active; 'I' for Inactive)
REMARK    1  A    between atoms: C3_3  and  C6_6 
ROOT
HETATM    1  C1  UNL     1     -35.161   4.176   4.265  1.00 20.00    -0.030 C 
HETATM    2  C2  UNL     1     -35.197   4.131   5.602  1.00 20.00    -0.030 C 
HETATM    3  C4  UNL     1     -34.368   5.191   3.500  1.00 20.00     0.038 C 
HETATM    4  C5  UNL     1     -34.469   5.107   6.474  1.00 20.00     0.031 C 
HETATM    5  C6  UNL     1     -33.367   5.974   4.366  1.00 20.00     0.054 C 
HETATM    6  C7  UNL     1     -33.982   6.363   5.724  1.00 20.00    -0.004 C 
HETATM    7  C8  UNL     1     -32.999   7.137   6.608  1.00 20.00     0.011 C 
ENDROOT
BRANCH   5   8
HETATM    8  C3  UNL     1     -32.942   7.187   3.592  1.00 20.00     0.236 C 
HETATM    9  O9  UNL     1     -31.785   7.391   3.238  1.00 20.00    -0.306 OA
ENDBRANCH   5   8
TORSDOF 1
