REMARK  2 active torsions:
REMARK  status: ('A' for Active; 'I' for Inactive)
REMARK    1  A    between atoms: C1_1  and  S11_11 
REMARK    2  A    between atoms: C8_8  and  S11_11 
ROOT
HETATM    1  C2  UNL     1     -34.577   4.877   5.635  1.00 20.00     0.005 C 
HETATM    2  C3  UNL     1     -34.307   6.352   5.306  1.00 20.00     0.006 C 
HETATM    3  C4  UNL     1     -35.924   5.536   3.785  1.00 20.00     0.010 C 
HETATM    4  C5  UNL     1     -34.003   4.201   3.294  1.00 20.00     0.020 C 
HETATM    5  C6  UNL     1     -35.150   4.329   4.316  1.00 20.00    -0.013 C 
HETATM    6  C7  UNL     1     -34.695   6.454   3.819  1.00 20.00     0.000 C 
HETATM    7  C8  UNL     1     -33.734   5.667   2.898  1.00 20.00     0.059 C 
ENDROOT
BRANCH   7   8
HETATM    8  S11 UNL     1     -31.984   6.130   3.014  1.00 20.00    -0.088 SA
BRANCH   8   9
HETATM    9  C1  UNL     1     -32.130   7.885   3.094  1.00 20.00     0.182 C 
HETATM   10  C9  UNL     1     -32.107   8.549   1.747  1.00 20.00     0.104 C 
HETATM   11  O10 UNL     1     -32.241   8.506   4.144  1.00 20.00    -0.286 OA
ENDBRANCH   8   9
ENDBRANCH   7   8
TORSDOF 2
