REMARK  3 active torsions:
REMARK  status: ('A' for Active; 'I' for Inactive)
REMARK    1  A    between atoms: C3_3  and  C8_8 
REMARK    2  A    between atoms: C4_4  and  C10_10 
REMARK    3  A    between atoms: C10_10  and  O11_11 
ROOT
HETATM    1  C1  UNL     1     -34.628   4.626   6.202  1.00 20.00    -0.031 C 
HETATM    2  C2  UNL     1     -33.870   5.661   6.590  1.00 20.00    -0.030 C 
HETATM    3  C5  UNL     1     -35.044   4.403   4.778  1.00 20.00     0.027 C 
HETATM    4  C6  UNL     1     -33.330   6.688   5.638  1.00 20.00     0.035 C 
HETATM    5  C7  UNL     1     -34.811   5.627   3.888  1.00 20.00     0.012 C 
HETATM    6  C8  UNL     1     -33.454   6.260   4.174  1.00 20.00     0.011 C 
ENDROOT
BRANCH   6   7
HETATM    7  C3  UNL     1     -33.330   7.502   3.312  1.00 20.00    -0.023 C 
HETATM    8  C4  UNL     1     -32.369   7.681   2.393  1.00 20.00     0.000 C 
BRANCH   8   9
HETATM    9  C10 UNL     1     -32.250   8.910   1.542  1.00 20.00     0.136 C 
HETATM   10  C9  UNL     1     -32.411   8.576   0.065  1.00 20.00     0.043 C 
BRANCH   9  11
HETATM   11  O11 UNL     1     -33.279   9.816   1.932  1.00 20.00    -0.392 OA
HETATM   12  H27 UNL     1     -33.182  10.601   1.370  1.00 20.00     0.210 HD
ENDBRANCH   9  11
ENDBRANCH   8   9
ENDBRANCH   6   7
TORSDOF 3
