REMARK  1 active torsions:
REMARK  status: ('A' for Active; 'I' for Inactive)
REMARK    1  A    between atoms: C3_3  and  C7_7 
ROOT
HETATM    1  C1  UNL     1     -35.108   5.984   5.798  1.00 20.00    -0.020 C 
HETATM    2  C2  UNL     1     -34.118   6.876   5.974  1.00 20.00    -0.086 C 
HETATM    3  C4  UNL     1     -33.156   7.239   4.870  1.00 20.00     0.045 C 
HETATM    4  C5  UNL     1     -34.649   5.925   3.312  1.00 20.00     0.020 C 
HETATM    5  C6  UNL     1     -35.388   5.278   4.495  1.00 20.00     0.005 C 
HETATM    6  C7  UNL     1     -33.207   6.285   3.670  1.00 20.00     0.051 C 
HETATM    7  C8  UNL     1     -33.910   7.577   7.285  1.00 20.00     0.043 C 
HETATM    8  C9  UNL     1     -35.050   3.792   4.627  1.00 20.00     0.014 C 
ENDROOT
BRANCH   6   9
HETATM    9  C3  UNL     1     -32.531   6.927   2.497  1.00 20.00     0.236 C 
HETATM   10  O10 UNL     1     -31.629   7.751   2.604  1.00 20.00    -0.306 OA
ENDBRANCH   6   9
TORSDOF 1
