REMARK  1 active torsions:
REMARK  status: ('A' for Active; 'I' for Inactive)
REMARK    1  A    between atoms: C2_2  and  C3_3 
ROOT
HETATM    1  C1  UNL     1     -33.505   6.308   4.411  1.00 20.00    -0.061 C 
HETATM    2  C2  UNL     1     -32.613   7.290   4.233  1.00 20.00     0.088 C 
HETATM    3  C4  UNL     1     -33.810   4.235   3.106  1.00 20.00     0.009 C 
HETATM    4  C5  UNL     1     -34.312   3.504   4.366  1.00 20.00     0.006 C 
HETATM    5  C6  UNL     1     -35.642   5.424   4.051  1.00 20.00     0.014 C 
HETATM    6  C7  UNL     1     -34.329   5.668   3.310  1.00 20.00     0.016 C 
HETATM    7  C8  UNL     1     -34.969   4.638   5.187  1.00 20.00    -0.002 C 
HETATM    8  C9  UNL     1     -33.916   5.662   5.730  1.00 20.00    -0.020 C 
HETATM    9  C10 UNL     1     -34.576   6.673   6.685  1.00 20.00     0.020 C 
HETATM   10  C11 UNL     1     -32.739   4.998   6.458  1.00 20.00     0.020 C 
ENDROOT
BRANCH   2  11
HETATM   11  C3  UNL     1     -32.328   7.884   2.848  1.00 20.00     0.198 C 
HETATM   12  O12 UNL     1     -31.899   7.041   2.006  1.00 20.00    -0.644 OA
HETATM   13  O13 UNL     1     -32.545   9.119   2.697  1.00 20.00    -0.644 OA
ENDBRANCH   2  11
TORSDOF 1
