REMARK  2 active torsions:
REMARK  status: ('A' for Active; 'I' for Inactive)
REMARK    1  A    between atoms: C1_1  and  S6_6 
REMARK    2  A    between atoms: N4_4  and  O5_5 
ROOT
HETATM    1  C1  UNL     1     -34.049   6.183   5.441  1.00 20.00     0.093 C 
HETATM    2  C2  UNL     1     -33.186   6.964   6.399  1.00 20.00     0.081 C 
HETATM    3  N4  UNL     1     -34.676   5.089   5.737  1.00 20.00    -0.134 NA
ENDROOT
BRANCH   1   4
HETATM    4  S6  UNL     1     -34.172   6.879   3.827  1.00 20.00    -0.117 SA
HETATM    5  C3  UNL     1     -32.447   6.880   3.293  1.00 20.00     0.097 C 
ENDBRANCH   1   4
BRANCH   3   6
HETATM    6  O5  UNL     1     -35.389   4.607   4.637  1.00 20.00    -0.266 OA
HETATM    7  H13 UNL     1     -35.796   3.804   5.004  1.00 20.00     0.247 HD
ENDBRANCH   3   6
TORSDOF 2
