REMARK  2 active torsions:
REMARK  status: ('A' for Active; 'I' for Inactive)
REMARK    1  A    between atoms: C1_1  and  C10_10 
REMARK    2  A    between atoms: C8_8  and  C10_10 
ROOT
HETATM    1  C2  UNL     1     -35.349   4.873   5.804  1.00 20.00     0.005 C 
HETATM    2  C3  UNL     1     -34.547   6.177   5.924  1.00 20.00     0.005 C 
HETATM    3  C4  UNL     1     -35.392   6.010   3.713  1.00 20.00     0.009 C 
HETATM    4  C5  UNL     1     -33.928   4.141   3.871  1.00 20.00     0.010 C 
HETATM    5  C6  UNL     1     -35.338   4.597   4.291  1.00 20.00    -0.014 C 
HETATM    6  C7  UNL     1     -34.141   6.467   4.467  1.00 20.00    -0.010 C 
HETATM    7  C8  UNL     1     -33.082   5.422   4.041  1.00 20.00    -0.003 C 
ENDROOT
BRANCH   7   8
HETATM    8  C10 UNL     1     -32.352   5.807   2.759  1.00 20.00     0.082 C 
BRANCH   8   9
HETATM    9  C1  UNL     1     -31.971   7.273   2.730  1.00 20.00     0.123 C 
HETATM   10  C9  UNL     1     -31.076   7.743   3.847  1.00 20.00     0.091 C 
HETATM   11  O11 UNL     1     -32.357   8.049   1.857  1.00 20.00    -0.298 OA
ENDBRANCH   8   9
ENDBRANCH   7   8
TORSDOF 2
