REMARK  1 active torsions:
REMARK  status: ('A' for Active; 'I' for Inactive)
REMARK    1  A    between atoms: C8_8  and  C9_9 
ROOT
HETATM    1  C1  UNL     1     -32.101   8.113   1.834  1.00 20.00     0.059 C 
HETATM    2  C9  UNL     1     -31.765   7.194   2.915  1.00 20.00     0.129 C 
HETATM    3  N10 UNL     1     -32.341   8.858   0.978  1.00 20.00    -0.197 NA
ENDROOT
BRANCH   2   4
HETATM    4  C8  UNL     1     -32.969   6.263   3.005  1.00 20.00     0.003 C 
HETATM    5  C5  UNL     1     -32.646   4.960   3.767  1.00 20.00     0.010 C 
HETATM    6  C6  UNL     1     -33.702   4.940   4.887  1.00 20.00    -0.014 C 
HETATM    7  C2  UNL     1     -35.089   4.695   4.269  1.00 20.00     0.005 C 
HETATM    8  C4  UNL     1     -33.782   6.417   5.265  1.00 20.00     0.009 C 
HETATM    9  C3  UNL     1     -35.396   6.029   3.570  1.00 20.00     0.005 C 
HETATM   10  C7  UNL     1     -34.127   6.859   3.841  1.00 20.00    -0.009 C 
ENDBRANCH   2   4
TORSDOF 1
