REMARK  0 active torsions:
REMARK  status: ('A' for Active; 'I' for Inactive)
ROOT
HETATM    1  C1  UNL     1     -34.566   4.848   5.327  1.00 20.00     0.086 C 
HETATM    2  C2  UNL     1     -32.840   7.866   2.759  1.00 20.00     0.005 C 
HETATM    3  C3  UNL     1     -31.904   7.158   3.749  1.00 20.00     0.008 C 
HETATM    4  C4  UNL     1     -33.219   5.518   2.674  1.00 20.00     0.012 C 
HETATM    5  C5  UNL     1     -34.854   6.828   3.833  1.00 20.00     0.046 C 
HETATM    6  C6  UNL     1     -33.972   6.844   2.565  1.00 20.00    -0.011 C 
HETATM    7  C7  UNL     1     -32.657   5.849   4.066  1.00 20.00     0.024 C 
HETATM    8  C8  UNL     1     -33.960   6.110   4.869  1.00 20.00     0.129 C 
HETATM    9  N9  UNL     1     -35.043   3.854   5.688  1.00 20.00    -0.195 NA
HETATM   10 CL10 UNL     1     -33.710   7.094   6.333  1.00 20.00    -0.102 Cl
ENDROOT
TORSDOF 0
