REMARK  1 active torsions:
REMARK  status: ('A' for Active; 'I' for Inactive)
REMARK    1  A    between atoms: C2_2  and  C3_3 
ROOT
HETATM    1  C3  UNL     1     -34.552   5.224   4.876  1.00 20.00     0.216 C 
HETATM    2 CL5  UNL     1     -34.960   6.104   6.390  1.00 20.00    -0.081 Cl
HETATM    3 CL6  UNL     1     -35.875   5.509   3.691  1.00 20.00    -0.081 Cl
HETATM    4 CL7  UNL     1     -34.507   3.465   5.248  1.00 20.00    -0.081 Cl
ENDROOT
BRANCH   1   5
HETATM    5  C2  UNL     1     -33.247   5.683   4.333  1.00 20.00     0.199 A 
HETATM    6  C1  UNL     1     -32.989   5.719   2.853  1.00 20.00     0.204 A 
HETATM    7  O4  UNL     1     -33.308   6.907   3.594  1.00 20.00    -0.377 OA
ENDBRANCH   1   5
TORSDOF 1
