REMARK  1 active torsions:
REMARK  status: ('A' for Active; 'I' for Inactive)
REMARK    1  A    between atoms: C8_8  and  C9_9 
ROOT
HETATM    1  C1  UNL     1     -32.795   6.527   2.640  1.00 20.00     0.059 C 
HETATM    2  C9  UNL     1     -33.856   5.550   2.853  1.00 20.00     0.129 C 
HETATM    3  N10 UNL     1     -31.944   7.293   2.447  1.00 20.00    -0.197 NA
ENDROOT
BRANCH   2   4
HETATM    4  C8  UNL     1     -34.508   5.975   4.159  1.00 20.00     0.003 C 
HETATM    5  C5  UNL     1     -35.677   5.065   4.589  1.00 20.00     0.010 C 
HETATM    6  C6  UNL     1     -35.320   4.714   6.046  1.00 20.00    -0.014 C 
HETATM    7  C2  UNL     1     -34.153   3.711   6.039  1.00 20.00     0.005 C 
HETATM    8  C4  UNL     1     -34.632   5.991   6.528  1.00 20.00     0.009 C 
HETATM    9  C3  UNL     1     -32.955   4.579   5.629  1.00 20.00     0.005 C 
HETATM   10  C7  UNL     1     -33.591   5.962   5.405  1.00 20.00    -0.009 C 
ENDBRANCH   2   4
TORSDOF 1
