REMARK  0 active torsions:
REMARK  status: ('A' for Active; 'I' for Inactive)
ROOT
HETATM    1  C1  UNL     1     -35.336   5.402   2.925  1.00 20.00     0.018 C 
HETATM    2  C2  UNL     1     -32.604   6.705   5.015  1.00 20.00     0.018 C 
HETATM    3  C3  UNL     1     -34.876   4.535   4.101  1.00 20.00     0.022 C 
HETATM    4  C4  UNL     1     -32.265   6.224   3.602  1.00 20.00     0.022 C 
HETATM    5  C5  UNL     1     -34.685   6.787   2.787  1.00 20.00     0.066 C 
HETATM    6  C6  UNL     1     -34.084   6.651   5.424  1.00 20.00     0.066 C 
HETATM    7  C7  UNL     1     -34.767   5.271   5.441  1.00 20.00     0.096 C 
HETATM    8  C8  UNL     1     -33.174   6.750   2.483  1.00 20.00     0.096 C 
HETATM    9  S9  UNL     1     -35.026   7.730   4.306  1.00 20.00    -0.156 SA
HETATM   10 CL10 UNL     1     -33.970   4.193   6.637  1.00 20.00    -0.124 Cl
HETATM   11 CL11 UNL     1     -32.612   8.399   2.001  1.00 20.00    -0.124 Cl
ENDROOT
TORSDOF 0
