REMARK  2 active torsions:
REMARK  status: ('A' for Active; 'I' for Inactive)
REMARK    1  A    between atoms: C8_8  and  C9_9 
REMARK    2  A    between atoms: C8_8  and  O10_10 
ROOT
HETATM    1  C1  UNL     1     -32.447   8.305   1.993  1.00 20.00     0.012 C 
HETATM    2  C2  UNL     1     -32.515   7.190   2.432  1.00 20.00    -0.115 C 
HETATM    3  C9  UNL     1     -32.588   5.825   2.959  1.00 20.00     0.130 C 
ENDROOT
BRANCH   3   4
HETATM    4  C8  UNL     1     -33.603   5.733   4.100  1.00 20.00     0.068 C 
HETATM    5  C6  UNL     1     -33.205   6.672   5.249  1.00 20.00     0.038 C 
HETATM    6  C4  UNL     1     -34.141   6.546   6.452  1.00 20.00     0.003 C 
HETATM    7  C3  UNL     1     -34.252   5.101   6.930  1.00 20.00     0.000 C 
HETATM    8  C5  UNL     1     -34.670   4.166   5.800  1.00 20.00     0.003 C 
HETATM    9  C7  UNL     1     -33.734   4.284   4.596  1.00 20.00     0.038 C 
BRANCH   4  10
HETATM   10  O10 UNL     1     -34.868   6.168   3.593  1.00 20.00    -0.389 OA
HETATM   11  H24 UNL     1     -35.095   5.562   2.873  1.00 20.00     0.210 HD
ENDBRANCH   4  10
ENDBRANCH   3   4
TORSDOF 2
