REMARK  0 active torsions:
REMARK  status: ('A' for Active; 'I' for Inactive)
ROOT
HETATM    1  C1  UNL     1     -33.640   5.083   4.844  1.00 20.00     0.374 C 
HETATM    2  C2  UNL     1     -34.702   5.588   3.863  1.00 20.00     0.398 C 
HETATM    3  C3  UNL     1     -33.131   6.527   4.801  1.00 20.00     0.398 C 
HETATM    4  O4  UNL     1     -34.349   6.965   4.149  1.00 20.00    -0.252 OA
HETATM    5  F5  UNL     1     -34.100   4.657   6.041  1.00 20.00    -0.231 F 
HETATM    6  F6  UNL     1     -35.985   5.304   4.172  1.00 20.00    -0.172 F 
HETATM    7  F7  UNL     1     -34.518   5.265   2.565  1.00 20.00    -0.172 F 
HETATM    8  F8  UNL     1     -32.032   6.749   4.048  1.00 20.00    -0.172 F 
HETATM    9  F9  UNL     1     -32.932   7.127   5.993  1.00 20.00    -0.172 F 
ENDROOT
TORSDOF 0
