REMARK  2 active torsions:
REMARK  status: ('A' for Active; 'I' for Inactive)
REMARK    1  A    between atoms: C2_2  and  C5_5 
REMARK    2  A    between atoms: C3_3  and  C5_5 
ROOT
HETATM    1  C5  UNL     1     -33.188   6.019   4.141  1.00 20.00     0.123 C 
ENDROOT
BRANCH   1   2
HETATM    2  C2  UNL     1     -32.903   6.557   2.772  1.00 20.00    -0.022 C 
HETATM    3  C1  UNL     1     -32.508   7.816   2.533  1.00 20.00    -0.034 C 
HETATM    4  C4  UNL     1     -32.227   8.354   1.169  1.00 20.00     0.036 C 
ENDBRANCH   1   2
BRANCH   1   5
HETATM    5  C3  UNL     1     -34.633   5.555   4.252  1.00 20.00     0.222 C 
HETATM    6  O6  UNL     1     -35.425   5.583   3.315  1.00 20.00    -0.280 OA
HETATM    7 CL7  UNL     1     -34.987   4.964   5.853  1.00 20.00    -0.043 Cl
ENDBRANCH   1   5
TORSDOF 2
