REMARK  1 active torsions:
REMARK  status: ('A' for Active; 'I' for Inactive)
REMARK    1  A    between atoms: C1_1  and  C3_3 
ROOT
HETATM    1  C1  UNL     1     -34.553   5.690   3.953  1.00 20.00     0.181 A 
HETATM    2  C2  UNL     1     -33.104   5.989   3.701  1.00 20.00     0.247 A 
HETATM    3  O4  UNL     1     -33.670   6.071   5.015  1.00 20.00    -0.358 OA
HETATM    4 CL5  UNL     1     -32.650   7.460   2.886  1.00 20.00    -0.092 Cl
ENDROOT
BRANCH   1   5
HETATM    5  C3  UNL     1     -35.043   4.289   4.034  1.00 20.00     0.150 C 
HETATM    6 CL6  UNL     1     -34.699   3.570   5.633  1.00 20.00    -0.128 Cl
ENDBRANCH   1   5
TORSDOF 1
