REMARK  2 active torsions:
REMARK  status: ('A' for Active; 'I' for Inactive)
REMARK    1  A    between atoms: C4_4  and  C7_7 
REMARK    2  A    between atoms: C8_8  and  O11_11 
ROOT
HETATM    1  C1  UNL     1     -33.680   6.446   5.398  1.00 20.00    -0.019 C 
HETATM    2  C2  UNL     1     -34.069   5.312   5.999  1.00 20.00     0.007 C 
HETATM    3  C5  UNL     1     -34.754   5.678   3.233  1.00 20.00     0.016 C 
HETATM    4  C6  UNL     1     -35.706   4.888   4.127  1.00 20.00     0.042 C 
HETATM    5  C7  UNL     1     -34.100   6.838   4.005  1.00 20.00     0.036 C 
HETATM    6  C8  UNL     1     -34.991   4.306   5.362  1.00 20.00     0.072 C 
HETATM    7  C10 UNL     1     -34.210   3.033   5.021  1.00 20.00     0.050 C 
ENDROOT
BRANCH   5   8
HETATM    8  C4  UNL     1     -32.946   7.393   3.227  1.00 20.00    -0.085 C 
HETATM    9  C3  UNL     1     -31.857   6.659   2.955  1.00 20.00     0.014 C 
HETATM   10  C9  UNL     1     -33.078   8.816   2.771  1.00 20.00     0.043 C 
ENDBRANCH   5   8
BRANCH   6  11
HETATM   11  O11 UNL     1     -35.991   3.961   6.325  1.00 20.00    -0.386 OA
HETATM   12  H27 UNL     1     -36.570   3.316   5.894  1.00 20.00     0.211 HD
ENDBRANCH   6  11
TORSDOF 2
