REMARK  1 active torsions:
REMARK  status: ('A' for Active; 'I' for Inactive)
REMARK    1  A    between atoms: C1_1  and  C3_3 
ROOT
HETATM    1  C1  UNL     1     -34.403   4.437   5.298  1.00 20.00     0.181 A 
HETATM    2  C2  UNL     1     -34.170   5.086   6.634  1.00 20.00     0.247 A 
HETATM    3  O4  UNL     1     -35.417   4.458   6.311  1.00 20.00    -0.358 OA
HETATM    4 CL5  UNL     1     -34.113   6.815   6.822  1.00 20.00    -0.092 Cl
ENDROOT
BRANCH   1   5
HETATM    5  C3  UNL     1     -34.753   5.194   4.066  1.00 20.00     0.150 C 
HETATM    6 CL6  UNL     1     -33.307   5.940   3.329  1.00 20.00    -0.128 Cl
ENDBRANCH   1   5
TORSDOF 1
