REMARK  3 active torsions:
REMARK  status: ('A' for Active; 'I' for Inactive)
REMARK    1  A    between atoms: C2_2  and  C6_6 
REMARK    2  A    between atoms: C6_6  and  C7_7 
REMARK    3  A    between atoms: C6_6  and  O8_8 
ROOT
HETATM    1  C6  UNL     1     -33.703   6.041   4.760  1.00 20.00     0.144 C 
ENDROOT
BRANCH   1   2
HETATM    2  C2  UNL     1     -33.597   6.876   3.514  1.00 20.00     0.000 C 
HETATM    3  C1  UNL     1     -32.431   7.215   2.944  1.00 20.00    -0.033 C 
HETATM    4  C3  UNL     1     -32.321   8.040   1.705  1.00 20.00     0.036 C 
ENDBRANCH   1   2
BRANCH   1   5
HETATM    5  C7  UNL     1     -34.549   4.754   4.608  1.00 20.00     0.010 C 
HETATM    6  C4  UNL     1     -35.980   5.020   4.129  1.00 20.00     0.012 C 
HETATM    7  C5  UNL     1     -34.567   3.927   5.895  1.00 20.00     0.012 C 
ENDBRANCH   1   5
BRANCH   1   8
HETATM    8  O8  UNL     1     -34.276   6.865   5.777  1.00 20.00    -0.391 OA
HETATM    9  H22 UNL     1     -33.672   7.614   5.893  1.00 20.00     0.210 HD
ENDBRANCH   1   8
TORSDOF 3
