REMARK  1 active torsions:
REMARK  status: ('A' for Active; 'I' for Inactive)
REMARK    1  A    between atoms: C1_1  and  S5_5 
ROOT
HETATM    1  C1  UNL     1     -33.973   5.642   4.179  1.00 20.00     0.041 C 
HETATM    2  C2  UNL     1     -35.238   5.259   3.456  1.00 20.00     0.069 C 
HETATM    3  S4  UNL     1     -32.536   5.884   3.353  1.00 20.00    -0.078 SA
ENDROOT
BRANCH   1   4
HETATM    4  S5  UNL     1     -34.090   5.798   5.928  1.00 20.00    -0.128 SA
HETATM    5  C3  UNL     1     -34.612   4.121   6.356  1.00 20.00     0.096 C 
ENDBRANCH   1   4
TORSDOF 1
