REMARK  0 active torsions:
REMARK  status: ('A' for Active; 'I' for Inactive)
ROOT
HETATM    1  C1  UNL     1     -34.348   5.392   2.600  1.00 20.00     0.066 C 
HETATM    2  C2  UNL     1     -33.459   5.755   4.936  1.00 20.00     0.066 C 
HETATM    3  C3  UNL     1     -35.746   5.549   3.191  1.00 20.00     0.170 C 
HETATM    4  C4  UNL     1     -34.912   5.890   5.384  1.00 20.00     0.170 C 
HETATM    5  C5  UNL     1     -32.707   7.383   3.032  1.00 20.00     0.207 A 
HETATM    6  C6  UNL     1     -33.363   6.100   3.481  1.00 20.00     0.086 A 
HETATM    7  O7  UNL     1     -35.769   5.100   4.551  1.00 20.00    -0.391 OA
HETATM    8  O8  UNL     1     -32.025   6.122   2.968  1.00 20.00    -0.375 OA
ENDROOT
TORSDOF 0
