REMARK  0 active torsions:
REMARK  status: ('A' for Active; 'I' for Inactive)
ROOT
HETATM    1  C1  UNL     1     -32.677   6.647   3.065  1.00 20.00     0.064 C 
HETATM    2  C2  UNL     1     -34.442   4.984   3.540  1.00 20.00     0.022 C 
HETATM    3  C3  UNL     1     -34.975   3.980   4.562  1.00 20.00     0.036 C 
HETATM    4  C4  UNL     1     -33.744   6.661   5.291  1.00 20.00     0.053 C 
HETATM    5  C5  UNL     1     -33.272   5.798   4.111  1.00 20.00     0.095 C 
HETATM    6  C6  UNL     1     -35.217   4.601   5.900  1.00 20.00     0.151 A 
HETATM    7  C7  UNL     1     -34.578   5.910   6.278  1.00 20.00     0.152 A 
HETATM    8  N8  UNL     1     -32.208   7.316   2.241  1.00 20.00    -0.197 NA
HETATM    9  O9  UNL     1     -34.037   4.666   6.725  1.00 20.00    -0.375 OA
ENDROOT
TORSDOF 0
