REMARK  1 active torsions:
REMARK  status: ('A' for Active; 'I' for Inactive)
REMARK    1  A    between atoms: C2_2  and  C4_4 
ROOT
HETATM    1  C3  UNL     1     -33.900   5.534   3.317  1.00 20.00     0.205 A 
HETATM    2  C4  UNL     1     -34.806   5.994   4.401  1.00 20.00     0.173 A 
HETATM    3  O6  UNL     1     -33.838   6.862   3.850  1.00 20.00    -0.377 OA
ENDROOT
BRANCH   2   4
HETATM    4  C2  UNL     1     -34.612   5.386   5.758  1.00 20.00    -0.062 C 
HETATM    5  C1  UNL     1     -35.153   4.205   6.090  1.00 20.00     0.016 C 
HETATM    6  C5  UNL     1     -33.777   6.175   6.723  1.00 20.00     0.045 C 
ENDBRANCH   2   4
TORSDOF 1
