REMARK  1 active torsions:
REMARK  status: ('A' for Active; 'I' for Inactive)
REMARK    1  A    between atoms: N5_5  and  N6_6 
ROOT
HETATM    1  C1  UNL     1     -33.763   5.702   3.481  1.00 20.00     0.101 C 
HETATM    2  C2  UNL     1     -32.820   6.372   2.531  1.00 20.00     0.058 C 
HETATM    3  N5  UNL     1     -33.667   5.905   4.754  1.00 20.00    -0.217 NA
ENDROOT
BRANCH   3   4
HETATM    4  N6  UNL     1     -34.596   5.214   5.464  1.00 20.00    -0.217 NA
HETATM    5  C3  UNL     1     -34.996   5.879   6.707  1.00 20.00     0.138 C 
HETATM    6  C4  UNL     1     -34.239   3.821   5.765  1.00 20.00     0.138 C 
ENDBRANCH   3   4
TORSDOF 1
