REMARK  0 active torsions:
REMARK  status: ('A' for Active; 'I' for Inactive)
ROOT
HETATM    1  C1  UNL     1     -35.586   4.921   4.290  1.00 20.00     0.178 C 
HETATM    2  C2  UNL     1     -34.997   3.713   4.994  1.00 20.00     0.102 C 
HETATM    3  C3  UNL     1     -34.163   6.067   5.705  1.00 20.00     0.241 C 
HETATM    4  O4  UNL     1     -34.625   5.982   4.354  1.00 20.00    -0.381 OA
HETATM    5  S5  UNL     1     -34.245   4.433   6.464  1.00 20.00    -0.141 SA
ENDROOT
TORSDOF 0
