REMARK  2 active torsions:
REMARK  status: ('A' for Active; 'I' for Inactive)
REMARK    1  A    between atoms: C3_3  and  C5_5 
REMARK    2  A    between atoms: C4_4  and  C10_10 
ROOT
HETATM    1  C1  UNL     1     -35.757   5.349   4.588  1.00 20.00    -0.026 C 
HETATM    2  C2  UNL     1     -34.991   4.857   3.603  1.00 20.00    -0.025 C 
HETATM    3  C6  UNL     1     -33.856   4.482   5.579  1.00 20.00     0.017 C 
HETATM    4  C7  UNL     1     -33.967   6.853   5.384  1.00 20.00     0.017 C 
HETATM    5  C8  UNL     1     -34.847   5.638   5.757  1.00 20.00     0.009 C 
HETATM    6  C9  UNL     1     -33.567   4.828   4.113  1.00 20.00     0.016 C 
HETATM    7  C10 UNL     1     -33.048   6.278   4.268  1.00 20.00     0.017 C 
ENDROOT
BRANCH   7   8
HETATM    8  C4  UNL     1     -33.036   7.080   3.008  1.00 20.00    -0.015 C 
HETATM    9  C3  UNL     1     -32.648   8.361   2.950  1.00 20.00     0.081 C 
BRANCH   9  10
HETATM   10  C5  UNL     1     -32.651   9.151   1.633  1.00 20.00     0.198 C 
HETATM   11  O11 UNL     1     -32.452   8.438   0.605  1.00 20.00    -0.645 OA
HETATM   12  O12 UNL     1     -32.847  10.396   1.711  1.00 20.00    -0.645 OA
ENDBRANCH   9  10
ENDBRANCH   7   8
TORSDOF 2
