REMARK  0 active torsions:
REMARK  status: ('A' for Active; 'I' for Inactive)
ROOT
HETATM    1  C1  UNL     1     -32.970   5.789   3.534  1.00 20.00     0.127 C 
HETATM    2  C2  UNL     1     -33.101   6.574   4.827  1.00 20.00     0.082 C 
HETATM    3  C3  UNL     1     -34.248   5.370   2.831  1.00 20.00     0.082 C 
HETATM    4  C4  UNL     1     -34.324   4.676   5.984  1.00 20.00     0.005 C 
HETATM    5  C5  UNL     1     -35.000   3.964   4.804  1.00 20.00     0.005 C 
HETATM    6  C6  UNL     1     -35.586   6.281   4.740  1.00 20.00     0.010 C 
HETATM    7  C7  UNL     1     -34.347   6.169   5.624  1.00 20.00    -0.007 C 
HETATM    8  C8  UNL     1     -35.383   5.080   3.821  1.00 20.00    -0.007 C 
HETATM    9  O9  UNL     1     -31.869   5.592   3.020  1.00 20.00    -0.298 OA
ENDROOT
TORSDOF 0
