REMARK  0 active torsions:
REMARK  status: ('A' for Active; 'I' for Inactive)
ROOT
HETATM    1  C1  UNL     1     -33.971   5.530   3.529  1.00 20.00     0.229 C 
HETATM    2  C2  UNL     1     -35.199   4.700   3.845  1.00 20.00     0.104 C 
HETATM    3  C3  UNL     1     -34.918   3.647   4.911  1.00 20.00     0.009 C 
HETATM    4  C4  UNL     1     -35.053   4.172   6.339  1.00 20.00     0.002 C 
HETATM    5  C5  UNL     1     -34.044   5.256   6.715  1.00 20.00     0.021 C 
HETATM    6  C6  UNL     1     -34.154   6.509   5.853  1.00 20.00     0.140 C 
HETATM    7  N7  UNL     1     -33.509   6.344   4.553  1.00 20.00    -0.284 N 
HETATM    8  O8  UNL     1     -33.445   5.445   2.417  1.00 20.00    -0.273 OA
HETATM    9 BR9  UNL     1     -31.905   7.334   4.267  1.00 20.00     0.052 Br
ENDROOT
TORSDOF 0
