REMARK  3 active torsions:
REMARK  status: ('A' for Active; 'I' for Inactive)
REMARK    1  A    between atoms: C1_1  and  C7_7 
REMARK    2  A    between atoms: C8_8  and  C10_10 
REMARK    3  A    between atoms: C9_9  and  C11_11 
ROOT
HETATM    1  C2  UNL     1     -34.266   6.340   2.092  1.00 20.00     0.012 C 
HETATM    2  C3  UNL     1     -35.273   5.685   3.098  1.00 20.00     0.006 C 
HETATM    3  C7  UNL     1     -32.976   6.694   2.914  1.00 20.00     0.052 C 
HETATM    4  C10 UNL     1     -34.320   5.302   4.195  1.00 20.00    -0.005 C 
HETATM    5  C11 UNL     1     -33.518   6.602   4.320  1.00 20.00     0.004 C 
ENDROOT
BRANCH   3   6
HETATM    6  C1  UNL     1     -32.487   8.066   2.583  1.00 20.00     0.236 C 
HETATM    7  O12 UNL     1     -32.100   8.394   1.467  1.00 20.00    -0.306 OA
ENDBRANCH   3   6
BRANCH   5   8
HETATM    8  C9  UNL     1     -32.813   6.407   5.673  1.00 20.00    -0.009 C 
HETATM    9  C5  UNL     1     -33.812   6.976   6.715  1.00 20.00     0.005 C 
HETATM   10  C4  UNL     1     -35.033   6.035   6.553  1.00 20.00     0.005 C 
HETATM   11  C8  UNL     1     -34.502   4.901   5.653  1.00 20.00    -0.010 C 
HETATM   12  C6  UNL     1     -32.995   4.916   6.016  1.00 20.00     0.010 C 
ENDBRANCH   5   8
TORSDOF 3
