REMARK  0 active torsions:
REMARK  status: ('A' for Active; 'I' for Inactive)
ROOT
HETATM    1  C1  UNL     1     -34.049   5.328   3.915  1.00 20.00     0.223 C 
HETATM    2  C2  UNL     1     -34.326   5.012   5.150  1.00 20.00    -0.033 C 
HETATM    3  C3  UNL     1     -34.430   6.043   6.238  1.00 20.00     0.047 C 
HETATM    4  C4  UNL     1     -34.563   3.594   5.581  1.00 20.00     0.047 C 
HETATM    5  O5  UNL     1     -33.799   5.613   2.802  1.00 20.00    -0.284 OA
ENDROOT
TORSDOF 0
