REMARK  3 active torsions:
REMARK  status: ('A' for Active; 'I' for Inactive)
REMARK    1  A    between atoms: C1_1  and  C2_2 
REMARK    2  A    between atoms: C1_1  and  C3_3 
REMARK    3  A    between atoms: C2_2  and  S8_8 
ROOT
HETATM    1  C1  UNL     1     -33.452   6.304   4.423  1.00 20.00     0.241 C 
HETATM    2  O4  UNL     1     -33.459   6.741   5.573  1.00 20.00    -0.287 OA
ENDROOT
BRANCH   1   3
HETATM    3  C2  UNL     1     -32.269   6.414   3.485  1.00 20.00     0.158 C 
BRANCH   3   4
HETATM    4  S8  UNL     1     -32.329   7.925   2.495  1.00 20.00    -0.174 SA
HETATM    5  H11 UNL     1     -31.193   7.705   1.817  1.00 20.00     0.102 HD
ENDBRANCH   3   4
ENDBRANCH   1   3
BRANCH   1   6
HETATM    6  C3  UNL     1     -34.665   5.611   3.865  1.00 20.00     0.451 C 
HETATM    7  F5  UNL     1     -34.467   5.201   2.588  1.00 20.00    -0.163 F 
HETATM    8  F6  UNL     1     -34.993   4.511   4.588  1.00 20.00    -0.163 F 
HETATM    9  F7  UNL     1     -35.757   6.416   3.856  1.00 20.00    -0.163 F 
ENDBRANCH   1   6
TORSDOF 3
