REMARK  2 active torsions:
REMARK  status: ('A' for Active; 'I' for Inactive)
REMARK    1  A    between atoms: C2_2  and  C6_6 
REMARK    2  A    between atoms: C6_6  and  O7_7 
ROOT
HETATM    1  C4  UNL     1     -34.892   5.377   6.278  1.00 20.00     0.050 C 
HETATM    2  C5  UNL     1     -36.077   5.316   4.059  1.00 20.00     0.050 C 
HETATM    3  C6  UNL     1     -35.029   4.638   4.944  1.00 20.00     0.068 C 
ENDROOT
BRANCH   3   4
HETATM    4  C2  UNL     1     -33.694   4.614   4.232  1.00 20.00     0.005 C 
HETATM    5  C1  UNL     1     -32.980   5.682   3.840  1.00 20.00    -0.032 C 
HETATM    6  C3  UNL     1     -31.666   5.587   3.138  1.00 20.00     0.036 C 
ENDBRANCH   3   4
BRANCH   3   7
HETATM    7  O7  UNL     1     -35.478   3.310   5.221  1.00 20.00    -0.387 OA
HETATM    8  H19 UNL     1     -36.330   3.399   5.674  1.00 20.00     0.211 HD
ENDBRANCH   3   7
TORSDOF 2
