REMARK  1 active torsions:
REMARK  status: ('A' for Active; 'I' for Inactive)
REMARK    1  A    between atoms: C1_1  and  C6_6 
ROOT
HETATM    1  C2  UNL     1     -33.506   4.678   2.510  1.00 20.00     0.002 C 
HETATM    2  C3  UNL     1     -34.883   5.011   3.077  1.00 20.00     0.012 C 
HETATM    3  C4  UNL     1     -32.897   5.867   1.772  1.00 20.00     0.009 C 
HETATM    4  C5  UNL     1     -34.173   7.457   3.282  1.00 20.00     0.021 C 
HETATM    5  C6  UNL     1     -34.895   6.273   3.937  1.00 20.00     0.055 C 
HETATM    6  C7  UNL     1     -32.800   7.140   2.639  1.00 20.00    -0.047 C 
HETATM    7  C9  UNL     1     -31.703   6.984   3.709  1.00 20.00     0.015 C 
HETATM    8  C10 UNL     1     -32.395   8.324   1.737  1.00 20.00     0.015 C 
ENDROOT
BRANCH   5   9
HETATM    9  C1  UNL     1     -34.374   6.009   5.319  1.00 20.00     0.127 C 
HETATM   10  C8  UNL     1     -35.062   4.925   6.105  1.00 20.00     0.091 C 
HETATM   11  O11 UNL     1     -33.431   6.644   5.786  1.00 20.00    -0.298 OA
ENDBRANCH   5   9
TORSDOF 1
