REMARK  0 active torsions:
REMARK  status: ('A' for Active; 'I' for Inactive)
ROOT
HETATM    1  C1  UNL     1     -34.202   5.173   2.523  1.00 20.00     0.029 C 
HETATM    2  C2  UNL     1     -35.180   5.462   3.659  1.00 20.00     0.044 C 
HETATM    3  C3  UNL     1     -33.103   6.230   2.478  1.00 20.00     0.167 C 
HETATM    4  C4  UNL     1     -33.268   6.677   4.806  1.00 20.00     0.207 C 
HETATM    5  C5  UNL     1     -35.085   5.510   6.260  1.00 20.00     0.209 A 
HETATM    6  C6  UNL     1     -34.423   5.732   4.923  1.00 20.00     0.103 A 
HETATM    7  O7  UNL     1     -32.412   6.283   3.728  1.00 20.00    -0.388 OA
HETATM    8  O8  UNL     1     -34.153   4.565   5.711  1.00 20.00    -0.373 OA
ENDROOT
TORSDOF 0
