REMARK  0 active torsions:
REMARK  status: ('A' for Active; 'I' for Inactive)
ROOT
HETATM    1  C1  UNL     1     -34.211   4.639   6.513  1.00 20.00    -0.025 A 
HETATM    2  C2  UNL     1     -34.782   3.632   5.832  1.00 20.00     0.003 A 
HETATM    3  C3  UNL     1     -34.068   5.844   5.613  1.00 20.00     0.061 A 
HETATM    4  C4  UNL     1     -35.117   3.987   4.445  1.00 20.00     0.173 A 
HETATM    5  C5  UNL     1     -34.565   5.387   4.261  1.00 20.00     0.158 A 
HETATM    6  O6  UNL     1     -35.958   5.108   4.126  1.00 20.00    -0.371 OA
ENDROOT
TORSDOF 0
