REMARK  2 active torsions:
REMARK  status: ('A' for Active; 'I' for Inactive)
REMARK    1  A    between atoms: C1_1  and  C2_2 
REMARK    2  A    between atoms: C2_2  and  C3_3 
ROOT
HETATM    1  C2  UNL     1     -33.536   6.533   4.421  1.00 20.00     0.428 C 
HETATM    2  F6  UNL     1     -34.353   7.579   4.131  1.00 20.00    -0.184 F 
HETATM    3  F7  UNL     1     -33.305   6.581   5.759  1.00 20.00    -0.184 F 
ENDROOT
BRANCH   1   4
HETATM    4  C1  UNL     1     -32.256   6.634   3.650  1.00 20.00     0.379 C 
HETATM    5  O4  UNL     1     -31.468   7.565   3.714  1.00 20.00    -0.253 OA
HETATM    6  F5  UNL     1     -31.931   5.607   2.852  1.00 20.00    -0.157 F 
ENDBRANCH   1   4
BRANCH   1   7
HETATM    7  C3  UNL     1     -34.256   5.250   4.094  1.00 20.00     0.465 C 
HETATM    8  F8  UNL     1     -33.490   4.181   4.404  1.00 20.00    -0.165 F 
HETATM    9  F9  UNL     1     -34.553   5.174   2.779  1.00 20.00    -0.165 F 
HETATM   10  F10 UNL     1     -35.409   5.143   4.787  1.00 20.00    -0.165 F 
ENDBRANCH   1   7
TORSDOF 2
