REMARK  1 active torsions:
REMARK  status: ('A' for Active; 'I' for Inactive)
REMARK    1  A    between atoms: C9_9  and  O11_11 
ROOT
HETATM    1  C1  UNL     1     -32.779   7.255   2.913  1.00 20.00    -0.025 C 
HETATM    2  C2  UNL     1     -33.856   6.636   2.393  1.00 20.00    -0.025 C 
HETATM    3  C3  UNL     1     -33.493   6.847   6.427  1.00 20.00    -0.022 C 
HETATM    4  C4  UNL     1     -34.660   6.279   6.811  1.00 20.00     0.001 C 
HETATM    5  C5  UNL     1     -32.578   4.993   3.276  1.00 20.00     0.018 C 
HETATM    6  C6  UNL     1     -32.181   6.341   3.957  1.00 20.00     0.017 C 
HETATM    7  C7  UNL     1     -34.071   5.347   3.186  1.00 20.00     0.016 C 
HETATM    8  C8  UNL     1     -33.043   6.128   5.211  1.00 20.00     0.023 C 
HETATM    9  C9  UNL     1     -35.198   5.303   5.759  1.00 20.00     0.146 C 
HETATM   10  C10 UNL     1     -34.445   5.884   4.582  1.00 20.00     0.034 C 
ENDROOT
BRANCH   9  11
HETATM   11  O11 UNL     1     -34.842   3.973   6.066  1.00 20.00    -0.391 OA
HETATM   12  H23 UNL     1     -35.227   3.763   6.936  1.00 20.00     0.210 HD
ENDBRANCH   9  11
TORSDOF 1
