REMARK  1 active torsions:
REMARK  status: ('A' for Active; 'I' for Inactive)
REMARK    1  A    between atoms: C2_2  and  C3_3 
ROOT
HETATM    1  C1  UNL     1     -33.974   5.134   3.263  1.00 20.00    -0.012 C 
HETATM    2  C2  UNL     1     -33.192   6.115   3.734  1.00 20.00    -0.001 C 
HETATM    3  C4  UNL     1     -34.959   4.446   4.161  1.00 20.00     0.054 C 
HETATM    4  C5  UNL     1     -33.227   6.556   5.165  1.00 20.00     0.209 C 
HETATM    5  C6  UNL     1     -35.170   5.226   5.457  1.00 20.00     0.171 C 
HETATM    6  O8  UNL     1     -33.907   5.610   6.003  1.00 20.00    -0.386 OA
ENDROOT
BRANCH   2   7
HETATM    7  C3  UNL     1     -32.255   6.759   2.814  1.00 20.00     0.267 C 
HETATM    8  O7  UNL     1     -31.505   7.665   3.161  1.00 20.00    -0.302 OA
ENDBRANCH   2   7
TORSDOF 1
