REMARK  5 active torsions:
REMARK  status: ('A' for Active; 'I' for Inactive)
REMARK    1  A    between atoms: C1_1  and  C4_4 
REMARK    2  A    between atoms: C2_2  and  C7_7 
REMARK    3  A    between atoms: C7_7  and  C9_9 
REMARK    4  A    between atoms: C8_8  and  C9_9 
REMARK    5  A    between atoms: C9_9  and  O10_10 
ROOT
HETATM    1  C7  UNL     1     -33.369   6.009   3.865  1.00 20.00     0.126 C 
ENDROOT
BRANCH   1   2
HETATM    2  C2  UNL     1     -33.056   7.140   2.979  1.00 20.00    -0.099 C 
HETATM    3  C1  UNL     1     -32.800   8.065   2.256  1.00 20.00    -0.072 C 
BRANCH   3   4
HETATM    4  C4  UNL     1     -32.500   9.161   1.393  1.00 20.00    -0.018 C 
HETATM    5  C3  UNL     1     -32.486  10.405   1.893  1.00 20.00     0.028 C 
HETATM    6  C5  UNL     1     -32.211   8.887  -0.054  1.00 20.00     0.057 C 
ENDBRANCH   3   4
ENDBRANCH   1   2
BRANCH   1   7
HETATM    7  C9  UNL     1     -34.763   6.109   4.499  1.00 20.00     0.129 C 
BRANCH   7   8
HETATM    8  C8  UNL     1     -34.928   5.232   5.746  1.00 20.00     0.028 C 
HETATM    9  C6  UNL     1     -34.700   3.757   5.443  1.00 20.00     0.007 C 
ENDBRANCH   7   8
BRANCH   7  10
HETATM   10  O10 UNL     1     -35.758   5.760   3.539  1.00 20.00    -0.395 OA
HETATM   11  H24 UNL     1     -35.667   6.390   2.808  1.00 20.00     0.210 HD
ENDBRANCH   7  10
ENDBRANCH   1   7
TORSDOF 5
