REMARK  3 active torsions:
REMARK  status: ('A' for Active; 'I' for Inactive)
REMARK    1  A    between atoms: C1_1  and  C2_2 
REMARK    2  A    between atoms: C3_3  and  C8_8 
REMARK    3  A    between atoms: C8_8  and  C9_9 
ROOT
HETATM    1  C1  UNL     1     -34.212   5.278   5.738  1.00 20.00     0.043 C 
HETATM    2  C3  UNL     1     -33.777   6.551   5.711  1.00 20.00    -0.080 C 
HETATM    3  C4  UNL     1     -33.201   7.266   6.903  1.00 20.00     0.043 C 
ENDROOT
BRANCH   2   4
HETATM    4  C8  UNL     1     -33.778   7.315   4.397  1.00 20.00     0.042 C 
BRANCH   4   5
HETATM    5  C9  UNL     1     -32.522   7.176   3.487  1.00 20.00    -0.048 C 
HETATM    6  C5  UNL     1     -31.269   7.734   4.183  1.00 20.00     0.015 C 
HETATM    7  C6  UNL     1     -32.264   5.716   3.081  1.00 20.00     0.015 C 
HETATM    8  C7  UNL     1     -32.772   7.995   2.204  1.00 20.00     0.015 C 
ENDBRANCH   4   5
ENDBRANCH   2   4
BRANCH   1   9
HETATM    9  C2  UNL     1     -34.778   4.573   4.568  1.00 20.00     0.259 C 
HETATM   10  O10 UNL     1     -34.658   3.362   4.426  1.00 20.00    -0.302 OA
ENDBRANCH   1   9
TORSDOF 3
