REMARK  4 active torsions:
REMARK  status: ('A' for Active; 'I' for Inactive)
REMARK    1  A    between atoms: C5_5  and  C7_7 
REMARK    2  A    between atoms: C5_5  and  C8_8 
REMARK    3  A    between atoms: C6_6  and  C7_7 
REMARK    4  A    between atoms: C6_6  and  S9_9 
ROOT
HETATM    1  C5  UNL     1     -33.463   6.525   4.607  1.00 20.00     0.013 C 
ENDROOT
BRANCH   1   2
HETATM    2  C7  UNL     1     -33.019   6.711   3.135  1.00 20.00    -0.009 C 
HETATM    3  C1  UNL     1     -31.834   5.834   2.727  1.00 20.00     0.011 C 
BRANCH   2   4
HETATM    4  C6  UNL     1     -32.742   8.200   2.815  1.00 20.00     0.075 C 
BRANCH   4   5
HETATM    5  S9  UNL     1     -32.498   8.598   1.055  1.00 20.00    -0.182 SA
HETATM    6  H27 UNL     1     -32.302   9.910   1.238  1.00 20.00     0.101 HD
ENDBRANCH   4   5
ENDBRANCH   2   4
ENDBRANCH   1   2
BRANCH   1   7
HETATM    7  C8  UNL     1     -34.330   5.289   4.992  1.00 20.00    -0.051 C 
HETATM    8  C2  UNL     1     -35.674   5.269   4.248  1.00 20.00     0.014 C 
HETATM    9  C3  UNL     1     -33.586   3.964   4.750  1.00 20.00     0.014 C 
HETATM   10  C4  UNL     1     -34.620   5.377   6.509  1.00 20.00     0.014 C 
ENDBRANCH   1   7
TORSDOF 4
