REMARK  1 active torsions:
REMARK  status: ('A' for Active; 'I' for Inactive)
REMARK    1  A    between atoms: C2_2  and  C4_4 
ROOT
HETATM    1  C3  UNL     1     -34.540   4.973   3.161  1.00 20.00     0.204 A 
HETATM    2  C4  UNL     1     -35.074   5.595   4.405  1.00 20.00     0.167 A 
HETATM    3  O5  UNL     1     -35.827   5.597   3.205  1.00 20.00    -0.377 OA
ENDROOT
BRANCH   2   4
HETATM    4  C2  UNL     1     -35.422   4.682   5.533  1.00 20.00    -0.003 C 
HETATM    5  C1  UNL     1     -34.536   4.219   6.421  1.00 20.00     0.009 C 
ENDBRANCH   2   4
TORSDOF 1
