REMARK  1 active torsions:
REMARK  status: ('A' for Active; 'I' for Inactive)
REMARK    1  A    between atoms: C3_3  and  C8_8 
ROOT
HETATM    1  C1  UNL     1     -32.937   7.380   5.644  1.00 20.00     0.048 A 
HETATM    2  C2  UNL     1     -33.622   7.028   6.822  1.00 20.00     0.141 A 
HETATM    3  C3  UNL     1     -33.185   6.342   4.779  1.00 20.00     0.039 A 
HETATM    4  C7  UNL     1     -34.502   4.212   4.980  1.00 20.00     0.179 C 
HETATM    5  N9  UNL     1     -34.258   5.858   6.718  1.00 20.00    -0.185 NA
HETATM    6  N10 UNL     1     -33.973   5.466   5.465  1.00 20.00    -0.278 N 
ENDROOT
BRANCH   3   7
HETATM    7  C8  UNL     1     -32.730   6.104   3.330  1.00 20.00    -0.007 C 
HETATM    8  C4  UNL     1     -31.853   7.285   2.860  1.00 20.00     0.021 C 
HETATM    9  C5  UNL     1     -33.964   5.991   2.409  1.00 20.00     0.021 C 
HETATM   10  C6  UNL     1     -31.899   4.815   3.138  1.00 20.00     0.021 C 
ENDBRANCH   3   7
TORSDOF 1
