REMARK  0 active torsions:
REMARK  status: ('A' for Active; 'I' for Inactive)
ROOT
HETATM    1  C1  UNL     1     -34.165   5.991   5.594  1.00 20.00     0.145 C 
HETATM    2  C2  UNL     1     -35.843   5.595   3.754  1.00 20.00     0.061 C 
HETATM    3  C3  UNL     1     -33.433   6.715   3.293  1.00 20.00     0.061 C 
HETATM    4  C4  UNL     1     -35.015   4.945   4.868  1.00 20.00     0.103 C 
HETATM    5  C5  UNL     1     -33.677   7.164   4.738  1.00 20.00     0.103 C 
HETATM    6  C6  UNL     1     -35.791   4.086   5.867  1.00 20.00     0.024 C 
HETATM    7  C7  UNL     1     -32.517   7.890   5.419  1.00 20.00     0.024 C 
HETATM    8  O8  UNL     1     -33.891   5.897   6.790  1.00 20.00    -0.296 OA
HETATM    9  S9  UNL     1     -37.512   5.760   3.770  1.00 20.00    -0.076 SA
HETATM   10  S10 UNL     1     -31.927   6.605   2.562  1.00 20.00    -0.076 SA
HETATM   11  S11 UNL     1     -34.894   6.244   2.405  1.00 20.00    -0.074 SA
ENDROOT
TORSDOF 0
