REMARK  2 active torsions:
REMARK  status: ('A' for Active; 'I' for Inactive)
REMARK    1  A    between atoms: C4_4  and  C5_5 
REMARK    2  A    between atoms: C4_4  and  N6_6 
ROOT
HETATM    1  C1  UNL     1     -34.596   3.825   6.075  1.00 20.00     0.016 C 
HETATM    2  C2  UNL     1     -35.764   5.137   4.294  1.00 20.00     0.016 C 
HETATM    3  C3  UNL     1     -34.436   6.330   6.046  1.00 20.00     0.016 C 
HETATM    4  C5  UNL     1     -34.501   5.066   5.172  1.00 20.00    -0.036 C 
ENDROOT
BRANCH   4   5
HETATM    5  C4  UNL     1     -33.268   4.977   4.248  1.00 20.00     0.154 C 
BRANCH   5   6
HETATM    6  N6  UNL     1     -33.162   6.164   3.394  1.00 20.00    -0.063 NA
HETATM    7  O7  UNL     1     -32.118   6.807   3.592  1.00 20.00    -0.101 OA
ENDBRANCH   5   6
ENDBRANCH   4   5
TORSDOF 2
