REMARK  4 active torsions:
REMARK  status: ('A' for Active; 'I' for Inactive)
REMARK    1  A    between atoms: C1_1  and  C7_7 
REMARK    2  A    between atoms: C2_2  and  C9_9 
REMARK    3  A    between atoms: C9_9  and  C11_11 
REMARK    4  A    between atoms: C10_10  and  C11_11 
ROOT
HETATM    1  C3  UNL     1     -35.227   3.623   4.213  1.00 20.00     0.006 C 
HETATM    2  C4  UNL     1     -34.816   3.458   5.671  1.00 20.00     0.026 C 
HETATM    3  C5  UNL     1     -34.358   4.671   3.525  1.00 20.00     0.045 C 
HETATM    4  C6  UNL     1     -34.754   4.811   6.369  1.00 20.00     0.169 C 
HETATM    5  C7  UNL     1     -34.325   5.967   4.339  1.00 20.00     0.200 C 
HETATM    6  O12 UNL     1     -33.881   5.699   5.672  1.00 20.00    -0.374 OA
ENDROOT
BRANCH   5   7
HETATM    7  C1  UNL     1     -33.412   6.939   3.724  1.00 20.00    -0.074 C 
HETATM    8  C2  UNL     1     -32.665   7.734   3.221  1.00 20.00    -0.104 C 
BRANCH   8   9
HETATM    9  C9  UNL     1     -31.750   8.707   2.608  1.00 20.00     0.094 C 
BRANCH   9  10
HETATM   10  C11 UNL     1     -31.684   8.520   1.092  1.00 20.00     0.012 C 
BRANCH  10  11
HETATM   11  C10 UNL     1     -33.049   8.743   0.443  1.00 20.00    -0.004 C 
HETATM   12  C8  UNL     1     -32.979   8.598  -1.069  1.00 20.00     0.005 C 
ENDBRANCH  10  11
ENDBRANCH   9  10
ENDBRANCH   8   9
ENDBRANCH   5   7
TORSDOF 4
