REMARK  2 active torsions:
REMARK  status: ('A' for Active; 'I' for Inactive)
REMARK    1  A    between atoms: C2_2  and  C3_3 
REMARK    2  A    between atoms: N7_7  and  N8_8 
ROOT
HETATM    1  C2  UNL     1     -33.643   5.914   4.485  1.00 20.00     0.138 C 
HETATM    2  N7  UNL     1     -33.511   6.844   3.594  1.00 20.00    -0.214 NA
ENDROOT
BRANCH   1   3
HETATM    3  C3  UNL     1     -34.962   5.315   4.847  1.00 20.00    -0.047 C 
HETATM    4  C1  UNL     1     -35.873   5.283   3.859  1.00 20.00    -0.023 C 
HETATM    5  C4  UNL     1     -37.267   4.746   3.926  1.00 20.00     0.036 C 
HETATM    6  C5  UNL     1     -35.126   4.824   6.251  1.00 20.00     0.049 C 
ENDBRANCH   1   3
BRANCH   2   7
HETATM    7  N8  UNL     1     -32.231   7.236   3.422  1.00 20.00    -0.222 NA
HETATM    8  C6  UNL     1     -31.929   7.851   2.141  1.00 20.00     0.135 C 
HETATM    9  H20 UNL     1     -31.580   6.474   3.610  1.00 20.00     0.148 HD
ENDBRANCH   2   7
TORSDOF 2
