REMARK  3 active torsions:
REMARK  status: ('A' for Active; 'I' for Inactive)
REMARK    1  A    between atoms: C3_3  and  C9_9 
REMARK    2  A    between atoms: C8_8  and  C10_10 
REMARK    3  A    between atoms: C9_9  and  C10_10 
ROOT
HETATM    1  C1  UNL     1     -33.978   5.250   6.859  1.00 20.00    -0.026 C 
HETATM    2  C2  UNL     1     -34.959   5.930   6.249  1.00 20.00    -0.025 C 
HETATM    3  C4  UNL     1     -35.190   3.720   5.623  1.00 20.00     0.017 C 
HETATM    4  C5  UNL     1     -33.087   4.392   4.722  1.00 20.00     0.013 C 
HETATM    5  C6  UNL     1     -33.747   3.988   6.061  1.00 20.00     0.009 C 
HETATM    6  C7  UNL     1     -35.377   5.126   5.039  1.00 20.00     0.012 C 
HETATM    7  C8  UNL     1     -34.241   5.138   3.982  1.00 20.00    -0.006 C 
ENDROOT
BRANCH   7   8
HETATM    8  C10 UNL     1     -33.846   6.516   3.473  1.00 20.00     0.012 C 
BRANCH   8   9
HETATM    9  C9  UNL     1     -32.419   6.526   2.941  1.00 20.00     0.070 C 
BRANCH   9  10
HETATM   10  C3  UNL     1     -31.990   7.890   2.457  1.00 20.00     0.231 C 
HETATM   11  O11 UNL     1     -31.668   8.154   1.304  1.00 20.00    -0.307 OA
ENDBRANCH   9  10
ENDBRANCH   8   9
ENDBRANCH   7   8
TORSDOF 3
