REMARK  2 active torsions:
REMARK  status: ('A' for Active; 'I' for Inactive)
REMARK    1  A    between atoms: C6_6  and  C8_8 
REMARK    2  A    between atoms: C7_7  and  C8_8 
ROOT
HETATM    1  C1  UNL     1     -33.195   5.411   2.856  1.00 20.00     0.075 C 
HETATM    2  C8  UNL     1     -32.502   6.565   3.477  1.00 20.00     0.186 C 
HETATM    3  N9  UNL     1     -33.737   4.515   2.355  1.00 20.00    -0.196 NA
ENDROOT
BRANCH   2   4
HETATM    4  C6  UNL     1     -32.401   7.733   2.555  1.00 20.00    -0.031 A 
HETATM    5  C2  UNL     1     -31.743   7.606   1.337  1.00 20.00     0.028 A 
HETATM    6  C4  UNL     1     -31.677   8.720   0.516  1.00 20.00     0.116 A 
HETATM    7  N10 UNL     1     -32.213   9.921   0.826  1.00 20.00    -0.273 NA
HETATM    8  C5  UNL     1     -32.844  10.007   2.018  1.00 20.00     0.116 A 
HETATM    9  C3  UNL     1     -32.965   8.953   2.910  1.00 20.00     0.028 A 
ENDBRANCH   2   4
BRANCH   2  10
HETATM   10  C7  UNL     1     -33.155   6.945   4.802  1.00 20.00     0.255 C 
HETATM   11  O11 UNL     1     -34.179   6.446   5.258  1.00 20.00    -0.305 OA
ENDBRANCH   2  10
TORSDOF 2
