REMARK  2 active torsions:
REMARK  status: ('A' for Active; 'I' for Inactive)
REMARK    1  A    between atoms: C6_6  and  O8_8 
REMARK    2  A    between atoms: N7_7  and  O8_8 
ROOT
HETATM    1  C1  UNL     1     -32.077   8.353   2.105  1.00 20.00     0.014 C 
HETATM    2  C2  UNL     1     -32.438   7.270   2.476  1.00 20.00    -0.089 C 
HETATM    3  C6  UNL     1     -32.876   5.949   2.928  1.00 20.00     0.296 C 
ENDROOT
BRANCH   3   4
HETATM    4  O8  UNL     1     -34.252   5.974   3.277  1.00 20.00    -0.244 OA
BRANCH   4   5
HETATM    5  N7  UNL     1     -34.510   4.878   4.110  1.00 20.00    -0.143 NA
HETATM    6  C3  UNL     1     -34.337   5.190   5.358  1.00 20.00     0.032 C 
HETATM    7  C4  UNL     1     -34.534   4.231   6.506  1.00 20.00     0.067 C 
HETATM    8  C5  UNL     1     -33.906   6.594   5.690  1.00 20.00     0.067 C 
ENDBRANCH   4   5
ENDBRANCH   3   4
TORSDOF 2
