REMARK  3 active torsions:
REMARK  status: ('A' for Active; 'I' for Inactive)
REMARK    1  A    between atoms: C3_3  and  C9_9 
REMARK    2  A    between atoms: C8_8  and  C10_10 
REMARK    3  A    between atoms: C9_9  and  C10_10 
ROOT
HETATM    1  C1  UNL     1     -34.277   4.406   5.589  1.00 20.00    -0.026 C 
HETATM    2  C2  UNL     1     -33.715   5.421   6.262  1.00 20.00    -0.025 C 
HETATM    3  C4  UNL     1     -35.325   6.343   4.889  1.00 20.00     0.017 C 
HETATM    4  C5  UNL     1     -33.738   5.409   3.390  1.00 20.00     0.013 C 
HETATM    5  C6  UNL     1     -34.885   4.985   4.334  1.00 20.00     0.009 C 
HETATM    6  C7  UNL     1     -33.936   6.676   5.446  1.00 20.00     0.012 C 
HETATM    7  C8  UNL     1     -33.041   6.560   4.183  1.00 20.00    -0.006 C 
ENDROOT
BRANCH   7   8
HETATM    8  C10 UNL     1     -32.970   7.855   3.383  1.00 20.00     0.012 C 
BRANCH   8   9
HETATM    9  C9  UNL     1     -32.149   7.678   2.113  1.00 20.00     0.070 C 
BRANCH   9  10
HETATM   10  C3  UNL     1     -32.039   8.954   1.314  1.00 20.00     0.231 C 
HETATM   11  O11 UNL     1     -32.518  10.032   1.649  1.00 20.00    -0.307 OA
ENDBRANCH   9  10
ENDBRANCH   8   9
ENDBRANCH   7   8
TORSDOF 3
