REMARK  2 active torsions:
REMARK  status: ('A' for Active; 'I' for Inactive)
REMARK    1  A    between atoms: C3_3  and  C7_7 
REMARK    2  A    between atoms: C7_7  and  C8_8 
ROOT
HETATM    1  C1  UNL     1     -32.167   8.358   1.595  1.00 20.00     0.088 C 
HETATM    2  C2  UNL     1     -32.802   7.874   2.771  1.00 20.00     0.096 C 
HETATM    3  C3  UNL     1     -32.874   6.573   3.110  1.00 20.00    -0.073 C 
HETATM    4  C4  UNL     1     -32.256   5.528   2.217  1.00 20.00     0.044 C 
HETATM    5  N9  UNL     1     -31.649   8.761   0.638  1.00 20.00    -0.192 NA
ENDROOT
BRANCH   3   6
HETATM    6  C7  UNL     1     -33.515   6.049   4.382  1.00 20.00     0.038 C 
BRANCH   6   7
HETATM    7  C8  UNL     1     -34.720   5.112   4.153  1.00 20.00    -0.019 C 
HETATM    8  C5  UNL     1     -35.851   5.799   3.385  1.00 20.00     0.010 C 
HETATM    9  C6  UNL     1     -35.244   4.604   5.499  1.00 20.00     0.010 C 
ENDBRANCH   6   7
ENDBRANCH   3   6
TORSDOF 2
