REMARK  4 active torsions:
REMARK  status: ('A' for Active; 'I' for Inactive)
REMARK    1  A    between atoms: C2_2  and  C6_6 
REMARK    2  A    between atoms: C2_2  and  C7_7 
REMARK    3  A    between atoms: C6_6  and  C8_8 
REMARK    4  A    between atoms: C7_7  and  O10_10 
ROOT
HETATM    1  C1  UNL     1     -35.856   5.325   4.074  1.00 20.00     0.209 A 
HETATM    2  C2  UNL     1     -34.567   6.002   4.473  1.00 20.00     0.104 A 
HETATM    3  O9  UNL     1     -34.576   4.801   3.689  1.00 20.00    -0.373 OA
ENDROOT
BRANCH   2   4
HETATM    4  C6  UNL     1     -34.096   7.233   3.707  1.00 20.00     0.051 C 
BRANCH   4   5
HETATM    5  C8  UNL     1     -32.590   7.264   3.340  1.00 20.00    -0.049 C 
HETATM    6  C3  UNL     1     -31.836   7.998   4.466  1.00 20.00     0.014 C 
HETATM    7  C4  UNL     1     -32.355   8.020   2.022  1.00 20.00     0.014 C 
HETATM    8  C5  UNL     1     -32.019   5.842   3.216  1.00 20.00     0.014 C 
ENDBRANCH   4   5
ENDBRANCH   2   4
BRANCH   2   9
HETATM    9  C7  UNL     1     -34.034   5.814   5.857  1.00 20.00     0.204 C 
BRANCH   9  10
HETATM   10  O10 UNL     1     -34.228   4.463   6.268  1.00 20.00    -0.398 OA
HETATM   11  H26 UNL     1     -33.868   4.394   7.166  1.00 20.00     0.209 HD
ENDBRANCH   9  10
ENDBRANCH   2   9
TORSDOF 4
