REMARK  1 active torsions:
REMARK  status: ('A' for Active; 'I' for Inactive)
REMARK    1  A    between atoms: C3_3  and  C7_7 
ROOT
HETATM    1  C1  UNL     1     -34.246   5.505   4.919  1.00 20.00    -0.082 C 
HETATM    2  C2  UNL     1     -33.564   6.557   5.426  1.00 20.00    -0.081 C 
HETATM    3  C4  UNL     1     -34.165   5.127   3.454  1.00 20.00     0.035 C 
HETATM    4  C5  UNL     1     -32.713   7.460   4.552  1.00 20.00     0.050 C 
HETATM    5  C6  UNL     1     -33.065   5.843   2.671  1.00 20.00     0.021 C 
HETATM    6  C7  UNL     1     -32.965   7.328   3.038  1.00 20.00     0.013 C 
HETATM    7  C8  UNL     1     -35.160   4.609   5.713  1.00 20.00     0.043 C 
HETATM    8  C9  UNL     1     -33.543   6.945   6.881  1.00 20.00     0.043 C 
HETATM    9  C10 UNL     1     -34.220   8.105   2.613  1.00 20.00     0.023 C 
ENDROOT
BRANCH   6  10
HETATM   10  C3  UNL     1     -31.791   7.908   2.289  1.00 20.00     0.240 C 
HETATM   11  O11 UNL     1     -31.432   9.077   2.395  1.00 20.00    -0.306 OA
ENDBRANCH   6  10
TORSDOF 1
