REMARK  0 active torsions:
REMARK  status: ('A' for Active; 'I' for Inactive)
ROOT
HETATM    1  C1  UNL     1     -35.191   4.991   6.108  1.00 20.00     0.028 C 
HETATM    2  C2  UNL     1     -35.107   4.085   4.880  1.00 20.00     0.017 C 
HETATM    3  C3  UNL     1     -33.903   5.785   6.299  1.00 20.00     0.188 C 
HETATM    4  C4  UNL     1     -34.724   4.872   3.634  1.00 20.00     0.140 C 
HETATM    5  O5  UNL     1     -32.904   6.615   2.714  1.00 20.00    -0.229 OA
HETATM    6  O6  UNL     1     -33.606   6.542   5.126  1.00 20.00    -0.296 OA
HETATM    7  S7  UNL     1     -33.102   5.671   3.863  1.00 20.00     0.152 S 
ENDROOT
TORSDOF 0
