REMARK  6 active torsions:
REMARK  status: ('A' for Active; 'I' for Inactive)
REMARK    1  A    between atoms: C1_1  and  C5_5 
REMARK    2  A    between atoms: C1_1  and  C8_8 
REMARK    3  A    between atoms: C6_6  and  O10_10 
REMARK    4  A    between atoms: C7_7  and  O11_11 
REMARK    5  A    between atoms: C8_8  and  O10_10 
REMARK    6  A    between atoms: C8_8  and  O11_11 
ROOT
HETATM    1  C8  UNL     1     -33.552   6.553   4.271  1.00 20.00     0.329 C 
ENDROOT
BRANCH   1   2
HETATM    2  C1  UNL     1     -32.437   7.090   3.379  1.00 20.00     0.181 C 
HETATM    3  O9  UNL     1     -31.333   6.548   3.328  1.00 20.00    -0.293 OA
BRANCH   2   4
HETATM    4  C5  UNL     1     -32.765   8.337   2.572  1.00 20.00     0.079 C 
HETATM    5  C2  UNL     1     -31.978   8.417   1.276  1.00 20.00     0.013 C 
ENDBRANCH   2   4
ENDBRANCH   1   2
BRANCH   1   6
HETATM    6  O10 UNL     1     -33.828   5.252   3.754  1.00 20.00    -0.355 OA
BRANCH   6   7
HETATM    7  C6  UNL     1     -34.655   5.300   2.599  1.00 20.00     0.167 C 
HETATM    8  C3  UNL     1     -34.903   3.888   2.112  1.00 20.00     0.033 C 
ENDBRANCH   6   7
ENDBRANCH   1   6
BRANCH   1   9
HETATM    9  O11 UNL     1     -33.107   6.497   5.619  1.00 20.00    -0.355 OA
BRANCH   9  10
HETATM   10  C7  UNL     1     -34.181   6.450   6.548  1.00 20.00     0.167 C 
HETATM   11  C4  UNL     1     -35.016   5.216   6.275  1.00 20.00     0.033 C 
ENDBRANCH   9  10
ENDBRANCH   1   9
TORSDOF 6
