REMARK  1 active torsions:
REMARK  status: ('A' for Active; 'I' for Inactive)
REMARK    1  A    between atoms: C6_6  and  C10_10 
ROOT
HETATM    1  C1  UNL     1     -35.670   4.822   5.169  1.00 20.00     0.052 C 
HETATM    2  C2  UNL     1     -36.092   5.238   3.965  1.00 20.00    -0.080 C 
HETATM    3  C3  UNL     1     -34.528   5.489   5.842  1.00 20.00     0.149 C 
HETATM    4  C4  UNL     1     -35.422   6.352   3.202  1.00 20.00     0.039 C 
HETATM    5  C5  UNL     1     -33.906   6.701   5.183  1.00 20.00     0.088 C 
HETATM    6  C6  UNL     1     -33.983   6.634   3.658  1.00 20.00     0.000 C 
HETATM    7  C7  UNL     1     -37.284   4.613   3.299  1.00 20.00     0.043 C 
HETATM    8  O11 UNL     1     -34.151   5.087   6.941  1.00 20.00    -0.293 OA
ENDROOT
BRANCH   6   9
HETATM    9  C10 UNL     1     -32.999   5.600   3.095  1.00 20.00    -0.018 C 
HETATM   10  C8  UNL     1     -33.042   5.594   1.568  1.00 20.00     0.010 C 
HETATM   11  C9  UNL     1     -31.583   5.881   3.591  1.00 20.00     0.010 C 
ENDBRANCH   6   9
TORSDOF 1
