REMARK  1 active torsions:
REMARK  status: ('A' for Active; 'I' for Inactive)
REMARK    1  A    between atoms: C3_3  and  C7_7 
ROOT
HETATM    1  C1  UNL     1     -33.308   6.163   4.457  1.00 20.00    -0.082 C 
HETATM    2  C2  UNL     1     -33.981   6.112   3.286  1.00 20.00    -0.081 C 
HETATM    3  C4  UNL     1     -32.039   6.973   4.620  1.00 20.00     0.035 C 
HETATM    4  C5  UNL     1     -33.541   6.906   2.070  1.00 20.00     0.050 C 
HETATM    5  C6  UNL     1     -31.444   7.490   3.310  1.00 20.00     0.021 C 
HETATM    6  C7  UNL     1     -32.518   8.023   2.354  1.00 20.00     0.013 C 
HETATM    7  C8  UNL     1     -33.728   5.457   5.720  1.00 20.00     0.043 C 
HETATM    8  C9  UNL     1     -35.205   5.271   3.035  1.00 20.00     0.043 C 
HETATM    9  C10 UNL     1     -33.201   9.280   2.913  1.00 20.00     0.023 C 
ENDROOT
BRANCH   6  10
HETATM   10  C3  UNL     1     -31.865   8.398   1.047  1.00 20.00     0.240 C 
HETATM   11  O11 UNL     1     -32.486   8.827   0.080  1.00 20.00    -0.306 OA
ENDBRANCH   6  10
TORSDOF 1
