REMARK  1 active torsions:
REMARK  status: ('A' for Active; 'I' for Inactive)
REMARK    1  A    between atoms: C7_7  and  C11_11 
ROOT
HETATM    1  C1  UNL     1     -32.302   8.659   1.679  1.00 20.00     0.127 C 
HETATM    2  C2  UNL     1     -31.403   8.563   2.890  1.00 20.00     0.078 C 
HETATM    3  C3  UNL     1     -33.439   7.678   1.509  1.00 20.00     0.079 C 
HETATM    4  C4  UNL     1     -31.157   7.140   3.375  1.00 20.00     0.008 C 
HETATM    5  C5  UNL     1     -34.197   7.378   2.797  1.00 20.00     0.013 C 
HETATM    6  C6  UNL     1     -32.253   6.630   4.310  1.00 20.00     0.006 C 
HETATM    7  C7  UNL     1     -33.568   6.241   3.618  1.00 20.00    -0.007 C 
HETATM    8  O12 UNL     1     -32.108   9.537   0.833  1.00 20.00    -0.298 OA
ENDROOT
BRANCH   7   9
HETATM    9  C11 UNL     1     -34.567   5.758   4.677  1.00 20.00    -0.048 C 
HETATM   10  C8  UNL     1     -33.959   4.584   5.459  1.00 20.00     0.015 C 
HETATM   11  C9  UNL     1     -35.861   5.297   3.990  1.00 20.00     0.015 C 
HETATM   12  C10 UNL     1     -34.885   6.906   5.646  1.00 20.00     0.015 C 
ENDBRANCH   7   9
TORSDOF 1
