REMARK  1 active torsions:
REMARK  status: ('A' for Active; 'I' for Inactive)
REMARK    1  A    between atoms: C3_3  and  C5_5 
ROOT
HETATM    1  C1  UNL     1     -33.978   4.672   5.498  1.00 20.00     0.179 C 
HETATM    2  C2  UNL     1     -33.776   6.717   5.689  1.00 20.00     0.179 C 
HETATM    3  C3  UNL     1     -33.969   5.809   4.460  1.00 20.00     0.011 C 
HETATM    4  C4  UNL     1     -35.302   6.007   3.747  1.00 20.00     0.020 C 
HETATM    5  O6  UNL     1     -34.054   5.619   6.592  1.00 20.00    -0.389 OA
ENDROOT
BRANCH   3   6
HETATM    6  C5  UNL     1     -32.792   5.783   3.495  1.00 20.00     0.128 C 
HETATM    7 CL7  UNL     1     -32.571   7.379   2.752  1.00 20.00    -0.130 Cl
ENDBRANCH   3   6
TORSDOF 1
