REMARK  0 active torsions:
REMARK  status: ('A' for Active; 'I' for Inactive)
ROOT
HETATM    1  C1  UNL     1     -33.155   5.920   4.370  1.00 20.00     0.084 C 
HETATM    2  C2  UNL     1     -35.575   5.549   4.079  1.00 20.00     0.048 C 
HETATM    3  C3  UNL     1     -34.645   6.260   6.305  1.00 20.00     0.048 C 
HETATM    4  C4  UNL     1     -34.384   5.456   5.032  1.00 20.00     0.118 C 
HETATM    5  N5  UNL     1     -32.187   6.290   3.847  1.00 20.00    -0.195 NA
HETATM    6 CL6  UNL     1     -34.128   3.737   5.475  1.00 20.00    -0.104 Cl
ENDROOT
TORSDOF 0
