REMARK  1 active torsions:
REMARK  status: ('A' for Active; 'I' for Inactive)
REMARK    1  A    between atoms: C1_1  and  S12_12 
ROOT
HETATM    1  C1  UNL     1     -32.938   7.022   2.381  1.00 20.00     0.066 C 
HETATM    2  C2  UNL     1     -34.129   7.566   3.097  1.00 20.00     0.074 C 
HETATM    3  C3  UNL     1     -33.544   4.614   4.471  1.00 20.00     0.042 A 
HETATM    4  C4  UNL     1     -34.712   6.350   3.798  1.00 20.00     0.029 A 
HETATM    5  C5  UNL     1     -34.162   5.849   5.181  1.00 20.00    -0.039 A 
HETATM    6  C6  UNL     1     -33.975   5.175   3.102  1.00 20.00     0.056 A 
HETATM    7  C7  UNL     1     -35.290   5.475   6.147  1.00 20.00     0.015 C 
HETATM    8  C8  UNL     1     -33.120   6.723   5.877  1.00 20.00     0.015 C 
HETATM    9  C9  UNL     1     -34.798   4.263   2.216  1.00 20.00     0.041 C 
HETATM   10  N11 UNL     1     -32.821   5.734   2.371  1.00 20.00    -0.276 NA
ENDROOT
BRANCH   1  11
HETATM   11  S12 UNL     1     -31.819   8.098   1.620  1.00 20.00    -0.119 SA
HETATM   12  C10 UNL     1     -32.598   9.679   2.022  1.00 20.00     0.097 C 
ENDBRANCH   1  11
TORSDOF 1
