REMARK  0 active torsions:
REMARK  status: ('A' for Active; 'I' for Inactive)
ROOT
HETATM    1  C1  UNL     1     -34.349   5.036   2.622  1.00 20.00     0.009 A 
HETATM    2  C2  UNL     1     -33.260   5.806   2.545  1.00 20.00     0.074 A 
HETATM    3  C3  UNL     1     -34.981   4.777   3.885  1.00 20.00     0.043 A 
HETATM    4  C4  UNL     1     -34.479   5.308   5.008  1.00 20.00     0.108 A 
HETATM    5  C5  UNL     1     -32.680   6.410   3.781  1.00 20.00     0.248 A 
HETATM    6  C6  UNL     1     -32.835   6.675   6.240  1.00 20.00     0.160 C 
HETATM    7  N7  UNL     1     -33.344   6.119   4.988  1.00 20.00    -0.309 N 
HETATM    8  O8  UNL     1     -31.675   7.112   3.670  1.00 20.00    -0.268 OA
HETATM    9 CL9  UNL     1     -35.246   4.991   6.521  1.00 20.00    -0.064 Cl
ENDROOT
TORSDOF 0
