REMARK  0 active torsions:
REMARK  status: ('A' for Active; 'I' for Inactive)
ROOT
HETATM    1  C1  UNL     1     -34.526   5.026   2.556  1.00 20.00    -0.002 A 
HETATM    2  C2  UNL     1     -35.047   4.498   3.785  1.00 20.00     0.010 A 
HETATM    3  C3  UNL     1     -33.761   6.122   2.534  1.00 20.00    -0.010 A 
HETATM    4  C4  UNL     1     -34.813   5.049   4.984  1.00 20.00    -0.015 A 
HETATM    5  C5  UNL     1     -33.965   6.282   5.062  1.00 20.00     0.166 A 
HETATM    6  C6  UNL     1     -33.378   6.894   3.772  1.00 20.00     0.035 A 
HETATM    7  C7  UNL     1     -35.358   4.495   6.262  1.00 20.00     0.052 C 
HETATM    8  C8  UNL     1     -31.848   6.903   3.902  1.00 20.00     0.027 C 
HETATM    9  C9  UNL     1     -33.903   8.332   3.645  1.00 20.00     0.027 C 
HETATM   10  O10 UNL     1     -33.747   6.794   6.162  1.00 20.00    -0.292 OA
ENDROOT
TORSDOF 0
