REMARK  0 active torsions:
REMARK  status: ('A' for Active; 'I' for Inactive)
ROOT
HETATM    1  C1  UNL     1     -34.283   6.083   5.128  1.00 20.00     0.062 C 
HETATM    2  C2  UNL     1     -34.312   5.314   2.746  1.00 20.00     0.113 C 
HETATM    3  C3  UNL     1     -33.162   6.249   3.151  1.00 20.00     0.056 C 
HETATM    4  C4  UNL     1     -34.588   6.154   6.586  1.00 20.00     0.078 C 
HETATM    5  C5  UNL     1     -31.819   5.666   2.700  1.00 20.00     0.041 C 
HETATM    6  C6  UNL     1     -33.330   7.656   2.557  1.00 20.00     0.041 C 
HETATM    7  N7  UNL     1     -33.126   6.372   4.630  1.00 20.00    -0.277 NA
HETATM    8  S8  UNL     1     -35.540   5.544   4.049  1.00 20.00    -0.113 SA
ENDROOT
TORSDOF 0
