REMARK  0 active torsions:
REMARK  status: ('A' for Active; 'I' for Inactive)
ROOT
HETATM    1  C1  UNL     1     -34.443   5.723   5.552  1.00 20.00     0.021 A 
HETATM    2  C2  UNL     1     -34.478   6.354   4.363  1.00 20.00     0.004 A 
HETATM    3  C3  UNL     1     -36.106   4.426   4.503  1.00 20.00     0.145 A 
HETATM    4  C4  UNL     1     -33.563   6.068   6.713  1.00 20.00     0.069 C 
HETATM    5  C5  UNL     1     -33.685   7.523   3.886  1.00 20.00     0.058 C 
HETATM    6  C6  UNL     1     -35.426   3.858   6.876  1.00 20.00     0.157 C 
HETATM    7  N7  UNL     1     -35.338   4.650   5.650  1.00 20.00    -0.340 N 
HETATM    8  S8  UNL     1     -37.271   3.266   4.215  1.00 20.00    -0.052 SA
HETATM    9  S9  UNL     1     -35.647   5.631   3.289  1.00 20.00    -0.063 SA
ENDROOT
TORSDOF 0
