REMARK  0 active torsions:
REMARK  status: ('A' for Active; 'I' for Inactive)
ROOT
HETATM    1  C1  UNL     1     -33.542   6.261   4.657  1.00 20.00     0.149 C 
HETATM    2  C2  UNL     1     -33.666   6.465   6.155  1.00 20.00     0.080 C 
HETATM    3  C3  UNL     1     -33.910   5.147   6.873  1.00 20.00     0.007 C 
HETATM    4  C4  UNL     1     -35.093   4.389   6.280  1.00 20.00     0.003 C 
HETATM    5  C5  UNL     1     -34.877   4.133   4.788  1.00 20.00     0.033 C 
HETATM    6  C6  UNL     1     -34.632   5.421   3.988  1.00 20.00     0.093 C 
HETATM    7  C7  UNL     1     -35.899   6.263   3.828  1.00 20.00     0.041 C 
HETATM    8  O8  UNL     1     -32.654   6.837   4.027  1.00 20.00    -0.296 OA
HETATM    9 CL9  UNL     1     -34.060   4.959   2.347  1.00 20.00    -0.111 Cl
ENDROOT
TORSDOF 0
