REMARK  0 active torsions:
REMARK  status: ('A' for Active; 'I' for Inactive)
ROOT
HETATM    1  C1  UNL     1     -34.395   5.632   5.148  1.00 20.00     0.061 C 
HETATM    2  C2  UNL     1     -33.993   5.627   2.682  1.00 20.00     0.107 C 
HETATM    3  C3  UNL     1     -33.584   6.883   3.447  1.00 20.00     0.114 C 
HETATM    4  C4  UNL     1     -34.673   5.117   6.519  1.00 20.00     0.078 C 
HETATM    5  C5  UNL     1     -32.204   7.370   3.030  1.00 20.00     0.035 C 
HETATM    6  N6  UNL     1     -33.568   6.594   4.901  1.00 20.00    -0.282 NA
HETATM    7  S7  UNL     1     -35.182   4.859   3.798  1.00 20.00    -0.113 SA
ENDROOT
TORSDOF 0
