REMARK  3 active torsions:
REMARK  status: ('A' for Active; 'I' for Inactive)
REMARK    1  A    between atoms: C3_3  and  C8_8 
REMARK    2  A    between atoms: C6_6  and  C7_7 
REMARK    3  A    between atoms: C7_7  and  C8_8 
ROOT
HETATM    1  C1  UNL     1     -34.373   4.923   5.663  1.00 20.00     0.197 C 
HETATM    2  C2  UNL     1     -34.770   4.677   4.234  1.00 20.00     0.197 C 
HETATM    3  C3  UNL     1     -33.646   6.628   4.361  1.00 20.00     0.263 C 
HETATM    4  O9  UNL     1     -34.081   6.320   5.692  1.00 20.00    -0.359 OA
HETATM    5  O10 UNL     1     -33.868   5.504   3.501  1.00 20.00    -0.359 OA
ENDROOT
BRANCH   3   6
HETATM    6  C8  UNL     1     -32.169   6.973   4.367  1.00 20.00     0.037 C 
HETATM    7  C5  UNL     1     -31.925   8.177   5.278  1.00 20.00     0.015 C 
BRANCH   6   8
HETATM    8  C7  UNL     1     -31.684   7.218   2.926  1.00 20.00     0.009 C 
BRANCH   8   9
HETATM    9  C6  UNL     1     -32.368   8.406   2.246  1.00 20.00    -0.004 C 
HETATM   10  C4  UNL     1     -31.804   8.648   0.854  1.00 20.00     0.005 C 
ENDBRANCH   8   9
ENDBRANCH   6   8
ENDBRANCH   3   6
TORSDOF 3
