REMARK  1 active torsions:
REMARK  status: ('A' for Active; 'I' for Inactive)
REMARK    1  A    between atoms: C1_1  and  C7_7 
ROOT
HETATM    1  C2  UNL     1     -34.217   5.231   6.437  1.00 20.00     0.001 C 
HETATM    2  C3  UNL     1     -33.451   5.632   2.540  1.00 20.00     0.016 C 
HETATM    3  C4  UNL     1     -35.437   4.915   5.582  1.00 20.00     0.005 C 
HETATM    4  C5  UNL     1     -33.888   6.668   6.058  1.00 20.00     0.006 C 
HETATM    5  C6  UNL     1     -34.418   4.694   3.242  1.00 20.00     0.006 C 
HETATM    6  C7  UNL     1     -32.934   6.502   3.679  1.00 20.00     0.091 C 
HETATM    7  C8  UNL     1     -35.145   5.593   4.245  1.00 20.00    -0.010 C 
HETATM    8  C9  UNL     1     -34.171   6.750   4.555  1.00 20.00     0.004 C 
ENDROOT
BRANCH   6   9
HETATM    9  C1  UNL     1     -32.364   7.778   3.150  1.00 20.00     0.177 C 
HETATM   10  O10 UNL     1     -32.473   8.776   3.915  1.00 20.00    -0.648 OA
HETATM   11  O11 UNL     1     -31.845   7.691   2.002  1.00 20.00    -0.648 OA
ENDBRANCH   6   9
TORSDOF 1
