REMARK  3 active torsions:
REMARK  status: ('A' for Active; 'I' for Inactive)
REMARK    1  A    between atoms: C3_3  and  C9_9 
REMARK    2  A    between atoms: C8_8  and  O11_11 
REMARK    3  A    between atoms: N10_10  and  O11_11 
ROOT
HETATM    1  C1  UNL     1     -31.502   8.788  -0.325  1.00 20.00     0.014 C 
HETATM    2  C2  UNL     1     -31.794   8.564   0.818  1.00 20.00    -0.089 C 
HETATM    3  C8  UNL     1     -32.149   8.294   2.211  1.00 20.00     0.296 C 
ENDROOT
BRANCH   3   4
HETATM    4  O11 UNL     1     -32.716   6.999   2.338  1.00 20.00    -0.244 OA
BRANCH   4   5
HETATM    5  N10 UNL     1     -33.036   6.793   3.685  1.00 20.00    -0.142 NA
HETATM    6  C3  UNL     1     -33.563   5.620   3.877  1.00 20.00     0.043 C 
HETATM    7  C4  UNL     1     -33.781   4.636   2.742  1.00 20.00     0.069 C 
BRANCH   6   8
HETATM    8  C9  UNL     1     -33.988   5.214   5.308  1.00 20.00    -0.009 C 
HETATM    9  C5  UNL     1     -33.217   3.956   5.732  1.00 20.00     0.021 C 
HETATM   10  C6  UNL     1     -35.501   4.952   5.336  1.00 20.00     0.021 C 
HETATM   11  C7  UNL     1     -33.674   6.335   6.319  1.00 20.00     0.021 C 
ENDBRANCH   6   8
ENDBRANCH   4   5
ENDBRANCH   3   4
TORSDOF 3
