REMARK  1 active torsions:
REMARK  status: ('A' for Active; 'I' for Inactive)
REMARK    1  A    between atoms: C4_4  and  C11_11 
ROOT
HETATM    1  C1  UNL     1     -34.452   6.971   2.877  1.00 20.00     0.053 C 
HETATM    2  C2  UNL     1     -33.250   7.333   3.338  1.00 20.00    -0.072 C 
HETATM    3  C3  UNL     1     -35.015   6.052   3.871  1.00 20.00     0.155 C 
HETATM    4  C4  UNL     1     -34.163   5.994   5.115  1.00 20.00     0.075 C 
HETATM    5  C5  UNL     1     -32.840   6.672   4.649  1.00 20.00    -0.013 C 
HETATM    6  C6  UNL     1     -32.344   8.277   2.617  1.00 20.00     0.044 C 
HETATM    7  C7  UNL     1     -32.397   7.705   5.697  1.00 20.00     0.020 C 
HETATM    8  C8  UNL     1     -31.690   5.684   4.395  1.00 20.00     0.020 C 
HETATM    9  O12 UNL     1     -36.070   5.458   3.701  1.00 20.00    -0.293 OA
ENDROOT
BRANCH   4  10
HETATM   10  C11 UNL     1     -34.065   4.582   5.669  1.00 20.00    -0.010 C 
HETATM   11  C9  UNL     1     -35.299   4.239   6.505  1.00 20.00     0.010 C 
HETATM   12  C10 UNL     1     -33.888   3.566   4.540  1.00 20.00     0.010 C 
ENDBRANCH   4  10
TORSDOF 1
