REMARK  1 active torsions:
REMARK  status: ('A' for Active; 'I' for Inactive)
REMARK    1  A    between atoms: C6_6  and  O11_11 
ROOT
HETATM    1  C1  UNL     1     -34.261   5.499   3.023  1.00 20.00     0.011 A 
HETATM    2  C2  UNL     1     -34.954   4.661   3.900  1.00 20.00     0.037 A 
HETATM    3  C3  UNL     1     -33.968   5.781   5.820  1.00 20.00     0.044 A 
HETATM    4  C4  UNL     1     -33.417   6.461   3.555  1.00 20.00    -0.048 A 
HETATM    5  C5  UNL     1     -33.275   6.598   4.943  1.00 20.00    -0.049 A 
HETATM    6  C6  UNL     1     -34.808   4.801   5.289  1.00 20.00     0.066 A 
HETATM    7  C7  UNL     1     -32.354   7.729   5.280  1.00 20.00     0.040 C 
HETATM    8  C8  UNL     1     -31.610   7.907   3.949  1.00 20.00     0.014 C 
HETATM    9  C9  UNL     1     -32.601   7.502   2.838  1.00 20.00     0.015 C 
HETATM   10  C10 UNL     1     -31.892   7.016   1.583  1.00 20.00     0.015 C 
ENDROOT
BRANCH   6  11
HETATM   11  O11 UNL     1     -35.500   3.977   6.125  1.00 20.00    -0.361 OA
HETATM   12  H23 UNL     1     -36.042   3.357   5.612  1.00 20.00     0.217 HD
ENDBRANCH   6  11
TORSDOF 1
