REMARK  0 active torsions:
REMARK  status: ('A' for Active; 'I' for Inactive)
ROOT
HETATM    1  C1  UNL     1     -33.401   6.368   5.247  1.00 20.00    -0.002 A 
HETATM    2  C2  UNL     1     -34.392   5.470   5.109  1.00 20.00    -0.064 A 
HETATM    3  C3  UNL     1     -32.698   6.617   3.967  1.00 20.00     0.215 A 
HETATM    4  C4  UNL     1     -34.617   4.891   3.744  1.00 20.00     0.117 A 
HETATM    5  C5  UNL     1     -32.946   7.104   6.460  1.00 20.00     0.053 C 
HETATM    6  C6  UNL     1     -35.307   4.983   6.189  1.00 20.00     0.045 C 
HETATM    7  O7  UNL     1     -31.763   7.388   3.821  1.00 20.00    -0.280 OA
HETATM    8  S8  UNL     1     -33.380   5.659   2.672  1.00 20.00    -0.083 SA
ENDROOT
TORSDOF 0
