REMARK  2 active torsions:
REMARK  status: ('A' for Active; 'I' for Inactive)
REMARK    1  A    between atoms: C1_1  and  C5_5 
REMARK    2  A    between atoms: C2_2  and  C6_6 
ROOT
HETATM    1  C1  UNL     1     -33.823   6.223   4.279  1.00 20.00    -0.063 C 
HETATM    2  C2  UNL     1     -33.091   7.016   3.752  1.00 20.00    -0.063 C 
ENDROOT
BRANCH   1   3
HETATM    3  C5  UNL     1     -34.695   5.277   4.907  1.00 20.00     0.141 A 
HETATM    4  C3  UNL     1     -34.632   5.109   6.406  1.00 20.00     0.221 A 
HETATM    5  O9  UNL     1     -33.992   4.185   5.516  1.00 20.00    -0.362 OA
HETATM    6  C7  UNL     1     -35.924   4.861   4.167  1.00 20.00     0.063 C 
ENDBRANCH   1   3
BRANCH   2   7
HETATM    7  C6  UNL     1     -32.201   7.982   3.111  1.00 20.00     0.141 A 
HETATM    8  C4  UNL     1     -32.822   9.099   2.334  1.00 20.00     0.221 A 
HETATM    9  O10 UNL     1     -32.296   7.930   1.692  1.00 20.00    -0.362 OA
HETATM   10  C8  UNL     1     -30.825   8.083   3.647  1.00 20.00     0.063 C 
ENDBRANCH   2   7
TORSDOF 2
