REMARK  2 active torsions:
REMARK  status: ('A' for Active; 'I' for Inactive)
REMARK    1  A    between atoms: C3_3  and  C6_6 
REMARK    2  A    between atoms: C6_6  and  C7_7 
ROOT
HETATM    1  C1  UNL     1     -32.446   6.594   2.572  1.00 20.00     0.281 C 
HETATM    2  C2  UNL     1     -32.599   7.553   3.744  1.00 20.00     0.106 C 
HETATM    3  C3  UNL     1     -33.974   5.306   3.814  1.00 20.00     0.282 C 
HETATM    4  N8  UNL     1     -33.686   5.814   2.465  1.00 20.00     0.098 N 
HETATM    5  S9  UNL     1     -33.410   6.555   5.013  1.00 20.00    -0.132 SA
HETATM    6  H24 UNL     1     -34.437   6.446   2.183  1.00 20.00     0.317 HD
ENDROOT
BRANCH   3   7
HETATM    7  C6  UNL     1     -35.458   5.020   3.990  1.00 20.00     0.050 C 
BRANCH   7   8
HETATM    8  C7  UNL     1     -35.768   4.075   5.164  1.00 20.00    -0.020 C 
HETATM    9  C4  UNL     1     -35.292   4.636   6.504  1.00 20.00     0.009 C 
HETATM   10  C5  UNL     1     -37.272   3.798   5.224  1.00 20.00     0.009 C 
ENDBRANCH   7   8
ENDBRANCH   3   7
TORSDOF 2
