REMARK  3 active torsions:
REMARK  status: ('A' for Active; 'I' for Inactive)
REMARK    1  A    between atoms: C4_4  and  C11_11 
REMARK    2  A    between atoms: C5_5  and  C9_9 
REMARK    3  A    between atoms: C8_8  and  C11_11 
ROOT
HETATM    1  C1  UNL     1     -35.786   4.924   4.317  1.00 20.00    -0.030 C 
HETATM    2  C2  UNL     1     -35.323   6.080   3.823  1.00 20.00    -0.025 C 
HETATM    3  C6  UNL     1     -34.915   3.904   4.980  1.00 20.00     0.027 C 
HETATM    4  C7  UNL     1     -33.418   4.140   4.758  1.00 20.00     0.016 C 
HETATM    5  C8  UNL     1     -33.878   6.507   3.897  1.00 20.00     0.025 C 
HETATM    6  C9  UNL     1     -33.030   5.620   4.836  1.00 20.00     0.055 C 
ENDROOT
BRANCH   5   7
HETATM    7  C11 UNL     1     -33.286   6.529   2.484  1.00 20.00     0.011 C 
HETATM    8  C10 UNL     1     -32.957   5.112   2.022  1.00 20.00     0.015 C 
BRANCH   7   9
HETATM    9  C4  UNL     1     -32.052   7.391   2.454  1.00 20.00    -0.032 C 
HETATM   10  C3  UNL     1     -31.931   8.492   1.704  1.00 20.00     0.007 C 
ENDBRANCH   7   9
ENDBRANCH   5   7
BRANCH   6  11
HETATM   11  C5  UNL     1     -33.141   6.095   6.258  1.00 20.00     0.236 C 
HETATM   12  O12 UNL     1     -33.838   7.043   6.602  1.00 20.00    -0.306 OA
ENDBRANCH   6  11
TORSDOF 3
