REMARK  0 active torsions:
REMARK  status: ('A' for Active; 'I' for Inactive)
ROOT
HETATM    1  C1  UNL     1     -33.428   6.744   5.251  1.00 20.00    -0.014 A 
HETATM    2  C2  UNL     1     -34.393   5.816   5.180  1.00 20.00    -0.070 A 
HETATM    3  C3  UNL     1     -32.847   6.822   3.897  1.00 20.00     0.156 A 
HETATM    4  C4  UNL     1     -33.473   5.833   2.960  1.00 20.00     0.092 A 
HETATM    5  C5  UNL     1     -34.578   5.202   3.811  1.00 20.00     0.018 A 
HETATM    6  C6  UNL     1     -32.934   7.583   6.367  1.00 20.00     0.052 C 
HETATM    7  C7  UNL     1     -35.252   5.342   6.308  1.00 20.00     0.044 C 
HETATM    8  C8  UNL     1     -35.960   5.475   3.222  1.00 20.00     0.015 C 
HETATM    9  O9  UNL     1     -31.948   7.591   3.590  1.00 20.00    -0.293 OA
ENDROOT
TORSDOF 0
