REMARK  2 active torsions:
REMARK  status: ('A' for Active; 'I' for Inactive)
REMARK    1  A    between atoms: C1_1  and  C5_5 
REMARK    2  A    between atoms: C2_2  and  C6_6 
ROOT
HETATM    1  C1  UNL     1     -33.196   6.755   3.611  1.00 20.00    -0.063 C 
HETATM    2  C2  UNL     1     -33.740   6.009   4.379  1.00 20.00    -0.063 C 
ENDROOT
BRANCH   1   3
HETATM    3  C5  UNL     1     -32.546   7.645   2.696  1.00 20.00     0.141 A 
HETATM    4  C3  UNL     1     -31.176   7.285   2.176  1.00 20.00     0.221 A 
HETATM    5  O9  UNL     1     -32.359   7.071   1.395  1.00 20.00    -0.362 OA
HETATM    6  C7  UNL     1     -33.000   9.068   2.664  1.00 20.00     0.063 C 
ENDBRANCH   1   3
BRANCH   2   7
HETATM    7  C6  UNL     1     -34.403   5.101   5.314  1.00 20.00     0.141 A 
HETATM    8  C4  UNL     1     -33.881   5.034   6.713  1.00 20.00     0.221 A 
HETATM    9  O10 UNL     1     -35.040   5.806   6.374  1.00 20.00    -0.362 OA
HETATM   10  C8  UNL     1     -35.193   3.996   4.727  1.00 20.00     0.063 C 
ENDBRANCH   2   7
TORSDOF 2
