REMARK  2 active torsions:
REMARK  status: ('A' for Active; 'I' for Inactive)
REMARK    1  A    between atoms: C3_3  and  C6_6 
REMARK    2  A    between atoms: C6_6  and  C7_7 
ROOT
HETATM    1  C1  UNL     1     -34.158   5.001   6.332  1.00 20.00     0.281 C 
HETATM    2  C2  UNL     1     -35.235   4.213   5.604  1.00 20.00     0.106 C 
HETATM    3  C3  UNL     1     -33.969   6.076   4.233  1.00 20.00     0.282 C 
HETATM    4  N8  UNL     1     -34.032   6.314   5.683  1.00 20.00     0.098 N 
HETATM    5  S9  UNL     1     -34.936   4.580   3.862  1.00 20.00    -0.132 SA
HETATM    6  H24 UNL     1     -34.829   6.905   5.912  1.00 20.00     0.317 HD
ENDROOT
BRANCH   3   7
HETATM    7  C6  UNL     1     -32.526   5.905   3.770  1.00 20.00     0.050 C 
BRANCH   7   8
HETATM    8  C7  UNL     1     -31.787   7.238   3.557  1.00 20.00    -0.020 C 
HETATM    9  C4  UNL     1     -32.460   8.115   2.501  1.00 20.00     0.009 C 
HETATM   10  C5  UNL     1     -31.696   7.999   4.881  1.00 20.00     0.009 C 
ENDBRANCH   7   8
ENDBRANCH   3   7
TORSDOF 2
