REMARK  3 active torsions:
REMARK  status: ('A' for Active; 'I' for Inactive)
REMARK    1  A    between atoms: C3_3  and  C10_10 
REMARK    2  A    between atoms: C7_7  and  C11_11 
REMARK    3  A    between atoms: C10_10  and  C11_11 
ROOT
HETATM    1  C1  UNL     1     -33.269   9.171   3.340  1.00 20.00    -0.024 C 
HETATM    2  C2  UNL     1     -32.467   8.928   2.289  1.00 20.00    -0.087 C 
HETATM    3  C4  UNL     1     -33.490   8.199   4.463  1.00 20.00     0.032 C 
HETATM    4  C5  UNL     1     -31.685   7.645   2.160  1.00 20.00     0.034 C 
HETATM    5  C6  UNL     1     -31.659   6.807   3.443  1.00 20.00     0.009 C 
HETATM    6  C7  UNL     1     -33.018   6.768   4.154  1.00 20.00    -0.007 C 
HETATM    7  C8  UNL     1     -32.301   9.917   1.173  1.00 20.00     0.043 C 
ENDROOT
BRANCH   6   8
HETATM    8  C11 UNL     1     -34.060   5.995   3.339  1.00 20.00    -0.008 C 
HETATM    9  C9  UNL     1     -33.382   4.842   2.591  1.00 20.00     0.011 C 
BRANCH   8  10
HETATM   10  C10 UNL     1     -35.178   5.483   4.259  1.00 20.00     0.074 C 
BRANCH  10  11
HETATM   11  C3  UNL     1     -34.835   4.207   4.995  1.00 20.00     0.231 C 
HETATM   12  O12 UNL     1     -33.934   4.091   5.818  1.00 20.00    -0.307 OA
ENDBRANCH  10  11
ENDBRANCH   8  10
ENDBRANCH   6   8
TORSDOF 3
