REMARK  1 active torsions:
REMARK  status: ('A' for Active; 'I' for Inactive)
REMARK    1  A    between atoms: C2_2  and  O3_3 
ROOT
HETATM    1  C2  UNL     1     -34.424   5.609   4.025  1.00 20.00     0.524 C 
HETATM    2  F4  UNL     1     -33.811   5.256   2.875  1.00 20.00    -0.144 F 
HETATM    3  F5  UNL     1     -35.740   5.328   3.913  1.00 20.00    -0.144 F 
HETATM    4  F6  UNL     1     -34.265   6.937   4.205  1.00 20.00    -0.144 F 
ENDROOT
BRANCH   1   5
HETATM    5  O3  UNL     1     -33.847   4.885   5.098  1.00 20.00    -0.303 OA
HETATM    6  C1  UNL     1     -34.446   5.207   6.346  1.00 20.00     0.211 C 
ENDBRANCH   1   5
TORSDOF 1
