REMARK  0 active torsions:
REMARK  status: ('A' for Active; 'I' for Inactive)
ROOT
HETATM    1  C1  UNL     1     -33.309   7.965   6.839  1.00 20.00     0.002 A 
HETATM    2  C2  UNL     1     -32.842   8.098   5.526  1.00 20.00     0.016 A 
HETATM    3  C3  UNL     1     -34.134   6.883   7.213  1.00 20.00     0.007 A 
HETATM    4  C4  UNL     1     -33.256   7.151   4.615  1.00 20.00     0.017 A 
HETATM    5  C5  UNL     1     -34.538   5.935   6.267  1.00 20.00    -0.051 A 
HETATM    6  C6  UNL     1     -34.115   6.122   4.962  1.00 20.00    -0.033 A 
HETATM    7  C7  UNL     1     -32.841   6.909   3.237  1.00 20.00     0.160 C 
HETATM    8  C8  UNL     1     -35.282   4.679   6.632  1.00 20.00     0.039 C 
HETATM    9  C9  UNL     1     -33.376   5.556   2.790  1.00 20.00     0.093 C 
HETATM   10  C10 UNL     1     -35.708   3.819   5.422  1.00 20.00     0.005 C 
HETATM   11  C11 UNL     1     -34.678   3.829   4.275  1.00 20.00     0.010 C 
HETATM   12  C12 UNL     1     -34.496   5.264   3.799  1.00 20.00     0.027 C 
HETATM   13  O13 UNL     1     -32.127   7.655   2.593  1.00 20.00    -0.292 OA
ENDROOT
TORSDOF 0
