REMARK  2 active torsions:
REMARK  status: ('A' for Active; 'I' for Inactive)
REMARK    1  A    between atoms: C2_2  and  C3_3 
REMARK    2  A    between atoms: C3_3  and  N4_4 
ROOT
HETATM    1  C1  UNL     1     -35.789   5.472   3.721  1.00 20.00     0.055 C 
HETATM    2  C3  UNL     1     -34.667   5.242   4.739  1.00 20.00     0.145 C 
HETATM    3 CL7  UNL     1     -34.875   3.578   5.410  1.00 20.00    -0.097 Cl
ENDROOT
BRANCH   2   4
HETATM    4  C2  UNL     1     -33.267   5.313   4.109  1.00 20.00     0.160 C 
HETATM    5 CL6  UNL     1     -32.917   6.886   3.339  1.00 20.00    -0.127 Cl
ENDBRANCH   2   4
BRANCH   2   6
HETATM    6  N4  UNL     1     -34.731   6.176   5.924  1.00 20.00    -0.036 NA
HETATM    7  O5  UNL     1     -33.832   6.002   6.754  1.00 20.00    -0.099 OA
ENDBRANCH   2   6
TORSDOF 2
