REMARK  4 active torsions:
REMARK  status: ('A' for Active; 'I' for Inactive)
REMARK    1  A    between atoms: C4_4  and  C5_5 
REMARK    2  A    between atoms: C5_5  and  C7_7 
REMARK    3  A    between atoms: C6_6  and  O8_8 
REMARK    4  A    between atoms: C7_7  and  O8_8 
ROOT
HETATM    1  C3  UNL     1     -33.871   5.885   2.491  1.00 20.00     0.039 C 
HETATM    2  C7  UNL     1     -33.437   6.561   3.784  1.00 20.00     0.117 C 
ENDROOT
BRANCH   2   3
HETATM    3  C5  UNL     1     -31.986   7.047   3.705  1.00 20.00     0.031 C 
BRANCH   3   4
HETATM    4  C4  UNL     1     -31.667   7.688   2.351  1.00 20.00    -0.002 C 
HETATM    5  C1  UNL     1     -32.585   8.865   2.063  1.00 20.00     0.005 C 
ENDBRANCH   3   4
ENDBRANCH   2   3
BRANCH   2   6
HETATM    6  O8  UNL     1     -33.585   5.634   4.857  1.00 20.00    -0.387 OA
BRANCH   6   7
HETATM    7  C6  UNL     1     -34.935   5.556   5.291  1.00 20.00     0.163 C 
HETATM    8  C2  UNL     1     -35.030   4.559   6.426  1.00 20.00     0.033 C 
ENDBRANCH   6   7
ENDBRANCH   2   6
TORSDOF 4
