REMARK  2 active torsions:
REMARK  status: ('A' for Active; 'I' for Inactive)
REMARK    1  A    between atoms: C5_5  and  O12_12 
REMARK    2  A    between atoms: C11_11  and  O12_12 
ROOT
HETATM    1  C1  UNL     1     -35.344   6.142   3.611  1.00 20.00     0.036 C 
HETATM    2  C2  UNL     1     -33.684   6.008   5.509  1.00 20.00     0.013 C 
HETATM    3  C3  UNL     1     -34.205   8.252   4.441  1.00 20.00     0.040 C 
HETATM    4  C4  UNL     1     -34.256   5.289   4.277  1.00 20.00    -0.015 C 
HETATM    5  C5  UNL     1     -34.846   7.540   3.246  1.00 20.00     0.122 C 
HETATM    6  C6  UNL     1     -33.140   7.422   5.202  1.00 20.00    -0.045 C 
HETATM    7  C7  UNL     1     -34.818   3.922   4.671  1.00 20.00     0.010 C 
HETATM    8  C8  UNL     1     -32.828   8.133   6.536  1.00 20.00     0.015 C 
HETATM    9  C9  UNL     1     -31.821   7.334   4.411  1.00 20.00     0.015 C 
ENDROOT
BRANCH   5  10
HETATM   10  O12 UNL     1     -33.914   7.467   2.173  1.00 20.00    -0.386 OA
BRANCH  10  11
HETATM   11  C11 UNL     1     -33.434   8.755   1.813  1.00 20.00     0.163 C 
HETATM   12  C10 UNL     1     -32.451   8.613   0.671  1.00 20.00     0.033 C 
ENDBRANCH  10  11
ENDBRANCH   5  10
TORSDOF 2
