REMARK  0 active torsions:
REMARK  status: ('A' for Active; 'I' for Inactive)
ROOT
HETATM    1  C1  UNL     1     -32.486   9.110   1.609  1.00 20.00     0.095 C 
HETATM    2  C2  UNL     1     -34.019   5.322   5.665  1.00 20.00     0.095 C 
HETATM    3  C3  UNL     1     -31.469   7.355   2.933  1.00 20.00    -0.007 C 
HETATM    4  C4  UNL     1     -35.067   6.951   4.212  1.00 20.00    -0.007 C 
HETATM    5  C5  UNL     1     -32.516   7.858   2.271  1.00 20.00     0.024 C 
HETATM    6  C6  UNL     1     -34.126   6.030   4.444  1.00 20.00     0.024 C 
HETATM    7  C7  UNL     1     -31.748   5.997   3.484  1.00 20.00     0.039 C 
HETATM    8  C8  UNL     1     -34.994   7.499   2.826  1.00 20.00     0.039 C 
HETATM    9  C9  UNL     1     -33.689   6.917   2.263  1.00 20.00     0.042 C 
HETATM   10  C10 UNL     1     -33.252   5.798   3.243  1.00 20.00     0.042 C 
HETATM   11  N11 UNL     1     -32.462  10.135   1.066  1.00 20.00    -0.192 NA
HETATM   12  N12 UNL     1     -33.930   4.741   6.666  1.00 20.00    -0.192 NA
ENDROOT
TORSDOF 0
