REMARK  2 active torsions:
REMARK  status: ('A' for Active; 'I' for Inactive)
REMARK    1  A    between atoms: C1_1  and  C4_4 
REMARK    2  A    between atoms: C4_4  and  C5_5 
ROOT
HETATM    1  C1  UNL     1     -33.669   5.997   2.795  1.00 20.00     0.244 A 
HETATM    2  C3  UNL     1     -32.322   7.968   2.362  1.00 20.00     0.147 C 
HETATM    3  N6  UNL     1     -32.985   7.145   3.366  1.00 20.00    -0.168 NA
HETATM    4  O7  UNL     1     -32.329   5.855   3.273  1.00 20.00    -0.279 OA
ENDROOT
BRANCH   1   5
HETATM    5  C4  UNL     1     -34.692   5.279   3.596  1.00 20.00     0.051 C 
BRANCH   5   6
HETATM    6  C5  UNL     1     -34.381   5.345   5.090  1.00 20.00    -0.001 C 
HETATM    7  C2  UNL     1     -35.444   4.634   5.913  1.00 20.00     0.005 C 
ENDBRANCH   5   6
ENDBRANCH   1   5
TORSDOF 2
