REMARK  2 active torsions:
REMARK  status: ('A' for Active; 'I' for Inactive)
REMARK    1  A    between atoms: C4_4  and  C8_8 
REMARK    2  A    between atoms: C8_8  and  N9_9 
ROOT
HETATM    1  C1  UNL     1     -35.061   4.354   6.103  1.00 20.00    -0.003 A 
HETATM    2  C2  UNL     1     -34.972   4.737   4.718  1.00 20.00     0.004 A 
HETATM    3  C3  UNL     1     -34.540   5.321   6.871  1.00 20.00    -0.022 A 
HETATM    4  C4  UNL     1     -34.395   5.945   4.624  1.00 20.00    -0.049 A 
HETATM    5  C5  UNL     1     -34.056   6.446   6.002  1.00 20.00     0.063 A 
ENDROOT
BRANCH   4   6
HETATM    6  C8  UNL     1     -34.102   6.729   3.400  1.00 20.00     0.306 C 
BRANCH   6   7
HETATM    7  N9  UNL     1     -32.681   6.949   3.342  1.00 20.00     0.083 N 
HETATM    8  C6  UNL     1     -32.351   8.080   2.462  1.00 20.00     0.309 C 
HETATM    9  C7  UNL     1     -31.973   5.745   2.881  1.00 20.00     0.309 C 
ENDBRANCH   6   7
ENDBRANCH   4   6
TORSDOF 2
