REMARK  1 active torsions:
REMARK  status: ('A' for Active; 'I' for Inactive)
REMARK    1  A    between atoms: C7_7  and  O9_9 
ROOT
HETATM    1  C1  UNL     1     -34.514   5.364   6.086  1.00 20.00    -0.023 C 
HETATM    2  C2  UNL     1     -34.913   4.341   5.314  1.00 20.00    -0.023 C 
HETATM    3  C3  UNL     1     -35.327   7.039   4.470  1.00 20.00     0.012 C 
HETATM    4  C4  UNL     1     -35.790   5.854   3.577  1.00 20.00     0.012 C 
HETATM    5  C5  UNL     1     -34.065   6.471   5.160  1.00 20.00     0.037 C 
HETATM    6  C6  UNL     1     -34.729   4.770   3.876  1.00 20.00     0.037 C 
HETATM    7  C7  UNL     1     -33.454   5.606   4.050  1.00 20.00     0.136 C 
ENDROOT
BRANCH   7   8
HETATM    8  O9  UNL     1     -33.103   6.350   2.901  1.00 20.00    -0.389 OA
HETATM    9  C8  UNL     1     -32.144   7.360   3.197  1.00 20.00     0.202 C 
ENDBRANCH   7   8
TORSDOF 1
