REMARK  2 active torsions:
REMARK  status: ('A' for Active; 'I' for Inactive)
REMARK    1  A    between atoms: C2_2  and  C3_3 
REMARK    2  A    between atoms: C3_3  and  O10_10 
ROOT
HETATM    1  C1  UNL     1     -33.548   6.042   4.043  1.00 20.00    -0.074 C 
HETATM    2  C2  UNL     1     -32.733   7.041   3.689  1.00 20.00     0.085 C 
HETATM    3  C4  UNL     1     -33.940   5.721   5.457  1.00 20.00     0.034 C 
HETATM    4  C5  UNL     1     -34.196   5.087   3.081  1.00 20.00     0.034 C 
HETATM    5  C6  UNL     1     -34.598   4.352   5.329  1.00 20.00     0.005 C 
HETATM    6  C7  UNL     1     -35.234   4.380   3.946  1.00 20.00     0.005 C 
ENDROOT
BRANCH   2   7
HETATM    7  C3  UNL     1     -32.415   7.265   2.264  1.00 20.00     0.282 C 
HETATM    8  O9  UNL     1     -32.370   6.399   1.405  1.00 20.00    -0.260 OA
BRANCH   7   9
HETATM    9  O10 UNL     1     -32.187   8.596   2.098  1.00 20.00    -0.323 OA
HETATM   10  C8  UNL     1     -31.862   9.003   0.765  1.00 20.00     0.213 C 
ENDBRANCH   7   9
ENDBRANCH   2   7
TORSDOF 2
