REMARK  0 active torsions:
REMARK  status: ('A' for Active; 'I' for Inactive)
ROOT
HETATM    1  C1  UNL     1     -33.114   6.874   4.183  1.00 20.00     0.219 C 
HETATM    2  C2  UNL     1     -33.634   7.351   5.529  1.00 20.00     0.103 C 
HETATM    3  C3  UNL     1     -33.455   6.321   6.640  1.00 20.00     0.009 C 
HETATM    4  C4  UNL     1     -34.519   5.221   6.706  1.00 20.00     0.001 C 
HETATM    5  C5  UNL     1     -34.401   4.161   5.610  1.00 20.00     0.002 C 
HETATM    6  C6  UNL     1     -35.363   4.347   4.435  1.00 20.00     0.020 C 
HETATM    7  C7  UNL     1     -35.327   5.720   3.769  1.00 20.00     0.125 C 
HETATM    8  C8  UNL     1     -33.498   5.617   2.099  1.00 20.00     0.152 C 
HETATM    9  N9  UNL     1     -33.974   6.126   3.381  1.00 20.00    -0.356 N 
HETATM   10  O10 UNL     1     -31.954   7.156   3.865  1.00 20.00    -0.273 OA
ENDROOT
TORSDOF 0
