REMARK  1 active torsions:
REMARK  status: ('A' for Active; 'I' for Inactive)
REMARK    1  A    between atoms: C3_3  and  C6_6 
ROOT
HETATM    1  C1  UNL     1     -34.156   5.314   3.317  1.00 20.00     0.202 C 
HETATM    2  C2  UNL     1     -33.685   5.440   4.746  1.00 20.00     0.144 C 
HETATM    3  C3  UNL     1     -32.265   6.562   3.395  1.00 20.00     0.260 C 
HETATM    4  C4  UNL     1     -34.804   5.622   5.749  1.00 20.00     0.042 C 
HETATM    5  O7  UNL     1     -32.994   5.653   2.558  1.00 20.00    -0.359 OA
HETATM    6  O8  UNL     1     -32.853   6.601   4.703  1.00 20.00    -0.354 OA
ENDROOT
BRANCH   3   7
HETATM    7  C6  UNL     1     -32.290   7.953   2.792  1.00 20.00     0.056 C 
HETATM    8  C5  UNL     1     -31.682   7.983   1.423  1.00 20.00     0.010 C 
ENDBRANCH   3   7
TORSDOF 1
