REMARK  0 active torsions:
REMARK  status: ('A' for Active; 'I' for Inactive)
ROOT
HETATM    1  C1  UNL     1     -35.750   5.852   3.528  1.00 20.00     0.006 C 
HETATM    2  C2  UNL     1     -35.337   4.649   4.386  1.00 20.00     0.006 C 
HETATM    3  C3  UNL     1     -34.353   7.410   4.882  1.00 20.00     0.021 C 
HETATM    4  C4  UNL     1     -34.694   6.980   3.450  1.00 20.00     0.005 C 
HETATM    5  C5  UNL     1     -34.616   5.057   5.685  1.00 20.00    -0.005 C 
HETATM    6  C6  UNL     1     -33.613   6.210   5.467  1.00 20.00     0.052 C 
HETATM    7  C7  UNL     1     -33.335   6.604   2.795  1.00 20.00     0.005 C 
HETATM    8  C8  UNL     1     -33.974   3.839   6.353  1.00 20.00     0.011 C 
HETATM    9  C9  UNL     1     -32.572   7.863   2.343  1.00 20.00     0.027 C 
HETATM   10  C10 UNL     1     -33.438   5.649   1.604  1.00 20.00     0.027 C 
HETATM   11  S11 UNL     1     -32.377   5.834   4.166  1.00 20.00    -0.154 SA
ENDROOT
TORSDOF 0
