REMARK  3 active torsions:
REMARK  status: ('A' for Active; 'I' for Inactive)
REMARK    1  A    between atoms: C1_1  and  C4_4 
REMARK    2  A    between atoms: C2_2  and  C7_7 
REMARK    3  A    between atoms: C7_7  and  O8_8 
ROOT
HETATM    1  C1  UNL     1     -32.623   7.818   2.388  1.00 20.00    -0.070 C 
HETATM    2  C2  UNL     1     -33.030   6.900   3.048  1.00 20.00    -0.070 C 
ENDROOT
BRANCH   2   3
HETATM    3  C7  UNL     1     -33.526   5.778   3.854  1.00 20.00     0.193 C 
HETATM    4  C6  UNL     1     -34.539   4.951   3.079  1.00 20.00     0.053 C 
BRANCH   3   5
HETATM    5  O8  UNL     1     -34.163   6.267   5.031  1.00 20.00    -0.384 OA
HETATM    6  H18 UNL     1     -34.469   5.489   5.523  1.00 20.00     0.211 HD
ENDBRANCH   3   5
ENDBRANCH   2   3
BRANCH   1   7
HETATM    7  C4  UNL     1     -32.145   8.912   1.607  1.00 20.00    -0.018 C 
HETATM    8  C3  UNL     1     -31.198   8.694   0.682  1.00 20.00     0.028 C 
HETATM    9  C5  UNL     1     -32.718  10.278   1.844  1.00 20.00     0.057 C 
ENDBRANCH   1   7
TORSDOF 3
