REMARK  2 active torsions:
REMARK  status: ('A' for Active; 'I' for Inactive)
REMARK    1  A    between atoms: C6_6  and  C11_11 
REMARK    2  A    between atoms: C11_11  and  O12_12 
ROOT
HETATM    1  C1  UNL     1     -35.336   6.449   3.064  1.00 20.00     0.005 C 
HETATM    2  C2  UNL     1     -36.386   5.565   3.750  1.00 20.00     0.006 C 
HETATM    3  C3  UNL     1     -34.610   4.190   3.048  1.00 20.00     0.010 C 
HETATM    4  C4  UNL     1     -34.050   5.610   3.168  1.00 20.00    -0.007 C 
HETATM    5  C5  UNL     1     -35.554   4.367   4.247  1.00 20.00    -0.006 C 
HETATM    6  C6  UNL     1     -33.485   5.583   4.613  1.00 20.00     0.026 C 
HETATM    7  C7  UNL     1     -34.577   4.780   5.400  1.00 20.00    -0.038 C 
HETATM    8  C8  UNL     1     -35.270   5.552   6.534  1.00 20.00     0.015 C 
HETATM    9  C9  UNL     1     -33.951   3.519   6.035  1.00 20.00     0.015 C 
ENDROOT
BRANCH   6  10
HETATM   10  C11 UNL     1     -33.082   6.946   5.161  1.00 20.00     0.119 C 
HETATM   11  C10 UNL     1     -31.973   7.580   4.336  1.00 20.00     0.040 C 
BRANCH  10  12
HETATM   12  O12 UNL     1     -32.640   6.797   6.505  1.00 20.00    -0.396 OA
HETATM   13  H32 UNL     1     -32.393   7.682   6.817  1.00 20.00     0.210 HD
ENDBRANCH  10  12
ENDBRANCH   6  10
TORSDOF 2
