REMARK  1 active torsions:
REMARK  status: ('A' for Active; 'I' for Inactive)
REMARK    1  A    between atoms: C5_5  and  C10_10 
ROOT
HETATM    1  C1  UNL     1     -34.827   5.364   3.508  1.00 20.00    -0.018 C 
HETATM    2  C2  UNL     1     -34.949   4.463   4.493  1.00 20.00    -0.025 C 
HETATM    3  C3  UNL     1     -33.418   6.787   4.994  1.00 20.00     0.135 C 
HETATM    4  C4  UNL     1     -34.128   6.153   6.169  1.00 20.00     0.087 C 
HETATM    5  C5  UNL     1     -34.120   6.685   3.639  1.00 20.00     0.081 C 
HETATM    6  C6  UNL     1     -34.415   4.676   5.885  1.00 20.00     0.010 C 
HETATM    7  C7  UNL     1     -35.386   4.125   6.930  1.00 20.00     0.014 C 
HETATM    8  O11 UNL     1     -32.379   7.428   5.154  1.00 20.00    -0.297 OA
ENDROOT
BRANCH   5   9
HETATM    9  C10 UNL     1     -33.123   6.872   2.498  1.00 20.00    -0.008 C 
HETATM   10  C8  UNL     1     -32.426   8.228   2.606  1.00 20.00     0.010 C 
HETATM   11  C9  UNL     1     -32.094   5.742   2.489  1.00 20.00     0.010 C 
ENDBRANCH   5   9
TORSDOF 1
