REMARK  0 active torsions:
REMARK  status: ('A' for Active; 'I' for Inactive)
ROOT
HETATM    1  C1  UNL     1     -34.119   6.117   5.769  1.00 20.00     0.130 C 
HETATM    2  C2  UNL     1     -33.325   7.356   6.100  1.00 20.00     0.079 C 
HETATM    3  C3  UNL     1     -32.186   7.592   5.111  1.00 20.00     0.016 C 
HETATM    4  C4  UNL     1     -33.904   6.874   3.373  1.00 20.00     0.020 C 
HETATM    5  C5  UNL     1     -34.746   6.074   4.383  1.00 20.00     0.052 C 
HETATM    6  C6  UNL     1     -32.396   6.974   3.705  1.00 20.00    -0.047 C 
HETATM    7  C7  UNL     1     -35.000   4.640   3.924  1.00 20.00     0.018 C 
HETATM    8  C8  UNL     1     -31.717   7.873   2.652  1.00 20.00     0.015 C 
HETATM    9  C9  UNL     1     -31.716   5.592   3.636  1.00 20.00     0.015 C 
HETATM   10  O10 UNL     1     -34.307   5.239   6.609  1.00 20.00    -0.298 OA
ENDROOT
TORSDOF 0
