REMARK  0 active torsions:
REMARK  status: ('A' for Active; 'I' for Inactive)
ROOT
HETATM    1  C1  UNL     1     -33.694   5.633   6.107  1.00 20.00     0.047 C 
HETATM    2  C2  UNL     1     -33.095   6.717   5.604  1.00 20.00    -0.014 C 
HETATM    3  C3  UNL     1     -34.328   4.630   5.220  1.00 20.00     0.152 C 
HETATM    4  C4  UNL     1     -33.236   5.784   3.266  1.00 20.00     0.025 C 
HETATM    5  C5  UNL     1     -34.407   4.911   3.731  1.00 20.00     0.056 C 
HETATM    6  C6  UNL     1     -32.931   7.027   4.134  1.00 20.00    -0.029 C 
HETATM    7  C7  UNL     1     -35.784   5.464   3.384  1.00 20.00     0.018 C 
HETATM    8  C8  UNL     1     -33.832   8.217   3.763  1.00 20.00     0.019 C 
HETATM    9  C9  UNL     1     -31.469   7.445   3.874  1.00 20.00     0.019 C 
HETATM   10  O10 UNL     1     -34.831   3.621   5.712  1.00 20.00    -0.293 OA
ENDROOT
TORSDOF 0
