REMARK  2 active torsions:
REMARK  status: ('A' for Active; 'I' for Inactive)
REMARK    1  A    between atoms: C3_3  and  C5_5 
REMARK    2  A    between atoms: C5_5  and  C6_6 
ROOT
HETATM    1  C1  UNL     1     -35.744   5.035   4.081  1.00 20.00     0.202 C 
HETATM    2  C2  UNL     1     -35.119   5.509   5.374  1.00 20.00     0.144 C 
HETATM    3  C3  UNL     1     -34.025   6.388   3.572  1.00 20.00     0.261 C 
HETATM    4  C4  UNL     1     -34.281   4.435   6.056  1.00 20.00     0.042 C 
HETATM    5  O7  UNL     1     -34.700   5.208   3.125  1.00 20.00    -0.359 OA
HETATM    6  O8  UNL     1     -34.263   6.584   4.972  1.00 20.00    -0.354 OA
ENDROOT
BRANCH   3   7
HETATM    7  C5  UNL     1     -32.538   6.266   3.305  1.00 20.00     0.075 C 
BRANCH   7   8
HETATM    8  C6  UNL     1     -31.812   7.608   3.260  1.00 20.00     0.119 C 
HETATM    9 CL9  UNL     1     -32.467   8.677   1.997  1.00 20.00    -0.130 Cl
ENDBRANCH   7   8
ENDBRANCH   3   7
TORSDOF 2
