REMARK  1 active torsions:
REMARK  status: ('A' for Active; 'I' for Inactive)
REMARK    1  A    between atoms: C3_3  and  C4_4 
ROOT
HETATM    1  C1  UNL     1     -33.898   6.241   5.608  1.00 20.00     0.086 C 
HETATM    2  C2  UNL     1     -35.634   5.494   4.016  1.00 20.00     0.050 C 
HETATM    3  C4  UNL     1     -34.278   5.184   4.654  1.00 20.00     0.134 C 
HETATM    4  N5  UNL     1     -33.599   7.077   6.357  1.00 20.00    -0.195 NA
HETATM    5 CL7  UNL     1     -34.456   3.676   5.628  1.00 20.00    -0.102 Cl
ENDROOT
BRANCH   3   6
HETATM    6  C3  UNL     1     -33.173   4.938   3.616  1.00 20.00     0.155 C 
HETATM    7 CL6  UNL     1     -32.788   6.385   2.642  1.00 20.00    -0.127 Cl
ENDBRANCH   3   6
TORSDOF 1
