REMARK  2 active torsions:
REMARK  status: ('A' for Active; 'I' for Inactive)
REMARK    1  A    between atoms: C3_3  and  S9_9 
REMARK    2  A    between atoms: C6_6  and  S9_9 
ROOT
HETATM    1  C1  UNL     1     -31.858   8.925   0.638  1.00 20.00     0.013 C 
HETATM    2  C2  UNL     1     -32.349   8.507   1.651  1.00 20.00    -0.107 C 
HETATM    3  C6  UNL     1     -32.948   8.005   2.890  1.00 20.00     0.174 C 
ENDROOT
BRANCH   3   4
HETATM    4  S9  UNL     1     -33.426   6.268   2.757  1.00 20.00    -0.092 SA
BRANCH   4   5
HETATM    5  C3  UNL     1     -34.073   6.026   4.346  1.00 20.00     0.125 C 
HETATM    6  N7  UNL     1     -33.651   6.673   5.380  1.00 20.00    -0.275 NA
HETATM    7  C4  UNL     1     -34.453   6.274   6.555  1.00 20.00     0.161 C 
HETATM    8  C5  UNL     1     -35.028   4.881   6.345  1.00 20.00     0.103 C 
HETATM    9  S8  UNL     1     -35.325   4.839   4.569  1.00 20.00    -0.102 SA
ENDBRANCH   4   5
ENDBRANCH   3   4
TORSDOF 2
