REMARK  2 active torsions:
REMARK  status: ('A' for Active; 'I' for Inactive)
REMARK    1  A    between atoms: C3_3  and  C4_4 
REMARK    2  A    between atoms: C4_4  and  S8_8 
ROOT
HETATM    1  C1  UNL     1     -34.464   5.106   6.002  1.00 20.00     0.109 C 
HETATM    2  C3  UNL     1     -33.960   6.395   5.586  1.00 20.00     0.116 C 
HETATM    3  N5  UNL     1     -34.873   4.069   6.325  1.00 20.00    -0.191 NA
HETATM    4  S7  UNL     1     -33.077   7.239   6.725  1.00 20.00    -0.071 SA
ENDROOT
BRANCH   2   5
HETATM    5  C4  UNL     1     -34.241   6.915   4.195  1.00 20.00     0.206 C 
HETATM    6  C2  UNL     1     -32.998   7.143   3.444  1.00 20.00     0.080 C 
HETATM    7  N6  UNL     1     -32.016   7.327   2.853  1.00 20.00    -0.196 NA
BRANCH   5   8
HETATM    8  S8  UNL     1     -35.326   5.727   3.335  1.00 20.00    -0.157 SA
HETATM    9  H10 UNL     1     -35.457   6.452   2.217  1.00 20.00     0.103 HD
ENDBRANCH   5   8
ENDBRANCH   2   5
TORSDOF 2
