REMARK  0 active torsions:
REMARK  status: ('A' for Active; 'I' for Inactive)
ROOT
HETATM    1  C1  UNL     1     -34.333   5.468   6.491  1.00 20.00     0.061 A 
HETATM    2  C2  UNL     1     -34.988   4.359   6.136  1.00 20.00     0.061 A 
HETATM    3  C3  UNL     1     -34.154   5.387   3.903  1.00 20.00     0.254 A 
HETATM    4  O4  UNL     1     -33.908   5.617   2.729  1.00 20.00    -0.272 OA
HETATM    5  S5  UNL     1     -33.631   6.421   5.228  1.00 20.00    -0.052 SA
HETATM    6  S6  UNL     1     -35.070   3.985   4.447  1.00 20.00    -0.052 SA
ENDROOT
TORSDOF 0
