REMARK  2 active torsions:
REMARK  status: ('A' for Active; 'I' for Inactive)
REMARK    1  A    between atoms: C4_4  and  C6_6 
REMARK    2  A    between atoms: C5_5  and  C6_6 
ROOT
HETATM    1  C1  UNL     1     -32.061   8.209   2.401  1.00 20.00     0.012 C 
HETATM    2  C2  UNL     1     -32.849   7.378   2.759  1.00 20.00    -0.117 C 
HETATM    3  C5  UNL     1     -33.815   6.360   3.193  1.00 20.00     0.095 C 
ENDROOT
BRANCH   3   4
HETATM    4  C6  UNL     1     -34.054   6.431   4.700  1.00 20.00     0.046 C 
BRANCH   4   5
HETATM    5  C4  UNL     1     -35.060   5.418   5.153  1.00 20.00     0.146 A 
HETATM    6  C3  UNL     1     -34.842   4.610   6.402  1.00 20.00     0.200 A 
HETATM    7  O7  UNL     1     -34.605   4.062   5.095  1.00 20.00    -0.381 OA
ENDBRANCH   4   5
ENDBRANCH   3   4
TORSDOF 2
