REMARK  0 active torsions:
REMARK  status: ('A' for Active; 'I' for Inactive)
ROOT
HETATM    1  C1  UNL     1     -34.387   3.479   5.110  1.00 20.00    -0.021 C 
HETATM    2  C2  UNL     1     -34.545   4.060   6.311  1.00 20.00    -0.025 C 
HETATM    3  C3  UNL     1     -33.669   5.606   4.123  1.00 20.00    -0.081 C 
HETATM    4  C4  UNL     1     -32.795   5.925   3.166  1.00 20.00     0.015 C 
HETATM    5  C5  UNL     1     -33.827   6.298   5.472  1.00 20.00     0.042 C 
HETATM    6  C6  UNL     1     -35.854   5.238   4.810  1.00 20.00     0.022 C 
HETATM    7  C7  UNL     1     -34.726   4.517   4.064  1.00 20.00     0.036 C 
HETATM    8  C8  UNL     1     -35.004   5.484   6.064  1.00 20.00     0.013 C 
ENDROOT
TORSDOF 0
