REMARK  0 active torsions:
REMARK  status: ('A' for Active; 'I' for Inactive)
ROOT
HETATM    1  C1  UNL     1     -33.873   5.736   3.815  1.00 20.00     0.017 A 
HETATM    2  C2  UNL     1     -34.523   4.854   4.789  1.00 20.00     0.296 A 
HETATM    3  C3  UNL     1     -33.440   6.468   5.932  1.00 20.00     0.270 A 
HETATM    4  C4  UNL     1     -33.965   5.537   2.498  1.00 20.00     0.025 C 
HETATM    5  C5  UNL     1     -33.144   6.819   4.508  1.00 20.00     0.155 A 
HETATM    6  O6  UNL     1     -35.202   3.870   4.561  1.00 20.00    -0.259 OA
HETATM    7  O7  UNL     1     -33.036   7.095   6.901  1.00 20.00    -0.264 OA
HETATM    8  O8  UNL     1     -34.221   5.353   6.015  1.00 20.00    -0.241 OA
ENDROOT
TORSDOF 0
