REMARK  3 active torsions:
REMARK  status: ('A' for Active; 'I' for Inactive)
REMARK    1  A    between atoms: C1_1  and  C7_7 
REMARK    2  A    between atoms: C4_4  and  C6_6 
REMARK    3  A    between atoms: C6_6  and  C7_7 
ROOT
HETATM    1  C6  UNL     1     -32.899   6.482   2.634  1.00 20.00     0.015 C 
ENDROOT
BRANCH   1   2
HETATM    2  C4  UNL     1     -32.246   7.854   2.751  1.00 20.00    -0.014 A 
HETATM    3  C2  UNL     1     -31.261   8.316   1.713  1.00 20.00     0.005 A 
HETATM    4  C3  UNL     1     -32.620   8.954   1.795  1.00 20.00     0.005 A 
ENDBRANCH   1   2
BRANCH   1   5
HETATM    5  C7  UNL     1     -34.186   6.367   3.461  1.00 20.00     0.043 C 
HETATM    6  C5  UNL     1     -35.062   5.230   2.942  1.00 20.00     0.017 C 
BRANCH   5   7
HETATM    7  C1  UNL     1     -33.923   6.114   4.936  1.00 20.00     0.235 C 
HETATM    8  O8  UNL     1     -34.304   5.128   5.558  1.00 20.00    -0.306 OA
ENDBRANCH   5   7
ENDBRANCH   1   5
TORSDOF 3
