REMARK  0 active torsions:
REMARK  status: ('A' for Active; 'I' for Inactive)
ROOT
HETATM    1  C1  UNL     1     -34.786   3.468   5.508  1.00 20.00     0.050 C 
HETATM    2  C2  UNL     1     -35.019   4.790   5.336  1.00 20.00     0.094 C 
HETATM    3 CL3  UNL     1     -34.954   5.903   6.662  1.00 20.00    -0.072 Cl
HETATM    4 CL4  UNL     1     -35.397   5.448   3.778  1.00 20.00    -0.072 Cl
ENDROOT
TORSDOF 0
