REMARK  1 active torsions:
REMARK  status: ('A' for Active; 'I' for Inactive)
REMARK    1  A    between atoms: C1_1  and  C2_2 
ROOT
HETATM    1  C2  UNL     1     -34.516   5.068   4.866  1.00 20.00     0.200 C 
HETATM    2 CL4  UNL     1     -34.818   3.435   5.550  1.00 20.00    -0.083 Cl
HETATM    3 CL5  UNL     1     -35.840   5.443   3.721  1.00 20.00    -0.083 Cl
HETATM    4 CL6  UNL     1     -34.546   6.247   6.212  1.00 20.00    -0.083 Cl
ENDROOT
BRANCH   1   5
HETATM    5  C1  UNL     1     -33.156   5.061   4.162  1.00 20.00     0.173 C 
HETATM    6 CL3  UNL     1     -32.724   6.632   3.430  1.00 20.00    -0.126 Cl
ENDBRANCH   1   5
TORSDOF 1
