REMARK  0 active torsions:
REMARK  status: ('A' for Active; 'I' for Inactive)
ROOT
HETATM    1  C1  UNL     1     -34.866   3.448   5.205  1.00 20.00     0.068 C 
HETATM    2  C2  UNL     1     -35.515   4.822   5.110  1.00 20.00     0.184 C 
HETATM    3 CL3  UNL     1     -37.274   4.676   5.379  1.00 20.00    -0.084 Cl
HETATM    4 CL4  UNL     1     -34.819   5.904   6.348  1.00 20.00    -0.084 Cl
HETATM    5 CL5  UNL     1     -35.224   5.517   3.492  1.00 20.00    -0.084 Cl
ENDROOT
TORSDOF 0
