REMARK  0 active torsions:
REMARK  status: ('A' for Active; 'I' for Inactive)
ROOT
HETATM    1  C1  UNL     1     -33.998   6.166   4.406  1.00 20.00     0.409 C 
HETATM    2  C2  UNL     1     -34.883   5.690   6.418  1.00 20.00     0.247 C 
HETATM    3  C3  UNL     1     -35.415   4.745   5.392  1.00 20.00     0.343 C 
HETATM    4  O4  UNL     1     -33.329   6.711   3.541  1.00 20.00    -0.229 OA
HETATM    5  O5  UNL     1     -33.773   6.279   5.751  1.00 20.00    -0.293 OA
HETATM    6  O6  UNL     1     -35.078   5.362   4.163  1.00 20.00    -0.260 OA
HETATM    7  F7  UNL     1     -34.749   3.565   5.457  1.00 20.00    -0.217 F 
ENDROOT
TORSDOF 0
