REMARK  1 active torsions:
REMARK  status: ('A' for Active; 'I' for Inactive)
REMARK    1  A    between atoms: C2_2  and  C5_5 
ROOT
HETATM    1  C1  UNL     1     -34.172   5.301   3.151  1.00 20.00     0.088 A 
HETATM    2  C2  UNL     1     -33.536   6.324   3.824  1.00 20.00     0.147 A 
HETATM    3  C3  UNL     1     -34.484   5.339   5.540  1.00 20.00     0.071 A 
HETATM    4  C4  UNL     1     -34.896   5.039   6.928  1.00 20.00     0.078 C 
HETATM    5  N6  UNL     1     -33.714   6.347   5.194  1.00 20.00    -0.241 NA
HETATM    6  S10 UNL     1     -35.029   4.323   4.269  1.00 20.00    -0.085 SA
ENDROOT
BRANCH   2   7
HETATM    7  C5  UNL     1     -32.698   7.372   3.208  1.00 20.00     0.435 C 
HETATM    8  F7  UNL     1     -32.579   7.267   1.845  1.00 20.00    -0.165 F 
HETATM    9  F8  UNL     1     -33.154   8.649   3.415  1.00 20.00    -0.165 F 
HETATM   10  F9  UNL     1     -31.409   7.377   3.674  1.00 20.00    -0.165 F 
ENDBRANCH   2   7
TORSDOF 1
