REMARK  1 active torsions:
REMARK  status: ('A' for Active; 'I' for Inactive)
REMARK    1  A    between atoms: C3_3  and  C5_5 
ROOT
HETATM    1  C1  UNL     1     -32.923   5.669   3.236  1.00 20.00     0.032 A 
HETATM    2  C2  UNL     1     -33.748   5.157   4.257  1.00 20.00    -0.044 A 
HETATM    3  C3  UNL     1     -32.588   6.988   3.497  1.00 20.00     0.068 A 
HETATM    4  C4  UNL     1     -34.003   6.082   5.232  1.00 20.00    -0.010 A 
HETATM    5  C6  UNL     1     -34.415   3.866   4.554  1.00 20.00     0.040 C 
HETATM    6  C7  UNL     1     -34.867   5.583   6.326  1.00 20.00     0.047 C 
HETATM    7  C8  UNL     1     -35.406   4.262   5.695  1.00 20.00     0.010 C 
HETATM    8  S10 UNL     1     -33.281   7.568   4.973  1.00 20.00    -0.089 SA
ENDROOT
BRANCH   3   9
HETATM    9  C5  UNL     1     -31.777   7.874   2.726  1.00 20.00     0.259 C 
HETATM   10  O9  UNL     1     -32.302   8.600   1.836  1.00 20.00    -0.273 OA
HETATM   11 CL11 UNL     1     -30.011   8.000   2.973  1.00 20.00    -0.038 Cl
ENDBRANCH   3   9
TORSDOF 1
