REMARK  0 active torsions:
REMARK  status: ('A' for Active; 'I' for Inactive)
ROOT
HETATM    1  C1  UNL     1     -33.804   5.627   3.988  1.00 20.00     0.064 C 
HETATM    2  C2  UNL     1     -31.640   7.795   3.497  1.00 20.00     0.011 C 
HETATM    3  C3  UNL     1     -31.623   8.093   1.144  1.00 20.00     0.010 C 
HETATM    4  C4  UNL     1     -33.375   6.314   2.759  1.00 20.00     0.101 C 
HETATM    5  C5  UNL     1     -31.145   7.105   2.227  1.00 20.00    -0.009 C 
HETATM    6  C6  UNL     1     -33.100   7.817   3.030  1.00 20.00     0.007 C 
HETATM    7  C7  UNL     1     -33.003   8.546   1.667  1.00 20.00    -0.013 C 
HETATM    8  C8  UNL     1     -32.021   5.826   2.169  1.00 20.00     0.003 C 
HETATM    9  C9  UNL     1     -33.102  10.062   1.797  1.00 20.00     0.010 C 
HETATM   10  C10 UNL     1     -31.356   4.649   2.881  1.00 20.00     0.011 C 
HETATM   11  N11 UNL     1     -34.142   5.086   4.957  1.00 20.00    -0.197 NA
ENDROOT
TORSDOF 0
