REMARK  0 active torsions:
REMARK  status: ('A' for Active; 'I' for Inactive)
ROOT
HETATM    1  C1  UNL     1     -32.794   6.795   5.024  1.00 20.00     0.055 C 
HETATM    2  C2  UNL     1     -33.894   6.142   5.387  1.00 20.00    -0.046 C 
HETATM    3  C3  UNL     1     -32.729   6.582   3.565  1.00 20.00     0.150 C 
HETATM    4  C4  UNL     1     -34.387   5.652   6.688  1.00 20.00     0.202 C 
HETATM    5  C5  UNL     1     -33.800   5.630   3.082  1.00 20.00     0.094 C 
HETATM    6  C6  UNL     1     -34.894   4.163   4.951  1.00 20.00     0.177 C 
HETATM    7  C7  UNL     1     -34.688   5.514   4.305  1.00 20.00     0.048 C 
HETATM    8  O8  UNL     1     -31.871   7.085   2.856  1.00 20.00    -0.293 OA
HETATM    9  O9  UNL     1     -35.110   4.440   6.357  1.00 20.00    -0.386 OA
ENDROOT
TORSDOF 0
