REMARK  0 active torsions:
REMARK  status: ('A' for Active; 'I' for Inactive)
ROOT
HETATM    1  C1  UNL     1     -34.036   5.092   2.612  1.00 20.00     0.015 A 
HETATM    2  C2  UNL     1     -33.217   5.887   1.917  1.00 20.00     0.083 A 
HETATM    3  C3  UNL     1     -34.132   5.196   4.044  1.00 20.00    -0.028 A 
HETATM    4  C4  UNL     1     -33.383   6.116   4.671  1.00 20.00     0.063 A 
HETATM    5  C5  UNL     1     -32.389   6.895   2.606  1.00 20.00     0.287 A 
HETATM    6  C6  UNL     1     -35.060   4.264   4.772  1.00 20.00     0.041 C 
HETATM    7  C7  UNL     1     -33.414   6.335   6.155  1.00 20.00     0.066 C 
HETATM    8  C8  UNL     1     -34.823   4.247   6.285  1.00 20.00     0.005 C 
HETATM    9  C9  UNL     1     -34.608   5.656   6.830  1.00 20.00     0.007 C 
HETATM   10  O10 UNL     1     -31.634   7.625   1.972  1.00 20.00    -0.260 OA
HETATM   11  O11 UNL     1     -32.506   6.974   3.967  1.00 20.00    -0.279 OA
ENDROOT
TORSDOF 0
