REMARK  0 active torsions:
REMARK  status: ('A' for Active; 'I' for Inactive)
ROOT
HETATM    1  C1  UNL     1     -31.443   8.365   3.046  1.00 20.00     0.087 A 
HETATM    2  C2  UNL     1     -32.728   6.763   1.756  1.00 20.00     0.063 A 
HETATM    3  C3  UNL     1     -32.825   6.735   4.204  1.00 20.00     0.114 A 
HETATM    4  C4  UNL     1     -31.840   7.840   1.821  1.00 20.00     0.120 A 
HETATM    5  C5  UNL     1     -31.926   7.823   4.241  1.00 20.00     0.149 A 
HETATM    6  C6  UNL     1     -33.209   6.225   2.960  1.00 20.00     0.042 A 
HETATM    7  C7  UNL     1     -34.172   5.131   4.894  1.00 20.00     0.145 A 
HETATM    8  N8  UNL     1     -33.385   6.098   5.302  1.00 20.00    -0.230 NA
HETATM    9  F9  UNL     1     -31.365   8.373   0.687  1.00 20.00    -0.206 F 
HETATM   10  F10 UNL     1     -31.534   8.342   5.413  1.00 20.00    -0.203 F 
HETATM   11  S11 UNL     1     -34.302   4.913   3.203  1.00 20.00    -0.060 SA
HETATM   12 BR12 UNL     1     -35.122   4.025   6.128  1.00 20.00    -0.021 Br
ENDROOT
TORSDOF 0
