REMARK  2 active torsions:
REMARK  status: ('A' for Active; 'I' for Inactive)
REMARK    1  A    between atoms: C2_2  and  C7_7 
REMARK    2  A    between atoms: C3_3  and  C6_6 
ROOT
HETATM    1  C1  UNL     1     -33.592   6.550   2.798  1.00 20.00     0.066 A 
HETATM    2  C2  UNL     1     -33.710   6.109   4.128  1.00 20.00     0.068 A 
HETATM    3  C3  UNL     1     -32.437   7.287   2.802  1.00 20.00     0.094 A 
HETATM    4  N8  UNL     1     -32.706   6.539   4.897  1.00 20.00    -0.133 NA
HETATM    5  O9  UNL     1     -31.899   7.288   4.048  1.00 20.00    -0.216 OA
ENDROOT
BRANCH   2   6
HETATM    6  C7  UNL     1     -34.805   5.246   4.727  1.00 20.00     0.032 C 
HETATM    7  C4  UNL     1     -36.129   5.413   3.976  1.00 20.00     0.016 C 
HETATM    8  C5  UNL     1     -34.987   5.524   6.221  1.00 20.00     0.016 C 
ENDBRANCH   2   6
BRANCH   3   9
HETATM    9  C6  UNL     1     -31.708   8.038   1.773  1.00 20.00     0.181 C 
HETATM   10 CL10 UNL     1     -32.521   9.582   1.393  1.00 20.00    -0.123 Cl
ENDBRANCH   3   9
TORSDOF 2
