REMARK  0 active torsions:
REMARK  status: ('A' for Active; 'I' for Inactive)
ROOT
HETATM    1  C1  UNL     1     -32.470   6.692   4.319  1.00 20.00     0.105 C 
HETATM    2  C2  UNL     1     -35.345   4.418   3.667  1.00 20.00     0.068 A 
HETATM    3  C3  UNL     1     -35.277   4.940   6.025  1.00 20.00     0.068 A 
HETATM    4  C4  UNL     1     -33.623   5.875   4.533  1.00 20.00     0.121 A 
HETATM    5  C5  UNL     1     -34.220   5.215   3.459  1.00 20.00     0.141 A 
HETATM    6  C6  UNL     1     -34.152   5.738   5.817  1.00 20.00     0.141 A 
HETATM    7  C7  UNL     1     -35.874   4.280   4.951  1.00 20.00     0.040 A 
HETATM    8  N8  UNL     1     -31.534   7.356   4.145  1.00 20.00    -0.191 NA
HETATM    9  F9  UNL     1     -33.723   5.338   2.219  1.00 20.00    -0.204 F 
HETATM   10  F10 UNL     1     -33.589   6.365   6.860  1.00 20.00    -0.204 F 
HETATM   11 CL11 UNL     1     -37.262   3.296   5.209  1.00 20.00    -0.084 Cl
ENDROOT
TORSDOF 0
