REMARK  3 active torsions:
REMARK  status: ('A' for Active; 'I' for Inactive)
REMARK    1  A    between atoms: C1_1  and  C6_6 
REMARK    2  A    between atoms: C4_4  and  C7_7 
REMARK    3  A    between atoms: C6_6  and  C7_7 
ROOT
HETATM    1  C7  UNL     1     -33.715   6.517   4.898  1.00 20.00     0.019 C 
ENDROOT
BRANCH   1   2
HETATM    2  C4  UNL     1     -34.534   5.275   5.120  1.00 20.00    -0.043 A 
HETATM    3  C2  UNL     1     -35.081   5.026   6.506  1.00 20.00     0.010 A 
HETATM    4  C3  UNL     1     -33.948   4.186   5.988  1.00 20.00     0.010 A 
HETATM    5  C5  UNL     1     -35.377   4.863   3.945  1.00 20.00     0.015 C 
ENDBRANCH   1   2
BRANCH   1   6
HETATM    6  C6  UNL     1     -33.154   6.598   3.484  1.00 20.00     0.114 C 
BRANCH   6   7
HETATM    7  C1  UNL     1     -32.251   7.797   3.168  1.00 20.00     0.172 C 
HETATM    8  O8  UNL     1     -31.196   7.902   3.852  1.00 20.00    -0.648 OA
HETATM    9  O9  UNL     1     -32.680   8.537   2.236  1.00 20.00    -0.648 OA
ENDBRANCH   6   7
ENDBRANCH   1   6
TORSDOF 3
