REMARK  0 active torsions:
REMARK  status: ('A' for Active; 'I' for Inactive)
ROOT
HETATM    1  C1  UNL     1     -34.292   4.791   5.081  1.00 20.00     0.135 C 
HETATM    2  C2  UNL     1     -35.244   7.023   5.497  1.00 20.00     0.017 C 
HETATM    3  C3  UNL     1     -35.793   5.770   3.394  1.00 20.00     0.017 C 
HETATM    4  C4  UNL     1     -32.783   6.736   5.029  1.00 20.00     0.037 C 
HETATM    5  C5  UNL     1     -33.334   5.481   2.920  1.00 20.00     0.037 C 
HETATM    6  C6  UNL     1     -34.287   7.781   3.299  1.00 20.00     0.030 C 
HETATM    7  C7  UNL     1     -34.012   6.139   5.729  1.00 20.00     0.058 C 
HETATM    8  C8  UNL     1     -34.571   4.863   3.587  1.00 20.00     0.058 C 
HETATM    9  C9  UNL     1     -35.519   7.166   3.987  1.00 20.00    -0.011 C 
HETATM   10  C10 UNL     1     -33.057   6.879   3.515  1.00 20.00     0.039 C 
HETATM   11  O11 UNL     1     -34.292   3.737   5.709  1.00 20.00    -0.297 OA
HETATM   12 CL12 UNL     1     -31.632   7.601   2.713  1.00 20.00    -0.119 Cl
ENDROOT
TORSDOF 0
