REMARK  0 active torsions:
REMARK  status: ('A' for Active; 'I' for Inactive)
ROOT
HETATM    1  C1  UNL     1     -33.620   6.137   4.824  1.00 20.00     0.050 A 
HETATM    2  C2  UNL     1     -34.182   5.246   3.931  1.00 20.00     0.010 A 
HETATM    3  C3  UNL     1     -32.848   6.982   2.958  1.00 20.00     0.168 A 
HETATM    4  C4  UNL     1     -33.799   6.026   6.298  1.00 20.00     0.060 C 
HETATM    5  C5  UNL     1     -35.067   4.103   4.295  1.00 20.00     0.048 C 
HETATM    6  C6  UNL     1     -34.969   5.090   6.649  1.00 20.00     0.006 C 
HETATM    7  C7  UNL     1     -34.953   3.805   5.801  1.00 20.00     0.006 C 
HETATM    8  N8  UNL     1     -32.848   7.134   4.265  1.00 20.00    -0.233 NA
HETATM    9  S9  UNL     1     -33.753   5.658   2.337  1.00 20.00    -0.061 SA
HETATM   10 CL10 UNL     1     -32.003   8.025   1.892  1.00 20.00    -0.054 Cl
ENDROOT
TORSDOF 0
