REMARK  1 active torsions:
REMARK  status: ('A' for Active; 'I' for Inactive)
REMARK    1  A    between atoms: C3_3  and  C8_8 
ROOT
HETATM    1  C1  UNL     1     -33.681   3.815   6.016  1.00 20.00    -0.026 C 
HETATM    2  C2  UNL     1     -34.581   3.884   5.024  1.00 20.00    -0.025 C 
HETATM    3  C4  UNL     1     -35.274   5.364   6.654  1.00 20.00     0.018 C 
HETATM    4  C5  UNL     1     -33.192   6.233   5.894  1.00 20.00     0.022 C 
HETATM    5  C6  UNL     1     -33.769   5.111   6.786  1.00 20.00     0.009 C 
HETATM    6  C7  UNL     1     -35.261   5.232   5.127  1.00 20.00     0.021 C 
HETATM    7  C8  UNL     1     -34.251   6.346   4.760  1.00 20.00     0.080 C 
ENDROOT
BRANCH   7   8
HETATM    8  C3  UNL     1     -33.665   6.191   3.391  1.00 20.00     0.223 C 
HETATM    9  O9  UNL     1     -34.009   5.283   2.640  1.00 20.00    -0.279 OA
HETATM   10 CL10 UNL     1     -32.487   7.419   3.041  1.00 20.00    -0.043 Cl
ENDBRANCH   7   8
TORSDOF 1
