REMARK  3 active torsions:
REMARK  status: ('A' for Active; 'I' for Inactive)
REMARK    1  A    between atoms: C2_2  and  O6_6 
REMARK    2  A    between atoms: C3_3  and  C4_4 
REMARK    3  A    between atoms: C3_3  and  O6_6 
ROOT
HETATM    1  C1  UNL     1     -32.404   8.040   2.206  1.00 20.00     0.085 C 
HETATM    2  C2  UNL     1     -32.355   6.727   2.851  1.00 20.00     0.291 C 
HETATM    3  N5  UNL     1     -32.443   9.080   1.694  1.00 20.00    -0.195 NA
ENDROOT
BRANCH   2   4
HETATM    4  O6  UNL     1     -33.265   6.675   3.942  1.00 20.00    -0.369 OA
BRANCH   4   5
HETATM    5  C3  UNL     1     -33.236   5.408   4.585  1.00 20.00     0.286 C 
BRANCH   5   6
HETATM    6  C4  UNL     1     -34.229   5.409   5.718  1.00 20.00     0.408 C 
HETATM    7  F7  UNL     1     -33.929   6.375   6.613  1.00 20.00    -0.169 F 
HETATM    8  F8  UNL     1     -34.226   4.228   6.372  1.00 20.00    -0.169 F 
HETATM    9  F9  UNL     1     -35.481   5.637   5.271  1.00 20.00    -0.169 F 
ENDBRANCH   5   6
ENDBRANCH   4   5
ENDBRANCH   2   4
TORSDOF 3
