REMARK  0 active torsions:
REMARK  status: ('A' for Active; 'I' for Inactive)
ROOT
HETATM    1  C1  UNL     1     -33.350   5.414   3.593  1.00 20.00     0.042 C 
HETATM    2  C2  UNL     1     -34.046   5.517   6.035  1.00 20.00     0.042 C 
HETATM    3  C3  UNL     1     -34.926   7.651   4.369  1.00 20.00     0.174 C 
HETATM    4  C4  UNL     1     -33.450   7.616   4.793  1.00 20.00     0.017 C 
HETATM    5  C5  UNL     1     -32.653   6.778   3.762  1.00 20.00    -0.009 C 
HETATM    6  C6  UNL     1     -33.338   6.881   6.153  1.00 20.00    -0.009 C 
HETATM    7  C7  UNL     1     -34.523   5.298   4.585  1.00 20.00     0.058 C 
HETATM    8  C8  UNL     1     -32.472   7.491   2.422  1.00 20.00     0.010 C 
HETATM    9  C9  UNL     1     -33.879   7.700   7.324  1.00 20.00     0.010 C 
HETATM   10  C10 UNL     1     -35.231   3.955   4.440  1.00 20.00     0.046 C 
HETATM   11  O11 UNL     1     -35.478   6.331   4.271  1.00 20.00    -0.380 OA
ENDROOT
TORSDOF 0
