REMARK  2 active torsions:
REMARK  status: ('A' for Active; 'I' for Inactive)
REMARK    1  A    between atoms: C1_1  and  C2_2 
REMARK    2  A    between atoms: C2_2  and  C3_3 
ROOT
HETATM    1  C2  UNL     1     -34.312   7.045   3.976  1.00 20.00     0.213 C 
ENDROOT
BRANCH   1   2
HETATM    2  C1  UNL     1     -34.458   6.057   5.119  1.00 20.00     0.227 C 
HETATM    3  O4  UNL     1     -34.216   6.344   6.287  1.00 20.00    -0.280 OA
HETATM    4 CL8  UNL     1     -35.003   4.502   4.553  1.00 20.00    -0.043 Cl
ENDBRANCH   1   2
BRANCH   1   5
HETATM    5  C3  UNL     1     -32.941   7.009   3.341  1.00 20.00     0.395 C 
HETATM    6  F5  UNL     1     -31.975   7.320   4.230  1.00 20.00    -0.171 F 
HETATM    7  F6  UNL     1     -32.853   7.868   2.304  1.00 20.00    -0.171 F 
HETATM    8  F7  UNL     1     -32.675   5.771   2.867  1.00 20.00    -0.171 F 
ENDBRANCH   1   5
TORSDOF 2
