REMARK  1 active torsions:
REMARK  status: ('A' for Active; 'I' for Inactive)
REMARK    1  A    between atoms: C1_1  and  C2_2 
ROOT
HETATM    1  C1  UNL     1     -34.893   5.843   4.128  1.00 20.00     0.208 C 
HETATM    2  O3  UNL     1     -35.912   5.668   3.477  1.00 20.00    -0.284 OA
HETATM    3 BR5  UNL     1     -33.304   6.181   3.123  1.00 20.00    -0.008 Br
ENDROOT
BRANCH   1   4
HETATM    4  C2  UNL     1     -34.766   5.818   5.624  1.00 20.00     0.205 C 
HETATM    5 CL4  UNL     1     -34.424   4.173   6.180  1.00 20.00    -0.122 Cl
ENDBRANCH   1   4
TORSDOF 1
