REMARK  0 active torsions:
REMARK  status: ('A' for Active; 'I' for Inactive)
ROOT
HETATM    1  C1  UNL     1     -34.697   3.417   4.276  1.00 20.00     0.345 C 
HETATM    2  C2  UNL     1     -34.224   4.377   6.459  1.00 20.00     0.345 C 
HETATM    3  C3  UNL     1     -34.064   6.095   4.314  1.00 20.00     0.151 C 
HETATM    4  N4  UNL     1     -35.062   3.463   5.689  1.00 20.00     0.101 N 
HETATM    5  S5  UNL     1     -35.091   4.941   3.368  1.00 20.00    -0.129 SA
HETATM    6  S6  UNL     1     -34.505   6.130   6.071  1.00 20.00    -0.129 SA
HETATM    7  H13 UNL     1     -36.038   3.743   5.777  1.00 20.00     0.317 HD
ENDROOT
TORSDOF 0
