REMARK  4 active torsions:
REMARK  status: ('A' for Active; 'I' for Inactive)
REMARK    1  A    between atoms: C1_1  and  N8_8 
REMARK    2  A    between atoms: C1_1  and  N9_9 
REMARK    3  A    between atoms: C6_6  and  N8_8 
REMARK    4  A    between atoms: C7_7  and  N9_9 
ROOT
HETATM    1  N9  UNL     1     -32.701   5.306   3.852  1.00 20.00    -0.220 NA
ENDROOT
BRANCH   1   2
HETATM    2  C1  UNL     1     -32.351   6.144   3.111  1.00 20.00     0.091 C 
BRANCH   2   3
HETATM    3  N8  UNL     1     -31.982   6.973   2.365  1.00 20.00    -0.231 NA
BRANCH   3   4
HETATM    4  C6  UNL     1     -32.934   8.066   2.153  1.00 20.00     0.156 C 
HETATM    5  C2  UNL     1     -32.329   9.069   1.192  1.00 20.00     0.029 C 
ENDBRANCH   3   4
ENDBRANCH   2   3
ENDBRANCH   1   2
BRANCH   1   6
HETATM    6  C7  UNL     1     -34.037   5.523   4.424  1.00 20.00     0.053 C 
HETATM    7  C3  UNL     1     -35.048   5.581   3.279  1.00 20.00     0.041 C 
HETATM    8  C4  UNL     1     -34.345   4.352   5.355  1.00 20.00     0.041 C 
HETATM    9  C5  UNL     1     -34.021   6.839   5.201  1.00 20.00     0.041 C 
ENDBRANCH   1   6
TORSDOF 4
