REMARK  2 active torsions:
REMARK  status: ('A' for Active; 'I' for Inactive)
REMARK    1  A    between atoms: C1_1  and  C3_3 
REMARK    2  A    between atoms: C2_2  and  C5_5 
ROOT
HETATM    1  C1  UNL     1     -32.191   6.377   2.691  1.00 20.00     0.003 C 
HETATM    2  C2  UNL     1     -32.721   5.644   3.678  1.00 20.00     0.041 C 
ENDROOT
BRANCH   1   3
HETATM    3  C3  UNL     1     -32.669   7.700   2.358  1.00 20.00    -0.004 C 
HETATM    4  C4  UNL     1     -32.146   8.443   1.371  1.00 20.00    -0.031 C 
HETATM    5  C6  UNL     1     -32.630   9.811   1.018  1.00 20.00     0.036 C 
ENDBRANCH   1   3
BRANCH   2   6
HETATM    6  C5  UNL     1     -33.837   6.204   4.464  1.00 20.00     0.258 C 
HETATM    7  O7  UNL     1     -34.696   5.490   4.968  1.00 20.00    -0.302 OA
ENDBRANCH   2   6
TORSDOF 2
