REMARK  0 active torsions:
REMARK  status: ('A' for Active; 'I' for Inactive)
ROOT
HETATM    1  C1  UNL     1     -33.193   6.668   4.463  1.00 20.00     0.129 C 
HETATM    2  C2  UNL     1     -34.254   6.662   5.554  1.00 20.00     0.093 C 
HETATM    3  C3  UNL     1     -33.563   6.138   3.085  1.00 20.00     0.093 C 
HETATM    4  C4  UNL     1     -34.395   4.125   5.483  1.00 20.00     0.017 C 
HETATM    5  C5  UNL     1     -33.988   3.817   4.030  1.00 20.00     0.017 C 
HETATM    6  C6  UNL     1     -35.176   5.442   5.522  1.00 20.00     0.054 C 
HETATM    7  C7  UNL     1     -34.501   4.930   3.112  1.00 20.00     0.054 C 
HETATM    8  O8  UNL     1     -32.094   7.189   4.660  1.00 20.00    -0.298 OA
HETATM    9  S9  UNL     1     -36.036   5.407   3.935  1.00 20.00    -0.159 SA
ENDROOT
TORSDOF 0
