REMARK  1 active torsions:
REMARK  status: ('A' for Active; 'I' for Inactive)
REMARK    1  A    between atoms: C6_6  and  C10_10 
ROOT
HETATM    1  C1  UNL     1     -33.630   6.860   2.152  1.00 20.00     0.053 C 
HETATM    2  C2  UNL     1     -32.536   7.633   2.229  1.00 20.00    -0.080 C 
HETATM    3  C3  UNL     1     -34.042   6.008   3.298  1.00 20.00     0.154 C 
HETATM    4  C4  UNL     1     -31.696   7.743   3.475  1.00 20.00     0.034 C 
HETATM    5  C5  UNL     1     -32.432   7.269   4.727  1.00 20.00     0.017 C 
HETATM    6  C6  UNL     1     -33.106   5.918   4.497  1.00 20.00     0.063 C 
HETATM    7  C7  UNL     1     -32.074   8.448   1.056  1.00 20.00     0.043 C 
HETATM    8  O11 UNL     1     -35.083   5.358   3.215  1.00 20.00    -0.293 OA
ENDROOT
BRANCH   6   9
HETATM    9  C10 UNL     1     -33.856   5.472   5.749  1.00 20.00    -0.011 C 
HETATM   10  C8  UNL     1     -34.945   6.481   6.111  1.00 20.00     0.010 C 
HETATM   11  C9  UNL     1     -34.458   4.083   5.550  1.00 20.00     0.010 C 
ENDBRANCH   6   9
TORSDOF 1
