REMARK  1 active torsions:
REMARK  status: ('A' for Active; 'I' for Inactive)
REMARK    1  A    between atoms: C2_2  and  C3_3 
ROOT
HETATM    1  C1  UNL     1     -33.668   5.838   4.680  1.00 20.00     0.010 C 
HETATM    2  C2  UNL     1     -33.055   6.150   3.531  1.00 20.00     0.074 C 
HETATM    3  C4  UNL     1     -33.623   6.733   5.894  1.00 20.00     0.058 C 
HETATM    4  C5  UNL     1     -34.802   6.226   6.728  1.00 20.00     0.026 C 
HETATM    5  C6  UNL     1     -34.937   4.749   6.351  1.00 20.00     0.122 C 
HETATM    6  C8  UNL     1     -34.608   3.544   4.174  1.00 20.00     0.149 C 
HETATM    7  N9  UNL     1     -34.430   4.725   4.988  1.00 20.00    -0.388 N 
ENDROOT
BRANCH   2   8
HETATM    8  C3  UNL     1     -32.290   7.417   3.400  1.00 20.00     0.147 C 
HETATM    9  C7  UNL     1     -31.131   7.605   4.344  1.00 20.00     0.096 C 
HETATM   10  O10 UNL     1     -32.563   8.264   2.553  1.00 20.00    -0.294 OA
ENDBRANCH   2   8
TORSDOF 1
