REMARK  2 active torsions:
REMARK  status: ('A' for Active; 'I' for Inactive)
REMARK    1  A    between atoms: C4_4  and  C10_10 
REMARK    2  A    between atoms: C10_10  and  O11_11 
ROOT
HETATM    1  C1  UNL     1     -33.788   5.843   4.599  1.00 20.00    -0.069 C 
HETATM    2  C2  UNL     1     -34.414   4.938   5.355  1.00 20.00    -0.085 C 
HETATM    3  C3  UNL     1     -32.663   6.815   4.886  1.00 20.00     0.043 C 
HETATM    4  C4  UNL     1     -32.500   6.863   3.345  1.00 20.00     0.025 C 
HETATM    5  C5  UNL     1     -33.954   6.293   3.145  1.00 20.00    -0.018 C 
HETATM    6  C6  UNL     1     -35.524   4.078   4.818  1.00 20.00     0.043 C 
HETATM    7  C7  UNL     1     -34.053   4.714   6.797  1.00 20.00     0.043 C 
HETATM    8  C8  UNL     1     -35.083   7.302   2.936  1.00 20.00     0.020 C 
HETATM    9  C9  UNL     1     -34.013   5.167   2.113  1.00 20.00     0.020 C 
ENDROOT
BRANCH   4  10
HETATM   10  C10 UNL     1     -32.152   8.223   2.760  1.00 20.00     0.170 C 
BRANCH  10  11
HETATM   11  O11 UNL     1     -32.028   8.096   1.354  1.00 20.00    -0.400 OA
HETATM   12  H29 UNL     1     -31.806   8.976   1.007  1.00 20.00     0.209 HD
ENDBRANCH  10  11
ENDBRANCH   4  10
TORSDOF 2
