REMARK  0 active torsions:
REMARK  status: ('A' for Active; 'I' for Inactive)
ROOT
HETATM    1  C1  UNL     1     -32.106   7.684   4.752  1.00 20.00     0.027 A 
HETATM    2  C2  UNL     1     -31.677   7.430   3.458  1.00 20.00     0.116 A 
HETATM    3  C3  UNL     1     -33.316   5.841   3.084  1.00 20.00     0.124 A 
HETATM    4  C4  UNL     1     -33.188   6.948   5.191  1.00 20.00    -0.049 A 
HETATM    5  C5  UNL     1     -33.807   6.015   4.358  1.00 20.00    -0.030 A 
HETATM    6  C6  UNL     1     -33.885   7.029   6.512  1.00 20.00     0.040 C 
HETATM    7  C7  UNL     1     -34.665   5.705   6.514  1.00 20.00     0.014 C 
HETATM    8  C8  UNL     1     -34.985   5.386   5.037  1.00 20.00     0.017 C 
HETATM    9  C9  UNL     1     -35.152   3.895   4.791  1.00 20.00     0.015 C 
HETATM   10  N10 UNL     1     -32.250   6.530   2.615  1.00 20.00    -0.273 NA
ENDROOT
TORSDOF 0
