REMARK  1 active torsions:
REMARK  status: ('A' for Active; 'I' for Inactive)
REMARK    1  A    between atoms: C1_1  and  C2_2 
ROOT
HETATM    1  C1  UNL     1     -33.315   6.496   4.537  1.00 20.00     0.028 C 
HETATM    2  C4  UNL     1     -34.056   6.707   5.840  1.00 20.00     0.059 C 
HETATM    3  C5  UNL     1     -34.571   5.379   6.379  1.00 20.00     0.008 C 
HETATM    4  C6  UNL     1     -35.000   4.415   5.273  1.00 20.00     0.022 C 
HETATM    5  C7  UNL     1     -35.065   5.097   3.913  1.00 20.00     0.149 C 
HETATM    6  N9  UNL     1     -33.783   5.737   3.599  1.00 20.00    -0.294 NA
ENDROOT
BRANCH   1   7
HETATM    7  C2  UNL     1     -32.041   7.214   4.350  1.00 20.00     0.022 C 
HETATM    8  C3  UNL     1     -31.619   7.582   3.159  1.00 20.00    -0.029 C 
HETATM    9  C8  UNL     1     -32.401   7.299   1.919  1.00 20.00     0.036 C 
ENDBRANCH   1   7
TORSDOF 1
