REMARK  4 active torsions:
REMARK  status: ('A' for Active; 'I' for Inactive)
REMARK    1  A    between atoms: C6_6  and  C8_8 
REMARK    2  A    between atoms: C7_7  and  C9_9 
REMARK    3  A    between atoms: C10_10  and  C11_11 
REMARK    4  A    between atoms: C11_11  and  O12_12 
ROOT
HETATM    1  C4  UNL     1     -32.910   7.064   4.926  1.00 20.00     0.012 C 
HETATM    2  C5  UNL     1     -34.162   5.825   3.265  1.00 20.00     0.012 C 
HETATM    3  C8  UNL     1     -34.201   6.607   5.600  1.00 20.00    -0.006 C 
HETATM    4  C9  UNL     1     -34.999   5.817   4.540  1.00 20.00    -0.006 C 
HETATM    5  C10 UNL     1     -32.734   6.167   3.698  1.00 20.00     0.010 C 
ENDROOT
BRANCH   5   6
HETATM    6  C11 UNL     1     -31.926   6.834   2.593  1.00 20.00     0.168 C 
BRANCH   6   7
HETATM    7  O12 UNL     1     -32.604   8.007   2.180  1.00 20.00    -0.400 OA
HETATM    8  H30 UNL     1     -32.069   8.412   1.476  1.00 20.00     0.209 HD
ENDBRANCH   6   7
ENDBRANCH   5   6
BRANCH   3   9
HETATM    9  C6  UNL     1     -34.123   5.613   6.782  1.00 20.00    -0.010 C 
HETATM   10  C1  UNL     1     -33.214   4.409   6.489  1.00 20.00     0.005 C 
HETATM   11  C2  UNL     1     -34.007   3.623   5.435  1.00 20.00     0.005 C 
HETATM   12  C7  UNL     1     -35.275   4.472   5.252  1.00 20.00    -0.010 C 
HETATM   13  C3  UNL     1     -35.506   4.956   6.690  1.00 20.00     0.010 C 
ENDBRANCH   3   9
TORSDOF 4
