REMARK  0 active torsions:
REMARK  status: ('A' for Active; 'I' for Inactive)
ROOT
HETATM    1  C1  UNL     1     -32.992   5.881   3.717  1.00 20.00     0.064 C 
HETATM    2  C2  UNL     1     -35.255   4.906   3.981  1.00 20.00     0.045 C 
HETATM    3  C3  UNL     1     -34.344   6.503   5.698  1.00 20.00     0.045 C 
HETATM    4  C4  UNL     1     -34.962   3.786   4.976  1.00 20.00     0.169 C 
HETATM    5  C5  UNL     1     -34.105   5.289   6.591  1.00 20.00     0.169 C 
HETATM    6  C6  UNL     1     -34.359   6.128   4.212  1.00 20.00     0.097 C 
HETATM    7  N7  UNL     1     -31.916   5.686   3.327  1.00 20.00    -0.197 NA
HETATM    8  O8  UNL     1     -35.057   4.262   6.317  1.00 20.00    -0.391 OA
ENDROOT
TORSDOF 0
