REMARK  0 active torsions:
REMARK  status: ('A' for Active; 'I' for Inactive)
ROOT
HETATM    1  C1  UNL     1     -34.899   4.403   5.531  1.00 20.00     0.011 C 
HETATM    2  C2  UNL     1     -34.767   5.532   6.556  1.00 20.00     0.011 C 
HETATM    3  C3  UNL     1     -35.509   4.802   4.190  1.00 20.00     0.075 C 
HETATM    4  C4  UNL     1     -34.272   6.893   6.076  1.00 20.00     0.075 C 
HETATM    5  C5  UNL     1     -33.670   6.758   3.388  1.00 20.00     0.147 C 
HETATM    6  S6  UNL     1     -34.241   5.108   2.916  1.00 20.00    -0.159 SA
HETATM    7  S7  UNL     1     -32.822   6.825   4.986  1.00 20.00    -0.159 SA
ENDROOT
TORSDOF 0
