REMARK  0 active torsions:
REMARK  status: ('A' for Active; 'I' for Inactive)
ROOT
HETATM    1  C1  UNL     1     -33.808   5.997   2.987  1.00 20.00     0.029 A 
HETATM    2  C2  UNL     1     -32.543   7.425   4.441  1.00 20.00     0.136 A 
HETATM    3  C3  UNL     1     -34.310   5.396   4.124  1.00 20.00    -0.032 A 
HETATM    4  C4  UNL     1     -32.895   7.037   3.148  1.00 20.00     0.029 A 
HETATM    5  C5  UNL     1     -33.900   5.857   5.370  1.00 20.00     0.040 A 
HETATM    6  C6  UNL     1     -35.312   4.299   4.252  1.00 20.00     0.041 C 
HETATM    7  C7  UNL     1     -34.600   5.111   6.469  1.00 20.00     0.060 C 
HETATM    8  C8  UNL     1     -35.091   3.868   5.712  1.00 20.00     0.011 C 
HETATM    9  N9  UNL     1     -33.030   6.861   5.573  1.00 20.00    -0.264 NA
HETATM   10 BR10 UNL     1     -32.153   7.904   1.648  1.00 20.00    -0.050 Br
ENDROOT
TORSDOF 0
