REMARK  2 active torsions:
REMARK  status: ('A' for Active; 'I' for Inactive)
REMARK    1  A    between atoms: C1_1  and  C6_6 
REMARK    2  A    between atoms: C5_5  and  N7_7 
ROOT
HETATM    1  C1  UNL     1     -33.902   5.655   4.393  1.00 20.00     0.108 C 
HETATM    2  C2  UNL     1     -34.929   4.965   3.530  1.00 20.00     0.075 C 
HETATM    3  N7  UNL     1     -32.975   6.434   3.950  1.00 20.00    -0.285 NA
ENDROOT
BRANCH   1   4
HETATM    4  C6  UNL     1     -33.981   5.418   5.876  1.00 20.00     0.430 C 
HETATM    5  F8  UNL     1     -35.008   4.589   6.195  1.00 20.00    -0.165 F 
HETATM    6  F9  UNL     1     -34.168   6.562   6.582  1.00 20.00    -0.165 F 
HETATM    7  F10 UNL     1     -32.848   4.844   6.353  1.00 20.00    -0.165 F 
ENDBRANCH   1   4
BRANCH   3   8
HETATM    8  C5  UNL     1     -32.900   6.675   2.517  1.00 20.00     0.100 C 
HETATM    9  C3  UNL     1     -32.356   8.076   2.280  1.00 20.00     0.034 C 
HETATM   10  C4  UNL     1     -32.015   5.612   1.883  1.00 20.00     0.034 C 
ENDBRANCH   3   8
TORSDOF 2
