REMARK  1 active torsions:
REMARK  status: ('A' for Active; 'I' for Inactive)
REMARK    1  A    between atoms: C3_3  and  C5_5 
ROOT
HETATM    1  C1  UNL     1     -32.210   5.626   3.677  1.00 20.00     0.025 A 
HETATM    2  C2  UNL     1     -31.773   6.564   2.697  1.00 20.00     0.028 A 
HETATM    3  C3  UNL     1     -33.283   6.097   4.402  1.00 20.00     0.089 A 
HETATM    4  C4  UNL     1     -32.527   7.716   2.711  1.00 20.00     0.052 A 
HETATM    5  S9  UNL     1     -33.758   7.664   3.901  1.00 20.00    -0.078 SA
HETATM    6 BR10 UNL     1     -32.250   9.196   1.554  1.00 20.00    -0.043 Br
ENDROOT
BRANCH   3   7
HETATM    7  C5  UNL     1     -34.017   5.430   5.498  1.00 20.00     0.423 C 
HETATM    8  F6  UNL     1     -33.546   4.180   5.809  1.00 20.00    -0.166 F 
HETATM    9  F7  UNL     1     -33.992   6.113   6.686  1.00 20.00    -0.166 F 
HETATM   10  F8  UNL     1     -35.347   5.248   5.221  1.00 20.00    -0.166 F 
ENDBRANCH   3   7
TORSDOF 1
