REMARK  2 active torsions:
REMARK  status: ('A' for Active; 'I' for Inactive)
REMARK    1  A    between atoms: C1_1  and  N7_7 
REMARK    2  A    between atoms: N6_6  and  N8_8 
ROOT
HETATM    1  C1  UNL     1     -33.058   6.819   2.684  1.00 20.00     0.220 C 
HETATM    2  N6  UNL     1     -32.043   7.582   2.944  1.00 20.00    -0.195 NA
ENDROOT
BRANCH   1   3
HETATM    3  N7  UNL     1     -33.851   6.123   3.580  1.00 20.00    -0.383 N 
HETATM    4  C2  UNL     1     -34.961   5.301   3.118  1.00 20.00     0.150 C 
HETATM    5  C3  UNL     1     -33.780   6.383   5.011  1.00 20.00     0.150 C 
ENDBRANCH   1   3
BRANCH   2   6
HETATM    6  N8  UNL     1     -31.492   8.124   1.827  1.00 20.00    -0.216 NA
HETATM    7  C4  UNL     1     -32.054   9.419   1.422  1.00 20.00     0.138 C 
HETATM    8  C5  UNL     1     -30.032   8.242   1.894  1.00 20.00     0.138 C 
ENDBRANCH   2   6
TORSDOF 2
