REMARK  3 active torsions:
REMARK  status: ('A' for Active; 'I' for Inactive)
REMARK    1  A    between atoms: C1_1  and  C5_5 
REMARK    2  A    between atoms: C5_5  and  C6_6 
REMARK    3  A    between atoms: C5_5  and  O8_8 
ROOT
HETATM    1  C5  UNL     1     -33.407   6.036   4.404  1.00 20.00     0.186 C 
ENDROOT
BRANCH   1   2
HETATM    2  C1  UNL     1     -33.008   7.115   3.413  1.00 20.00     0.263 C 
HETATM    3  O7  UNL     1     -31.994   7.078   2.723  1.00 20.00    -0.304 OA
ENDBRANCH   1   2
BRANCH   1   4
HETATM    4  C6  UNL     1     -34.331   4.950   3.792  1.00 20.00    -0.019 C 
HETATM    5  C2  UNL     1     -34.708   3.891   4.845  1.00 20.00     0.017 C 
HETATM    6  C3  UNL     1     -33.583   4.239   2.644  1.00 20.00     0.017 C 
HETATM    7  C4  UNL     1     -35.618   5.567   3.213  1.00 20.00     0.017 C 
ENDBRANCH   1   4
BRANCH   1   8
HETATM    8  O8  UNL     1     -34.054   6.671   5.498  1.00 20.00    -0.388 OA
HETATM    9  H20 UNL     1     -33.411   7.290   5.883  1.00 20.00     0.210 HD
ENDBRANCH   1   8
TORSDOF 3
