REMARK  0 active torsions:
REMARK  status: ('A' for Active; 'I' for Inactive)
ROOT
HETATM    1  C1  UNL     1     -32.287   7.683   5.169  1.00 20.00     0.013 A 
HETATM    2  C2  UNL     1     -31.708   8.267   4.042  1.00 20.00     0.043 A 
HETATM    3  C3  UNL     1     -32.913   6.722   2.664  1.00 20.00     0.050 A 
HETATM    4  C4  UNL     1     -33.200   6.603   5.091  1.00 20.00    -0.020 A 
HETATM    5  C5  UNL     1     -33.514   6.132   3.797  1.00 20.00    -0.046 A 
HETATM    6  C6  UNL     1     -32.021   7.783   2.784  1.00 20.00     0.117 A 
HETATM    7  C7  UNL     1     -34.465   4.986   3.551  1.00 20.00     0.039 C 
HETATM    8  C8  UNL     1     -35.813   5.170   4.239  1.00 20.00     0.007 C 
HETATM    9  C9  UNL     1     -35.842   4.554   5.626  1.00 20.00     0.035 C 
HETATM   10  C10 UNL     1     -33.723   6.050   6.399  1.00 20.00     0.184 A 
HETATM   11  C11 UNL     1     -34.940   5.184   6.628  1.00 20.00     0.156 A 
HETATM   12  O12 UNL     1     -33.610   4.636   6.605  1.00 20.00    -0.370 OA
HETATM   13  F13 UNL     1     -31.474   8.328   1.692  1.00 20.00    -0.206 F 
ENDROOT
TORSDOF 0
