REMARK  0 active torsions:
REMARK  status: ('A' for Active; 'I' for Inactive)
ROOT
HETATM    1  C1  UNL     1     -32.468   7.110   3.614  1.00 20.00     0.064 C 
HETATM    2  C2  UNL     1     -33.798   4.360   5.737  1.00 20.00     0.011 C 
HETATM    3  C3  UNL     1     -35.678   5.491   4.816  1.00 20.00     0.010 C 
HETATM    4  C4  UNL     1     -32.747   6.205   4.729  1.00 20.00     0.101 C 
HETATM    5  C5  UNL     1     -34.699   5.571   6.002  1.00 20.00    -0.009 C 
HETATM    6  C6  UNL     1     -33.390   4.854   4.339  1.00 20.00     0.007 C 
HETATM    7  C7  UNL     1     -34.792   4.944   3.678  1.00 20.00    -0.013 C 
HETATM    8  C8  UNL     1     -33.749   6.774   5.762  1.00 20.00     0.003 C 
HETATM    9  C9  UNL     1     -34.916   5.728   2.383  1.00 20.00     0.010 C 
HETATM   10  C10 UNL     1     -33.054   7.226   7.044  1.00 20.00     0.011 C 
HETATM   11  N11 UNL     1     -32.247   7.828   2.730  1.00 20.00    -0.197 NA
ENDROOT
TORSDOF 0
