REMARK  0 active torsions:
REMARK  status: ('A' for Active; 'I' for Inactive)
ROOT
HETATM    1  C1  UNL     1     -35.023   4.450   4.899  1.00 20.00     0.184 C 
HETATM    2  C2  UNL     1     -34.817   6.057   6.168  1.00 20.00     0.184 C 
HETATM    3  C3  UNL     1     -35.164   4.589   6.413  1.00 20.00     0.101 C 
HETATM    4  O4  UNL     1     -34.467   5.782   4.790  1.00 20.00    -0.389 OA
HETATM    5  I5  UNL     1     -37.298   4.205   7.249  1.00 20.00    -0.080 I 
ENDROOT
TORSDOF 0
