REMARK  0 active torsions:
REMARK  status: ('A' for Active; 'I' for Inactive)
ROOT
HETATM    1  C1  UNL     1     -32.706   7.174   5.368  1.00 20.00     0.009 A 
HETATM    2  C2  UNL     1     -32.204   7.749   4.201  1.00 20.00     0.024 A 
HETATM    3  C3  UNL     1     -33.652   6.338   2.880  1.00 20.00     0.033 A 
HETATM    4  C4  UNL     1     -33.681   6.170   5.299  1.00 20.00    -0.048 A 
HETATM    5  C5  UNL     1     -34.171   5.761   4.047  1.00 20.00    -0.022 A 
HETATM    6  C6  UNL     1     -32.675   7.330   2.959  1.00 20.00     0.034 A 
HETATM    7  C7  UNL     1     -34.245   5.577   6.565  1.00 20.00     0.069 C 
HETATM    8  C8  UNL     1     -35.201   4.662   3.950  1.00 20.00     0.308 C 
HETATM    9  C9  UNL     1     -35.000   4.270   6.316  1.00 20.00     0.274 C 
HETATM   10  N10 UNL     1     -35.932   4.430   5.201  1.00 20.00     0.087 N 
HETATM   11 CL11 UNL     1     -32.051   8.039   1.519  1.00 20.00    -0.084 Cl
HETATM   12  H21 UNL     1     -36.546   5.224   5.384  1.00 20.00     0.316 HD
ENDROOT
TORSDOF 0
