REMARK  1 active torsions:
REMARK  status: ('A' for Active; 'I' for Inactive)
REMARK    1  A    between atoms: C2_2  and  C4_4 
ROOT
HETATM    1  C1  UNL     1     -36.408   5.400   4.245  1.00 20.00     0.146 C 
HETATM    2  C4  UNL     1     -35.111   5.107   4.853  1.00 20.00     0.388 C 
HETATM    3  N5  UNL     1     -37.439   5.630   3.765  1.00 20.00    -0.190 NA
HETATM    4  F9  UNL     1     -35.147   5.511   6.152  1.00 20.00    -0.181 F 
HETATM    5  F10 UNL     1     -34.950   3.757   4.885  1.00 20.00    -0.181 F 
ENDROOT
BRANCH   2   6
HETATM    6  C2  UNL     1     -34.009   5.803   4.125  1.00 20.00     0.247 C 
HETATM    7  C3  UNL     1     -33.174   6.697   4.665  1.00 20.00     0.308 C 
HETATM    8  F7  UNL     1     -32.204   7.275   3.925  1.00 20.00    -0.170 F 
HETATM    9  F8  UNL     1     -33.304   7.028   5.967  1.00 20.00    -0.170 F 
HETATM   10  F6  UNL     1     -33.857   5.529   2.807  1.00 20.00    -0.197 F 
ENDBRANCH   2   6
TORSDOF 1
