REMARK  1 active torsions:
REMARK  status: ('A' for Active; 'I' for Inactive)
REMARK    1  A    between atoms: C1_1  and  C2_2 
ROOT
HETATM    1  C1  UNL     1     -34.431   5.678   4.095  1.00 20.00     0.346 C 
HETATM    2  O3  UNL     1     -34.900   5.368   3.010  1.00 20.00    -0.255 OA
HETATM    3  F4  UNL     1     -33.304   6.405   4.087  1.00 20.00    -0.160 F 
ENDROOT
BRANCH   1   4
HETATM    4  C2  UNL     1     -34.988   5.263   5.417  1.00 20.00     0.369 C 
HETATM    5  F5  UNL     1     -34.251   5.755   6.446  1.00 20.00    -0.222 F 
HETATM    6 CL6  UNL     1     -34.990   3.498   5.485  1.00 20.00    -0.078 Cl
ENDBRANCH   1   4
TORSDOF 1
