REMARK  1 active torsions:
REMARK  status: ('A' for Active; 'I' for Inactive)
REMARK    1  A    between atoms: C10_10  and  O11_11 
ROOT
HETATM    1  C1  UNL     1     -34.043   4.604   7.220  1.00 20.00    -0.030 C 
HETATM    2  C2  UNL     1     -34.405   5.882   6.967  1.00 20.00    -0.025 C 
HETATM    3  C3  UNL     1     -34.074   3.747   5.952  1.00 20.00     0.032 C 
HETATM    4  C4  UNL     1     -35.464   5.850   3.349  1.00 20.00     0.013 C 
HETATM    5  C5  UNL     1     -33.648   7.350   3.807  1.00 20.00     0.037 C 
HETATM    6  C6  UNL     1     -34.898   5.922   5.569  1.00 20.00     0.017 C 
HETATM    7  C7  UNL     1     -33.920   4.892   4.980  1.00 20.00     0.003 C 
HETATM    8  C8  UNL     1     -35.006   6.903   4.398  1.00 20.00    -0.004 C 
HETATM    9  C9  UNL     1     -34.173   5.017   3.464  1.00 20.00     0.020 C 
HETATM   10  C10 UNL     1     -33.204   6.125   2.961  1.00 20.00     0.123 C 
ENDROOT
BRANCH  10  11
HETATM   11  O11 UNL     1     -31.837   5.821   3.150  1.00 20.00    -0.395 OA
HETATM   12  H25 UNL     1     -31.327   6.604   2.877  1.00 20.00     0.210 HD
ENDBRANCH  10  11
TORSDOF 1
