REMARK  1 active torsions:
REMARK  status: ('A' for Active; 'I' for Inactive)
REMARK    1  A    between atoms: C3_3  and  C4_4 
ROOT
HETATM    1  C1  UNL     1     -32.150   7.040   4.172  1.00 20.00     0.087 A 
HETATM    2  C2  UNL     1     -33.394   5.788   2.533  1.00 20.00     0.166 A 
HETATM    3  C3  UNL     1     -33.264   6.376   4.642  1.00 20.00     0.125 A 
HETATM    4  N5  UNL     1     -33.979   5.657   3.703  1.00 20.00    -0.249 NA
HETATM    5  S7  UNL     1     -31.981   6.760   2.488  1.00 20.00    -0.092 SA
ENDROOT
BRANCH   3   6
HETATM    6  C4  UNL     1     -33.690   6.402   6.012  1.00 20.00     0.271 C 
HETATM    7  O6  UNL     1     -33.032   7.059   6.859  1.00 20.00    -0.272 OA
HETATM    8 CL8  UNL     1     -35.140   5.521   6.562  1.00 20.00    -0.037 Cl
ENDBRANCH   3   6
TORSDOF 1
