REMARK  0 active torsions:
REMARK  status: ('A' for Active; 'I' for Inactive)
ROOT
HETATM    1  C1  UNL     1     -33.246   5.917   4.094  1.00 20.00     0.101 C 
HETATM    2  C2  UNL     1     -33.945   4.040   5.542  1.00 20.00     0.067 C 
HETATM    3  C3  UNL     1     -34.276   5.430   5.015  1.00 20.00     0.197 C 
HETATM    4  N4  UNL     1     -32.428   6.300   3.364  1.00 20.00    -0.194 NA
HETATM    5 CL5  UNL     1     -34.393   6.580   6.374  1.00 20.00    -0.085 Cl
HETATM    6 CL6  UNL     1     -35.829   5.390   4.139  1.00 20.00    -0.085 Cl
ENDROOT
TORSDOF 0
