REMARK  0 active torsions:
REMARK  status: ('A' for Active; 'I' for Inactive)
ROOT
HETATM    1  C1  UNL     1     -34.589   4.875   3.423  1.00 20.00     0.015 A 
HETATM    2  C2  UNL     1     -33.754   5.426   2.444  1.00 20.00     0.025 A 
HETATM    3  C3  UNL     1     -35.317   5.163   5.911  1.00 20.00     0.031 A 
HETATM    4  C4  UNL     1     -32.959   7.118   3.997  1.00 20.00     0.054 A 
HETATM    5  C5  UNL     1     -34.925   6.082   6.857  1.00 20.00     0.091 A 
HETATM    6  C6  UNL     1     -34.612   5.451   4.709  1.00 20.00    -0.008 A 
HETATM    7  C7  UNL     1     -33.799   6.556   4.966  1.00 20.00     0.045 A 
HETATM    8  C8  UNL     1     -32.953   6.530   2.729  1.00 20.00     0.036 A 
HETATM    9  C9  UNL     1     -33.366   8.020   6.960  1.00 20.00     0.155 C 
HETATM   10  N10 UNL     1     -34.009   6.918   6.278  1.00 20.00    -0.360 N 
HETATM   11 CL11 UNL     1     -31.937   7.184   1.499  1.00 20.00    -0.084 Cl
ENDROOT
TORSDOF 0
