REMARK  3 active torsions:
REMARK  status: ('A' for Active; 'I' for Inactive)
REMARK    1  A    between atoms: C1_1  and  C3_3 
REMARK    2  A    between atoms: C3_3  and  O9_9 
REMARK    3  A    between atoms: C7_7  and  O9_9 
ROOT
HETATM    1  C3  UNL     1     -32.957   6.770   3.273  1.00 20.00     0.282 C 
HETATM    2  O8  UNL     1     -31.862   6.626   3.792  1.00 20.00    -0.260 OA
ENDROOT
BRANCH   1   3
HETATM    3  C1  UNL     1     -34.116   5.869   3.452  1.00 20.00     0.077 C 
HETATM    4  C2  UNL     1     -34.627   5.672   4.675  1.00 20.00    -0.025 C 
HETATM    5  C4  UNL     1     -34.086   6.322   5.906  1.00 20.00     0.036 C 
ENDBRANCH   1   3
BRANCH   1   6
HETATM    6  O9  UNL     1     -33.339   7.770   2.433  1.00 20.00    -0.314 OA
BRANCH   6   7
HETATM    7  C7  UNL     1     -32.333   8.746   2.142  1.00 20.00     0.124 C 
HETATM    8  C5  UNL     1     -31.529   8.291   0.934  1.00 20.00     0.040 C 
HETATM    9  C6  UNL     1     -32.998  10.094   1.905  1.00 20.00     0.040 C 
ENDBRANCH   6   7
ENDBRANCH   1   6
TORSDOF 3
