REMARK  3 active torsions:
REMARK  status: ('A' for Active; 'I' for Inactive)
REMARK    1  A    between atoms: C3_3  and  C8_8 
REMARK    2  A    between atoms: C7_7  and  C8_8 
REMARK    3  A    between atoms: N9_9  and  O10_10 
ROOT
HETATM    1  C1  UNL     1     -33.716   5.944   5.346  1.00 20.00     0.043 C 
HETATM    2  C4  UNL     1     -34.494   4.661   5.312  1.00 20.00     0.057 C 
HETATM    3  C5  UNL     1     -35.229   4.796   3.986  1.00 20.00     0.006 C 
HETATM    4  C6  UNL     1     -34.261   5.569   3.095  1.00 20.00     0.011 C 
HETATM    5  C7  UNL     1     -33.667   6.647   4.010  1.00 20.00     0.039 C 
HETATM    6  N9  UNL     1     -33.176   6.389   6.430  1.00 20.00    -0.145 NA
ENDROOT
BRANCH   5   7
HETATM    7  C8  UNL     1     -32.270   7.059   3.584  1.00 20.00     0.036 C 
BRANCH   7   8
HETATM    8  C3  UNL     1     -32.213   7.367   2.118  1.00 20.00    -0.036 C 
HETATM    9  C2  UNL     1     -32.469   8.572   1.597  1.00 20.00     0.007 C 
ENDBRANCH   7   8
ENDBRANCH   5   7
BRANCH   6  10
HETATM   10  O10 UNL     1     -32.529   7.591   6.139  1.00 20.00    -0.266 OA
HETATM   11  H23 UNL     1     -32.166   7.832   7.008  1.00 20.00     0.247 HD
ENDBRANCH   6  10
TORSDOF 3
