REMARK  0 active torsions:
REMARK  status: ('A' for Active; 'I' for Inactive)
ROOT
HETATM    1  C1  UNL     1     -33.465   6.729   6.395  1.00 20.00     0.086 C 
HETATM    2  C2  UNL     1     -34.313   4.909   3.256  1.00 20.00     0.017 C 
HETATM    3  C3  UNL     1     -32.826   4.656   5.106  1.00 20.00     0.049 C 
HETATM    4  C4  UNL     1     -32.813   4.720   3.554  1.00 20.00     0.020 C 
HETATM    5  C5  UNL     1     -34.397   6.207   4.093  1.00 20.00     0.055 C 
HETATM    6  C6  UNL     1     -32.210   6.059   3.159  1.00 20.00     0.155 A 
HETATM    7  C7  UNL     1     -33.268   7.053   3.502  1.00 20.00     0.158 A 
HETATM    8  C8  UNL     1     -33.939   5.680   5.486  1.00 20.00     0.132 C 
HETATM    9  N9  UNL     1     -33.089   7.559   7.114  1.00 20.00    -0.195 NA
HETATM   10  O10 UNL     1     -32.880   6.812   2.145  1.00 20.00    -0.374 OA
HETATM   11 CL11 UNL     1     -35.293   4.860   6.329  1.00 20.00    -0.102 Cl
ENDROOT
TORSDOF 0
