REMARK  3 active torsions:
REMARK  status: ('A' for Active; 'I' for Inactive)
REMARK    1  A    between atoms: C3_3  and  C6_6 
REMARK    2  A    between atoms: C4_4  and  C7_7 
REMARK    3  A    between atoms: C5_5  and  C8_8 
ROOT
HETATM    1  C1  UNL     1     -34.180   5.019   2.609  1.00 20.00     0.012 C 
HETATM    2  C2  UNL     1     -33.276   7.140   3.058  1.00 20.00     0.012 C 
HETATM    3  C3  UNL     1     -32.923   5.658   3.201  1.00 20.00    -0.005 C 
HETATM    4  C4  UNL     1     -35.090   5.615   3.677  1.00 20.00     0.022 C 
HETATM    5  C5  UNL     1     -34.488   7.028   3.977  1.00 20.00     0.022 C 
ENDROOT
BRANCH   3   6
HETATM    6  C6  UNL     1     -33.104   5.413   4.725  1.00 20.00     0.048 C 
HETATM    7  C7  UNL     1     -34.562   4.912   4.922  1.00 20.00     0.133 C 
HETATM    8  O9  UNL     1     -34.699   5.808   6.069  1.00 20.00    -0.379 OA
HETATM    9  C8  UNL     1     -33.811   6.675   5.296  1.00 20.00     0.133 C 
ENDBRANCH   3   6
TORSDOF 3
