REMARK  3 active torsions:
REMARK  status: ('A' for Active; 'I' for Inactive)
REMARK    1  A    between atoms: C3_3  and  C5_5 
REMARK    2  A    between atoms: C4_4  and  C6_6 
REMARK    3  A    between atoms: C5_5  and  C6_6 
ROOT
HETATM    1  C1  UNL     1     -32.600   8.866   1.610  1.00 20.00     0.087 C 
HETATM    2  C3  UNL     1     -32.655   7.481   1.920  1.00 20.00     0.093 C 
HETATM    3  N7  UNL     1     -32.553   9.997   1.351  1.00 20.00    -0.192 NA
ENDROOT
BRANCH   2   4
HETATM    4  C5  UNL     1     -33.075   7.048   3.117  1.00 20.00     0.011 C 
BRANCH   4   5
HETATM    5  C6  UNL     1     -33.144   5.646   3.468  1.00 20.00     0.011 C 
BRANCH   5   6
HETATM    6  C4  UNL     1     -33.563   5.213   4.665  1.00 20.00     0.093 C 
HETATM    7  C2  UNL     1     -33.972   6.119   5.681  1.00 20.00     0.087 C 
HETATM    8  N8  UNL     1     -34.307   6.856   6.512  1.00 20.00    -0.192 NA
ENDBRANCH   5   6
ENDBRANCH   4   5
ENDBRANCH   2   4
TORSDOF 3
