REMARK  3 active torsions:
REMARK  status: ('A' for Active; 'I' for Inactive)
REMARK    1  A    between atoms: C3_3  and  C7_7 
REMARK    2  A    between atoms: C4_4  and  C5_5 
REMARK    3  A    between atoms: C7_7  and  O9_9 
ROOT
HETATM    1  C1  UNL     1     -33.477   5.820   3.562  1.00 20.00     0.031 A 
HETATM    2  C2  UNL     1     -32.757   7.665   4.778  1.00 20.00     0.060 A 
HETATM    3  C3  UNL     1     -32.705   7.017   3.563  1.00 20.00    -0.027 A 
HETATM    4  C4  UNL     1     -34.090   5.598   4.776  1.00 20.00     0.043 A 
HETATM    5  S10 UNL     1     -33.734   6.831   5.910  1.00 20.00    -0.098 SA
ENDROOT
BRANCH   3   6
HETATM    6  C7  UNL     1     -31.937   7.506   2.395  1.00 20.00     0.206 C 
BRANCH   6   7
HETATM    7  O9  UNL     1     -32.618   8.607   1.796  1.00 20.00    -0.391 OA
HETATM    8  C6  UNL     1     -31.910   9.103   0.671  1.00 20.00     0.201 C 
ENDBRANCH   6   7
ENDBRANCH   3   6
BRANCH   4   9
HETATM    9  C5  UNL     1     -34.938   4.519   5.166  1.00 20.00     0.277 C 
HETATM   10  O8  UNL     1     -35.450   4.404   6.300  1.00 20.00    -0.301 OA
ENDBRANCH   4   9
TORSDOF 3
