REMARK  0 active torsions:
REMARK  status: ('A' for Active; 'I' for Inactive)
ROOT
HETATM    1  C1  UNL     1     -34.026   5.583   2.720  1.00 20.00     0.179 A 
HETATM    2  C2  UNL     1     -34.295   5.441   4.055  1.00 20.00    -0.007 A 
HETATM    3  C3  UNL     1     -33.460   6.398   4.672  1.00 20.00     0.070 A 
HETATM    4  C4  UNL     1     -35.196   4.528   4.799  1.00 20.00     0.043 C 
HETATM    5  C5  UNL     1     -33.421   6.638   6.136  1.00 20.00     0.062 C 
HETATM    6  C6  UNL     1     -35.402   5.021   6.244  1.00 20.00     0.005 C 
HETATM    7  C7  UNL     1     -34.082   5.473   6.899  1.00 20.00     0.006 C 
HETATM    8  N8  UNL     1     -32.736   7.087   3.787  1.00 20.00    -0.133 NA
HETATM    9  O9  UNL     1     -33.098   6.562   2.547  1.00 20.00    -0.225 OA
ENDROOT
TORSDOF 0
