REMARK  3 active torsions:
REMARK  status: ('A' for Active; 'I' for Inactive)
REMARK    1  A    between atoms: C2_2  and  C7_7 
REMARK    2  A    between atoms: C3_3  and  C8_8 
REMARK    3  A    between atoms: C8_8  and  C9_9 
ROOT
HETATM    1  C1  UNL     1     -33.871   5.477   3.154  1.00 20.00     0.095 C 
HETATM    2  C2  UNL     1     -33.471   6.249   4.293  1.00 20.00     0.024 C 
HETATM    3  C3  UNL     1     -32.457   7.145   4.194  1.00 20.00    -0.067 C 
HETATM    4  C4  UNL     1     -31.970   8.001   5.343  1.00 20.00     0.044 C 
HETATM    5  N10 UNL     1     -34.207   4.845   2.240  1.00 20.00    -0.192 NA
ENDROOT
BRANCH   2   6
HETATM    6  C7  UNL     1     -34.218   5.960   5.582  1.00 20.00     0.046 C 
HETATM    7  C5  UNL     1     -35.305   4.911   5.392  1.00 20.00     0.011 C 
ENDBRANCH   2   6
BRANCH   3   8
HETATM    8  C8  UNL     1     -31.664   7.364   2.915  1.00 20.00     0.034 C 
BRANCH   8   9
HETATM    9  C9  UNL     1     -32.236   8.503   2.068  1.00 20.00    -0.000 C 
HETATM   10  C6  UNL     1     -31.444   8.689   0.783  1.00 20.00     0.005 C 
ENDBRANCH   8   9
ENDBRANCH   3   8
TORSDOF 3
