REMARK  1 active torsions:
REMARK  status: ('A' for Active; 'I' for Inactive)
REMARK    1  A    between atoms: C10_10  and  O12_12 
ROOT
HETATM    1  C1  UNL     1     -34.028   3.872   5.546  1.00 20.00     0.005 C 
HETATM    2  C2  UNL     1     -32.954   4.906   5.911  1.00 20.00     0.005 C 
HETATM    3  C3  UNL     1     -34.644   4.866   2.707  1.00 20.00     0.008 C 
HETATM    4  C4  UNL     1     -33.158   5.190   2.599  1.00 20.00     0.033 C 
HETATM    5  C5  UNL     1     -35.086   5.837   6.331  1.00 20.00     0.010 C 
HETATM    6  C6  UNL     1     -35.266   4.740   5.273  1.00 20.00    -0.010 C 
HETATM    7  C7  UNL     1     -33.704   6.244   5.798  1.00 20.00    -0.007 C 
HETATM    8  C8  UNL     1     -35.138   5.566   3.971  1.00 20.00    -0.004 C 
HETATM    9  C9  UNL     1     -34.068   6.618   4.342  1.00 20.00     0.023 C 
HETATM   10  C10 UNL     1     -33.026   6.572   3.229  1.00 20.00     0.125 C 
ENDROOT
BRANCH  10  11
HETATM   11  O12 UNL     1     -31.719   6.831   3.699  1.00 20.00    -0.390 OA
HETATM   12  C11 UNL     1     -31.479   8.226   3.857  1.00 20.00     0.202 C 
ENDBRANCH  10  11
TORSDOF 1
