REMARK  0 active torsions:
REMARK  status: ('A' for Active; 'I' for Inactive)
ROOT
HETATM    1  C1  UNL     1     -32.229   8.258   1.318  1.00 20.00     0.096 C 
HETATM    2  C2  UNL     1     -32.588   7.900   2.547  1.00 20.00     0.096 C 
HETATM    3 CL3  UNL     1     -32.490   9.834   0.700  1.00 20.00    -0.096 Cl
HETATM    4 CL4  UNL     1     -32.328   6.324   3.164  1.00 20.00    -0.096 Cl
ENDROOT
TORSDOF 0
