REMARK  0 active torsions:
REMARK  status: ('A' for Active; 'I' for Inactive)
ROOT
HETATM    1  C1  UNL     1     -32.934   7.472   5.280  1.00 20.00     0.014 A 
HETATM    2  C2  UNL     1     -32.388   7.998   4.177  1.00 20.00     0.075 A 
HETATM    3  C3  UNL     1     -33.721   6.257   5.229  1.00 20.00    -0.035 A 
HETATM    4  C4  UNL     1     -33.900   5.639   4.047  1.00 20.00     0.018 A 
HETATM    5  C5  UNL     1     -32.589   7.324   2.865  1.00 20.00     0.245 A 
HETATM    6  C6  UNL     1     -34.313   5.749   6.516  1.00 20.00     0.040 C 
HETATM    7  C7  UNL     1     -34.684   4.364   3.898  1.00 20.00     0.057 C 
HETATM    8  C8  UNL     1     -35.389   4.680   6.299  1.00 20.00     0.005 C 
HETATM    9  C9  UNL     1     -34.961   3.673   5.236  1.00 20.00     0.006 C 
HETATM   10  N10 UNL     1     -33.346   6.165   2.899  1.00 20.00    -0.327 N 
HETATM   11  O11 UNL     1     -32.097   7.795   1.842  1.00 20.00    -0.268 OA
HETATM   12  H22 UNL     1     -33.503   5.672   2.024  1.00 20.00     0.169 HD
ENDROOT
TORSDOF 0
