REMARK  0 active torsions:
REMARK  status: ('A' for Active; 'I' for Inactive)
ROOT
HETATM    1  C1  UNL     1     -33.070   6.628   3.951  1.00 20.00     0.086 C 
HETATM    2  C2  UNL     1     -35.100   3.843   4.584  1.00 20.00    -0.025 C 
HETATM    3  C3  UNL     1     -35.543   5.044   4.185  1.00 20.00    -0.023 C 
HETATM    4  C4  UNL     1     -35.357   5.134   6.479  1.00 20.00     0.020 C 
HETATM    5  C5  UNL     1     -33.118   4.814   5.711  1.00 20.00     0.050 C 
HETATM    6  C6  UNL     1     -34.442   4.037   5.929  1.00 20.00     0.011 C 
HETATM    7  C7  UNL     1     -35.158   6.045   5.257  1.00 20.00     0.046 C 
HETATM    8  C8  UNL     1     -33.614   6.223   5.253  1.00 20.00     0.133 C 
HETATM    9  N9  UNL     1     -32.641   6.947   2.922  1.00 20.00    -0.195 NA
HETATM   10 CL10 UNL     1     -33.120   7.483   6.427  1.00 20.00    -0.102 Cl
ENDROOT
TORSDOF 0
