REMARK  4 active torsions:
REMARK  status: ('A' for Active; 'I' for Inactive)
REMARK    1  A    between atoms: C1_1  and  O10_10 
REMARK    2  A    between atoms: C1_1  and  O11_11 
REMARK    3  A    between atoms: C7_7  and  O10_10 
REMARK    4  A    between atoms: C8_8  and  O11_11 
ROOT
HETATM    1  C1  UNL     1     -32.346   7.207   3.696  1.00 20.00     0.407 C 
HETATM    2  O9  UNL     1     -31.793   7.924   4.519  1.00 20.00    -0.229 OA
ENDROOT
BRANCH   1   3
HETATM    3  O10 UNL     1     -32.439   7.448   2.358  1.00 20.00    -0.293 OA
BRANCH   3   4
HETATM    4  C7  UNL     1     -31.825   8.658   1.904  1.00 20.00     0.126 C 
HETATM    5  C2  UNL     1     -31.315   8.459   0.485  1.00 20.00     0.040 C 
HETATM    6  C3  UNL     1     -32.834   9.794   1.989  1.00 20.00     0.040 C 
ENDBRANCH   3   4
ENDBRANCH   1   3
BRANCH   1   7
HETATM    7  O11 UNL     1     -32.974   6.026   3.960  1.00 20.00    -0.288 OA
BRANCH   7   8
HETATM    8  C8  UNL     1     -34.072   6.098   4.870  1.00 20.00     0.062 C 
HETATM    9  C4  UNL     1     -35.126   7.039   4.286  1.00 20.00     0.046 C 
HETATM   10  C5  UNL     1     -34.637   4.688   5.023  1.00 20.00     0.046 C 
HETATM   11  C6  UNL     1     -33.559   6.620   6.211  1.00 20.00     0.046 C 
ENDBRANCH   7   8
ENDBRANCH   1   7
TORSDOF 4
