REMARK  5 active torsions:
REMARK  status: ('A' for Active; 'I' for Inactive)
REMARK    1  A    between atoms: C2_2  and  C4_4 
REMARK    2  A    between atoms: C4_4  and  C6_6 
REMARK    3  A    between atoms: C5_5  and  C6_6 
REMARK    4  A    between atoms: C5_5  and  C7_7 
REMARK    5  A    between atoms: C6_6  and  O8_8 
ROOT
HETATM    1  C6  UNL     1     -32.931   6.576   3.366  1.00 20.00     0.130 C 
ENDROOT
BRANCH   1   2
HETATM    2  C4  UNL     1     -32.001   7.774   3.125  1.00 20.00     0.065 C 
BRANCH   2   3
HETATM    3  C2  UNL     1     -32.011   8.259   1.691  1.00 20.00    -0.091 C 
HETATM    4  C1  UNL     1     -31.616   7.469   0.680  1.00 20.00     0.014 C 
HETATM    5  C3  UNL     1     -32.443   9.677   1.451  1.00 20.00     0.042 C 
ENDBRANCH   2   3
ENDBRANCH   1   2
BRANCH   1   6
HETATM    6  C5  UNL     1     -33.228   6.419   4.864  1.00 20.00     0.149 C 
BRANCH   6   7
HETATM    7  C7  UNL     1     -34.119   5.232   5.173  1.00 20.00     0.390 C 
HETATM    8  F9  UNL     1     -35.331   5.351   4.590  1.00 20.00    -0.171 F 
HETATM    9  F10 UNL     1     -33.558   4.090   4.716  1.00 20.00    -0.171 F 
HETATM   10  F11 UNL     1     -34.306   5.091   6.502  1.00 20.00    -0.171 F 
ENDBRANCH   6   7
ENDBRANCH   1   6
BRANCH   1  11
HETATM   11  O8  UNL     1     -32.279   5.402   2.883  1.00 20.00    -0.395 OA
HETATM   12  H22 UNL     1     -31.454   5.320   3.385  1.00 20.00     0.210 HD
ENDBRANCH   1  11
TORSDOF 5
