REMARK  1 active torsions:
REMARK  status: ('A' for Active; 'I' for Inactive)
REMARK    1  A    between atoms: C1_1  and  C3_3 
ROOT
HETATM    1  C2  UNL     1     -34.069   5.173   2.659  1.00 20.00     0.019 C 
HETATM    2  C3  UNL     1     -34.075   6.624   4.289  1.00 20.00     0.070 C 
HETATM    3  C4  UNL     1     -34.828   5.279   4.009  1.00 20.00    -0.036 C 
HETATM    4  C5  UNL     1     -33.101   6.302   3.105  1.00 20.00    -0.036 C 
HETATM    5  C7  UNL     1     -36.336   5.468   3.831  1.00 20.00     0.015 C 
HETATM    6  C8  UNL     1     -34.543   4.112   4.956  1.00 20.00     0.015 C 
HETATM    7  C9  UNL     1     -33.004   7.441   2.088  1.00 20.00     0.015 C 
HETATM    8  C10 UNL     1     -31.706   5.793   3.471  1.00 20.00     0.015 C 
ENDROOT
BRANCH   2   9
HETATM    9  C1  UNL     1     -33.496   6.880   5.685  1.00 20.00     0.128 C 
HETATM   10  C6  UNL     1     -34.294   6.368   6.853  1.00 20.00     0.091 C 
HETATM   11  O11 UNL     1     -32.429   7.472   5.842  1.00 20.00    -0.298 OA
ENDBRANCH   2   9
TORSDOF 1
