REMARK  4 active torsions:
REMARK  status: ('A' for Active; 'I' for Inactive)
REMARK    1  A    between atoms: C6_6  and  C7_7 
REMARK    2  A    between atoms: C7_7  and  C9_9 
REMARK    3  A    between atoms: C8_8  and  C9_9 
REMARK    4  A    between atoms: C8_8  and  C10_10 
ROOT
HETATM    1  C1  UNL     1     -33.755   6.277   5.831  1.00 20.00     0.068 C 
HETATM    2  C4  UNL     1     -32.708   4.407   4.607  1.00 20.00     0.031 C 
HETATM    3  C5  UNL     1     -35.191   4.621   4.764  1.00 20.00     0.031 C 
HETATM    4  C10 UNL     1     -33.870   5.411   4.635  1.00 20.00     0.042 C 
HETATM    5  N11 UNL     1     -33.673   6.950   6.773  1.00 20.00    -0.196 NA
ENDROOT
BRANCH   4   6
HETATM    6  C8  UNL     1     -33.938   6.261   3.334  1.00 20.00     0.028 C 
BRANCH   6   7
HETATM    7  C9  UNL     1     -32.947   7.441   3.159  1.00 20.00    -0.017 C 
HETATM    8  C3  UNL     1     -31.572   7.168   3.778  1.00 20.00     0.010 C 
BRANCH   7   9
HETATM    9  C7  UNL     1     -32.744   7.784   1.662  1.00 20.00     0.004 C 
BRANCH   9  10
HETATM   10  C6  UNL     1     -32.285   9.223   1.408  1.00 20.00    -0.004 C 
HETATM   11  C2  UNL     1     -32.081   9.484  -0.078  1.00 20.00     0.005 C 
ENDBRANCH   9  10
ENDBRANCH   7   9
ENDBRANCH   6   7
ENDBRANCH   4   6
TORSDOF 4
