REMARK  4 active torsions:
REMARK  status: ('A' for Active; 'I' for Inactive)
REMARK    1  A    between atoms: C6_6  and  C7_7 
REMARK    2  A    between atoms: C7_7  and  C9_9 
REMARK    3  A    between atoms: C8_8  and  C9_9 
REMARK    4  A    between atoms: C8_8  and  C10_10 
ROOT
HETATM    1  C1  UNL     1     -34.118   5.266   5.470  1.00 20.00     0.068 C 
HETATM    2  C4  UNL     1     -32.650   4.591   3.605  1.00 20.00     0.031 C 
HETATM    3  C5  UNL     1     -35.012   5.295   3.202  1.00 20.00     0.031 C 
HETATM    4  C10 UNL     1     -33.756   5.553   4.063  1.00 20.00     0.042 C 
HETATM    5  N11 UNL     1     -34.411   5.036   6.570  1.00 20.00    -0.196 NA
ENDROOT
BRANCH   4   6
HETATM    6  C8  UNL     1     -33.344   7.043   3.884  1.00 20.00     0.028 C 
BRANCH   6   7
HETATM    7  C9  UNL     1     -32.605   7.462   2.586  1.00 20.00    -0.017 C 
HETATM    8  C3  UNL     1     -31.089   7.251   2.663  1.00 20.00     0.010 C 
BRANCH   7   9
HETATM    9  C7  UNL     1     -32.869   8.949   2.244  1.00 20.00     0.004 C 
BRANCH   9  10
HETATM   10  C6  UNL     1     -32.281   9.396   0.903  1.00 20.00    -0.004 C 
HETATM   11  C2  UNL     1     -32.599  10.856   0.617  1.00 20.00     0.005 C 
ENDBRANCH   9  10
ENDBRANCH   7   9
ENDBRANCH   6   7
ENDBRANCH   4   6
TORSDOF 4
