REMARK  3 active torsions:
REMARK  status: ('A' for Active; 'I' for Inactive)
REMARK    1  A    between atoms: C7_7  and  C9_9 
REMARK    2  A    between atoms: C8_8  and  C9_9 
REMARK    3  A    between atoms: C9_9  and  O11_11 
ROOT
HETATM    1  C1  UNL     1     -34.853   4.807   3.488  1.00 20.00     0.027 C 
HETATM    2  C2  UNL     1     -33.612   5.547   2.999  1.00 20.00     0.011 C 
HETATM    3  C5  UNL     1     -34.818   4.638   5.001  1.00 20.00     0.167 C 
HETATM    4  C6  UNL     1     -33.454   6.555   5.293  1.00 20.00     0.174 C 
HETATM    5  C8  UNL     1     -33.410   6.844   3.790  1.00 20.00     0.039 C 
HETATM    6  O10 UNL     1     -34.675   5.903   5.647  1.00 20.00    -0.391 OA
ENDROOT
BRANCH   5   7
HETATM    7  C9  UNL     1     -32.105   7.530   3.399  1.00 20.00     0.128 C 
BRANCH   7   8
HETATM    8  C7  UNL     1     -32.062   7.854   1.915  1.00 20.00     0.015 A 
HETATM    9  C3  UNL     1     -32.749   9.084   1.388  1.00 20.00     0.007 A 
HETATM   10  C4  UNL     1     -31.248   9.017   1.418  1.00 20.00     0.007 A 
ENDBRANCH   7   8
BRANCH   7  11
HETATM   11  O11 UNL     1     -31.014   6.677   3.727  1.00 20.00    -0.395 OA
HETATM   12  H27 UNL     1     -30.204   7.161   3.502  1.00 20.00     0.210 HD
ENDBRANCH   7  11
ENDBRANCH   5   7
TORSDOF 3
