REMARK  0 active torsions:
REMARK  status: ('A' for Active; 'I' for Inactive)
ROOT
HETATM    1  C1  UNL     1     -32.522   7.418   2.788  1.00 20.00     0.065 C 
HETATM    2  C2  UNL     1     -34.036   3.725   5.729  1.00 20.00     0.032 C 
HETATM    3  C3  UNL     1     -35.049   3.806   4.602  1.00 20.00     0.037 C 
HETATM    4  C4  UNL     1     -34.346   5.758   3.091  1.00 20.00     0.056 C 
HETATM    5  C5  UNL     1     -34.281   5.012   6.497  1.00 20.00     0.273 C 
HETATM    6  C6  UNL     1     -33.398   6.739   5.013  1.00 20.00     0.292 C 
HETATM    7  C7  UNL     1     -33.714   7.060   3.560  1.00 20.00     0.123 C 
HETATM    8  C8  UNL     1     -35.154   5.298   4.305  1.00 20.00     0.224 C 
HETATM    9  N9  UNL     1     -31.578   7.702   2.177  1.00 20.00    -0.197 NA
HETATM   10  N10 UNL     1     -34.593   6.018   5.474  1.00 20.00     0.094 N 
ENDROOT
TORSDOF 0
