REMARK  0 active torsions:
REMARK  status: ('A' for Active; 'I' for Inactive)
ROOT
HETATM    1  C1  UNL     1     -32.493   7.633   2.426  1.00 20.00     0.065 C 
HETATM    2  C2  UNL     1     -35.095   4.941   5.888  1.00 20.00     0.032 C 
HETATM    3  C3  UNL     1     -35.618   4.931   4.464  1.00 20.00     0.037 C 
HETATM    4  C4  UNL     1     -33.632   5.486   2.935  1.00 20.00     0.056 C 
HETATM    5  C5  UNL     1     -34.746   6.403   6.108  1.00 20.00     0.273 C 
HETATM    6  C6  UNL     1     -32.753   6.745   4.732  1.00 20.00     0.292 C 
HETATM    7  C7  UNL     1     -32.480   6.424   3.268  1.00 20.00     0.123 C 
HETATM    8  C8  UNL     1     -34.805   6.015   3.763  1.00 20.00     0.224 C 
HETATM    9  N9  UNL     1     -32.503   8.584   1.763  1.00 20.00    -0.197 NA
HETATM   10  N10 UNL     1     -34.217   6.871   4.821  1.00 20.00     0.094 N 
ENDROOT
TORSDOF 0
