REMARK  0 active torsions:
REMARK  status: ('A' for Active; 'I' for Inactive)
ROOT
HETATM    1  C1  UNL     1     -32.892   6.787   4.701  1.00 20.00     0.053 A 
HETATM    2  C2  UNL     1     -33.220   6.036   2.448  1.00 20.00     0.159 A 
HETATM    3  C3  UNL     1     -33.670   5.720   5.100  1.00 20.00    -0.030 A 
HETATM    4  C4  UNL     1     -32.664   6.956   3.338  1.00 20.00     0.134 A 
HETATM    5  C5  UNL     1     -34.178   4.856   4.136  1.00 20.00     0.040 A 
HETATM    6  C6  UNL     1     -34.046   5.282   6.476  1.00 20.00     0.041 C 
HETATM    7  C7  UNL     1     -34.946   3.736   4.778  1.00 20.00     0.060 C 
HETATM    8  C8  UNL     1     -35.211   4.326   6.171  1.00 20.00     0.011 C 
HETATM    9  N9  UNL     1     -33.977   4.973   2.813  1.00 20.00    -0.262 NA
HETATM   10  F10 UNL     1     -31.922   7.975   2.889  1.00 20.00    -0.205 F 
ENDROOT
TORSDOF 0
