REMARK  0 active torsions:
REMARK  status: ('A' for Active; 'I' for Inactive)
ROOT
HETATM    1  C1  UNL     1     -34.188   5.144   3.076  1.00 20.00     0.015 A 
HETATM    2  C2  UNL     1     -33.304   5.987   2.529  1.00 20.00     0.083 A 
HETATM    3  C3  UNL     1     -34.326   5.119   4.491  1.00 20.00    -0.028 A 
HETATM    4  C4  UNL     1     -33.578   5.925   5.240  1.00 20.00     0.063 A 
HETATM    5  C5  UNL     1     -32.474   6.885   3.376  1.00 20.00     0.287 A 
HETATM    6  C6  UNL     1     -35.228   4.273   5.313  1.00 20.00     0.041 C 
HETATM    7  C7  UNL     1     -33.830   5.778   6.694  1.00 20.00     0.066 C 
HETATM    8  C8  UNL     1     -35.114   4.934   6.698  1.00 20.00     0.011 C 
HETATM    9  O9  UNL     1     -31.668   7.652   2.858  1.00 20.00    -0.260 OA
HETATM   10  O10 UNL     1     -32.639   6.824   4.742  1.00 20.00    -0.279 OA
ENDROOT
TORSDOF 0
