REMARK  2 active torsions:
REMARK  status: ('A' for Active; 'I' for Inactive)
REMARK    1  A    between atoms: C1_1  and  N9_9 
REMARK    2  A    between atoms: C8_8  and  N9_9 
ROOT
HETATM    1  C2  UNL     1     -34.012   4.690   4.760  1.00 20.00     0.005 C 
HETATM    2  C3  UNL     1     -33.893   6.200   5.009  1.00 20.00     0.007 C 
HETATM    3  C4  UNL     1     -35.721   5.820   3.547  1.00 20.00     0.011 C 
HETATM    4  C5  UNL     1     -33.836   5.062   2.292  1.00 20.00     0.030 C 
HETATM    5  C6  UNL     1     -34.778   4.622   3.429  1.00 20.00    -0.012 C 
HETATM    6  C7  UNL     1     -34.578   6.813   3.772  1.00 20.00     0.009 C 
HETATM    7  C8  UNL     1     -33.741   6.585   2.495  1.00 20.00     0.088 C 
ENDROOT
BRANCH   7   8
HETATM    8  N9  UNL     1     -32.391   7.063   2.584  1.00 20.00    -0.363 N 
HETATM    9  H23 UNL     1     -31.681   6.433   2.957  1.00 20.00     0.162 HD
BRANCH   8  10
HETATM   10  C1  UNL     1     -31.999   8.329   2.191  1.00 20.00     0.348 C 
HETATM   11  O10 UNL     1     -32.701   9.217   1.724  1.00 20.00    -0.284 OA
ENDBRANCH   8  10
ENDBRANCH   7   8
TORSDOF 2
