REMARK  0 active torsions:
REMARK  status: ('A' for Active; 'I' for Inactive)
ROOT
HETATM    1  C1  UNL     1     -33.579   5.729   2.799  1.00 20.00    -0.023 C 
HETATM    2  C2  UNL     1     -33.156   6.622   3.703  1.00 20.00    -0.083 C 
HETATM    3  C3  UNL     1     -34.644   4.608   5.602  1.00 20.00     0.132 C 
HETATM    4  C4  UNL     1     -34.917   5.160   3.148  1.00 20.00     0.040 C 
HETATM    5  C5  UNL     1     -33.538   5.145   6.471  1.00 20.00     0.079 C 
HETATM    6  C6  UNL     1     -33.657   6.644   6.238  1.00 20.00     0.017 C 
HETATM    7  C7  UNL     1     -34.163   6.811   4.806  1.00 20.00     0.025 C 
HETATM    8  C8  UNL     1     -35.127   5.629   4.585  1.00 20.00     0.067 C 
HETATM    9  C9  UNL     1     -31.898   7.411   3.639  1.00 20.00     0.043 C 
HETATM   10  O10 UNL     1     -35.078   3.466   5.687  1.00 20.00    -0.298 OA
ENDROOT
TORSDOF 0
