REMARK  1 active torsions:
REMARK  status: ('A' for Active; 'I' for Inactive)
REMARK    1  A    between atoms: C7_7  and  C8_8 
ROOT
HETATM    1  C1  UNL     1     -34.343   6.035   5.710  1.00 20.00     0.131 C 
HETATM    2  C2  UNL     1     -35.129   4.989   4.956  1.00 20.00     0.104 C 
HETATM    3  C3  UNL     1     -33.044   6.466   5.071  1.00 20.00     0.110 C 
HETATM    4  C6  UNL     1     -35.199   5.371   3.487  1.00 20.00     0.175 C 
HETATM    5  C8  UNL     1     -33.275   6.747   3.587  1.00 20.00     0.132 C 
HETATM    6  O9  UNL     1     -34.681   6.425   6.826  1.00 20.00    -0.298 OA
HETATM    7  O10 UNL     1     -33.890   5.611   2.964  1.00 20.00    -0.385 OA
ENDROOT
BRANCH   5   8
HETATM    8  C7  UNL     1     -31.983   7.035   2.881  1.00 20.00     0.015 A 
HETATM    9  C4  UNL     1     -31.975   7.853   1.619  1.00 20.00     0.007 A 
HETATM   10  C5  UNL     1     -31.410   8.425   2.889  1.00 20.00     0.007 A 
ENDBRANCH   5   8
TORSDOF 1
