REMARK  1 active torsions:
REMARK  status: ('A' for Active; 'I' for Inactive)
REMARK    1  A    between atoms: C2_2  and  C9_9 
ROOT
HETATM    1  C1  UNL     1     -33.132   6.466   4.874  1.00 20.00     0.053 C 
HETATM    2  C2  UNL     1     -32.944   6.718   3.570  1.00 20.00    -0.072 C 
HETATM    3  C3  UNL     1     -34.052   5.385   5.311  1.00 20.00     0.149 C 
HETATM    4  C4  UNL     1     -33.683   5.986   2.479  1.00 20.00     0.035 C 
HETATM    5  C5  UNL     1     -34.695   4.517   4.254  1.00 20.00     0.083 C 
HETATM    6  C6  UNL     1     -34.955   5.310   2.984  1.00 20.00     0.012 C 
HETATM    7  O10 UNL     1     -34.222   5.176   6.510  1.00 20.00    -0.293 OA
ENDROOT
BRANCH   2   8
HETATM    8  C9  UNL     1     -31.966   7.761   3.111  1.00 20.00     0.014 A 
HETATM    9  C7  UNL     1     -31.736   7.905   1.646  1.00 20.00     0.010 A 
HETATM   10  C8  UNL     1     -32.501   8.953   2.397  1.00 20.00     0.010 A 
ENDBRANCH   2   8
TORSDOF 1
