REMARK  2 active torsions:
REMARK  status: ('A' for Active; 'I' for Inactive)
REMARK    1  A    between atoms: C7_7  and  C8_8 
REMARK    2  A    between atoms: C9_9  and  O10_10 
ROOT
HETATM    1  C1  UNL     1     -33.363   6.895   6.629  1.00 20.00     0.003 C 
HETATM    2  C2  UNL     1     -32.887   6.838   5.179  1.00 20.00     0.005 C 
HETATM    3  C5  UNL     1     -33.979   5.573   7.070  1.00 20.00     0.032 C 
HETATM    4  C6  UNL     1     -34.623   5.072   4.681  1.00 20.00     0.036 C 
HETATM    5  C8  UNL     1     -34.011   6.403   4.229  1.00 20.00    -0.008 C 
HETATM    6  C9  UNL     1     -35.100   5.134   6.132  1.00 20.00     0.118 C 
ENDROOT
BRANCH   5   7
HETATM    7  C7  UNL     1     -33.494   6.300   2.795  1.00 20.00    -0.010 A 
HETATM    8  C3  UNL     1     -32.181   6.925   2.416  1.00 20.00     0.005 A 
HETATM    9  C4  UNL     1     -32.310   5.429   2.478  1.00 20.00     0.005 A 
ENDBRANCH   5   7
BRANCH   6  10
HETATM   10  O10 UNL     1     -35.557   3.849   6.541  1.00 20.00    -0.396 OA
HETATM   11  H26 UNL     1     -36.267   3.599   5.928  1.00 20.00     0.210 HD
ENDBRANCH   6  10
TORSDOF 2
