REMARK  2 active torsions:
REMARK  status: ('A' for Active; 'I' for Inactive)
REMARK    1  A    between atoms: C7_7  and  C8_8 
REMARK    2  A    between atoms: C9_9  and  O10_10 
ROOT
HETATM    1  C1  UNL     1     -33.894   5.664   6.839  1.00 20.00     0.003 C 
HETATM    2  C2  UNL     1     -33.429   6.648   5.768  1.00 20.00     0.005 C 
HETATM    3  C5  UNL     1     -35.352   5.255   6.633  1.00 20.00     0.032 C 
HETATM    4  C6  UNL     1     -35.122   5.692   4.152  1.00 20.00     0.036 C 
HETATM    5  C8  UNL     1     -33.652   6.095   4.354  1.00 20.00    -0.008 C 
HETATM    6  C9  UNL     1     -35.606   4.716   5.227  1.00 20.00     0.118 C 
ENDROOT
BRANCH   5   7
HETATM    7  C7  UNL     1     -33.227   7.119   3.303  1.00 20.00    -0.010 A 
HETATM    8  C3  UNL     1     -31.788   7.210   2.873  1.00 20.00     0.005 A 
HETATM    9  C4  UNL     1     -32.823   6.667   1.926  1.00 20.00     0.005 A 
ENDBRANCH   5   7
BRANCH   6  10
HETATM   10  O10 UNL     1     -34.931   3.467   5.086  1.00 20.00    -0.396 OA
HETATM   11  H26 UNL     1     -35.300   2.878   5.761  1.00 20.00     0.210 HD
ENDBRANCH   6  10
TORSDOF 2
