REMARK  2 active torsions:
REMARK  status: ('A' for Active; 'I' for Inactive)
REMARK    1  A    between atoms: C4_4  and  O10_10 
REMARK    2  A    between atoms: C5_5  and  C8_8 
ROOT
HETATM    1  C1  UNL     1     -35.105   4.660   4.183  1.00 20.00     0.040 A 
HETATM    2  C2  UNL     1     -34.447   5.303   3.140  1.00 20.00     0.030 A 
HETATM    3  C3  UNL     1     -33.734   5.856   5.715  1.00 20.00     0.153 A 
HETATM    4  C4  UNL     1     -34.748   4.936   5.498  1.00 20.00     0.083 A 
HETATM    5  C5  UNL     1     -33.447   6.206   3.463  1.00 20.00     0.038 A 
HETATM    6  N9  UNL     1     -33.072   6.500   4.728  1.00 20.00    -0.262 NA
ENDROOT
BRANCH   5   7
HETATM    7  C8  UNL     1     -32.728   6.907   2.360  1.00 20.00     0.038 A 
HETATM    8  C6  UNL     1     -31.265   7.224   2.527  1.00 20.00     0.011 A 
HETATM    9  C7  UNL     1     -32.275   8.328   2.568  1.00 20.00     0.011 A 
ENDBRANCH   5   7
BRANCH   4  10
HETATM   10  O10 UNL     1     -35.373   4.325   6.535  1.00 20.00    -0.359 OA
HETATM   11  H19 UNL     1     -36.055   3.714   6.210  1.00 20.00     0.217 HD
ENDBRANCH   4  10
TORSDOF 2
