REMARK  0 active torsions:
REMARK  status: ('A' for Active; 'I' for Inactive)
ROOT
HETATM    1  C1  UNL     1     -34.679   5.251   5.600  1.00 20.00     0.136 C 
HETATM    2  C2  UNL     1     -35.230   5.427   3.084  1.00 20.00     0.018 A 
HETATM    3  C3  UNL     1     -33.381   7.205   6.933  1.00 20.00     0.018 A 
HETATM    4  C4  UNL     1     -33.420   8.149   3.381  1.00 20.00     0.011 A 
HETATM    5  C5  UNL     1     -34.468   4.764   4.202  1.00 20.00     0.060 A 
HETATM    6  C6  UNL     1     -34.277   6.630   5.891  1.00 20.00     0.060 A 
HETATM    7  C7  UNL     1     -33.723   5.471   3.072  1.00 20.00     0.002 A 
HETATM    8  C8  UNL     1     -32.778   6.805   5.634  1.00 20.00     0.002 A 
HETATM    9  C9  UNL     1     -32.897   6.775   3.065  1.00 20.00    -0.005 A 
HETATM   10  C10 UNL     1     -32.451   7.503   4.335  1.00 20.00    -0.005 A 
HETATM   11  O11 UNL     1     -35.197   4.542   6.451  1.00 20.00    -0.297 OA
ENDROOT
TORSDOF 0
