REMARK  0 active torsions:
REMARK  status: ('A' for Active; 'I' for Inactive)
ROOT
HETATM    1  C1  UNL     1     -32.790   5.929   3.614  1.00 20.00     0.132 C 
HETATM    2  C2  UNL     1     -33.401   4.727   2.901  1.00 20.00     0.084 C 
HETATM    3  C3  UNL     1     -34.870   7.132   3.902  1.00 20.00     0.013 C 
HETATM    4  C4  UNL     1     -35.586   5.970   3.153  1.00 20.00     0.006 C 
HETATM    5  C5  UNL     1     -35.311   4.860   6.196  1.00 20.00     0.011 A 
HETATM    6  C6  UNL     1     -33.986   4.143   6.058  1.00 20.00     0.011 A 
HETATM    7  C7  UNL     1     -33.764   6.405   4.692  1.00 20.00     0.064 C 
HETATM    8  C8  UNL     1     -34.794   4.708   3.592  1.00 20.00     0.002 C 
HETATM    9  C9  UNL     1     -34.440   5.103   4.998  1.00 20.00    -0.026 A 
HETATM   10  O10 UNL     1     -31.717   6.443   3.346  1.00 20.00    -0.298 OA
ENDROOT
TORSDOF 0
