REMARK  0 active torsions:
REMARK  status: ('A' for Active; 'I' for Inactive)
ROOT
HETATM    1  C1  UNL     1     -35.667   4.867   4.322  1.00 20.00     0.005 C 
HETATM    2  C2  UNL     1     -34.337   5.363   6.376  1.00 20.00     0.005 C 
HETATM    3  C3  UNL     1     -35.434   6.303   3.821  1.00 20.00     0.008 C 
HETATM    4  C4  UNL     1     -34.100   6.801   5.882  1.00 20.00     0.008 C 
HETATM    5  C5  UNL     1     -33.189   4.465   4.329  1.00 20.00     0.045 C 
HETATM    6  C6  UNL     1     -31.635   6.402   3.483  1.00 20.00     0.207 A 
HETATM    7  C7  UNL     1     -34.477   4.398   5.181  1.00 20.00    -0.012 C 
HETATM    8  C8  UNL     1     -34.086   6.835   4.343  1.00 20.00     0.022 C 
HETATM    9  C9  UNL     1     -32.998   5.892   3.882  1.00 20.00     0.086 A 
HETATM   10  O10 UNL     1     -32.619   6.041   2.507  1.00 20.00    -0.375 OA
ENDROOT
TORSDOF 0
