REMARK  1 active torsions:
REMARK  status: ('A' for Active; 'I' for Inactive)
REMARK    1  A    between atoms: C5_5  and  C9_9 
ROOT
HETATM    1  C1  UNL     1     -34.082   5.050   5.889  1.00 20.00     0.133 C 
HETATM    2  C2  UNL     1     -33.377   5.997   6.839  1.00 20.00     0.093 C 
HETATM    3  C3  UNL     1     -34.841   5.658   4.711  1.00 20.00     0.065 C 
HETATM    4  C4  UNL     1     -33.976   7.398   6.823  1.00 20.00     0.050 C 
HETATM    5  C5  UNL     1     -34.051   6.803   4.052  1.00 20.00     0.058 C 
HETATM    6  C6  UNL     1     -35.232   4.577   3.700  1.00 20.00     0.019 C 
HETATM    7  C7  UNL     1     -33.334   8.277   7.894  1.00 20.00     0.022 C 
HETATM    8  O10 UNL     1     -34.030   3.834   6.080  1.00 20.00    -0.298 OA
HETATM    9  S11 UNL     1     -33.752   8.210   5.197  1.00 20.00    -0.159 SA
ENDROOT
BRANCH   5  10
HETATM   10  C9  UNL     1     -32.714   6.379   3.439  1.00 20.00     0.011 C 
HETATM   11  C8  UNL     1     -32.002   7.534   2.813  1.00 20.00     0.006 C 
ENDBRANCH   5  10
TORSDOF 1
