REMARK  0 active torsions:
REMARK  status: ('A' for Active; 'I' for Inactive)
ROOT
HETATM    1  C1  UNL     1     -32.033   7.479   3.354  1.00 20.00     0.064 C 
HETATM    2  C2  UNL     1     -33.684   5.720   2.832  1.00 20.00     0.045 C 
HETATM    3  C3  UNL     1     -33.261   6.394   5.208  1.00 20.00     0.056 C 
HETATM    4  C4  UNL     1     -35.015   5.094   3.237  1.00 20.00     0.170 C 
HETATM    5  C5  UNL     1     -33.315   6.877   3.752  1.00 20.00     0.097 C 
HETATM    6  C6  UNL     1     -34.375   5.377   5.553  1.00 20.00     0.055 C 
HETATM    7  C7  UNL     1     -33.819   3.952   5.704  1.00 20.00     0.045 C 
HETATM    8  C8  UNL     1     -35.041   5.771   6.879  1.00 20.00     0.045 C 
HETATM    9  N9  UNL     1     -31.021   7.954   3.040  1.00 20.00    -0.197 NA
HETATM   10  O10 UNL     1     -35.414   5.413   4.568  1.00 20.00    -0.381 OA
ENDROOT
TORSDOF 0
