REMARK  1 active torsions:
REMARK  status: ('A' for Active; 'I' for Inactive)
REMARK    1  A    between atoms: C11_11  and  C12_12 
ROOT
HETATM    1  C1  UNL     1     -34.888   6.276   4.711  1.00 20.00     0.009 C 
HETATM    2  C2  UNL     1     -32.653   5.221   5.133  1.00 20.00     0.009 C 
HETATM    3  C3  UNL     1     -33.975   4.586   3.099  1.00 20.00     0.009 C 
HETATM    4  C4  UNL     1     -32.794   7.637   4.474  1.00 20.00     0.017 C 
HETATM    5  C5  UNL     1     -34.120   7.001   2.436  1.00 20.00     0.017 C 
HETATM    6  C6  UNL     1     -31.880   5.943   2.859  1.00 20.00     0.017 C 
HETATM    7  C8  UNL     1     -33.476   6.512   5.273  1.00 20.00    -0.013 C 
HETATM    8  C9  UNL     1     -34.805   5.874   3.229  1.00 20.00    -0.013 C 
HETATM    9  C10 UNL     1     -32.559   4.813   3.653  1.00 20.00    -0.013 C 
HETATM   10  C12 UNL     1     -32.693   7.253   2.979  1.00 20.00    -0.011 C 
ENDROOT
BRANCH  10  11
HETATM   11  C11 UNL     1     -32.023   8.360   2.197  1.00 20.00     0.153 A 
HETATM   12  C7  UNL     1     -32.802   9.549   1.708  1.00 20.00     0.201 A 
HETATM   13  O13 UNL     1     -32.446   8.466   0.834  1.00 20.00    -0.380 OA
ENDBRANCH  10  11
TORSDOF 1
