REMARK  2 active torsions:
REMARK  status: ('A' for Active; 'I' for Inactive)
REMARK    1  A    between atoms: C8_8  and  C9_9 
REMARK    2  A    between atoms: C9_9  and  N11_11 
ROOT
HETATM    1  C1  UNL     1     -33.198   6.600   5.271  1.00 20.00     0.096 C 
HETATM    2  C9  UNL     1     -33.019   6.168   3.878  1.00 20.00     0.332 C 
HETATM    3  N10 UNL     1     -33.337   6.940   6.371  1.00 20.00    -0.195 NA
ENDROOT
BRANCH   2   4
HETATM    4  C8  UNL     1     -34.161   5.265   3.434  1.00 20.00     0.033 A 
HETATM    5  C4  UNL     1     -35.079   4.648   4.452  1.00 20.00     0.008 A 
HETATM    6  C5  UNL     1     -35.585   5.734   3.545  1.00 20.00     0.008 A 
ENDBRANCH   2   4
BRANCH   2   7
HETATM    7  N11 UNL     1     -32.917   7.340   3.000  1.00 20.00     0.106 N 
HETATM    8  C6  UNL     1     -31.778   8.177   3.380  1.00 20.00     0.274 C 
HETATM    9  C2  UNL     1     -31.556   9.031   2.141  1.00 20.00     0.032 C 
HETATM   10  C3  UNL     1     -32.129   8.216   0.985  1.00 20.00     0.032 C 
HETATM   11  C7  UNL     1     -32.645   6.934   1.621  1.00 20.00     0.274 C 
ENDBRANCH   2   7
TORSDOF 2
