REMARK  0 active torsions:
REMARK  status: ('A' for Active; 'I' for Inactive)
ROOT
HETATM    1  C1  UNL     1     -35.311   4.880   5.749  1.00 20.00     0.032 C 
HETATM    2  C2  UNL     1     -32.704   6.655   2.786  1.00 20.00     0.032 C 
HETATM    3  C3  UNL     1     -35.231   4.571   4.268  1.00 20.00     0.109 C 
HETATM    4  C4  UNL     1     -34.042   5.676   5.976  1.00 20.00     0.109 C 
HETATM    5  C5  UNL     1     -33.750   5.577   2.587  1.00 20.00     0.109 C 
HETATM    6  C6  UNL     1     -32.563   6.686   4.295  1.00 20.00     0.109 C 
HETATM    7  N7  UNL     1     -34.664   5.793   3.705  1.00 20.00    -0.250 NA
HETATM    8  N8  UNL     1     -33.932   6.476   4.759  1.00 20.00    -0.250 NA
ENDROOT
TORSDOF 0
