REMARK  0 active torsions:
REMARK  status: ('A' for Active; 'I' for Inactive)
ROOT
HETATM    1  C1  UNL     1     -35.056   4.907   6.586  1.00 20.00     0.000 C 
HETATM    2  C2  UNL     1     -34.052   6.038   6.372  1.00 20.00     0.003 C 
HETATM    3  C3  UNL     1     -34.971   3.870   5.469  1.00 20.00     0.003 C 
HETATM    4  C4  UNL     1     -34.216   6.686   4.994  1.00 20.00     0.044 C 
HETATM    5  C5  UNL     1     -35.141   4.518   4.095  1.00 20.00     0.044 C 
HETATM    6  C6  UNL     1     -31.878   7.290   2.498  1.00 20.00     0.032 C 
HETATM    7  C7  UNL     1     -33.358   7.331   2.226  1.00 20.00     0.112 C 
HETATM    8  C8  UNL     1     -31.723   6.125   3.437  1.00 20.00     0.112 C 
HETATM    9  C9  UNL     1     -34.134   5.643   3.898  1.00 20.00     0.095 A 
HETATM   10  N10 UNL     1     -33.879   5.995   2.496  1.00 20.00    -0.223 NA
HETATM   11  N11 UNL     1     -32.880   5.258   3.243  1.00 20.00    -0.223 NA
ENDROOT
TORSDOF 0
