REMARK  3 active torsions:
REMARK  status: ('A' for Active; 'I' for Inactive)
REMARK    1  A    between atoms: C6_6  and  C9_9 
REMARK    2  A    between atoms: C7_7  and  C9_9 
REMARK    3  A    between atoms: C8_8  and  O10_10 
ROOT
HETATM    1  C1  UNL     1     -33.869   5.535   6.825  1.00 20.00     0.003 C 
HETATM    2  C2  UNL     1     -33.014   6.039   5.661  1.00 20.00     0.007 C 
HETATM    3  C5  UNL     1     -35.178   5.038   6.213  1.00 20.00     0.032 C 
HETATM    4  C7  UNL     1     -34.000   6.238   4.514  1.00 20.00     0.015 C 
HETATM    5  C8  UNL     1     -34.960   5.067   4.704  1.00 20.00     0.122 C 
ENDROOT
BRANCH   4   6
HETATM    6  C9  UNL     1     -33.333   6.253   3.147  1.00 20.00     0.011 C 
BRANCH   6   7
HETATM    7  C6  UNL     1     -32.681   7.589   2.875  1.00 20.00    -0.014 A 
HETATM    8  C3  UNL     1     -31.253   7.831   3.280  1.00 20.00     0.005 A 
HETATM    9  C4  UNL     1     -31.612   7.709   1.825  1.00 20.00     0.005 A 
ENDBRANCH   6   7
ENDBRANCH   4   6
BRANCH   5  10
HETATM   10  O10 UNL     1     -36.173   5.282   4.008  1.00 20.00    -0.395 OA
HETATM   11  H26 UNL     1     -36.769   4.548   4.238  1.00 20.00     0.210 HD
ENDBRANCH   5  10
TORSDOF 3
