REMARK  2 active torsions:
REMARK  status: ('A' for Active; 'I' for Inactive)
REMARK    1  A    between atoms: C6_6  and  N9_9 
REMARK    2  A    between atoms: C7_7  and  N9_9 
ROOT
HETATM    1  C1  UNL     1     -34.730   4.752   4.911  1.00 20.00     0.100 C 
HETATM    2  C4  UNL     1     -35.481   7.038   4.386  1.00 20.00     0.065 C 
HETATM    3  C5  UNL     1     -34.341   6.529   6.566  1.00 20.00     0.065 C 
HETATM    4  C7  UNL     1     -34.416   6.183   5.076  1.00 20.00     0.237 C 
HETATM    5  N8  UNL     1     -34.979   3.625   4.781  1.00 20.00    -0.195 NA
ENDROOT
BRANCH   4   6
HETATM    6  N9  UNL     1     -33.131   6.469   4.464  1.00 20.00     0.110 N 
HETATM    7  H23 UNL     1     -32.756   7.338   4.848  1.00 20.00     0.318 HD
BRANCH   6   8
HETATM    8  C6  UNL     1     -33.255   6.604   3.018  1.00 20.00     0.214 C 
HETATM    9  C2  UNL     1     -33.813   5.311   2.442  1.00 20.00     0.042 C 
HETATM   10  C3  UNL     1     -31.889   6.937   2.435  1.00 20.00     0.042 C 
ENDBRANCH   6   8
ENDBRANCH   4   6
TORSDOF 2
