REMARK  0 active torsions:
REMARK  status: ('A' for Active; 'I' for Inactive)
ROOT
HETATM    1  C1  UNL     1     -34.545   4.416   5.823  1.00 20.00    -0.029 A 
HETATM    2  C2  UNL     1     -34.352   5.739   5.788  1.00 20.00    -0.018 A 
HETATM    3  C3  UNL     1     -33.470   6.428   3.540  1.00 20.00     0.135 A 
HETATM    4  C4  UNL     1     -35.043   3.843   4.531  1.00 20.00     0.033 A 
HETATM    5  C5  UNL     1     -33.931   5.296   2.609  1.00 20.00     0.084 A 
HETATM    6  C6  UNL     1     -34.693   6.267   4.459  1.00 20.00     0.082 A 
HETATM    7  C7  UNL     1     -35.118   5.049   3.585  1.00 20.00     0.011 A 
HETATM    8  O8  UNL     1     -32.503   7.161   3.547  1.00 20.00    -0.297 OA
ENDROOT
TORSDOF 0
