REMARK  0 active torsions:
REMARK  status: ('A' for Active; 'I' for Inactive)
ROOT
HETATM    1  C1  UNL     1     -33.227   6.285   2.364  1.00 20.00     0.086 C 
HETATM    2  C2  UNL     1     -34.289   5.246   2.583  1.00 20.00     0.055 C 
HETATM    3  C3  UNL     1     -35.045   4.869   6.376  1.00 20.00     0.030 C 
HETATM    4  C4  UNL     1     -35.369   4.689   4.886  1.00 20.00     0.010 C 
HETATM    5  C5  UNL     1     -34.530   6.281   6.702  1.00 20.00     0.272 C 
HETATM    6  C6  UNL     1     -34.175   5.175   4.087  1.00 20.00     0.045 C 
HETATM    7  C7  UNL     1     -33.873   6.632   4.425  1.00 20.00     0.345 C 
HETATM    8  N8  UNL     1     -32.916   7.047   3.372  1.00 20.00    -0.270 NA
HETATM    9  N9  UNL     1     -33.435   6.715   5.817  1.00 20.00     0.108 N 
HETATM   10  H21 UNL     1     -33.191   7.681   6.037  1.00 20.00     0.318 HD
ENDROOT
TORSDOF 0
