REMARK  2 active torsions:
REMARK  status: ('A' for Active; 'I' for Inactive)
REMARK    1  A    between atoms: C2_2  and  C3_3 
REMARK    2  A    between atoms: C2_2  and  N4_4 
ROOT
HETATM    1  C1  UNL     1     -32.879   7.136   3.025  1.00 20.00     0.157 C 
HETATM    2  N4  UNL     1     -33.759   6.716   3.683  1.00 20.00    -0.267 NA
HETATM    3  S8  UNL     1     -31.699   7.728   2.135  1.00 20.00    -0.055 SA
ENDROOT
BRANCH   2   4
HETATM    4  C2  UNL     1     -33.674   5.289   3.990  1.00 20.00     0.267 C 
BRANCH   4   5
HETATM    5  C3  UNL     1     -34.869   4.886   4.816  1.00 20.00     0.405 C 
HETATM    6  F5  UNL     1     -34.898   5.581   5.975  1.00 20.00    -0.169 F 
HETATM    7  F6  UNL     1     -34.833   3.573   5.128  1.00 20.00    -0.169 F 
HETATM    8  F7  UNL     1     -36.025   5.131   4.163  1.00 20.00    -0.169 F 
ENDBRANCH   4   5
ENDBRANCH   2   4
TORSDOF 2
