REMARK  5 active torsions:
REMARK  status: ('A' for Active; 'I' for Inactive)
REMARK    1  A    between atoms: C5_5  and  C7_7 
REMARK    2  A    between atoms: C6_6  and  C8_8 
REMARK    3  A    between atoms: C6_6  and  C9_9 
REMARK    4  A    between atoms: C7_7  and  O11_11 
REMARK    5  A    between atoms: C9_9  and  O11_11 
ROOT
HETATM    1  C1  UNL     1     -37.433   4.377   4.736  1.00 20.00     0.061 C 
HETATM    2  C5  UNL     1     -37.284   5.636   3.992  1.00 20.00     0.150 C 
HETATM    3  N10 UNL     1     -37.552   3.384   5.325  1.00 20.00    -0.197 NA
ENDROOT
BRANCH   2   4
HETATM    4  C7  UNL     1     -36.029   5.629   3.131  1.00 20.00     0.182 C 
BRANCH   4   5
HETATM    5  O11 UNL     1     -34.888   5.442   3.953  1.00 20.00    -0.385 OA
BRANCH   5   6
HETATM    6  C9  UNL     1     -34.501   6.664   4.586  1.00 20.00     0.117 C 
HETATM    7  C4  UNL     1     -33.636   6.330   5.793  1.00 20.00     0.039 C 
BRANCH   6   8
HETATM    8  C6  UNL     1     -33.777   7.512   3.533  1.00 20.00     0.035 C 
BRANCH   8   9
HETATM    9  C8  UNL     1     -32.284   7.198   3.326  1.00 20.00    -0.020 C 
HETATM   10  C2  UNL     1     -32.049   5.755   2.879  1.00 20.00     0.009 C 
HETATM   11  C3  UNL     1     -31.692   8.161   2.293  1.00 20.00     0.009 C 
ENDBRANCH   8   9
ENDBRANCH   6   8
ENDBRANCH   5   6
ENDBRANCH   4   5
ENDBRANCH   2   4
TORSDOF 5
