REMARK  0 active torsions:
REMARK  status: ('A' for Active; 'I' for Inactive)
ROOT
HETATM    1  C1  UNL     1     -35.486   5.261   3.390  1.00 20.00     0.061 A 
HETATM    2  C2  UNL     1     -33.364   6.106   5.062  1.00 20.00     0.053 A 
HETATM    3  C3  UNL     1     -35.383   4.858   4.708  1.00 20.00     0.019 A 
HETATM    4  C4  UNL     1     -34.349   5.260   5.545  1.00 20.00    -0.041 A 
HETATM    5  C5  UNL     1     -34.495   6.112   2.902  1.00 20.00     0.155 A 
HETATM    6  C6  UNL     1     -33.441   6.532   3.731  1.00 20.00     0.155 A 
HETATM    7  C7  UNL     1     -36.266   3.985   5.465  1.00 20.00     0.160 A 
HETATM    8  C8  UNL     1     -34.461   4.689   6.922  1.00 20.00     0.047 A 
HETATM    9  C9  UNL     1     -35.740   3.835   6.872  1.00 20.00     0.088 A 
HETATM   10  O10 UNL     1     -37.270   3.466   5.012  1.00 20.00    -0.292 OA
HETATM   11  F11 UNL     1     -34.546   6.533   1.631  1.00 20.00    -0.203 F 
HETATM   12  F12 UNL     1     -32.499   7.350   3.241  1.00 20.00    -0.203 F 
ENDROOT
TORSDOF 0
