REMARK  0 active torsions:
REMARK  status: ('A' for Active; 'I' for Inactive)
ROOT
HETATM    1  C1  UNL     1     -32.205   7.665   4.355  1.00 20.00     0.012 A 
HETATM    2  C2  UNL     1     -31.581   8.190   3.222  1.00 20.00     0.024 A 
HETATM    3  C3  UNL     1     -32.811   6.644   1.868  1.00 20.00     0.031 A 
HETATM    4  C4  UNL     1     -33.155   6.616   4.291  1.00 20.00    -0.021 A 
HETATM    5  C5  UNL     1     -33.458   6.114   3.007  1.00 20.00    -0.048 A 
HETATM    6  C6  UNL     1     -31.883   7.675   1.974  1.00 20.00     0.034 A 
HETATM    7  C7  UNL     1     -34.444   4.995   2.776  1.00 20.00     0.039 C 
HETATM    8  C8  UNL     1     -35.800   5.250   3.427  1.00 20.00     0.007 C 
HETATM    9  C9  UNL     1     -35.881   4.682   4.832  1.00 20.00     0.035 C 
HETATM   10  C10 UNL     1     -33.726   6.127   5.604  1.00 20.00     0.184 A 
HETATM   11  C11 UNL     1     -34.979   5.313   5.833  1.00 20.00     0.156 A 
HETATM   12  O12 UNL     1     -33.669   4.717   5.859  1.00 20.00    -0.370 OA
HETATM   13 CL13 UNL     1     -31.124   8.303   0.566  1.00 20.00    -0.084 Cl
ENDROOT
TORSDOF 0
