REMARK  0 active torsions:
REMARK  status: ('A' for Active; 'I' for Inactive)
ROOT
HETATM    1  C1  UNL     1     -32.760   7.271   5.291  1.00 20.00     0.009 A 
HETATM    2  C2  UNL     1     -32.338   7.637   4.013  1.00 20.00     0.024 A 
HETATM    3  C3  UNL     1     -33.769   5.944   3.007  1.00 20.00     0.034 A 
HETATM    4  C4  UNL     1     -33.683   6.244   5.408  1.00 20.00    -0.047 A 
HETATM    5  C5  UNL     1     -34.194   5.575   4.276  1.00 20.00    -0.019 A 
HETATM    6  C6  UNL     1     -32.839   6.979   2.879  1.00 20.00     0.034 A 
HETATM    7  C7  UNL     1     -34.269   5.686   6.686  1.00 20.00     0.074 A 
HETATM    8  C8  UNL     1     -35.161   4.516   4.685  1.00 20.00     0.185 A 
HETATM    9  C9  UNL     1     -35.248   4.636   6.197  1.00 20.00     0.160 A 
HETATM   10  O10 UNL     1     -34.690   3.483   5.565  1.00 20.00    -0.370 OA
HETATM   11 CL11 UNL     1     -32.300   7.452   1.313  1.00 20.00    -0.084 Cl
ENDROOT
TORSDOF 0
