REMARK  0 active torsions:
REMARK  status: ('A' for Active; 'I' for Inactive)
ROOT
HETATM    1  C1  UNL     1     -31.670   7.129   4.126  1.00 20.00     0.012 A 
HETATM    2  C2  UNL     1     -31.587   8.068   3.099  1.00 20.00     0.024 A 
HETATM    3  C3  UNL     1     -33.625   7.202   2.124  1.00 20.00     0.031 A 
HETATM    4  C4  UNL     1     -32.730   6.216   4.169  1.00 20.00    -0.021 A 
HETATM    5  C5  UNL     1     -33.725   6.253   3.149  1.00 20.00    -0.048 A 
HETATM    6  C6  UNL     1     -32.562   8.106   2.103  1.00 20.00     0.034 A 
HETATM    7  C7  UNL     1     -34.866   5.231   3.138  1.00 20.00     0.039 C 
HETATM    8  C8  UNL     1     -35.855   5.238   4.334  1.00 20.00     0.007 C 
HETATM    9  C9  UNL     1     -35.286   4.770   5.699  1.00 20.00     0.035 C 
HETATM   10  C10 UNL     1     -32.899   5.204   5.254  1.00 20.00     0.184 A 
HETATM   11  C11 UNL     1     -34.151   5.652   6.037  1.00 20.00     0.156 A 
HETATM   12  O12 UNL     1     -32.941   5.324   6.675  1.00 20.00    -0.370 OA
HETATM   13 CL13 UNL     1     -32.451   9.269   0.838  1.00 20.00    -0.084 Cl
ENDROOT
TORSDOF 0
