REMARK  1 active torsions:
REMARK  status: ('A' for Active; 'I' for Inactive)
REMARK    1  A    between atoms: C3_3  and  C8_8 
ROOT
HETATM    1  C1  UNL     1     -33.985   5.565   2.594  1.00 20.00     0.058 A 
HETATM    2  C2  UNL     1     -33.303   6.628   4.513  1.00 20.00    -0.037 A 
HETATM    3  C3  UNL     1     -33.007   6.368   3.160  1.00 20.00    -0.031 A 
HETATM    4  C4  UNL     1     -34.465   6.029   4.915  1.00 20.00    -0.011 A 
HETATM    5  C5  UNL     1     -32.680   7.390   5.622  1.00 20.00     0.040 C 
HETATM    6  C6  UNL     1     -34.814   6.279   6.332  1.00 20.00     0.047 C 
HETATM    7  C7  UNL     1     -33.471   6.871   6.865  1.00 20.00     0.010 C 
HETATM    8  S9  UNL     1     -35.235   5.151   3.718  1.00 20.00    -0.105 SA
ENDROOT
BRANCH   3   9
HETATM    9  C8  UNL     1     -31.821   6.878   2.438  1.00 20.00     0.154 C 
HETATM   10 CL10 UNL     1     -32.263   8.211   1.341  1.00 20.00    -0.126 Cl
ENDBRANCH   3   9
TORSDOF 1
