REMARK  0 active torsions:
REMARK  status: ('A' for Active; 'I' for Inactive)
ROOT
HETATM    1  C1  UNL     1     -34.643   4.887   2.941  1.00 20.00     0.009 A 
HETATM    2  C2  UNL     1     -33.711   5.689   2.284  1.00 20.00     0.019 A 
HETATM    3  C3  UNL     1     -33.053   6.725   4.387  1.00 20.00     0.029 A 
HETATM    4  C4  UNL     1     -34.768   5.017   4.315  1.00 20.00    -0.047 A 
HETATM    5  C5  UNL     1     -33.980   5.930   5.047  1.00 20.00    -0.019 A 
HETATM    6  C6  UNL     1     -32.922   6.602   3.001  1.00 20.00     0.011 A 
HETATM    7  C7  UNL     1     -35.703   4.249   5.223  1.00 20.00     0.074 A 
HETATM    8  C8  UNL     1     -34.311   5.861   6.499  1.00 20.00     0.185 A 
HETATM    9  C9  UNL     1     -35.438   4.847   6.591  1.00 20.00     0.160 A 
HETATM   10  O10 UNL     1     -34.153   4.597   7.163  1.00 20.00    -0.370 OA
HETATM   11 BR11 UNL     1     -31.664   7.675   2.081  1.00 20.00    -0.051 Br
ENDROOT
TORSDOF 0
