REMARK  3 active torsions:
REMARK  status: ('A' for Active; 'I' for Inactive)
REMARK    1  A    between atoms: C5_5  and  C8_8 
REMARK    2  A    between atoms: C7_7  and  N9_9 
REMARK    3  A    between atoms: C8_8  and  N9_9 
ROOT
HETATM    1  C1  UNL     1     -32.370   9.020   2.211  1.00 20.00     0.013 C 
HETATM    2  C2  UNL     1     -32.292   7.852   2.480  1.00 20.00    -0.087 C 
HETATM    3  C7  UNL     1     -32.192   6.428   2.809  1.00 20.00     0.362 C 
ENDROOT
BRANCH   3   4
HETATM    4  N9  UNL     1     -33.474   5.777   2.653  1.00 20.00     0.098 N 
HETATM    5  H22 UNL     1     -33.353   4.777   2.556  1.00 20.00     0.317 HD
BRANCH   4   6
HETATM    6  C8  UNL     1     -34.314   6.017   3.852  1.00 20.00     0.221 C 
HETATM    7  C6  UNL     1     -35.777   5.840   3.473  1.00 20.00     0.043 C 
BRANCH   6   8
HETATM    8  C5  UNL     1     -33.897   5.053   4.954  1.00 20.00     0.018 A 
HETATM    9  C3  UNL     1     -34.202   5.369   6.392  1.00 20.00     0.007 A 
HETATM   10  C4  UNL     1     -34.935   4.257   5.695  1.00 20.00     0.007 A 
ENDBRANCH   6   8
ENDBRANCH   4   6
ENDBRANCH   3   4
TORSDOF 3
