REMARK  1 active torsions:
REMARK  status: ('A' for Active; 'I' for Inactive)
REMARK    1  A    between atoms: C1_1  and  C8_8 
ROOT
HETATM    1  C1  UNL     1     -33.398   6.303   4.668  1.00 20.00     0.014 C 
HETATM    2  C2  UNL     1     -34.487   5.284   4.545  1.00 20.00     0.057 C 
HETATM    3  C3  UNL     1     -34.692   4.976   6.009  1.00 20.00     0.027 C 
HETATM    4  C4  UNL     1     -34.297   6.278   6.683  1.00 20.00     0.149 C 
HETATM    5  N9  UNL     1     -33.253   6.873   5.825  1.00 20.00    -0.298 NA
ENDROOT
BRANCH   1   6
HETATM    6  C8  UNL     1     -32.557   6.663   3.487  1.00 20.00    -0.011 C 
HETATM    7  C5  UNL     1     -33.460   7.219   2.379  1.00 20.00     0.021 C 
HETATM    8  C6  UNL     1     -31.824   5.413   2.978  1.00 20.00     0.021 C 
HETATM    9  C7  UNL     1     -31.526   7.725   3.895  1.00 20.00     0.021 C 
ENDBRANCH   1   6
TORSDOF 1
