REMARK  3 active torsions:
REMARK  status: ('A' for Active; 'I' for Inactive)
REMARK    1  A    between atoms: C2_2  and  C6_6 
REMARK    2  A    between atoms: C6_6  and  S9_9 
REMARK    3  A    between atoms: C7_7  and  S9_9 
ROOT
HETATM    1  S9  UNL     1     -33.467   6.879   4.281  1.00 20.00    -0.158 SA
ENDROOT
BRANCH   1   2
HETATM    2  C6  UNL     1     -32.972   6.868   2.546  1.00 20.00     0.108 C 
BRANCH   2   3
HETATM    3  C2  UNL     1     -31.999   7.997   2.261  1.00 20.00     0.154 A 
HETATM    4  C1  UNL     1     -31.779   8.501   0.863  1.00 20.00     0.201 A 
HETATM    5  O8  UNL     1     -32.610   9.206   1.799  1.00 20.00    -0.380 OA
ENDBRANCH   2   3
ENDBRANCH   1   2
BRANCH   1   6
HETATM    6  C7  UNL     1     -34.592   5.431   4.227  1.00 20.00    -0.003 C 
HETATM    7  C3  UNL     1     -33.791   4.203   3.785  1.00 20.00     0.026 C 
HETATM    8  C4  UNL     1     -35.167   5.214   5.629  1.00 20.00     0.026 C 
HETATM    9  C5  UNL     1     -35.718   5.721   3.230  1.00 20.00     0.026 C 
ENDBRANCH   1   6
TORSDOF 3
