REMARK  0 active torsions:
REMARK  status: ('A' for Active; 'I' for Inactive)
ROOT
HETATM    1  C1  UNL     1     -35.283   4.638   3.626  1.00 20.00     0.033 A 
HETATM    2  C2  UNL     1     -35.502   5.307   5.954  1.00 20.00     0.033 A 
HETATM    3  C3  UNL     1     -34.217   5.514   3.519  1.00 20.00    -0.028 A 
HETATM    4  C4  UNL     1     -34.418   6.180   5.832  1.00 20.00    -0.033 A 
HETATM    5  C5  UNL     1     -33.796   6.291   4.601  1.00 20.00     0.040 A 
HETATM    6  C6  UNL     1     -35.934   4.544   4.857  1.00 20.00     0.035 A 
HETATM    7  C7  UNL     1     -33.320   5.766   2.352  1.00 20.00     0.060 C 
HETATM    8  C8  UNL     1     -32.515   6.989   2.841  1.00 20.00     0.124 C 
HETATM    9  C9  UNL     1     -33.960   6.967   7.012  1.00 20.00     0.050 C 
HETATM   10  N10 UNL     1     -32.673   7.055   4.289  1.00 20.00    -0.389 N 
HETATM   11 CL11 UNL     1     -37.267   3.469   5.037  1.00 20.00    -0.084 Cl
HETATM   12  H21 UNL     1     -32.401   7.859   4.836  1.00 20.00     0.159 HD
ENDROOT
TORSDOF 0
