REMARK  0 active torsions:
REMARK  status: ('A' for Active; 'I' for Inactive)
ROOT
HETATM    1  C1  UNL     1     -31.771   7.314   1.153  1.00 20.00     0.010 A 
HETATM    2  C2  UNL     1     -32.048   8.608   0.702  1.00 20.00     0.019 A 
HETATM    3  C3  UNL     1     -32.953   9.224   2.871  1.00 20.00     0.034 A 
HETATM    4  C4  UNL     1     -32.668   7.937   3.288  1.00 20.00     0.018 A 
HETATM    5  C5  UNL     1     -32.083   6.983   2.464  1.00 20.00    -0.040 A 
HETATM    6  C6  UNL     1     -32.634   9.557   1.556  1.00 20.00     0.011 A 
HETATM    7  C7  UNL     1     -32.905   7.335   4.590  1.00 20.00     0.160 A 
HETATM    8  C8  UNL     1     -32.463   5.892   4.567  1.00 20.00     0.093 A 
HETATM    9  C9  UNL     1     -31.875   5.665   3.155  1.00 20.00     0.023 A 
HETATM   10  C10 UNL     1     -30.406   5.260   3.210  1.00 20.00     0.015 C 
HETATM   11  O11 UNL     1     -33.397   7.923   5.536  1.00 20.00    -0.292 OA
HETATM   12 BR12 UNL     1     -32.996  11.298   0.912  1.00 20.00    -0.051 Br
ENDROOT
TORSDOF 0
