REMARK  0 active torsions:
REMARK  status: ('A' for Active; 'I' for Inactive)
ROOT
HETATM    1  C1  UNL     1     -34.050   5.069   2.647  1.00 20.00     0.010 A 
HETATM    2  C2  UNL     1     -33.576   6.067   1.788  1.00 20.00     0.019 A 
HETATM    3  C3  UNL     1     -32.987   7.479   3.677  1.00 20.00     0.034 A 
HETATM    4  C4  UNL     1     -33.462   6.475   4.499  1.00 20.00     0.018 A 
HETATM    5  C5  UNL     1     -33.993   5.284   4.016  1.00 20.00    -0.040 A 
HETATM    6  C6  UNL     1     -33.049   7.264   2.300  1.00 20.00     0.011 A 
HETATM    7  C7  UNL     1     -33.504   6.440   5.951  1.00 20.00     0.160 A 
HETATM    8  C8  UNL     1     -34.075   5.119   6.409  1.00 20.00     0.093 A 
HETATM    9  C9  UNL     1     -34.442   4.359   5.112  1.00 20.00     0.023 A 
HETATM   10  C10 UNL     1     -35.933   4.047   5.039  1.00 20.00     0.015 C 
HETATM   11  O11 UNL     1     -33.121   7.345   6.669  1.00 20.00    -0.292 OA
HETATM   12 BR12 UNL     1     -32.417   8.592   1.112  1.00 20.00    -0.051 Br
ENDROOT
TORSDOF 0
