REMARK  2 active torsions:
REMARK  status: ('A' for Active; 'I' for Inactive)
REMARK    1  A    between atoms: C2_2  and  C8_8 
REMARK    2  A    between atoms: C8_8  and  N9_9 
ROOT
HETATM    1  C3  UNL     1     -35.032   4.205   6.225  1.00 20.00     0.003 C 
HETATM    2  C4  UNL     1     -34.060   5.323   6.583  1.00 20.00     0.030 C 
HETATM    3  C5  UNL     1     -34.964   3.880   4.736  1.00 20.00     0.030 C 
HETATM    4  C6  UNL     1     -34.247   6.536   5.668  1.00 20.00     0.273 C 
HETATM    5  C7  UNL     1     -35.120   5.143   3.885  1.00 20.00     0.273 C 
HETATM    6  N9  UNL     1     -34.188   6.223   4.234  1.00 20.00     0.093 N 
ENDROOT
BRANCH   6   7
HETATM    7  C8  UNL     1     -32.826   5.945   3.784  1.00 20.00     0.317 C 
BRANCH   7   8
HETATM    8  C2  UNL     1     -32.028   7.197   3.547  1.00 20.00     0.007 C 
HETATM    9  C1  UNL     1     -30.922   7.503   4.239  1.00 20.00     0.029 C 
HETATM   10 BR10 UNL     1     -32.634   8.291   2.152  1.00 20.00    -0.055 Br
ENDBRANCH   7   8
ENDBRANCH   6   7
TORSDOF 2
