REMARK  3 active torsions:
REMARK  status: ('A' for Active; 'I' for Inactive)
REMARK    1  A    between atoms: C5_5  and  N9_9 
REMARK    2  A    between atoms: C6_6  and  C7_7 
REMARK    3  A    between atoms: C7_7  and  N9_9 
ROOT
HETATM    1  C1  UNL     1     -32.171   8.077   1.969  1.00 20.00     0.089 C 
HETATM    2  C5  UNL     1     -32.475   6.783   2.576  1.00 20.00     0.393 C 
HETATM    3  N8  UNL     1     -31.927   9.103   1.485  1.00 20.00    -0.195 NA
ENDROOT
BRANCH   2   4
HETATM    4  N9  UNL     1     -33.499   6.920   3.606  1.00 20.00     0.100 N 
HETATM    5  H23 UNL     1     -34.348   7.297   3.181  1.00 20.00     0.317 HD
BRANCH   4   6
HETATM    6  C7  UNL     1     -33.792   5.644   4.228  1.00 20.00     0.221 C 
HETATM    7  C4  UNL     1     -34.742   4.858   3.327  1.00 20.00     0.043 C 
BRANCH   6   8
HETATM    8  C6  UNL     1     -34.339   5.840   5.661  1.00 20.00     0.010 C 
HETATM    9  C2  UNL     1     -34.631   4.529   6.399  1.00 20.00     0.011 C 
HETATM   10  C3  UNL     1     -33.396   6.708   6.502  1.00 20.00     0.011 C 
ENDBRANCH   6   8
ENDBRANCH   4   6
ENDBRANCH   2   4
TORSDOF 3
