REMARK  1 active torsions:
REMARK  status: ('A' for Active; 'I' for Inactive)
REMARK    1  A    between atoms: C1_1  and  C5_5 
ROOT
HETATM    1  C2  UNL     1     -34.781   4.700   5.945  1.00 20.00     0.193 C 
HETATM    2  C3  UNL     1     -34.403   6.132   6.285  1.00 20.00     0.195 C 
HETATM    3  C4  UNL     1     -34.308   5.111   3.678  1.00 20.00     0.206 C 
HETATM    4  C5  UNL     1     -33.926   6.542   4.023  1.00 20.00     0.206 C 
HETATM    5  O7  UNL     1     -35.285   4.639   4.608  1.00 20.00    -0.386 OA
HETATM    6  O8  UNL     1     -33.425   6.606   5.357  1.00 20.00    -0.375 OA
ENDROOT
BRANCH   4   7
HETATM    7  C1  UNL     1     -32.805   7.024   3.164  1.00 20.00     0.265 C 
HETATM    8  O6  UNL     1     -31.700   7.327   3.602  1.00 20.00    -0.304 OA
ENDBRANCH   4   7
TORSDOF 1
