REMARK  4 active torsions:
REMARK  status: ('A' for Active; 'I' for Inactive)
REMARK    1  A    between atoms: C2_2  and  C5_5 
REMARK    2  A    between atoms: C5_5  and  S9_9 
REMARK    3  A    between atoms: C6_6  and  C7_7 
REMARK    4  A    between atoms: C6_6  and  S9_9 
ROOT
HETATM    1  S9  UNL     1     -33.147   6.977   4.100  1.00 20.00    -0.166 SA
ENDROOT
BRANCH   1   2
HETATM    2  C5  UNL     1     -33.894   5.521   3.333  1.00 20.00     0.108 C 
BRANCH   2   3
HETATM    3  C2  UNL     1     -35.005   4.970   4.207  1.00 20.00     0.154 A 
HETATM    4  C1  UNL     1     -34.701   4.113   5.404  1.00 20.00     0.201 A 
HETATM    5  O8  UNL     1     -35.038   5.503   5.535  1.00 20.00    -0.380 OA
ENDBRANCH   2   3
ENDBRANCH   1   2
BRANCH   1   6
HETATM    6  C6  UNL     1     -31.911   7.341   2.815  1.00 20.00     0.077 C 
BRANCH   6   7
HETATM    7  C7  UNL     1     -32.431   8.140   1.608  1.00 20.00    -0.013 C 
HETATM    8  C3  UNL     1     -32.992   9.509   2.001  1.00 20.00     0.010 C 
HETATM    9  C4  UNL     1     -31.386   8.286   0.499  1.00 20.00     0.010 C 
ENDBRANCH   6   7
ENDBRANCH   1   6
TORSDOF 4
