REMARK  3 active torsions:
REMARK  status: ('A' for Active; 'I' for Inactive)
REMARK    1  A    between atoms: C5_5  and  O9_9 
REMARK    2  A    between atoms: C6_6  and  C7_7 
REMARK    3  A    between atoms: C7_7  and  O9_9 
ROOT
HETATM    1  C1  UNL     1     -32.254   8.333   2.293  1.00 20.00     0.085 C 
HETATM    2  C5  UNL     1     -32.221   7.115   3.103  1.00 20.00     0.292 C 
HETATM    3  N8  UNL     1     -32.279   9.299   1.650  1.00 20.00    -0.195 NA
ENDROOT
BRANCH   2   4
HETATM    4  O9  UNL     1     -33.537   6.651   3.355  1.00 20.00    -0.367 OA
BRANCH   4   5
HETATM    5  C7  UNL     1     -33.571   5.775   4.483  1.00 20.00     0.054 C 
HETATM    6  C3  UNL     1     -32.328   4.887   4.410  1.00 20.00     0.045 C 
HETATM    7  C4  UNL     1     -33.517   6.635   5.749  1.00 20.00     0.045 C 
BRANCH   5   8
HETATM    8  C6  UNL     1     -34.878   4.958   4.458  1.00 20.00     0.033 C 
HETATM    9  C2  UNL     1     -35.025   3.966   5.606  1.00 20.00     0.008 C 
ENDBRANCH   5   8
ENDBRANCH   4   5
ENDBRANCH   2   4
TORSDOF 3
