REMARK  4 active torsions:
REMARK  status: ('A' for Active; 'I' for Inactive)
REMARK    1  A    between atoms: C5_5  and  C6_6 
REMARK    2  A    between atoms: C5_5  and  C7_7 
REMARK    3  A    between atoms: C6_6  and  S9_9 
REMARK    4  A    between atoms: C7_7  and  O8_8 
ROOT
HETATM    1  C5  UNL     1     -33.912   6.732   3.514  1.00 20.00     0.051 C 
ENDROOT
BRANCH   1   2
HETATM    2  C6  UNL     1     -34.236   5.516   4.406  1.00 20.00     0.043 C 
HETATM    3  C1  UNL     1     -35.621   4.919   4.183  1.00 20.00     0.021 C 
BRANCH   2   4
HETATM    4  S9  UNL     1     -34.109   6.037   6.160  1.00 20.00    -0.178 SA
HETATM    5  H25 UNL     1     -34.318   4.816   6.666  1.00 20.00     0.102 HD
ENDBRANCH   2   4
ENDBRANCH   1   2
BRANCH   1   6
HETATM    6  C7  UNL     1     -32.416   7.053   3.283  1.00 20.00     0.054 C 
HETATM    7  C2  UNL     1     -31.802   7.864   4.426  1.00 20.00     0.045 C 
HETATM    8  C3  UNL     1     -31.640   5.742   3.100  1.00 20.00     0.045 C 
BRANCH   6   9
HETATM    9  O8  UNL     1     -32.283   7.794   2.070  1.00 20.00    -0.386 OA
HETATM   10  C4  UNL     1     -32.947   9.045   2.155  1.00 20.00     0.202 C 
ENDBRANCH   6   9
ENDBRANCH   1   6
TORSDOF 4
