REMARK  1 active torsions:
REMARK  status: ('A' for Active; 'I' for Inactive)
REMARK    1  A    between atoms: C9_9  and  O10_10 
ROOT
HETATM    1  C1  UNL     1     -34.246   6.815   6.307  1.00 20.00     0.001 C 
HETATM    2  C2  UNL     1     -34.434   5.346   6.677  1.00 20.00     0.005 C 
HETATM    3  C3  UNL     1     -34.820   7.228   4.956  1.00 20.00     0.007 C 
HETATM    4  C4  UNL     1     -35.076   3.944   4.660  1.00 20.00     0.005 C 
HETATM    5  C5  UNL     1     -35.507   5.096   3.757  1.00 20.00     0.007 C 
HETATM    6  C6  UNL     1     -32.723   4.808   4.845  1.00 20.00     0.036 C 
HETATM    7  C7  UNL     1     -33.952   4.323   5.630  1.00 20.00    -0.012 C 
HETATM    8  C8  UNL     1     -34.533   6.284   3.771  1.00 20.00     0.014 C 
HETATM    9  C9  UNL     1     -33.083   5.779   3.709  1.00 20.00     0.122 C 
ENDROOT
BRANCH   9  10
HETATM   10  O10 UNL     1     -32.184   6.884   3.705  1.00 20.00    -0.395 OA
HETATM   11  H26 UNL     1     -31.296   6.519   3.573  1.00 20.00     0.210 HD
ENDBRANCH   9  10
TORSDOF 1
