REMARK  3 active torsions:
REMARK  status: ('A' for Active; 'I' for Inactive)
REMARK    1  A    between atoms: C1_1  and  C7_7 
REMARK    2  A    between atoms: C1_1  and  C9_9 
REMARK    3  A    between atoms: C8_8  and  C9_9 
ROOT
HETATM    1  C1  UNL     1     -33.067   7.031   3.050  1.00 20.00     0.131 C 
HETATM    2  O10 UNL     1     -32.085   7.059   3.790  1.00 20.00    -0.298 OA
ENDROOT
BRANCH   1   3
HETATM    3  C7  UNL     1     -33.236   8.042   1.946  1.00 20.00     0.055 A 
HETATM    4  C3  UNL     1     -32.750   9.426   2.185  1.00 20.00     0.013 A 
HETATM    5  C4  UNL     1     -32.017   8.519   1.243  1.00 20.00     0.013 A 
ENDBRANCH   1   3
BRANCH   1   6
HETATM    6  C9  UNL     1     -34.169   5.995   3.187  1.00 20.00     0.083 C 
BRANCH   6   7
HETATM    7  C8  UNL     1     -33.903   4.999   4.296  1.00 20.00    -0.008 C 
HETATM    8  C5  UNL     1     -35.069   4.047   4.671  1.00 20.00     0.005 C 
HETATM    9  C2  UNL     1     -34.606   4.177   6.137  1.00 20.00     0.001 C 
HETATM   10  C6  UNL     1     -33.991   5.537   5.748  1.00 20.00     0.005 C 
ENDBRANCH   6   7
ENDBRANCH   1   6
TORSDOF 3
