REMARK  2 active torsions:
REMARK  status: ('A' for Active; 'I' for Inactive)
REMARK    1  A    between atoms: C1_1  and  C2_2 
REMARK    2  A    between atoms: C2_2  and  O3_3 
ROOT
HETATM    1  C2  UNL     1     -34.674   5.240   4.984  1.00 20.00     0.226 C 
HETATM    2 CL5  UNL     1     -34.603   5.453   6.752  1.00 20.00    -0.070 Cl
HETATM    3 CL6  UNL     1     -35.801   6.450   4.305  1.00 20.00    -0.070 Cl
ENDROOT
BRANCH   1   4
HETATM    4  C1  UNL     1     -33.305   5.407   4.330  1.00 20.00     0.187 C 
HETATM    5 CL4  UNL     1     -33.420   5.860   2.604  1.00 20.00    -0.125 Cl
ENDBRANCH   1   4
BRANCH   1   6
HETATM    6  O3  UNL     1     -35.197   3.951   4.695  1.00 20.00    -0.361 OA
HETATM    7  H9  UNL     1     -36.063   3.901   5.134  1.00 20.00     0.213 HD
ENDBRANCH   1   6
TORSDOF 2
