REMARK  5 active torsions:
REMARK  status: ('A' for Active; 'I' for Inactive)
REMARK    1  A    between atoms: C3_3  and  C8_8 
REMARK    2  A    between atoms: C6_6  and  C7_7 
REMARK    3  A    between atoms: C7_7  and  C9_9 
REMARK    4  A    between atoms: C8_8  and  C9_9 
REMARK    5  A    between atoms: C8_8  and  O10_10 
ROOT
HETATM    1  C8  UNL     1     -34.219   6.350   4.056  1.00 20.00     0.126 C 
ENDROOT
BRANCH   1   2
HETATM    2  C3  UNL     1     -33.929   5.610   5.331  1.00 20.00     0.015 A 
HETATM    3  C1  UNL     1     -33.698   6.366   6.610  1.00 20.00     0.007 A 
HETATM    4  C2  UNL     1     -34.955   5.562   6.429  1.00 20.00     0.007 A 
ENDBRANCH   1   2
BRANCH   1   5
HETATM    5  C9  UNL     1     -32.968   6.894   3.325  1.00 20.00     0.011 C 
HETATM    6  C5  UNL     1     -31.942   5.798   3.009  1.00 20.00     0.012 C 
BRANCH   5   7
HETATM    7  C7  UNL     1     -33.369   7.693   2.067  1.00 20.00     0.006 C 
BRANCH   7   8
HETATM    8  C6  UNL     1     -32.191   8.417   1.407  1.00 20.00    -0.004 C 
HETATM    9  C4  UNL     1     -32.640   9.209   0.189  1.00 20.00     0.005 C 
ENDBRANCH   7   8
ENDBRANCH   5   7
ENDBRANCH   1   5
BRANCH   1  10
HETATM   10  O10 UNL     1     -34.927   5.485   3.165  1.00 20.00    -0.395 OA
HETATM   11  H28 UNL     1     -35.745   5.237   3.620  1.00 20.00     0.210 HD
ENDBRANCH   1  10
TORSDOF 5
