REMARK  2 active torsions:
REMARK  status: ('A' for Active; 'I' for Inactive)
REMARK    1  A    between atoms: C1_1  and  C3_3 
REMARK    2  A    between atoms: C2_2  and  C7_7 
ROOT
HETATM    1  C1  UNL     1     -32.924   6.473   3.981  1.00 20.00     0.038 C 
HETATM    2  C2  UNL     1     -34.050   6.001   4.534  1.00 20.00    -0.015 C 
ENDROOT
BRANCH   2   3
HETATM    3  C7  UNL     1     -34.161   5.052   5.719  1.00 20.00    -0.034 C 
HETATM    4  C4  UNL     1     -34.898   3.783   5.254  1.00 20.00     0.018 C 
HETATM    5  C5  UNL     1     -32.807   4.635   6.323  1.00 20.00     0.018 C 
HETATM    6  C6  UNL     1     -34.992   5.743   6.815  1.00 20.00     0.018 C 
ENDBRANCH   2   3
BRANCH   1   7
HETATM    7  C3  UNL     1     -33.022   7.390   2.829  1.00 20.00     0.258 C 
HETATM    8  O8  UNL     1     -32.027   7.852   2.283  1.00 20.00    -0.302 OA
ENDBRANCH   1   7
TORSDOF 2
