REMARK  3 active torsions:
REMARK  status: ('A' for Active; 'I' for Inactive)
REMARK    1  A    between atoms: C2_2  and  C5_5 
REMARK    2  A    between atoms: C2_2  and  C8_8 
REMARK    3  A    between atoms: C7_7  and  C8_8 
ROOT
HETATM    1  C1  UNL     1     -33.584   6.348   5.916  1.00 20.00     0.071 C 
HETATM    2  C8  UNL     1     -33.613   5.231   4.954  1.00 20.00     0.162 C 
HETATM    3  N9  UNL     1     -33.559   7.226   6.675  1.00 20.00    -0.196 NA
ENDROOT
BRANCH   2   4
HETATM    4  C2  UNL     1     -33.600   5.738   3.520  1.00 20.00     0.148 C 
HETATM    5  O10 UNL     1     -34.062   5.123   2.566  1.00 20.00    -0.296 OA
BRANCH   4   6
HETATM    6  C5  UNL     1     -32.967   7.073   3.302  1.00 20.00     0.057 A 
HETATM    7  C3  UNL     1     -31.565   7.280   3.767  1.00 20.00     0.013 A 
HETATM    8  C4  UNL     1     -31.865   7.180   2.302  1.00 20.00     0.013 A 
ENDBRANCH   4   6
ENDBRANCH   2   4
BRANCH   2   9
HETATM    9  C7  UNL     1     -34.803   4.293   5.207  1.00 20.00     0.022 C 
HETATM   10  C6  UNL     1     -34.851   3.690   6.608  1.00 20.00     0.007 C 
ENDBRANCH   2   9
TORSDOF 3
