REMARK  3 active torsions:
REMARK  status: ('A' for Active; 'I' for Inactive)
REMARK    1  A    between atoms: C4_4  and  C8_8 
REMARK    2  A    between atoms: C7_7  and  N10_10 
REMARK    3  A    between atoms: C8_8  and  N10_10 
ROOT
HETATM    1  C1  UNL     1     -32.157   7.709   2.454  1.00 20.00     0.089 C 
HETATM    2  C7  UNL     1     -31.909   7.353   3.849  1.00 20.00     0.395 C 
HETATM    3  N9  UNL     1     -32.349   7.994   1.345  1.00 20.00    -0.195 NA
ENDROOT
BRANCH   2   4
HETATM    4  N10 UNL     1     -33.148   6.983   4.517  1.00 20.00     0.101 N 
HETATM    5  C6  UNL     1     -33.018   7.082   5.964  1.00 20.00     0.311 C 
BRANCH   4   6
HETATM    6  C8  UNL     1     -33.524   5.598   4.143  1.00 20.00     0.223 C 
HETATM    7  C5  UNL     1     -34.081   5.606   2.726  1.00 20.00     0.043 C 
BRANCH   6   8
HETATM    8  C4  UNL     1     -34.540   5.069   5.145  1.00 20.00     0.018 A 
HETATM    9  C2  UNL     1     -34.729   3.587   5.321  1.00 20.00     0.007 A 
HETATM   10  C3  UNL     1     -34.077   4.397   6.408  1.00 20.00     0.007 A 
ENDBRANCH   6   8
ENDBRANCH   4   6
ENDBRANCH   2   4
TORSDOF 3
