REMARK  3 active torsions:
REMARK  status: ('A' for Active; 'I' for Inactive)
REMARK    1  A    between atoms: C5_5  and  C9_9 
REMARK    2  A    between atoms: C8_8  and  N10_10 
REMARK    3  A    between atoms: C9_9  and  N10_10 
ROOT
HETATM    1  C1  UNL     1     -32.526   8.919   1.711  1.00 20.00     0.013 C 
HETATM    2  C2  UNL     1     -32.479   8.006   2.490  1.00 20.00    -0.087 C 
HETATM    3  C8  UNL     1     -32.416   6.893   3.440  1.00 20.00     0.364 C 
ENDROOT
BRANCH   3   4
HETATM    4  N10 UNL     1     -33.752   6.510   3.871  1.00 20.00     0.099 N 
HETATM    5  C7  UNL     1     -34.408   5.671   2.879  1.00 20.00     0.311 C 
BRANCH   4   6
HETATM    6  C9  UNL     1     -33.672   5.786   5.163  1.00 20.00     0.223 C 
HETATM    7  C6  UNL     1     -33.406   6.790   6.275  1.00 20.00     0.043 C 
BRANCH   6   8
HETATM    8  C5  UNL     1     -34.970   5.025   5.390  1.00 20.00     0.018 A 
HETATM    9  C3  UNL     1     -35.223   3.728   4.672  1.00 20.00     0.007 A 
HETATM   10  C4  UNL     1     -34.964   3.729   6.152  1.00 20.00     0.007 A 
ENDBRANCH   6   8
ENDBRANCH   4   6
ENDBRANCH   3   4
TORSDOF 3
