REMARK  1 active torsions:
REMARK  status: ('A' for Active; 'I' for Inactive)
REMARK    1  A    between atoms: C7_7  and  O11_11 
ROOT
HETATM    1  C1  UNL     1     -34.803   4.861   3.143  1.00 20.00    -0.027 C 
HETATM    2  C2  UNL     1     -33.668   5.294   2.565  1.00 20.00     0.001 C 
HETATM    3  C3  UNL     1     -35.215   5.217   4.555  1.00 20.00     0.036 C 
HETATM    4  C4  UNL     1     -33.226   7.603   6.769  1.00 20.00     0.001 C 
HETATM    5  C5  UNL     1     -32.425   7.591   5.457  1.00 20.00     0.008 C 
HETATM    6  C6  UNL     1     -34.428   6.661   6.567  1.00 20.00     0.010 C 
HETATM    7  C7  UNL     1     -32.685   6.217   3.249  1.00 20.00     0.145 C 
HETATM    8  C8  UNL     1     -33.326   6.837   4.487  1.00 20.00     0.026 C 
HETATM    9  C9  UNL     1     -34.037   5.792   5.364  1.00 20.00    -0.035 C 
HETATM   10  C10 UNL     1     -33.123   4.638   5.843  1.00 20.00     0.016 C 
ENDROOT
BRANCH   7  11
HETATM   11  O11 UNL     1     -32.319   7.247   2.336  1.00 20.00    -0.391 OA
HETATM   12  H27 UNL     1     -31.917   6.809   1.570  1.00 20.00     0.210 HD
ENDBRANCH   7  11
TORSDOF 1
