REMARK  2 active torsions:
REMARK  status: ('A' for Active; 'I' for Inactive)
REMARK    1  A    between atoms: C1_1  and  C3_3 
REMARK    2  A    between atoms: C1_1  and  C8_8 
ROOT
HETATM    1  C2  UNL     1     -35.195   6.495   5.046  1.00 20.00     0.022 A 
HETATM    2  C3  UNL     1     -33.766   6.258   4.632  1.00 20.00     0.064 A 
HETATM    3  C4  UNL     1     -34.464   5.276   5.557  1.00 20.00    -0.037 A 
HETATM    4  C5  UNL     1     -34.038   5.264   7.002  1.00 20.00     0.015 C 
HETATM    5  C6  UNL     1     -34.895   3.931   5.033  1.00 20.00     0.015 C 
ENDROOT
BRANCH   2   6
HETATM    6  C1  UNL     1     -33.467   5.903   3.239  1.00 20.00     0.131 C 
HETATM    7  O9  UNL     1     -34.215   5.165   2.599  1.00 20.00    -0.298 OA
BRANCH   6   8
HETATM    8  C8  UNL     1     -32.198   6.497   2.655  1.00 20.00     0.074 C 
HETATM    9  C7  UNL     1     -32.439   7.827   1.965  1.00 20.00     0.013 C 
ENDBRANCH   6   8
ENDBRANCH   2   6
TORSDOF 2
