REMARK  3 active torsions:
REMARK  status: ('A' for Active; 'I' for Inactive)
REMARK    1  A    between atoms: C4_4  and  C6_6 
REMARK    2  A    between atoms: C5_5  and  C7_7 
REMARK    3  A    between atoms: C6_6  and  C7_7 
ROOT
HETATM    1  C1  UNL     1     -33.784   6.648   5.270  1.00 20.00     0.064 C 
HETATM    2  C7  UNL     1     -34.220   6.382   3.885  1.00 20.00     0.092 C 
HETATM    3  N8  UNL     1     -33.441   6.860   6.358  1.00 20.00    -0.197 NA
ENDROOT
BRANCH   2   4
HETATM    4  C5  UNL     1     -35.444   5.444   3.874  1.00 20.00     0.014 C 
HETATM    5  C3  UNL     1     -35.198   4.051   4.444  1.00 20.00     0.006 C 
ENDBRANCH   2   4
BRANCH   2   6
HETATM    6  C6  UNL     1     -33.061   5.838   3.029  1.00 20.00     0.019 C 
BRANCH   6   7
HETATM    7  C4  UNL     1     -31.902   6.834   2.902  1.00 20.00    -0.003 C 
HETATM    8  C2  UNL     1     -32.370   8.159   2.320  1.00 20.00     0.005 C 
ENDBRANCH   6   7
ENDBRANCH   2   6
TORSDOF 3
