REMARK  0 active torsions:
REMARK  status: ('A' for Active; 'I' for Inactive)
ROOT
HETATM    1  C1  UNL     1     -34.972   4.009   5.576  1.00 20.00    -0.030 C 
HETATM    2  C2  UNL     1     -34.755   4.402   4.312  1.00 20.00    -0.020 C 
HETATM    3  C3  UNL     1     -33.474   6.751   5.993  1.00 20.00    -0.021 C 
HETATM    4  C4  UNL     1     -33.272   6.475   4.699  1.00 20.00    -0.050 C 
HETATM    5  C5  UNL     1     -34.738   4.753   6.858  1.00 20.00     0.030 C 
HETATM    6  C6  UNL     1     -34.665   6.275   6.759  1.00 20.00     0.031 C 
HETATM    7  C7  UNL     1     -32.085   6.952   3.928  1.00 20.00     0.202 C 
HETATM    8  C8  UNL     1     -33.171   5.388   2.651  1.00 20.00     0.180 C 
HETATM    9  C9  UNL     1     -34.152   5.674   3.787  1.00 20.00     0.062 C 
HETATM   10  O10 UNL     1     -32.318   6.537   2.575  1.00 20.00    -0.386 OA
ENDROOT
TORSDOF 0
