REMARK  1 active torsions:
REMARK  status: ('A' for Active; 'I' for Inactive)
REMARK    1  A    between atoms: C6_6  and  N7_7 
ROOT
HETATM    1  C1  UNL     1     -34.843   4.268   6.267  1.00 20.00     0.003 C 
HETATM    2  C2  UNL     1     -33.958   5.355   6.869  1.00 20.00     0.030 C 
HETATM    3  C3  UNL     1     -34.691   4.221   4.751  1.00 20.00     0.030 C 
HETATM    4  C4  UNL     1     -34.182   6.701   6.174  1.00 20.00     0.274 C 
HETATM    5  C5  UNL     1     -34.890   5.606   4.129  1.00 20.00     0.274 C 
HETATM    6  N7  UNL     1     -34.043   6.654   4.713  1.00 20.00     0.101 N 
ENDROOT
BRANCH   6   7
HETATM    7  C6  UNL     1     -32.648   6.536   4.293  1.00 20.00     0.386 C 
HETATM    8 CL8  UNL     1     -32.532   7.045   2.609  1.00 20.00    -0.098 Cl
ENDBRANCH   6   7
TORSDOF 1
