REMARK  1 active torsions:
REMARK  status: ('A' for Active; 'I' for Inactive)
REMARK    1  A    between atoms: C4_4  and  C6_6 
ROOT
HETATM    1  C1  UNL     1     -33.971   5.907   5.541  1.00 20.00     0.089 A 
HETATM    2  C2  UNL     1     -33.453   5.704   3.199  1.00 20.00     0.044 A 
HETATM    3  C3  UNL     1     -34.147   5.258   4.382  1.00 20.00    -0.053 A 
HETATM    4  C4  UNL     1     -32.643   6.763   3.286  1.00 20.00     0.080 A 
HETATM    5  C5  UNL     1     -33.073   7.078   5.629  1.00 20.00     0.288 A 
HETATM    6  C8  UNL     1     -35.047   4.069   4.243  1.00 20.00     0.048 C 
HETATM    7  O11 UNL     1     -32.917   7.667   6.695  1.00 20.00    -0.260 OA
HETATM    8  O12 UNL     1     -32.433   7.470   4.484  1.00 20.00    -0.276 OA
ENDROOT
BRANCH   4   9
HETATM    9  C6  UNL     1     -31.907   7.286   2.169  1.00 20.00     0.039 C 
HETATM   10  C7  UNL     1     -32.016   8.544   1.664  1.00 20.00    -0.085 C 
HETATM   11  C9  UNL     1     -31.240   9.082   0.493  1.00 20.00     0.043 C 
HETATM   12  C10 UNL     1     -32.971   9.537   2.273  1.00 20.00     0.043 C 
ENDBRANCH   4   9
TORSDOF 1
