REMARK  0 active torsions:
REMARK  status: ('A' for Active; 'I' for Inactive)
ROOT
HETATM    1  C1  UNL     1     -34.257   6.633   6.268  1.00 20.00    -0.057 C 
HETATM    2  C2  UNL     1     -33.620   7.432   7.130  1.00 20.00     0.017 C 
HETATM    3  C3  UNL     1     -35.134   5.487   6.638  1.00 20.00     0.205 C 
HETATM    4  C4  UNL     1     -32.925   6.190   4.155  1.00 20.00     0.040 C 
HETATM    5  C5  UNL     1     -33.441   5.603   2.861  1.00 20.00     0.172 C 
HETATM    6  C6  UNL     1     -34.194   6.727   4.785  1.00 20.00     0.073 C 
HETATM    7  C7  UNL     1     -35.232   5.708   4.340  1.00 20.00     0.268 C 
HETATM    8  O8  UNL     1     -35.353   4.764   5.417  1.00 20.00    -0.356 OA
HETATM    9  O9  UNL     1     -34.747   5.087   3.144  1.00 20.00    -0.361 OA
ENDROOT
TORSDOF 0
