REMARK  1 active torsions:
REMARK  status: ('A' for Active; 'I' for Inactive)
REMARK    1  A    between atoms: C2_2  and  C3_3 
ROOT
HETATM    1  C1  UNL     1     -32.688   6.850   4.265  1.00 20.00     0.112 C 
HETATM    2  C2  UNL     1     -33.657   5.930   4.222  1.00 20.00     0.090 C 
HETATM    3 CL6  UNL     1     -31.925   7.556   2.898  1.00 20.00    -0.095 Cl
HETATM    4 CL7  UNL     1     -34.287   5.313   2.732  1.00 20.00    -0.080 Cl
ENDROOT
BRANCH   2   5
HETATM    5  C3  UNL     1     -34.268   5.366   5.468  1.00 20.00     0.167 C 
HETATM    6  C4  UNL     1     -34.338   6.222   6.709  1.00 20.00     0.097 C 
HETATM    7  O5  UNL     1     -34.709   4.216   5.486  1.00 20.00    -0.292 OA
ENDBRANCH   2   5
TORSDOF 1
