REMARK  2 active torsions:
REMARK  status: ('A' for Active; 'I' for Inactive)
REMARK    1  A    between atoms: C1_1  and  C3_3 
REMARK    2  A    between atoms: C3_3  and  C4_4 
ROOT
HETATM    1  C2  UNL     1     -34.797   5.134   3.333  1.00 20.00     0.069 C 
HETATM    2  C3  UNL     1     -34.029   6.245   4.066  1.00 20.00     0.264 C 
HETATM    3  O5  UNL     1     -34.685   7.384   3.968  1.00 20.00    -0.210 OA
ENDROOT
BRANCH   2   4
HETATM    4  C1  UNL     1     -32.629   6.481   3.461  1.00 20.00     0.265 C 
HETATM    5  O6  UNL     1     -31.782   5.590   3.421  1.00 20.00    -0.276 OA
HETATM    6 CL10 UNL     1     -32.339   8.108   2.867  1.00 20.00    -0.040 Cl
ENDBRANCH   2   4
BRANCH   2   7
HETATM    7  C4  UNL     1     -33.908   5.870   5.552  1.00 20.00     0.429 C 
HETATM    8  F7  UNL     1     -33.304   6.845   6.272  1.00 20.00    -0.167 F 
HETATM    9  F8  UNL     1     -33.201   4.732   5.745  1.00 20.00    -0.167 F 
HETATM   10  F9  UNL     1     -35.132   5.677   6.100  1.00 20.00    -0.167 F 
ENDBRANCH   2   7
TORSDOF 2
