REMARK  2 active torsions:
REMARK  status: ('A' for Active; 'I' for Inactive)
REMARK    1  A    between atoms: C1_1  and  C3_3 
REMARK    2  A    between atoms: C3_3  and  C4_4 
ROOT
HETATM    1  C2  UNL     1     -35.422   5.342   3.227  1.00 20.00     0.069 C 
HETATM    2  C3  UNL     1     -34.636   6.154   4.267  1.00 20.00     0.264 C 
HETATM    3  O5  UNL     1     -35.092   7.389   4.314  1.00 20.00    -0.210 OA
ENDROOT
BRANCH   2   4
HETATM    4  C1  UNL     1     -34.778   5.570   5.689  1.00 20.00     0.265 C 
HETATM    5  O6  UNL     1     -34.722   6.283   6.690  1.00 20.00    -0.276 OA
HETATM    6 CL10 UNL     1     -34.995   3.829   5.762  1.00 20.00    -0.040 Cl
ENDBRANCH   2   4
BRANCH   2   7
HETATM    7  C4  UNL     1     -33.155   6.191   3.855  1.00 20.00     0.429 C 
HETATM    8  F7  UNL     1     -32.598   4.957   3.855  1.00 20.00    -0.167 F 
HETATM    9  F8  UNL     1     -32.407   6.968   4.674  1.00 20.00    -0.167 F 
HETATM   10  F9  UNL     1     -33.018   6.685   2.601  1.00 20.00    -0.167 F 
ENDBRANCH   2   7
TORSDOF 2
