REMARK  1 active torsions:
REMARK  status: ('A' for Active; 'I' for Inactive)
REMARK    1  A    between atoms: C2_2  and  C4_4 
REMARK       I    between atoms: C2_2  and  N7_7 
ROOT
HETATM    1  C1  UNL     1     -33.075   7.269   3.048  1.00 20.00     0.166 C 
HETATM    2  C2  UNL     1     -34.302   5.643   3.849  1.00 20.00     0.249 C 
HETATM    3  N7  UNL     1     -33.674   6.864   3.973  1.00 20.00    -0.199 NA
HETATM    4  O8  UNL     1     -34.315   4.905   2.869  1.00 20.00    -0.271 OA
HETATM    5  S9  UNL     1     -32.252   7.851   1.814  1.00 20.00    -0.055 SA
ENDROOT
BRANCH   2   6
HETATM    6  C4  UNL     1     -35.023   5.226   5.057  1.00 20.00     0.084 A 
HETATM    7  C3  UNL     1     -34.351   4.296   6.036  1.00 20.00     0.019 A 
HETATM    8  C5  UNL     1     -34.608   5.726   6.420  1.00 20.00    -0.005 A 
HETATM    9  C6  UNL     1     -33.466   6.665   6.607  1.00 20.00     0.011 C 
ENDBRANCH   2   6
TORSDOF 1
