REMARK  2 active torsions:
REMARK  status: ('A' for Active; 'I' for Inactive)
REMARK    1  A    between atoms: C1_1  and  C5_5 
REMARK    2  A    between atoms: C4_4  and  C5_5 
ROOT
HETATM    1  C5  UNL     1     -33.718   6.582   4.814  1.00 20.00     0.101 C 
ENDROOT
BRANCH   1   2
HETATM    2  C1  UNL     1     -33.143   6.301   3.437  1.00 20.00     0.219 C 
HETATM    3  O6  UNL     1     -32.012   6.644   3.109  1.00 20.00    -0.280 OA
HETATM    4 CL7  UNL     1     -34.276   5.451   2.423  1.00 20.00    -0.044 Cl
ENDBRANCH   1   2
BRANCH   1   5
HETATM    5  C4  UNL     1     -34.680   5.547   5.287  1.00 20.00    -0.006 A 
HETATM    6  C2  UNL     1     -34.190   4.357   6.065  1.00 20.00     0.005 A 
HETATM    7  C3  UNL     1     -34.998   5.422   6.752  1.00 20.00     0.005 A 
ENDBRANCH   1   5
TORSDOF 2
