REMARK  1 active torsions:
REMARK  status: ('A' for Active; 'I' for Inactive)
REMARK    1  A    between atoms: C4_4  and  C10_10 
ROOT
HETATM    1  C1  UNL     1     -34.245   7.571   2.645  1.00 20.00     0.008 C 
HETATM    2  C2  UNL     1     -34.497   6.404   3.601  1.00 20.00     0.035 C 
HETATM    3  C3  UNL     1     -31.804   7.771   3.268  1.00 20.00     0.039 C 
HETATM    4  C4  UNL     1     -32.802   7.556   2.120  1.00 20.00    -0.005 C 
HETATM    5  C5  UNL     1     -33.430   6.242   4.632  1.00 20.00     0.151 A 
HETATM    6  C6  UNL     1     -32.084   6.888   4.443  1.00 20.00     0.151 A 
HETATM    7  O11 UNL     1     -33.072   7.428   5.343  1.00 20.00    -0.375 OA
ENDROOT
BRANCH   4   8
HETATM    8  C10 UNL     1     -32.608   8.619   1.040  1.00 20.00    -0.048 C 
HETATM    9  C7  UNL     1     -33.589   8.369  -0.118  1.00 20.00     0.015 C 
HETATM   10  C8  UNL     1     -31.167   8.559   0.504  1.00 20.00     0.015 C 
HETATM   11  C9  UNL     1     -32.869  10.015   1.632  1.00 20.00     0.015 C 
ENDBRANCH   4   8
TORSDOF 1
