REMARK  2 active torsions:
REMARK  status: ('A' for Active; 'I' for Inactive)
REMARK    1  A    between atoms: C3_3  and  C5_5 
REMARK    2  A    between atoms: C4_4  and  C8_8 
ROOT
HETATM    1  C1  UNL     1     -34.532   5.730   3.135  1.00 20.00     0.023 A 
HETATM    2  C2  UNL     1     -33.996   6.708   2.249  1.00 20.00     0.016 A 
HETATM    3  C3  UNL     1     -33.902   5.741   4.360  1.00 20.00     0.043 A 
HETATM    4  C4  UNL     1     -32.977   7.430   2.831  1.00 20.00    -0.013 A 
HETATM    5  S10 UNL     1     -32.670   6.927   4.438  1.00 20.00    -0.091 SA
ENDROOT
BRANCH   4   6
HETATM    6  C8  UNL     1     -32.204   8.550   2.128  1.00 20.00     0.026 A 
HETATM    7  C6  UNL     1     -32.938   9.435   1.143  1.00 20.00     0.010 A 
HETATM    8  C7  UNL     1     -31.944   8.436   0.641  1.00 20.00     0.010 A 
ENDBRANCH   4   6
BRANCH   3   9
HETATM    9  C5  UNL     1     -34.150   4.920   5.501  1.00 20.00     0.277 C 
HETATM   10  O9  UNL     1     -35.023   4.028   5.548  1.00 20.00    -0.301 OA
ENDBRANCH   3   9
TORSDOF 2
