REMARK  2 active torsions:
REMARK  status: ('A' for Active; 'I' for Inactive)
REMARK    1  A    between atoms: C4_4  and  C11_11 
REMARK    2  A    between atoms: C10_10  and  C11_11 
ROOT
HETATM    1  C1  UNL     1     -33.278   5.882   5.909  1.00 20.00     0.008 C 
HETATM    2  C2  UNL     1     -34.462   5.485   6.792  1.00 20.00     0.035 C 
HETATM    3  C3  UNL     1     -34.548   5.516   3.754  1.00 20.00     0.040 C 
HETATM    4  C4  UNL     1     -33.755   6.526   4.598  1.00 20.00    -0.004 C 
HETATM    5  C5  UNL     1     -35.530   4.747   6.053  1.00 20.00     0.151 A 
HETATM    6  C6  UNL     1     -35.592   4.799   4.551  1.00 20.00     0.151 A 
HETATM    7  O12 UNL     1     -35.085   3.649   5.256  1.00 20.00    -0.375 OA
ENDROOT
BRANCH   4   8
HETATM    8  C11 UNL     1     -32.571   7.072   3.802  1.00 20.00    -0.044 C 
HETATM    9  C8  UNL     1     -31.820   8.107   4.664  1.00 20.00     0.015 C 
HETATM   10  C9  UNL     1     -31.611   5.911   3.471  1.00 20.00     0.015 C 
BRANCH   8  11
HETATM   11  C10 UNL     1     -33.108   7.729   2.499  1.00 20.00     0.004 C 
HETATM   12  C7  UNL     1     -32.064   8.334   1.568  1.00 20.00     0.006 C 
ENDBRANCH   8  11
ENDBRANCH   4   8
TORSDOF 2
