REMARK  2 active torsions:
REMARK  status: ('A' for Active; 'I' for Inactive)
REMARK    1  A    between atoms: C4_4  and  C11_11 
REMARK    2  A    between atoms: C10_10  and  C11_11 
ROOT
HETATM    1  C1  UNL     1     -33.335   6.578   5.374  1.00 20.00     0.008 C 
HETATM    2  C2  UNL     1     -34.058   5.771   6.455  1.00 20.00     0.035 C 
HETATM    3  C3  UNL     1     -33.537   4.333   4.080  1.00 20.00     0.040 C 
HETATM    4  C4  UNL     1     -32.904   5.739   4.143  1.00 20.00    -0.004 C 
HETATM    5  C5  UNL     1     -35.229   5.076   5.843  1.00 20.00     0.151 A 
HETATM    6  C6  UNL     1     -34.952   4.339   4.566  1.00 20.00     0.151 A 
HETATM    7  O12 UNL     1     -35.166   3.648   5.804  1.00 20.00    -0.375 OA
ENDROOT
BRANCH   4   8
HETATM    8  C11 UNL     1     -33.179   6.517   2.853  1.00 20.00    -0.044 C 
HETATM    9  C8  UNL     1     -32.640   5.710   1.655  1.00 20.00     0.015 C 
HETATM   10  C9  UNL     1     -34.702   6.692   2.688  1.00 20.00     0.015 C 
BRANCH   8  11
HETATM   11  C10 UNL     1     -32.474   7.900   2.946  1.00 20.00     0.004 C 
HETATM   12  C7  UNL     1     -32.636   8.823   1.744  1.00 20.00     0.006 C 
ENDBRANCH   8  11
ENDBRANCH   4   8
TORSDOF 2
