REMARK  0 active torsions:
REMARK  status: ('A' for Active; 'I' for Inactive)
ROOT
HETATM    1  C1  UNL     1     -34.083   5.277   2.795  1.00 20.00     0.030 A 
HETATM    2  C2  UNL     1     -33.077   5.958   2.141  1.00 20.00     0.141 A 
HETATM    3  C3  UNL     1     -34.276   5.525   4.150  1.00 20.00    -0.030 A 
HETATM    4  C4  UNL     1     -33.451   6.468   4.760  1.00 20.00     0.063 A 
HETATM    5  C5  UNL     1     -35.389   4.838   4.893  1.00 20.00     0.041 C 
HETATM    6  C6  UNL     1     -33.565   6.782   6.226  1.00 20.00     0.062 C 
HETATM    7  C7  UNL     1     -35.250   4.938   6.412  1.00 20.00     0.005 C 
HETATM    8  C8  UNL     1     -34.906   6.364   6.826  1.00 20.00     0.006 C 
HETATM    9  N9  UNL     1     -32.282   6.854   2.756  1.00 20.00    -0.162 NA
HETATM   10  N10 UNL     1     -32.471   7.109   4.080  1.00 20.00    -0.155 NA
ENDROOT
TORSDOF 0
