REMARK  0 active torsions:
REMARK  status: ('A' for Active; 'I' for Inactive)
ROOT
HETATM    1  C1  UNL     1     -31.815   7.661   3.403  1.00 20.00    -0.027 C 
HETATM    2  C2  UNL     1     -35.122   5.796   6.703  1.00 20.00    -0.027 C 
HETATM    3  C3  UNL     1     -32.169   6.699   2.544  1.00 20.00    -0.001 C 
HETATM    4  C4  UNL     1     -35.442   4.853   5.810  1.00 20.00    -0.001 C 
HETATM    5  C5  UNL     1     -32.411   7.747   4.773  1.00 20.00     0.063 C 
HETATM    6  C6  UNL     1     -34.062   6.815   6.423  1.00 20.00     0.063 C 
HETATM    7  C7  UNL     1     -33.188   5.655   2.890  1.00 20.00     0.300 C 
HETATM    8  C8  UNL     1     -34.773   4.761   4.471  1.00 20.00     0.300 C 
HETATM    9  C9  UNL     1     -33.186   6.477   5.194  1.00 20.00     0.230 C 
HETATM   10  N10 UNL     1     -34.004   5.959   4.082  1.00 20.00     0.100 N 
ENDROOT
TORSDOF 0
