REMARK  0 active torsions:
REMARK  status: ('A' for Active; 'I' for Inactive)
ROOT
HETATM    1  C1  UNL     1     -32.970   5.820   2.008  1.00 20.00    -0.026 C 
HETATM    2  C2  UNL     1     -34.174   4.264   5.921  1.00 20.00    -0.027 C 
HETATM    3  C3  UNL     1     -32.087   6.336   2.869  1.00 20.00    -0.001 C 
HETATM    4  C4  UNL     1     -34.540   4.330   4.633  1.00 20.00     0.005 C 
HETATM    5  C5  UNL     1     -33.872   5.493   6.729  1.00 20.00     0.057 C 
HETATM    6  C6  UNL     1     -34.390   5.555   2.396  1.00 20.00     0.066 C 
HETATM    7  C7  UNL     1     -32.456   6.691   4.277  1.00 20.00     0.300 C 
HETATM    8  C8  UNL     1     -34.186   6.805   5.986  1.00 20.00     0.277 C 
HETATM    9  C9  UNL     1     -34.673   5.654   3.913  1.00 20.00     0.249 C 
HETATM   10  N10 UNL     1     -33.905   6.752   4.541  1.00 20.00     0.100 N 
ENDROOT
TORSDOF 0
