REMARK  0 active torsions:
REMARK  status: ('A' for Active; 'I' for Inactive)
ROOT
HETATM    1  C1  UNL     1     -32.340   7.208   3.602  1.00 20.00     0.066 C 
HETATM    2  C2  UNL     1     -34.634   5.314   6.786  1.00 20.00     0.032 C 
HETATM    3  C3  UNL     1     -33.648   6.193   6.044  1.00 20.00     0.039 C 
HETATM    4  C4  UNL     1     -34.038   5.549   2.841  1.00 20.00     0.051 C 
HETATM    5  C5  UNL     1     -35.377   4.653   5.642  1.00 20.00     0.273 C 
HETATM    6  C6  UNL     1     -35.463   5.250   3.276  1.00 20.00     0.274 C 
HETATM    7  C7  UNL     1     -33.764   6.879   3.524  1.00 20.00     0.128 C 
HETATM    8  C8  UNL     1     -34.472   6.727   4.871  1.00 20.00     0.240 C 
HETATM    9  N9  UNL     1     -31.211   7.469   3.663  1.00 20.00    -0.197 NA
HETATM   10  N10 UNL     1     -35.561   5.733   4.661  1.00 20.00     0.094 N 
ENDROOT
TORSDOF 0
