REMARK  0 active torsions:
REMARK  status: ('A' for Active; 'I' for Inactive)
ROOT
HETATM    1  C1  UNL     1     -32.372   7.145   2.536  1.00 20.00     0.101 C 
HETATM    2  C2  UNL     1     -33.936   5.161   2.803  1.00 20.00     0.042 A 
HETATM    3  C3  UNL     1     -34.625   4.618   3.865  1.00 20.00     0.092 A 
HETATM    4  C4  UNL     1     -33.215   6.280   3.291  1.00 20.00     0.068 A 
HETATM    5  C5  UNL     1     -33.482   6.393   4.641  1.00 20.00     0.032 A 
HETATM    6  C6  UNL     1     -33.025   7.393   5.649  1.00 20.00     0.059 C 
HETATM    7  C7  UNL     1     -33.235   6.899   7.083  1.00 20.00     0.008 C 
HETATM    8  C8  UNL     1     -34.631   6.300   7.252  1.00 20.00     0.021 C 
HETATM    9  C9  UNL     1     -34.824   5.109   6.314  1.00 20.00     0.128 C 
HETATM   10  N10 UNL     1     -31.685   7.850   1.920  1.00 20.00    -0.191 NA
HETATM   11  N11 UNL     1     -34.343   5.373   4.970  1.00 20.00    -0.359 N 
ENDROOT
TORSDOF 0
