REMARK  1 active torsions:
REMARK  status: ('A' for Active; 'I' for Inactive)
REMARK    1  A    between atoms: C3_3  and  C5_5 
ROOT
HETATM    1  C1  UNL     1     -33.473   5.752   2.194  1.00 20.00     0.034 A 
HETATM    2  C2  UNL     1     -34.202   4.926   3.022  1.00 20.00     0.092 A 
HETATM    3  C3  UNL     1     -32.959   6.806   2.990  1.00 20.00     0.025 A 
HETATM    4  C4  UNL     1     -33.387   6.597   4.286  1.00 20.00     0.024 A 
HETATM    5  C6  UNL     1     -33.175   7.397   5.528  1.00 20.00     0.058 C 
HETATM    6  C7  UNL     1     -33.479   6.588   6.790  1.00 20.00     0.008 C 
HETATM    7  C8  UNL     1     -34.798   5.829   6.644  1.00 20.00     0.021 C 
HETATM    8  C9  UNL     1     -34.733   4.855   5.469  1.00 20.00     0.128 C 
HETATM    9  N10 UNL     1     -34.143   5.450   4.284  1.00 20.00    -0.359 N 
ENDROOT
BRANCH   3  10
HETATM   10  C5  UNL     1     -32.146   7.906   2.557  1.00 20.00     0.272 C 
HETATM   11  O11 UNL     1     -31.778   8.076   1.380  1.00 20.00    -0.301 OA
ENDBRANCH   3  10
TORSDOF 1
