REMARK  0 active torsions:
REMARK  status: ('A' for Active; 'I' for Inactive)
ROOT
HETATM    1  C1  UNL     1     -33.914   6.472   5.755  1.00 20.00     0.027 A 
HETATM    2  C2  UNL     1     -34.571   5.514   6.514  1.00 20.00     0.116 A 
HETATM    3  C3  UNL     1     -35.060   4.199   4.676  1.00 20.00     0.123 A 
HETATM    4  C4  UNL     1     -33.840   6.235   4.396  1.00 20.00    -0.045 A 
HETATM    5  C5  UNL     1     -34.417   5.089   3.847  1.00 20.00    -0.034 A 
HETATM    6  C6  UNL     1     -34.264   5.053   2.364  1.00 20.00     0.041 C 
HETATM    7  C7  UNL     1     -33.119   6.060   2.169  1.00 20.00     0.014 C 
HETATM    8  C8  UNL     1     -33.244   7.090   3.313  1.00 20.00     0.015 C 
HETATM    9  C9  UNL     1     -31.909   7.732   3.658  1.00 20.00     0.015 C 
HETATM   10  N10 UNL     1     -35.143   4.386   6.013  1.00 20.00    -0.273 NA
ENDROOT
TORSDOF 0
