REMARK  2 active torsions:
REMARK  status: ('A' for Active; 'I' for Inactive)
REMARK    1  A    between atoms: C1_1  and  C8_8 
REMARK    2  A    between atoms: C5_5  and  C8_8 
ROOT
HETATM    1  C2  UNL     1     -34.118   6.367   6.876  1.00 20.00     0.003 C 
HETATM    2  C3  UNL     1     -33.098   7.108   5.988  1.00 20.00     0.007 C 
HETATM    3  C4  UNL     1     -35.033   5.390   6.131  1.00 20.00     0.034 C 
HETATM    4  C5  UNL     1     -33.220   6.800   4.485  1.00 20.00     0.023 C 
HETATM    5  C6  UNL     1     -34.243   4.567   5.166  1.00 20.00     0.151 A 
HETATM    6  C7  UNL     1     -33.278   5.310   4.288  1.00 20.00     0.155 A 
HETATM    7  O10 UNL     1     -34.519   4.805   3.782  1.00 20.00    -0.375 OA
ENDROOT
BRANCH   4   8
HETATM    8  C8  UNL     1     -32.066   7.417   3.701  1.00 20.00     0.076 C 
BRANCH   8   9
HETATM    9  C1  UNL     1     -32.389   7.579   2.241  1.00 20.00     0.231 C 
HETATM   10  O9  UNL     1     -32.387   8.642   1.630  1.00 20.00    -0.307 OA
ENDBRANCH   8   9
ENDBRANCH   4   8
TORSDOF 2
