REMARK  0 active torsions:
REMARK  status: ('A' for Active; 'I' for Inactive)
ROOT
HETATM    1  C1  UNL     1     -34.686   5.414   4.238  1.00 20.00     0.147 C 
HETATM    2  C2  UNL     1     -34.544   5.127   2.755  1.00 20.00     0.085 C 
HETATM    3  C3  UNL     1     -34.201   7.589   2.503  1.00 20.00     0.008 C 
HETATM    4  C4  UNL     1     -34.379   7.796   4.025  1.00 20.00     0.030 C 
HETATM    5  C5  UNL     1     -33.489   6.212   2.416  1.00 20.00     0.002 C 
HETATM    6  C6  UNL     1     -33.725   6.534   4.602  1.00 20.00     0.086 C 
HETATM    7  C7  UNL     1     -32.547   6.227   3.656  1.00 20.00    -0.019 C 
HETATM    8  C8  UNL     1     -31.825   4.886   3.906  1.00 20.00     0.017 C 
HETATM    9  C9  UNL     1     -31.454   7.312   3.583  1.00 20.00     0.017 C 
HETATM   10  O10 UNL     1     -35.472   4.846   4.980  1.00 20.00    -0.296 OA
HETATM   11 BR11 UNL     1     -33.357   6.604   6.458  1.00 20.00    -0.076 Br
ENDROOT
TORSDOF 0
