REMARK  1 active torsions:
REMARK  status: ('A' for Active; 'I' for Inactive)
REMARK    1  A    between atoms: C1_1  and  C5_5 
ROOT
HETATM    1  C2  UNL     1     -33.626   5.478   2.802  1.00 20.00     0.022 C 
HETATM    2  C3  UNL     1     -34.588   4.485   3.478  1.00 20.00     0.011 C 
HETATM    3  C4  UNL     1     -32.702   4.834   4.919  1.00 20.00     0.031 C 
HETATM    4  C5  UNL     1     -33.008   6.096   4.059  1.00 20.00     0.057 C 
HETATM    5  C6  UNL     1     -34.269   4.792   4.957  1.00 20.00    -0.035 C 
HETATM    6  C7  UNL     1     -34.173   6.386   5.099  1.00 20.00    -0.023 C 
HETATM    7  C8  UNL     1     -34.984   3.949   5.974  1.00 20.00     0.016 C 
HETATM    8  C9  UNL     1     -35.375   7.197   4.588  1.00 20.00     0.017 C 
HETATM    9  C10 UNL     1     -33.790   6.968   6.473  1.00 20.00     0.017 C 
ENDROOT
BRANCH   4  10
HETATM   10  C1  UNL     1     -31.953   7.098   3.853  1.00 20.00     0.182 C 
HETATM   11  O11 UNL     1     -31.463   7.590   4.908  1.00 20.00    -0.647 OA
HETATM   12  O12 UNL     1     -31.675   7.334   2.644  1.00 20.00    -0.647 OA
ENDBRANCH   4  10
TORSDOF 1
