REMARK  1 active torsions:
REMARK  status: ('A' for Active; 'I' for Inactive)
REMARK    1  A    between atoms: C4_4  and  C6_6 
ROOT
HETATM    1  C1  UNL     1     -34.232   5.572   6.728  1.00 20.00     0.280 C 
HETATM    2  C2  UNL     1     -35.410   4.684   6.347  1.00 20.00     0.104 C 
HETATM    3  C3  UNL     1     -34.472   5.011   3.798  1.00 20.00     0.109 C 
HETATM    4  C4  UNL     1     -33.388   5.866   4.462  1.00 20.00     0.229 C 
HETATM    5  N7  UNL     1     -33.879   6.529   5.678  1.00 20.00     0.089 N 
HETATM    6  S8  UNL     1     -35.035   3.672   4.889  1.00 20.00    -0.165 SA
HETATM    7  H21 UNL     1     -34.695   7.096   5.450  1.00 20.00     0.316 HD
ENDROOT
BRANCH   4   8
HETATM    8  C6  UNL     1     -32.915   6.946   3.485  1.00 20.00     0.032 C 
HETATM    9  C5  UNL     1     -32.357   6.349   2.236  1.00 20.00     0.007 C 
ENDBRANCH   4   8
TORSDOF 1
