REMARK  1 active torsions:
REMARK  status: ('A' for Active; 'I' for Inactive)
REMARK    1  A    between atoms: C3_3  and  O10_10 
ROOT
HETATM    1  C1  UNL     1     -35.163   5.885   3.768  1.00 20.00     0.041 C 
HETATM    2  C2  UNL     1     -33.104   5.259   4.975  1.00 20.00     0.020 C 
HETATM    3  C3  UNL     1     -35.512   5.246   5.112  1.00 20.00     0.126 C 
HETATM    4  C4  UNL     1     -33.649   5.634   3.572  1.00 20.00    -0.045 C 
HETATM    5  C5  UNL     1     -34.259   5.484   5.976  1.00 20.00    -0.021 C 
HETATM    6  C6  UNL     1     -32.957   6.888   3.021  1.00 20.00     0.015 C 
HETATM    7  C7  UNL     1     -33.413   4.478   2.585  1.00 20.00     0.015 C 
HETATM    8  C8  UNL     1     -34.146   4.520   7.165  1.00 20.00     0.017 C 
HETATM    9  C9  UNL     1     -34.236   6.925   6.520  1.00 20.00     0.017 C 
ENDROOT
BRANCH   3  10
HETATM   10  O10 UNL     1     -35.756   3.860   4.894  1.00 20.00    -0.395 OA
HETATM   11  H28 UNL     1     -36.499   3.795   4.270  1.00 20.00     0.210 HD
ENDBRANCH   3  10
TORSDOF 1
