REMARK  3 active torsions:
REMARK  status: ('A' for Active; 'I' for Inactive)
REMARK    1  A    between atoms: C1_1  and  C6_6 
REMARK    2  A    between atoms: C1_1  and  O8_8 
REMARK    3  A    between atoms: C4_4  and  C6_6 
ROOT
HETATM    1  C6  UNL     1     -34.456   5.336   3.099  1.00 20.00     0.115 C 
ENDROOT
BRANCH   1   2
HETATM    2  C1  UNL     1     -35.116   4.857   4.380  1.00 20.00     0.139 C 
HETATM    3  O7  UNL     1     -35.049   5.424   5.460  1.00 20.00    -0.650 OA
BRANCH   2   4
HETATM    4  O8  UNL     1     -35.801   3.703   4.175  1.00 20.00    -0.776 OA
HETATM    5  H18 UNL     1     -36.232   3.383   4.996  1.00 20.00     0.167 HD
ENDBRANCH   2   4
ENDBRANCH   1   2
BRANCH   1   6
HETATM    6  C4  UNL     1     -33.647   6.572   3.286  1.00 20.00    -0.001 A 
HETATM    7  C2  UNL     1     -32.228   6.479   3.783  1.00 20.00     0.010 A 
HETATM    8  C3  UNL     1     -32.501   6.874   2.356  1.00 20.00    -0.014 A 
HETATM    9  C5  UNL     1     -32.253   8.272   1.905  1.00 20.00     0.010 C 
ENDBRANCH   1   6
TORSDOF 3
