REMARK  0 active torsions:
REMARK  status: ('A' for Active; 'I' for Inactive)
ROOT
HETATM    1  C1  UNL     1     -32.807   7.001   3.304  1.00 20.00     0.124 C 
HETATM    2  C2  UNL     1     -33.546   6.445   5.515  1.00 20.00     0.021 C 
HETATM    3  C3  UNL     1     -33.708   6.343   4.185  1.00 20.00     0.145 C 
HETATM    4  C4  UNL     1     -34.428   5.726   6.487  1.00 20.00     0.033 C 
HETATM    5  C5  UNL     1     -35.290   4.686   5.780  1.00 20.00     0.031 C 
HETATM    6  C6  UNL     1     -35.793   5.247   4.457  1.00 20.00     0.176 C 
HETATM    7  N7  UNL     1     -32.072   7.538   2.586  1.00 20.00    -0.189 NA
HETATM    8  O8  UNL     1     -34.715   5.612   3.586  1.00 20.00    -0.341 OA
ENDROOT
TORSDOF 0
