REMARK  1 active torsions:
REMARK  status: ('A' for Active; 'I' for Inactive)
REMARK    1  A    between atoms: C8_8  and  N10_10 
ROOT
HETATM    1  C1  UNL     1     -32.158   9.233   1.318  1.00 20.00     0.013 C 
HETATM    2  C2  UNL     1     -32.415   8.081   1.535  1.00 20.00    -0.087 C 
HETATM    3  C8  UNL     1     -32.724   6.673   1.796  1.00 20.00     0.365 C 
ENDROOT
BRANCH   3   4
HETATM    4  N10 UNL     1     -33.517   6.536   3.015  1.00 20.00     0.102 N 
HETATM    5  C5  UNL     1     -34.222   5.248   3.038  1.00 20.00     0.303 C 
HETATM    6  C3  UNL     1     -35.053   5.102   4.317  1.00 20.00     0.302 C 
HETATM    7  N9  UNL     1     -34.207   5.246   5.509  1.00 20.00     0.087 N 
HETATM    8  C4  UNL     1     -33.503   6.533   5.486  1.00 20.00     0.302 C 
HETATM    9  C7  UNL     1     -35.002   5.111   6.728  1.00 20.00     0.310 C 
HETATM   10  C6  UNL     1     -32.671   6.678   4.207  1.00 20.00     0.303 C 
ENDBRANCH   3   4
TORSDOF 1
