REMARK  3 active torsions:
REMARK  status: ('A' for Active; 'I' for Inactive)
REMARK    1  A    between atoms: C1_1  and  C4_4 
REMARK    2  A    between atoms: C2_2  and  C9_9 
REMARK    3  A    between atoms: C9_9  and  N10_10 
ROOT
HETATM    1  C5  UNL     1     -34.566   4.682   5.752  1.00 20.00     0.032 C 
HETATM    2  C6  UNL     1     -35.148   4.502   4.357  1.00 20.00     0.032 C 
HETATM    3  C7  UNL     1     -34.197   6.155   5.845  1.00 20.00     0.273 C 
HETATM    4  C8  UNL     1     -35.085   5.880   3.715  1.00 20.00     0.273 C 
HETATM    5  N10 UNL     1     -34.075   6.640   4.464  1.00 20.00     0.099 N 
ENDROOT
BRANCH   5   6
HETATM    6  C9  UNL     1     -32.728   6.350   3.940  1.00 20.00     0.366 C 
BRANCH   6   7
HETATM    7  C2  UNL     1     -32.417   7.206   2.791  1.00 20.00    -0.072 C 
HETATM    8  C1  UNL     1     -32.159   7.905   1.849  1.00 20.00    -0.078 C 
BRANCH   8   9
HETATM    9  C4  UNL     1     -31.847   8.727   0.734  1.00 20.00     0.054 C 
HETATM   10  C3  UNL     1     -32.669   9.696   0.320  1.00 20.00     0.020 C 
ENDBRANCH   8   9
ENDBRANCH   6   7
ENDBRANCH   5   6
TORSDOF 3
