REMARK  0 active torsions:
REMARK  status: ('A' for Active; 'I' for Inactive)
ROOT
HETATM    1  C1  UNL     1     -32.385   7.261   5.031  1.00 20.00     0.011 A 
HETATM    2  C2  UNL     1     -31.799   7.815   3.894  1.00 20.00     0.024 A 
HETATM    3  C3  UNL     1     -33.221   6.453   2.495  1.00 20.00     0.031 A 
HETATM    4  C4  UNL     1     -33.389   6.290   4.910  1.00 20.00    -0.024 A 
HETATM    5  C5  UNL     1     -33.822   5.898   3.631  1.00 20.00    -0.047 A 
HETATM    6  C6  UNL     1     -32.215   7.410   2.627  1.00 20.00     0.034 A 
HETATM    7  C7  UNL     1     -34.883   4.838   3.482  1.00 20.00     0.069 C 
HETATM    8  C8  UNL     1     -34.042   5.724   6.147  1.00 20.00     0.308 C 
HETATM    9  C9  UNL     1     -35.678   4.616   4.771  1.00 20.00     0.274 C 
HETATM   10  N10 UNL     1     -34.768   4.471   5.907  1.00 20.00     0.087 N 
HETATM   11 CL11 UNL     1     -31.486   8.092   1.225  1.00 20.00    -0.084 Cl
HETATM   12  H21 UNL     1     -34.098   3.727   5.710  1.00 20.00     0.316 HD
ENDROOT
TORSDOF 0
