REMARK  2 active torsions:
REMARK  status: ('A' for Active; 'I' for Inactive)
REMARK    1  A    between atoms: C2_2  and  C3_3 
REMARK    2  A    between atoms: C3_3  and  O10_10 
ROOT
HETATM    1  C1  UNL     1     -33.365   6.346   4.260  1.00 20.00    -0.067 C 
HETATM    2  C2  UNL     1     -34.279   6.221   5.228  1.00 20.00     0.014 C 
HETATM    3  C4  UNL     1     -32.189   7.279   4.313  1.00 20.00     0.035 C 
HETATM    4  C5  UNL     1     -33.373   5.571   2.973  1.00 20.00     0.035 C 
HETATM    5  C6  UNL     1     -31.669   7.258   2.880  1.00 20.00     0.005 C 
HETATM    6  C7  UNL     1     -31.990   5.850   2.396  1.00 20.00     0.005 C 
HETATM    7  C8  UNL     1     -34.228   7.018   6.497  1.00 20.00     0.056 C 
ENDROOT
BRANCH   2   8
HETATM    8  C3  UNL     1     -35.379   5.246   5.007  1.00 20.00     0.171 C 
HETATM    9  O9  UNL     1     -36.185   5.282   4.089  1.00 20.00    -0.646 OA
BRANCH   8  10
HETATM   10  O10 UNL     1     -35.376   4.293   5.968  1.00 20.00    -0.773 OA
HETATM   11  H22 UNL     1     -36.096   3.638   5.839  1.00 20.00     0.167 HD
ENDBRANCH   8  10
ENDBRANCH   2   8
TORSDOF 2
