REMARK  1 active torsions:
REMARK  status: ('A' for Active; 'I' for Inactive)
REMARK    1  A    between atoms: C6_6  and  N8_8 
ROOT
HETATM    1  C1  UNL     1     -33.174   6.901   6.764  1.00 20.00     0.137 A 
HETATM    2  C2  UNL     1     -32.843   6.978   5.432  1.00 20.00     0.113 A 
HETATM    3  C3  UNL     1     -34.099   5.216   5.849  1.00 20.00     0.203 A 
HETATM    4  N7  UNL     1     -33.956   5.802   7.017  1.00 20.00    -0.231 NA
HETATM    5  N8  UNL     1     -33.442   5.892   4.858  1.00 20.00    -0.327 N 
HETATM    6 CL9  UNL     1     -34.969   3.795   5.524  1.00 20.00    -0.043 Cl
ENDROOT
BRANCH   5   7
HETATM    7  C6  UNL     1     -33.371   5.545   3.433  1.00 20.00     0.083 C 
HETATM    8  C4  UNL     1     -32.474   6.508   2.653  1.00 20.00     0.032 C 
HETATM    9  C5  UNL     1     -34.760   5.432   2.802  1.00 20.00     0.032 C 
ENDBRANCH   5   7
TORSDOF 1
