REMARK  1 active torsions:
REMARK  status: ('A' for Active; 'I' for Inactive)
REMARK    1  A    between atoms: C5_5  and  O7_7 
ROOT
HETATM    1  C1  UNL     1     -34.034   5.295   6.122  1.00 20.00     0.037 C 
HETATM    2  C2  UNL     1     -35.222   4.993   3.911  1.00 20.00     0.037 C 
HETATM    3  C3  UNL     1     -33.482   6.635   5.646  1.00 20.00     0.081 C 
HETATM    4  C4  UNL     1     -34.673   6.332   3.430  1.00 20.00     0.081 C 
HETATM    5  C5  UNL     1     -35.355   4.954   5.434  1.00 20.00     0.118 C 
HETATM    6  C6  UNL     1     -33.371   6.682   4.131  1.00 20.00     0.243 C 
HETATM    7  F8  UNL     1     -32.969   7.919   3.746  1.00 20.00    -0.206 F 
HETATM    8  F9  UNL     1     -32.401   5.820   3.728  1.00 20.00    -0.206 F 
ENDROOT
BRANCH   5   9
HETATM    9  O7  UNL     1     -35.758   3.652   5.846  1.00 20.00    -0.396 OA
HETATM   10  H19 UNL     1     -36.596   3.465   5.394  1.00 20.00     0.210 HD
ENDBRANCH   5   9
TORSDOF 1
