REMARK  3 active torsions:
REMARK  status: ('A' for Active; 'I' for Inactive)
REMARK    1  A    between atoms: C1_1  and  C3_3 
REMARK    2  A    between atoms: C2_2  and  C5_5 
REMARK    3  A    between atoms: C4_4  and  C7_7 
ROOT
HETATM    1  C1  UNL     1     -33.218   5.764   4.003  1.00 20.00     0.000 C 
HETATM    2  C2  UNL     1     -32.632   6.355   2.951  1.00 20.00    -0.000 C 
ENDROOT
BRANCH   1   3
HETATM    3  C3  UNL     1     -34.153   6.445   4.872  1.00 20.00     0.003 C 
HETATM    4  C4  UNL     1     -34.733   5.848   5.920  1.00 20.00     0.041 C 
BRANCH   4   5
HETATM    5  C7  UNL     1     -34.411   4.437   6.208  1.00 20.00     0.258 C 
HETATM    6  O9  UNL     1     -34.631   3.544   5.398  1.00 20.00    -0.302 OA
ENDBRANCH   4   5
ENDBRANCH   1   3
BRANCH   2   7
HETATM    7  C5  UNL     1     -32.879   7.732   2.583  1.00 20.00    -0.004 C 
HETATM    8  C6  UNL     1     -32.295   8.326   1.532  1.00 20.00    -0.031 C 
HETATM    9  C8  UNL     1     -32.542   9.746   1.141  1.00 20.00     0.036 C 
ENDBRANCH   2   7
TORSDOF 3
