REMARK  1 active torsions:
REMARK  status: ('A' for Active; 'I' for Inactive)
REMARK    1  A    between atoms: C2_2  and  C10_10 
ROOT
HETATM    1  C1  UNL     1     -32.820   6.315   2.431  1.00 20.00    -0.022 C 
HETATM    2  C2  UNL     1     -32.850   7.552   2.955  1.00 20.00    -0.073 C 
HETATM    3  C3  UNL     1     -34.088   6.640   4.948  1.00 20.00     0.134 C 
HETATM    4  C4  UNL     1     -33.488   5.130   3.061  1.00 20.00     0.039 C 
HETATM    5  C5  UNL     1     -33.545   7.874   4.249  1.00 20.00     0.113 C 
HETATM    6  C6  UNL     1     -34.574   5.495   4.078  1.00 20.00     0.055 C 
HETATM    7  C7  UNL     1     -35.899   5.872   3.420  1.00 20.00     0.018 C 
HETATM    8  O11 UNL     1     -34.214   6.608   6.173  1.00 20.00    -0.297 OA
ENDROOT
BRANCH   2   9
HETATM    9  C10 UNL     1     -32.173   8.708   2.277  1.00 20.00     0.006 C 
HETATM   10  C8  UNL     1     -31.472   8.237   1.008  1.00 20.00     0.014 C 
HETATM   11  C9  UNL     1     -33.177   9.815   1.967  1.00 20.00     0.014 C 
ENDBRANCH   2   9
TORSDOF 1
