REMARK  1 active torsions:
REMARK  status: ('A' for Active; 'I' for Inactive)
REMARK    1  A    between atoms: C4_4  and  O11_11 
ROOT
HETATM    1  C1  UNL     1     -33.524   7.406   1.918  1.00 20.00    -0.021 C 
HETATM    2  C2  UNL     1     -32.645   8.323   2.356  1.00 20.00    -0.025 C 
HETATM    3  C3  UNL     1     -33.621   6.371   4.138  1.00 20.00    -0.043 C 
HETATM    4  C4  UNL     1     -34.593   5.770   4.829  1.00 20.00     0.045 C 
HETATM    5  C5  UNL     1     -32.633   7.400   4.675  1.00 20.00     0.046 C 
HETATM    6  C6  UNL     1     -31.732   6.244   2.799  1.00 20.00     0.022 C 
HETATM    7  C7  UNL     1     -33.256   6.131   2.684  1.00 20.00     0.040 C 
HETATM    8  C8  UNL     1     -31.781   7.652   3.406  1.00 20.00     0.013 C 
HETATM    9  C9  UNL     1     -35.532   4.765   4.240  1.00 20.00     0.076 C 
ENDROOT
BRANCH   4  10
HETATM   10  O11 UNL     1     -34.780   6.063   6.167  1.00 20.00    -0.360 OA
HETATM   11  C10 UNL     1     -34.638   4.933   6.992  1.00 20.00     0.209 C 
ENDBRANCH   4  10
TORSDOF 1
