REMARK  1 active torsions:
REMARK  status: ('A' for Active; 'I' for Inactive)
REMARK    1  A    between atoms: C1_1  and  C2_2 
ROOT
HETATM    1  C1  UNL     1     -34.015   5.898   5.912  1.00 20.00     0.326 C 
HETATM    2  O3  UNL     1     -33.810   6.950   6.500  1.00 20.00    -0.257 OA
HETATM    3  F4  UNL     1     -33.833   5.891   4.584  1.00 20.00    -0.162 F 
ENDROOT
BRANCH   1   4
HETATM    4  C2  UNL     1     -34.452   4.623   6.554  1.00 20.00     0.338 C 
HETATM    5  F5  UNL     1     -34.589   3.629   5.637  1.00 20.00    -0.245 F 
ENDBRANCH   1   4
TORSDOF 1
