REMARK  0 active torsions:
REMARK  status: ('A' for Active; 'I' for Inactive)
ROOT
HETATM    1  C1  UNL     1     -33.999   5.657   5.588  1.00 20.00     0.063 C 
HETATM    2  C2  UNL     1     -32.350   6.738   4.281  1.00 20.00     0.167 C 
HETATM    3  C3  UNL     1     -34.276   5.172   2.939  1.00 20.00     0.112 C 
HETATM    4  C4  UNL     1     -34.914   5.554   6.773  1.00 20.00     0.078 C 
HETATM    5  C5  UNL     1     -31.713   8.129   4.266  1.00 20.00     0.046 C 
HETATM    6  C6  UNL     1     -35.653   5.828   2.882  1.00 20.00     0.033 C 
HETATM    7  N7  UNL     1     -33.277   6.709   5.418  1.00 20.00    -0.272 NA
HETATM    8  S8  UNL     1     -34.040   4.279   4.504  1.00 20.00    -0.100 SA
HETATM    9  S9  UNL     1     -32.983   6.409   2.594  1.00 20.00    -0.127 SA
ENDROOT
TORSDOF 0
