REMARK  0 active torsions:
REMARK  status: ('A' for Active; 'I' for Inactive)
ROOT
HETATM    1  C1  UNL     1     -34.221   5.109   6.732  1.00 20.00     0.302 C 
HETATM    2  C2  UNL     1     -33.712   6.514   6.498  1.00 20.00     0.201 C 
HETATM    3  C3  UNL     1     -34.337   5.603   4.483  1.00 20.00     0.253 C 
HETATM    4  C4  UNL     1     -33.335   5.582   3.327  1.00 20.00     0.081 C 
HETATM    5  C5  UNL     1     -35.770   5.615   3.934  1.00 20.00     0.081 C 
HETATM    6  C6  UNL     1     -34.717   3.259   5.249  1.00 20.00     0.314 C 
HETATM    7  N7  UNL     1     -34.009   4.516   5.418  1.00 20.00     0.120 N 
HETATM    8  O8  UNL     1     -34.162   6.857   5.181  1.00 20.00    -0.351 OA
ENDROOT
TORSDOF 0
