REMARK  2 active torsions:
REMARK  status: ('A' for Active; 'I' for Inactive)
REMARK    1  A    between atoms: C8_8  and  C9_9 
REMARK    2  A    between atoms: C9_9  and  N11_11 
ROOT
HETATM    1  C1  UNL     1     -34.492   3.901   5.744  1.00 20.00     0.064 C 
HETATM    2  C2  UNL     1     -35.024   5.273   3.748  1.00 20.00     0.047 C 
HETATM    3  C3  UNL     1     -34.262   6.366   5.893  1.00 20.00     0.047 C 
HETATM    4  C4  UNL     1     -33.626   5.459   3.168  1.00 20.00     0.236 C 
HETATM    5  C5  UNL     1     -32.870   6.544   5.297  1.00 20.00     0.236 C 
HETATM    6  C6  UNL     1     -35.034   5.192   5.278  1.00 20.00     0.096 C 
HETATM    7  N10 UNL     1     -34.066   2.886   6.110  1.00 20.00    -0.197 NA
HETATM    8  N11 UNL     1     -32.977   6.668   3.797  1.00 20.00    -0.071 N 
HETATM    9  H28 UNL     1     -33.582   7.477   3.599  1.00 20.00     0.279 HD
ENDROOT
BRANCH   8  10
HETATM   10  C9  UNL     1     -31.645   6.972   3.169  1.00 20.00     0.234 C 
BRANCH  10  11
HETATM   11  C8  UNL     1     -31.867   7.741   1.877  1.00 20.00     0.023 C 
HETATM   12  C7  UNL     1     -32.556   9.070   2.139  1.00 20.00     0.007 C 
ENDBRANCH  10  11
ENDBRANCH   8  10
TORSDOF 2
