REMARK  1 active torsions:
REMARK  status: ('A' for Active; 'I' for Inactive)
REMARK    1  A    between atoms: C9_9  and  N11_11 
ROOT
HETATM    1  C1  UNL     1     -33.849   6.631   6.178  1.00 20.00     0.102 C 
HETATM    2  C2  UNL     1     -35.305   3.968   6.191  1.00 20.00     0.007 C 
HETATM    3  C5  UNL     1     -33.825   4.106   5.768  1.00 20.00     0.058 C 
HETATM    4  C6  UNL     1     -35.636   5.096   5.187  1.00 20.00     0.058 C 
HETATM    5  C9  UNL     1     -34.159   5.538   5.293  1.00 20.00     0.246 C 
HETATM    6  N10 UNL     1     -33.600   7.512   6.891  1.00 20.00    -0.194 NA
ENDROOT
BRANCH   5   7
HETATM    7  N11 UNL     1     -33.616   5.746   3.946  1.00 20.00     0.112 N 
HETATM    8  C7  UNL     1     -34.164   6.963   3.346  1.00 20.00     0.275 C 
HETATM    9  C3  UNL     1     -33.186   7.257   2.219  1.00 20.00     0.032 C 
HETATM   10  C4  UNL     1     -31.876   6.601   2.645  1.00 20.00     0.032 C 
HETATM   11  C8  UNL     1     -32.170   5.969   3.997  1.00 20.00     0.275 C 
ENDBRANCH   5   7
TORSDOF 1
