REMARK  0 active torsions:
REMARK  status: ('A' for Active; 'I' for Inactive)
ROOT
HETATM    1  C1  UNL     1     -33.075   6.392   2.625  1.00 20.00     0.166 A 
HETATM    2  C2  UNL     1     -33.715   6.363   4.684  1.00 20.00     0.048 A 
HETATM    3  C3  UNL     1     -34.484   5.340   4.206  1.00 20.00     0.008 A 
HETATM    4  C4  UNL     1     -33.936   6.601   6.123  1.00 20.00     0.061 C 
HETATM    5  C5  UNL     1     -35.348   4.712   5.223  1.00 20.00     0.048 C 
HETATM    6  C6  UNL     1     -34.746   5.324   6.534  1.00 20.00     0.011 C 
HETATM    7  N7  UNL     1     -32.894   6.987   3.794  1.00 20.00    -0.257 NA
HETATM    8  S8  UNL     1     -34.225   5.086   2.575  1.00 20.00    -0.085 SA
ENDROOT
TORSDOF 0
