REMARK  1 active torsions:
REMARK  status: ('A' for Active; 'I' for Inactive)
REMARK    1  A    between atoms: C5_5  and  C10_10 
ROOT
HETATM    1  C1  UNL     1     -34.357   5.390   3.250  1.00 20.00    -0.018 C 
HETATM    2  C2  UNL     1     -33.336   6.099   2.747  1.00 20.00    -0.025 C 
HETATM    3  C3  UNL     1     -33.948   6.403   5.492  1.00 20.00     0.135 C 
HETATM    4  C4  UNL     1     -33.347   7.591   4.776  1.00 20.00     0.087 C 
HETATM    5  C5  UNL     1     -34.861   5.499   4.663  1.00 20.00     0.081 C 
HETATM    6  C6  UNL     1     -32.574   7.131   3.536  1.00 20.00     0.010 C 
HETATM    7  C7  UNL     1     -32.229   8.337   2.661  1.00 20.00     0.014 C 
HETATM    8  O11 UNL     1     -33.777   6.240   6.700  1.00 20.00    -0.297 OA
ENDROOT
BRANCH   5   9
HETATM    9  C10 UNL     1     -34.971   4.115   5.297  1.00 20.00    -0.008 C 
HETATM   10  C8  UNL     1     -33.616   3.409   5.292  1.00 20.00     0.010 C 
HETATM   11  C9  UNL     1     -35.516   4.215   6.722  1.00 20.00     0.010 C 
ENDBRANCH   5   9
TORSDOF 1
