REMARK  2 active torsions:
REMARK  status: ('A' for Active; 'I' for Inactive)
REMARK    1  A    between atoms: C3_3  and  C10_10 
REMARK    2  A    between atoms: C7_7  and  C10_10 
ROOT
HETATM    1  C1  UNL     1     -34.288   4.641   3.966  1.00 20.00    -0.024 C 
HETATM    2  C2  UNL     1     -34.570   5.191   5.159  1.00 20.00    -0.087 C 
HETATM    3  C4  UNL     1     -33.448   5.311   2.918  1.00 20.00     0.032 C 
HETATM    4  C5  UNL     1     -34.029   6.539   5.564  1.00 20.00     0.034 C 
HETATM    5  C6  UNL     1     -32.908   7.052   4.654  1.00 20.00     0.010 C 
HETATM    6  C7  UNL     1     -33.239   6.812   3.178  1.00 20.00    -0.001 C 
HETATM    7  C8  UNL     1     -35.444   4.501   6.165  1.00 20.00     0.043 C 
ENDROOT
BRANCH   6   8
HETATM    8  C10 UNL     1     -32.148   7.372   2.269  1.00 20.00     0.047 C 
HETATM    9  C9  UNL     1     -32.334   8.867   2.051  1.00 20.00     0.017 C 
BRANCH   8  10
HETATM   10  C3  UNL     1     -30.794   7.054   2.872  1.00 20.00     0.235 C 
HETATM   11  O11 UNL     1     -29.947   7.892   3.164  1.00 20.00    -0.306 OA
ENDBRANCH   8  10
ENDBRANCH   6   8
TORSDOF 2
