REMARK  1 active torsions:
REMARK  status: ('A' for Active; 'I' for Inactive)
REMARK    1  A    between atoms: C3_3  and  C8_8 
ROOT
HETATM    1  C1  UNL     1     -33.716   6.498   5.122  1.00 20.00     0.017 C 
HETATM    2  C2  UNL     1     -34.589   5.702   4.165  1.00 20.00     0.092 C 
HETATM    3  C3  UNL     1     -32.343   6.689   3.329  1.00 20.00     0.173 C 
HETATM    4  C4  UNL     1     -34.183   6.695   6.537  1.00 20.00     0.066 C 
HETATM    5  C5  UNL     1     -34.651   4.236   4.560  1.00 20.00     0.028 C 
HETATM    6  N9  UNL     1     -32.575   6.991   4.750  1.00 20.00    -0.282 NA
HETATM    7  S10 UNL     1     -33.774   5.888   2.565  1.00 20.00    -0.131 SA
ENDROOT
BRANCH   3   8
HETATM    8  C8  UNL     1     -32.025   7.989   2.603  1.00 20.00     0.012 C 
HETATM    9  C6  UNL     1     -31.735   7.728   1.125  1.00 20.00     0.012 C 
HETATM   10  C7  UNL     1     -33.172   8.988   2.753  1.00 20.00     0.012 C 
ENDBRANCH   3   8
TORSDOF 1
