REMARK  3 active torsions:
REMARK  status: ('A' for Active; 'I' for Inactive)
REMARK    1  A    between atoms: C1_1  and  C6_6 
REMARK    2  A    between atoms: C1_1  and  O9_9 
REMARK    3  A    between atoms: C6_6  and  C7_7 
ROOT
HETATM    1  C2  UNL     1     -34.331   4.973   2.947  1.00 20.00     0.021 C 
HETATM    2  C6  UNL     1     -34.103   6.127   3.926  1.00 20.00     0.085 C 
ENDROOT
BRANCH   2   3
HETATM    3  C1  UNL     1     -32.939   6.979   3.440  1.00 20.00     0.262 C 
HETATM    4  O8  UNL     1     -31.950   7.250   4.109  1.00 20.00    -0.265 OA
BRANCH   3   5
HETATM    5  O9  UNL     1     -33.166   7.379   2.155  1.00 20.00    -0.326 OA
HETATM    6  C5  UNL     1     -32.139   8.185   1.569  1.00 20.00     0.213 C 
ENDBRANCH   3   5
ENDBRANCH   2   3
BRANCH   2   7
HETATM    7  C7  UNL     1     -33.921   5.638   5.383  1.00 20.00    -0.010 C 
HETATM    8  C3  UNL     1     -34.751   4.400   5.737  1.00 20.00     0.010 C 
HETATM    9  C4  UNL     1     -34.203   6.755   6.393  1.00 20.00     0.010 C 
ENDBRANCH   2   7
TORSDOF 3
