REMARK  0 active torsions:
REMARK  status: ('A' for Active; 'I' for Inactive)
ROOT
HETATM    1  C1  UNL     1     -32.222   5.790   3.759  1.00 20.00     0.085 C 
HETATM    2  C2  UNL     1     -33.305   6.687   5.682  1.00 20.00     0.085 C 
HETATM    3  C3  UNL     1     -34.061   4.407   4.802  1.00 20.00     0.030 A 
HETATM    4  C4  UNL     1     -33.396   5.757   4.590  1.00 20.00     0.148 A 
HETATM    5  C5  UNL     1     -34.763   5.455   3.956  1.00 20.00    -0.007 A 
HETATM    6  C6  UNL     1     -34.584   3.958   6.127  1.00 20.00     0.014 C 
HETATM    7  C7  UNL     1     -34.853   5.180   2.470  1.00 20.00     0.018 C 
HETATM    8  C8  UNL     1     -36.004   6.145   4.482  1.00 20.00     0.018 C 
HETATM    9  N9  UNL     1     -31.275   5.816   3.089  1.00 20.00    -0.195 NA
HETATM   10  N10 UNL     1     -33.232   7.438   6.563  1.00 20.00    -0.195 NA
ENDROOT
TORSDOF 0
