REMARK  1 active torsions:
REMARK  status: ('A' for Active; 'I' for Inactive)
REMARK    1  A    between atoms: C5_5  and  N10_10 
ROOT
HETATM    1  C1  UNL     1     -36.115   5.405   3.724  1.00 20.00    -0.026 C 
HETATM    2  C2  UNL     1     -32.563   5.466   3.227  1.00 20.00    -0.026 C 
HETATM    3  C3  UNL     1     -35.544   6.621   3.676  1.00 20.00    -0.005 C 
HETATM    4  C4  UNL     1     -33.048   4.420   3.920  1.00 20.00    -0.005 C 
HETATM    5  C6  UNL     1     -35.505   4.250   4.481  1.00 20.00     0.056 C 
HETATM    6  C7  UNL     1     -33.041   6.881   3.453  1.00 20.00     0.056 C 
HETATM    7  C8  UNL     1     -34.254   6.951   4.400  1.00 20.00     0.113 C 
HETATM    8  C9  UNL     1     -34.092   4.569   5.007  1.00 20.00     0.113 C 
HETATM    9  N10 UNL     1     -34.070   5.962   5.467  1.00 20.00    -0.343 N 
ENDROOT
BRANCH   9  10
HETATM   10  C5  UNL     1     -33.880   6.313   6.789  1.00 20.00     0.352 C 
HETATM   11  O11 UNL     1     -33.837   7.444   7.259  1.00 20.00    -0.283 OA
ENDBRANCH   9  10
TORSDOF 1
