REMARK  3 active torsions:
REMARK  status: ('A' for Active; 'I' for Inactive)
REMARK    1  A    between atoms: C4_4  and  C6_6 
REMARK    2  A    between atoms: C6_6  and  C8_8 
REMARK    3  A    between atoms: C7_7  and  C8_8 
ROOT
HETATM    1  C1  UNL     1     -35.172   5.354   5.265  1.00 20.00     0.011 C 
HETATM    2  C2  UNL     1     -33.867   6.119   5.431  1.00 20.00     0.016 C 
HETATM    3  C3  UNL     1     -34.946   4.361   4.137  1.00 20.00     0.074 C 
HETATM    4  C4  UNL     1     -33.480   6.617   4.042  1.00 20.00     0.047 C 
HETATM    5  S9  UNL     1     -33.932   5.249   2.924  1.00 20.00    -0.164 SA
ENDROOT
BRANCH   4   6
HETATM    6  C6  UNL     1     -32.006   6.964   3.931  1.00 20.00     0.015 C 
BRANCH   6   7
HETATM    7  C8  UNL     1     -31.643   7.423   2.518  1.00 20.00     0.001 C 
BRANCH   7   8
HETATM    8  C7  UNL     1     -32.414   8.684   2.128  1.00 20.00    -0.005 C 
HETATM    9  C5  UNL     1     -32.031   9.163   0.737  1.00 20.00     0.005 C 
ENDBRANCH   7   8
ENDBRANCH   6   7
ENDBRANCH   4   6
TORSDOF 3
