REMARK  2 active torsions:
REMARK  status: ('A' for Active; 'I' for Inactive)
REMARK    1  A    between atoms: C2_2  and  C5_5 
REMARK    2  A    between atoms: C5_5  and  C6_6 
ROOT
HETATM    1  C1  UNL     1     -33.557   6.937   3.631  1.00 20.00     0.206 A 
HETATM    2  C2  UNL     1     -34.400   5.708   3.876  1.00 20.00     0.079 A 
HETATM    3  C3  UNL     1     -35.832   5.701   3.450  1.00 20.00     0.048 C 
HETATM    4  O7  UNL     1     -33.473   5.781   2.784  1.00 20.00    -0.375 OA
ENDROOT
BRANCH   2   5
HETATM    5  C5  UNL     1     -33.993   4.725   4.961  1.00 20.00     0.039 C 
BRANCH   5   6
HETATM    6  C6  UNL     1     -34.504   5.162   6.333  1.00 20.00    -0.002 C 
HETATM    7  C4  UNL     1     -33.931   6.511   6.736  1.00 20.00     0.005 C 
ENDBRANCH   5   6
ENDBRANCH   2   5
TORSDOF 2
