REMARK  2 active torsions:
REMARK  status: ('A' for Active; 'I' for Inactive)
REMARK    1  A    between atoms: C2_2  and  C5_5 
REMARK    2  A    between atoms: C5_5  and  C6_6 
ROOT
HETATM    1  C1  UNL     1     -34.687   5.787   5.877  1.00 20.00     0.223 C 
HETATM    2  C2  UNL     1     -34.996   4.896   4.974  1.00 20.00    -0.030 C 
HETATM    3  C3  UNL     1     -34.956   3.422   5.265  1.00 20.00     0.048 C 
HETATM    4  O7  UNL     1     -34.409   6.590   6.690  1.00 20.00    -0.284 OA
ENDROOT
BRANCH   2   5
HETATM    5  C5  UNL     1     -35.409   5.288   3.574  1.00 20.00     0.037 C 
BRANCH   5   6
HETATM    6  C6  UNL     1     -34.217   5.346   2.616  1.00 20.00    -0.000 C 
HETATM    7  C4  UNL     1     -33.196   6.380   3.063  1.00 20.00     0.005 C 
ENDBRANCH   5   6
ENDBRANCH   2   5
TORSDOF 2
