REMARK  1 active torsions:
REMARK  status: ('A' for Active; 'I' for Inactive)
REMARK    1  A    between atoms: C3_3  and  C4_4 
ROOT
HETATM    1  C1  UNL     1     -33.781   5.521   2.587  1.00 20.00    -0.018 A 
HETATM    2  C2  UNL     1     -35.027   5.588   3.083  1.00 20.00    -0.024 A 
HETATM    3  C4  UNL     1     -32.799   5.987   3.634  1.00 20.00     0.082 A 
HETATM    4  C5  UNL     1     -35.098   6.108   4.459  1.00 20.00     0.022 A 
HETATM    5  C6  UNL     1     -33.646   6.372   4.837  1.00 20.00     0.017 A 
HETATM    6  C7  UNL     1     -34.483   5.393   5.644  1.00 20.00    -0.035 A 
HETATM    7  C9  UNL     1     -34.926   5.847   7.015  1.00 20.00     0.016 C 
HETATM    8  C10 UNL     1     -34.192   3.914   5.583  1.00 20.00     0.016 C 
ENDROOT
BRANCH   3   9
HETATM    9  C3  UNL     1     -32.067   7.152   3.051  1.00 20.00     0.131 C 
HETATM   10  C8  UNL     1     -31.028   7.804   3.923  1.00 20.00     0.091 C 
HETATM   11  O11 UNL     1     -32.300   7.556   1.913  1.00 20.00    -0.298 OA
ENDBRANCH   3   9
TORSDOF 1
