REMARK  2 active torsions:
REMARK  status: ('A' for Active; 'I' for Inactive)
REMARK    1  A    between atoms: C1_1  and  C8_8 
REMARK    2  A    between atoms: C9_9  and  N10_10 
ROOT
HETATM    1  C1  UNL     1     -32.698   7.325   2.286  1.00 20.00     0.092 C 
HETATM    2  N10 UNL     1     -32.890   8.547   2.646  1.00 20.00    -0.295 NA
ENDROOT
BRANCH   1   3
HETATM    3  C8  UNL     1     -32.921   6.151   3.230  1.00 20.00    -0.018 C 
HETATM    4  C2  UNL     1     -31.587   5.409   3.372  1.00 20.00     0.020 C 
HETATM    5  C3  UNL     1     -33.347   6.722   4.588  1.00 20.00     0.020 C 
HETATM    6  C4  UNL     1     -33.996   5.188   2.713  1.00 20.00     0.020 C 
ENDBRANCH   1   3
BRANCH   2   7
HETATM    7  C9  UNL     1     -32.613   9.506   1.580  1.00 20.00     0.042 C 
HETATM    8  C5  UNL     1     -33.540   9.201   0.404  1.00 20.00     0.039 C 
HETATM    9  C6  UNL     1     -32.882  10.907   2.128  1.00 20.00     0.039 C 
HETATM   10  C7  UNL     1     -31.148   9.361   1.170  1.00 20.00     0.039 C 
ENDBRANCH   2   7
TORSDOF 2
