REMARK  0 active torsions:
REMARK  status: ('A' for Active; 'I' for Inactive)
ROOT
HETATM    1  C1  UNL     1     -34.801   4.450   4.783  1.00 20.00     0.048 C 
HETATM    2  C2  UNL     1     -35.129   4.471   6.261  1.00 20.00     0.169 C 
HETATM    3  C3  UNL     1     -33.707   6.262   5.805  1.00 20.00     0.187 C 
HETATM    4  C4  UNL     1     -34.452   5.899   4.537  1.00 20.00     0.108 C 
HETATM    5  O5  UNL     1     -34.283   5.467   6.855  1.00 20.00    -0.390 OA
HETATM    6 CL6  UNL     1     -33.485   6.132   3.078  1.00 20.00    -0.123 Cl
ENDROOT
TORSDOF 0
