REMARK  1 active torsions:
REMARK  status: ('A' for Active; 'I' for Inactive)
REMARK    1  A    between atoms: C7_7  and  C10_10 
ROOT
HETATM    1  C1  UNL     1     -34.990   4.963   3.779  1.00 20.00    -0.004 C 
HETATM    2  C2  UNL     1     -34.541   5.491   5.056  1.00 20.00    -0.004 C 
HETATM    3  C3  UNL     1     -34.465   5.153   2.555  1.00 20.00    -0.017 C 
HETATM    4  C4  UNL     1     -33.494   6.295   5.315  1.00 20.00    -0.017 C 
HETATM    5  C5  UNL     1     -31.992   5.381   2.616  1.00 20.00    -0.021 C 
HETATM    6  C6  UNL     1     -31.578   5.870   3.793  1.00 20.00    -0.021 C 
HETATM    7  C8  UNL     1     -33.288   6.027   2.194  1.00 20.00     0.042 C 
HETATM    8  C9  UNL     1     -32.543   6.905   4.314  1.00 20.00     0.042 C 
HETATM    9  C10 UNL     1     -33.262   7.325   3.019  1.00 20.00     0.077 C 
ENDROOT
BRANCH   9  10
HETATM   10  C7  UNL     1     -32.512   8.410   2.291  1.00 20.00     0.129 C 
HETATM   11  C11 UNL     1     -32.360   9.725   3.007  1.00 20.00     0.091 C 
HETATM   12  O12 UNL     1     -32.045   8.229   1.168  1.00 20.00    -0.298 OA
ENDBRANCH   9  10
TORSDOF 1
