REMARK  1 active torsions:
REMARK  status: ('A' for Active; 'I' for Inactive)
REMARK    1  A    between atoms: C3_3  and  C8_8 
ROOT
HETATM    1  C1  UNL     1     -33.525   6.641   4.990  1.00 20.00     0.017 C 
HETATM    2  C2  UNL     1     -33.877   5.573   3.967  1.00 20.00     0.092 C 
HETATM    3  C3  UNL     1     -31.981   7.262   3.450  1.00 20.00     0.173 C 
HETATM    4  C4  UNL     1     -34.290   6.688   6.282  1.00 20.00     0.066 C 
HETATM    5  C5  UNL     1     -35.252   5.814   3.366  1.00 20.00     0.028 C 
HETATM    6  N9  UNL     1     -32.600   7.523   4.760  1.00 20.00    -0.282 NA
HETATM    7  S10 UNL     1     -32.598   5.734   2.703  1.00 20.00    -0.131 SA
ENDROOT
BRANCH   3   8
HETATM    8  C8  UNL     1     -32.262   8.447   2.535  1.00 20.00     0.012 C 
HETATM    9  C6  UNL     1     -31.606   8.244   1.170  1.00 20.00     0.012 C 
HETATM   10  C7  UNL     1     -33.767   8.663   2.377  1.00 20.00     0.012 C 
ENDBRANCH   3   8
TORSDOF 1
