REMARK  2 active torsions:
REMARK  status: ('A' for Active; 'I' for Inactive)
REMARK    1  A    between atoms: C3_3  and  C8_8 
REMARK    2  A    between atoms: C4_4  and  O9_9 
ROOT
HETATM    1  C1  UNL     1     -33.907   5.635   5.446  1.00 20.00     0.037 C 
HETATM    2  C2  UNL     1     -35.209   5.505   3.761  1.00 20.00     0.037 C 
HETATM    3  C3  UNL     1     -34.250   6.601   4.286  1.00 20.00    -0.002 C 
HETATM    4  C4  UNL     1     -35.276   4.958   5.206  1.00 20.00     0.118 C 
ENDROOT
BRANCH   3   5
HETATM    5  C8  UNL     1     -33.109   6.997   3.373  1.00 20.00    -0.048 C 
HETATM    6  C5  UNL     1     -32.134   7.905   4.137  1.00 20.00     0.015 C 
HETATM    7  C6  UNL     1     -33.665   7.752   2.157  1.00 20.00     0.015 C 
HETATM    8  C7  UNL     1     -32.371   5.737   2.900  1.00 20.00     0.015 C 
ENDBRANCH   3   5
BRANCH   4   9
HETATM    9  O9  UNL     1     -35.300   3.527   5.341  1.00 20.00    -0.396 OA
HETATM   10  H25 UNL     1     -36.212   3.260   5.163  1.00 20.00     0.210 HD
ENDBRANCH   4   9
TORSDOF 2
