REMARK  2 active torsions:
REMARK  status: ('A' for Active; 'I' for Inactive)
REMARK    1  A    between atoms: C2_2  and  C5_5 
REMARK    2  A    between atoms: C5_5  and  C6_6 
ROOT
HETATM    1  C1  UNL     1     -34.064   4.249   6.115  1.00 20.00     0.206 A 
HETATM    2  C2  UNL     1     -34.313   5.612   5.516  1.00 20.00     0.079 A 
HETATM    3  C3  UNL     1     -33.490   6.776   5.964  1.00 20.00     0.048 C 
HETATM    4  O7  UNL     1     -35.160   5.074   6.540  1.00 20.00    -0.375 OA
ENDROOT
BRANCH   2   5
HETATM    5  C5  UNL     1     -34.988   5.721   4.158  1.00 20.00     0.039 C 
BRANCH   5   6
HETATM    6  C6  UNL     1     -33.981   5.572   3.019  1.00 20.00    -0.002 C 
HETATM    7  C4  UNL     1     -32.924   6.663   3.063  1.00 20.00     0.005 C 
ENDBRANCH   5   6
ENDBRANCH   2   5
TORSDOF 2
