REMARK  2 active torsions:
REMARK  status: ('A' for Active; 'I' for Inactive)
REMARK    1  A    between atoms: C3_3  and  C10_10 
REMARK    2  A    between atoms: C7_7  and  C10_10 
ROOT
HETATM    1  C1  UNL     1     -33.558   7.604   1.940  1.00 20.00    -0.024 C 
HETATM    2  C2  UNL     1     -32.251   7.896   2.060  1.00 20.00    -0.087 C 
HETATM    3  C4  UNL     1     -34.392   7.046   3.056  1.00 20.00     0.032 C 
HETATM    4  C5  UNL     1     -31.509   7.713   3.360  1.00 20.00     0.034 C 
HETATM    5  C6  UNL     1     -32.426   7.483   4.566  1.00 20.00     0.010 C 
HETATM    6  C7  UNL     1     -33.555   6.504   4.226  1.00 20.00    -0.001 C 
HETATM    7  C8  UNL     1     -31.446   8.419   0.908  1.00 20.00     0.043 C 
ENDROOT
BRANCH   6   8
HETATM    8  C10 UNL     1     -34.436   6.233   5.443  1.00 20.00     0.047 C 
HETATM    9  C9  UNL     1     -33.609   6.231   6.722  1.00 20.00     0.017 C 
BRANCH   8  10
HETATM   10  C3  UNL     1     -35.167   4.921   5.240  1.00 20.00     0.235 C 
HETATM   11  O11 UNL     1     -35.100   3.962   6.001  1.00 20.00    -0.306 OA
ENDBRANCH   8  10
ENDBRANCH   6   8
TORSDOF 2
