REMARK  0 active torsions:
REMARK  status: ('A' for Active; 'I' for Inactive)
ROOT
HETATM    1  C1  UNL     1     -32.478   6.647   2.961  1.00 20.00     0.094 C 
HETATM    2  C2  UNL     1     -34.966   5.489   6.590  1.00 20.00     0.003 C 
HETATM    3  C3  UNL     1     -34.780   4.013   6.248  1.00 20.00     0.003 C 
HETATM    4  C4  UNL     1     -34.083   6.209   5.569  1.00 20.00     0.042 C 
HETATM    5  C5  UNL     1     -34.759   3.993   4.718  1.00 20.00     0.042 C 
HETATM    6  C6  UNL     1     -33.372   5.540   3.086  1.00 20.00     0.263 A 
HETATM    7  C7  UNL     1     -34.159   5.322   4.360  1.00 20.00     0.101 A 
HETATM    8  N8  UNL     1     -31.751   7.546   2.859  1.00 20.00    -0.194 NA
HETATM    9  O9  UNL     1     -34.744   5.939   3.205  1.00 20.00    -0.354 OA
ENDROOT
TORSDOF 0
