REMARK  0 active torsions:
REMARK  status: ('A' for Active; 'I' for Inactive)
ROOT
HETATM    1  C1  UNL     1     -33.625   6.267   2.997  1.00 20.00     0.003 C 
HETATM    2  C2  UNL     1     -34.303   4.958   2.597  1.00 20.00     0.003 C 
HETATM    3  C3  UNL     1     -33.167   6.013   4.435  1.00 20.00     0.040 C 
HETATM    4  C4  UNL     1     -35.062   4.540   3.859  1.00 20.00     0.040 C 
HETATM    5  C5  UNL     1     -34.114   4.431   6.323  1.00 20.00     0.207 A 
HETATM    6  C6  UNL     1     -34.211   5.081   4.967  1.00 20.00     0.082 A 
HETATM    7  O7  UNL     1     -34.945   5.577   6.095  1.00 20.00    -0.375 OA
ENDROOT
TORSDOF 0
