REMARK  0 active torsions:
REMARK  status: ('A' for Active; 'I' for Inactive)
ROOT
HETATM    1  C1  UNL     1     -34.385   4.768   3.621  1.00 20.00     0.033 A 
HETATM    2  C2  UNL     1     -35.110   3.827   4.333  1.00 20.00     0.117 A 
HETATM    3  C3  UNL     1     -34.544   4.719   6.400  1.00 20.00     0.136 A 
HETATM    4  C4  UNL     1     -32.374   7.578   4.981  1.00 20.00     0.070 A 
HETATM    5  C5  UNL     1     -33.696   5.747   4.363  1.00 20.00     0.002 A 
HETATM    6  C6  UNL     1     -33.791   5.703   5.758  1.00 20.00     0.034 A 
HETATM    7  C7  UNL     1     -32.872   6.840   3.934  1.00 20.00     0.029 A 
HETATM    8  N8  UNL     1     -35.200   3.785   5.676  1.00 20.00    -0.272 NA
HETATM    9  S9  UNL     1     -32.887   6.973   6.490  1.00 20.00    -0.098 SA
HETATM   10 BR10 UNL     1     -32.510   7.224   2.119  1.00 20.00    -0.050 Br
ENDROOT
TORSDOF 0
