REMARK  1 active torsions:
REMARK  status: ('A' for Active; 'I' for Inactive)
REMARK    1  A    between atoms: C3_3  and  C6_6 
ROOT
HETATM    1  C1  UNL     1     -34.101   6.768   6.186  1.00 20.00     0.282 C 
HETATM    2  C2  UNL     1     -34.570   5.419   6.706  1.00 20.00     0.106 C 
HETATM    3  C3  UNL     1     -34.221   5.640   4.095  1.00 20.00     0.201 C 
HETATM    4  C4  UNL     1     -35.290   5.378   3.033  1.00 20.00     0.061 C 
HETATM    5  N7  UNL     1     -34.551   6.888   4.798  1.00 20.00     0.103 N 
HETATM    6  S8  UNL     1     -34.249   4.291   5.332  1.00 20.00    -0.127 SA
HETATM    7  H21 UNL     1     -35.565   7.004   4.808  1.00 20.00     0.318 HD
ENDROOT
BRANCH   3   8
HETATM    8  C6  UNL     1     -32.831   5.711   3.454  1.00 20.00     0.048 C 
HETATM    9  C5  UNL     1     -32.750   6.805   2.443  1.00 20.00     0.009 C 
ENDBRANCH   3   8
TORSDOF 1
