REMARK  0 active torsions:
REMARK  status: ('A' for Active; 'I' for Inactive)
ROOT
HETATM    1  C1  UNL     1     -32.645   7.907   5.225  1.00 20.00     0.014 A 
HETATM    2  C2  UNL     1     -32.244   8.365   3.969  1.00 20.00     0.024 A 
HETATM    3  C3  UNL     1     -33.896   6.298   6.587  1.00 20.00     0.031 A 
HETATM    4  C4  UNL     1     -33.494   6.589   2.915  1.00 20.00     0.039 A 
HETATM    5  C5  UNL     1     -34.718   5.181   6.620  1.00 20.00     0.119 A 
HETATM    6  C6  UNL     1     -33.477   6.782   5.343  1.00 20.00    -0.021 A 
HETATM    7  C7  UNL     1     -33.904   6.119   4.173  1.00 20.00     0.016 A 
HETATM    8  C8  UNL     1     -32.667   7.708   2.816  1.00 20.00     0.035 A 
HETATM    9  C9  UNL     1     -34.730   5.004   4.330  1.00 20.00     0.136 A 
HETATM   10  N10 UNL     1     -35.146   4.521   5.522  1.00 20.00    -0.248 NA
HETATM   11 CL11 UNL     1     -32.169   8.278   1.270  1.00 20.00    -0.084 Cl
HETATM   12 CL12 UNL     1     -35.347   4.072   3.013  1.00 20.00    -0.061 Cl
ENDROOT
TORSDOF 0
