REMARK  1 active torsions:
REMARK  status: ('A' for Active; 'I' for Inactive)
REMARK    1  A    between atoms: C2_2  and  C4_4 
ROOT
HETATM    1  C1  UNL     1     -32.389   6.395   2.735  1.00 20.00     0.236 A 
HETATM    2  C2  UNL     1     -33.896   5.659   4.099  1.00 20.00     0.199 A 
HETATM    3  C3  UNL     1     -33.097   6.560   4.772  1.00 20.00     0.245 A 
HETATM    4  N5  UNL     1     -33.447   5.562   2.829  1.00 20.00    -0.233 NA
HETATM    5  N6  UNL     1     -32.159   7.014   3.913  1.00 20.00    -0.212 NA
HETATM    6  F7  UNL     1     -33.221   6.924   6.047  1.00 20.00    -0.182 F 
ENDROOT
BRANCH   2   7
HETATM    7  C4  UNL     1     -35.053   4.881   4.561  1.00 20.00     0.439 C 
HETATM    8  F8  UNL     1     -35.390   5.086   5.878  1.00 20.00    -0.164 F 
HETATM    9  F9  UNL     1     -36.218   5.130   3.874  1.00 20.00    -0.164 F 
HETATM   10  F10 UNL     1     -34.876   3.522   4.458  1.00 20.00    -0.164 F 
ENDBRANCH   2   7
TORSDOF 1
