REMARK  0 active torsions:
REMARK  status: ('A' for Active; 'I' for Inactive)
ROOT
HETATM    1  C1  UNL     1     -33.450   6.626   5.681  1.00 20.00     0.139 C 
HETATM    2  C2  UNL     1     -34.183   5.380   5.139  1.00 20.00     0.057 C 
HETATM    3  C3  UNL     1     -33.465   5.642   3.776  1.00 20.00     0.007 C 
HETATM    4  C4  UNL     1     -33.047   7.090   4.247  1.00 20.00     0.018 C 
HETATM    5  C5  UNL     1     -33.851   4.070   5.826  1.00 20.00     0.018 C 
HETATM    6  C6  UNL     1     -34.333   5.486   2.538  1.00 20.00     0.012 C 
HETATM    7  C7  UNL     1     -33.886   8.266   3.752  1.00 20.00     0.023 C 
HETATM    8  C8  UNL     1     -31.553   7.365   4.089  1.00 20.00     0.023 C 
HETATM    9  O9  UNL     1     -33.270   7.074   6.794  1.00 20.00    -0.297 OA
ENDROOT
TORSDOF 0
