REMARK  0 active torsions:
REMARK  status: ('A' for Active; 'I' for Inactive)
ROOT
HETATM    1  C1  UNL     1     -33.221   5.943   4.629  1.00 20.00     0.116 C 
HETATM    2  C2  UNL     1     -35.252   5.257   3.108  1.00 20.00     0.344 C 
HETATM    3  C3  UNL     1     -34.452   5.374   5.354  1.00 20.00     0.159 C 
HETATM    4  C4  UNL     1     -34.293   3.876   5.674  1.00 20.00     0.049 C 
HETATM    5  C5  UNL     1     -34.684   6.134   6.668  1.00 20.00     0.049 C 
HETATM    6  N6  UNL     1     -35.609   5.618   4.475  1.00 20.00     0.102 N 
HETATM    7  S7  UNL     1     -33.493   5.601   2.871  1.00 20.00    -0.137 SA
HETATM    8  H18 UNL     1     -35.822   6.616   4.491  1.00 20.00     0.317 HD
ENDROOT
TORSDOF 0
