REMARK  2 active torsions:
REMARK  status: ('A' for Active; 'I' for Inactive)
REMARK    1  A    between atoms: C1_1  and  C3_3 
REMARK    2  A    between atoms: C2_2  and  C9_9 
ROOT
HETATM    1  C1  UNL     1     -32.723   7.092   2.626  1.00 20.00    -0.071 C 
HETATM    2  C2  UNL     1     -33.589   6.595   3.295  1.00 20.00    -0.095 C 
ENDROOT
BRANCH   1   3
HETATM    3  C3  UNL     1     -31.671   7.697   1.812  1.00 20.00     0.229 A 
HETATM    4  C4  UNL     1     -31.908   8.992   1.112  1.00 20.00     0.160 A 
HETATM    5  C5  UNL     1     -33.172   9.773   1.189  1.00 20.00     0.043 C 
HETATM    6  O10 UNL     1     -32.024   7.739   0.432  1.00 20.00    -0.363 OA
ENDBRANCH   1   3
BRANCH   2   7
HETATM    7  C9  UNL     1     -34.655   5.982   4.119  1.00 20.00     0.013 C 
HETATM    8  C6  UNL     1     -35.103   4.663   3.473  1.00 20.00     0.028 C 
HETATM    9  C7  UNL     1     -35.848   6.944   4.205  1.00 20.00     0.028 C 
HETATM   10  C8  UNL     1     -34.115   5.706   5.529  1.00 20.00     0.028 C 
ENDBRANCH   2   7
TORSDOF 2
