REMARK  1 active torsions:
REMARK  status: ('A' for Active; 'I' for Inactive)
REMARK    1  A    between atoms: C5_5  and  O12_12 
ROOT
HETATM    1  C1  UNL     1     -34.233   5.394   2.300  1.00 20.00     0.006 C 
HETATM    2  C2  UNL     1     -34.007   6.905   2.169  1.00 20.00     0.012 C 
HETATM    3  C3  UNL     1     -32.118   5.891   3.215  1.00 20.00     0.017 C 
HETATM    4  C4  UNL     1     -33.345   5.013   3.498  1.00 20.00    -0.003 C 
HETATM    5  C5  UNL     1     -33.596   7.134   4.643  1.00 20.00     0.137 C 
HETATM    6  C6  UNL     1     -32.927   7.194   3.239  1.00 20.00    -0.017 C 
HETATM    7  C7  UNL     1     -33.883   5.610   4.839  1.00 20.00    -0.017 C 
HETATM    8  C8  UNL     1     -32.121   8.447   2.958  1.00 20.00     0.018 C 
HETATM    9  C9  UNL     1     -35.382   5.359   5.063  1.00 20.00     0.018 C 
HETATM   10  C10 UNL     1     -33.129   4.981   6.029  1.00 20.00     0.018 C 
ENDROOT
BRANCH   5  11
HETATM   11  O12 UNL     1     -32.720   7.652   5.635  1.00 20.00    -0.389 OA
HETATM   12  C11 UNL     1     -33.426   8.036   6.807  1.00 20.00     0.202 C 
ENDBRANCH   5  11
TORSDOF 1
