REMARK  1 active torsions:
REMARK  status: ('A' for Active; 'I' for Inactive)
REMARK    1  A    between atoms: C6_6  and  N7_7 
ROOT
HETATM    1  C1  UNL     1     -34.475   4.398   6.655  1.00 20.00     0.000 C 
HETATM    2  C2  UNL     1     -34.611   3.492   5.436  1.00 20.00     0.003 C 
HETATM    3  C3  UNL     1     -34.757   5.859   6.314  1.00 20.00     0.003 C 
HETATM    4  C4  UNL     1     -33.738   3.973   4.275  1.00 20.00     0.046 C 
HETATM    5  C5  UNL     1     -33.884   6.346   5.155  1.00 20.00     0.046 C 
HETATM    6  C6  UNL     1     -33.984   5.445   3.915  1.00 20.00     0.136 C 
HETATM    7 CL9  UNL     1     -35.591   5.634   3.140  1.00 20.00    -0.098 Cl
ENDROOT
BRANCH   6   8
HETATM    8  N7  UNL     1     -32.959   5.880   2.913  1.00 20.00    -0.037 NA
HETATM    9  O8  UNL     1     -31.818   5.768   3.359  1.00 20.00    -0.099 OA
ENDBRANCH   6   8
TORSDOF 1
