REMARK  3 active torsions:
REMARK  status: ('A' for Active; 'I' for Inactive)
REMARK    1  A    between atoms: C2_2  and  C6_6 
REMARK    2  A    between atoms: C2_2  and  O9_9 
REMARK    3  A    between atoms: C5_5  and  C6_6 
ROOT
HETATM    1  C1  UNL     1     -32.593   7.346   3.148  1.00 20.00     0.074 C 
HETATM    2  C6  UNL     1     -32.852   6.734   4.464  1.00 20.00     0.192 C 
HETATM    3  N7  UNL     1     -32.386   7.826   2.112  1.00 20.00    -0.196 NA
ENDROOT
BRANCH   2   4
HETATM    4  C2  UNL     1     -33.852   5.594   4.358  1.00 20.00     0.276 C 
HETATM    5  O8  UNL     1     -34.431   5.262   3.332  1.00 20.00    -0.264 OA
BRANCH   4   6
HETATM    6  O9  UNL     1     -34.012   5.011   5.584  1.00 20.00    -0.325 OA
HETATM    7  C4  UNL     1     -34.942   3.925   5.635  1.00 20.00     0.213 C 
ENDBRANCH   4   6
ENDBRANCH   2   4
BRANCH   2   8
HETATM    8  C5  UNL     1     -33.297   7.783   5.494  1.00 20.00     0.025 C 
HETATM    9  C3  UNL     1     -33.528   7.233   6.899  1.00 20.00     0.007 C 
ENDBRANCH   2   8
TORSDOF 3
