REMARK  2 active torsions:
REMARK  status: ('A' for Active; 'I' for Inactive)
REMARK    1  A    between atoms: C1_1  and  C6_6 
REMARK    2  A    between atoms: C1_1  and  O9_9 
ROOT
HETATM    1  C2  UNL     1     -35.905   5.117   4.939  1.00 20.00     0.024 C 
HETATM    2  C3  UNL     1     -34.205   4.061   5.641  1.00 20.00     0.024 C 
HETATM    3  C4  UNL     1     -34.493   6.089   6.187  1.00 20.00     0.024 C 
HETATM    4  C5  UNL     1     -35.371   4.805   6.380  1.00 20.00    -0.011 C 
HETATM    5  C6  UNL     1     -34.371   5.370   4.809  1.00 20.00     0.049 C 
ENDROOT
BRANCH   5   6
HETATM    6  C1  UNL     1     -33.610   5.799   3.609  1.00 20.00     0.267 C 
HETATM    7  O8  UNL     1     -33.569   5.168   2.561  1.00 20.00    -0.264 OA
BRANCH   6   8
HETATM    8  O9  UNL     1     -32.983   6.982   3.866  1.00 20.00    -0.326 OA
HETATM    9  C7  UNL     1     -32.207   7.514   2.787  1.00 20.00     0.213 C 
ENDBRANCH   6   8
ENDBRANCH   5   6
TORSDOF 2
