REMARK  0 active torsions:
REMARK  status: ('A' for Active; 'I' for Inactive)
ROOT
HETATM    1  C1  UNL     1     -35.488   5.346   4.851  1.00 20.00     0.045 C 
HETATM    2  C2  UNL     1     -35.821   5.583   3.567  1.00 20.00     0.011 C 
HETATM    3  C3  UNL     1     -34.268   5.929   5.464  1.00 20.00     0.028 C 
HETATM    4  C4  UNL     1     -34.924   6.444   2.683  1.00 20.00     0.059 C 
HETATM    5  C5  UNL     1     -33.415   6.875   4.649  1.00 20.00     0.067 C 
HETATM    6  C6  UNL     1     -33.452   6.536   3.152  1.00 20.00    -0.038 C 
HETATM    7  C7  UNL     1     -32.707   5.213   2.878  1.00 20.00     0.015 C 
HETATM    8  C8  UNL     1     -32.741   7.654   2.366  1.00 20.00     0.015 C 
HETATM    9  N9  UNL     1     -33.923   5.686   6.688  1.00 20.00    -0.305 NA
HETATM   10  S10 UNL     1     -37.255   4.977   2.760  1.00 20.00    -0.085 SA
HETATM   11  H22 UNL     1     -33.055   6.188   6.894  1.00 20.00     0.186 HD
ENDROOT
TORSDOF 0
