REMARK  2 active torsions:
REMARK  status: ('A' for Active; 'I' for Inactive)
REMARK    1  A    between atoms: C1_1  and  C7_7 
REMARK    2  A    between atoms: C6_6  and  N8_8 
ROOT
HETATM    1  C1  UNL     1     -32.882   7.437   1.950  1.00 20.00     0.108 C 
HETATM    2  N8  UNL     1     -31.713   7.951   1.768  1.00 20.00    -0.299 NA
ENDROOT
BRANCH   1   3
HETATM    3  C7  UNL     1     -33.130   6.327   2.954  1.00 20.00     0.063 C 
HETATM    4  C4  UNL     1     -31.813   5.979   3.644  1.00 20.00     0.038 C 
HETATM    5  C5  UNL     1     -33.766   5.084   2.337  1.00 20.00     0.038 C 
HETATM    6 CL9  UNL     1     -34.259   7.022   4.160  1.00 20.00    -0.114 Cl
ENDBRANCH   1   3
BRANCH   2   7
HETATM    7  C6  UNL     1     -31.703   8.999   0.753  1.00 20.00     0.099 C 
HETATM    8  C2  UNL     1     -32.142   8.404  -0.576  1.00 20.00     0.034 C 
HETATM    9  C3  UNL     1     -32.624  10.126   1.198  1.00 20.00     0.034 C 
ENDBRANCH   2   7
TORSDOF 2
