REMARK  4 active torsions:
REMARK  status: ('A' for Active; 'I' for Inactive)
REMARK    1  A    between atoms: C1_1  and  C6_6 
REMARK    2  A    between atoms: C1_1  and  C9_9 
REMARK    3  A    between atoms: C7_7  and  C8_8 
REMARK    4  A    between atoms: C8_8  and  N10_10 
ROOT
HETATM    1  C1  UNL     1     -33.558   5.729   4.498  1.00 20.00     0.009 C 
HETATM    2  N10 UNL     1     -32.650   6.570   4.135  1.00 20.00    -0.298 NA
ENDROOT
BRANCH   1   3
HETATM    3  C6  UNL     1     -34.411   4.900   3.551  1.00 20.00     0.050 C 
HETATM    4  C2  UNL     1     -35.695   5.635   3.211  1.00 20.00     0.011 C 
ENDBRANCH   1   3
BRANCH   1   5
HETATM    5  C9  UNL     1     -33.797   5.528   5.997  1.00 20.00     0.025 C 
HETATM    6  C4  UNL     1     -34.215   4.086   6.268  1.00 20.00     0.016 C 
HETATM    7  C5  UNL     1     -34.833   6.518   6.519  1.00 20.00     0.016 C 
ENDBRANCH   1   5
BRANCH   2   8
HETATM    8  C8  UNL     1     -32.383   6.778   2.722  1.00 20.00     0.148 C 
BRANCH   8   9
HETATM    9  C7  UNL     1     -31.900   8.204   2.491  1.00 20.00     0.017 C 
HETATM   10  C3  UNL     1     -31.612   8.494   1.025  1.00 20.00     0.007 C 
ENDBRANCH   8   9
ENDBRANCH   2   8
TORSDOF 4
