REMARK  2 active torsions:
REMARK  status: ('A' for Active; 'I' for Inactive)
REMARK    1  A    between atoms: C2_2  and  C4_4 
REMARK    2  A    between atoms: C4_4  and  S5_5 
ROOT
HETATM    1  C1  UNL     1     -34.785   4.706   3.241  1.00 20.00     0.051 A 
HETATM    2  C2  UNL     1     -34.693   6.001   4.001  1.00 20.00     0.036 A 
HETATM    3  C3  UNL     1     -35.484   4.845   4.570  1.00 20.00     0.118 A 
HETATM    4 CL6  UNL     1     -37.243   4.975   4.563  1.00 20.00    -0.101 Cl
HETATM    5 CL7  UNL     1     -34.863   3.921   5.931  1.00 20.00    -0.101 Cl
ENDROOT
BRANCH   2   6
HETATM    6  C4  UNL     1     -33.386   6.441   4.566  1.00 20.00     0.078 C 
BRANCH   6   7
HETATM    7  S5  UNL     1     -32.339   7.214   3.291  1.00 20.00    -0.182 SA
HETATM    8  H13 UNL     1     -31.306   7.473   4.103  1.00 20.00     0.101 HD
ENDBRANCH   6   7
ENDBRANCH   2   6
TORSDOF 2
