REMARK  1 active torsions:
REMARK  status: ('A' for Active; 'I' for Inactive)
REMARK    1  A    between atoms: C2_2  and  C5_5 
ROOT
HETATM    1  C1  UNL     1     -33.377   6.009   1.936  1.00 20.00     0.065 A 
HETATM    2  C2  UNL     1     -32.901   6.779   2.975  1.00 20.00     0.015 A 
HETATM    3  C3  UNL     1     -33.434   6.372   4.235  1.00 20.00    -0.031 A 
HETATM    4  C4  UNL     1     -34.302   5.306   4.093  1.00 20.00    -0.010 A 
HETATM    5  C6  UNL     1     -33.150   6.997   5.566  1.00 20.00     0.040 C 
HETATM    6  C7  UNL     1     -35.013   4.621   5.218  1.00 20.00     0.046 C 
HETATM    7  C8  UNL     1     -33.579   6.085   6.726  1.00 20.00     0.005 C 
HETATM    8  C9  UNL     1     -34.972   5.485   6.489  1.00 20.00     0.005 C 
HETATM    9  S11 UNL     1     -34.463   4.800   2.476  1.00 20.00    -0.105 SA
ENDROOT
BRANCH   2  10
HETATM   10  C5  UNL     1     -31.975   7.861   2.758  1.00 20.00     0.271 C 
HETATM   11  O10 UNL     1     -31.540   8.180   1.640  1.00 20.00    -0.301 OA
ENDBRANCH   2  10
TORSDOF 1
