REMARK  3 active torsions:
REMARK  status: ('A' for Active; 'I' for Inactive)
REMARK    1  A    between atoms: C1_1  and  C3_3 
REMARK       I    between atoms: C1_1  and  N10_10 
REMARK    2  A    between atoms: C8_8  and  C9_9 
REMARK    3  A    between atoms: C8_8  and  N10_10 
ROOT
HETATM    1  C1  UNL     1     -33.901   5.869   2.900  1.00 20.00     0.222 C 
HETATM    2  N10 UNL     1     -32.963   6.816   3.185  1.00 20.00    -0.360 N 
HETATM    3  O11 UNL     1     -33.998   5.194   1.882  1.00 20.00    -0.273 OA
HETATM    4  H28 UNL     1     -33.006   7.292   4.064  1.00 20.00     0.162 HD
ENDROOT
BRANCH   1   5
HETATM    5  C3  UNL     1     -34.890   5.684   4.003  1.00 20.00     0.082 A 
HETATM    6  C2  UNL     1     -35.095   4.309   4.553  1.00 20.00     0.019 A 
HETATM    7  C4  UNL     1     -34.378   5.348   5.367  1.00 20.00    -0.005 A 
HETATM    8  C5  UNL     1     -35.034   5.944   6.565  1.00 20.00     0.011 C 
ENDBRANCH   1   5
BRANCH   2   9
HETATM    9  C8  UNL     1     -31.883   7.160   2.233  1.00 20.00     0.126 C 
BRANCH   9  10
HETATM   10  C9  UNL     1     -32.300   8.291   1.285  1.00 20.00    -0.005 C 
HETATM   11  C6  UNL     1     -32.653   9.576   2.034  1.00 20.00     0.011 C 
HETATM   12  C7  UNL     1     -31.240   8.564   0.217  1.00 20.00     0.011 C 
ENDBRANCH   9  10
ENDBRANCH   2   9
TORSDOF 3
