REMARK  3 active torsions:
REMARK  status: ('A' for Active; 'I' for Inactive)
REMARK    1  A    between atoms: C1_1  and  C3_3 
REMARK       I    between atoms: C1_1  and  N10_10 
REMARK    2  A    between atoms: C8_8  and  C9_9 
REMARK    3  A    between atoms: C8_8  and  N10_10 
ROOT
HETATM    1  C1  UNL     1     -33.276   6.473   3.654  1.00 20.00     0.222 C 
HETATM    2  N10 UNL     1     -32.770   6.827   2.438  1.00 20.00    -0.360 N 
HETATM    3  O11 UNL     1     -32.912   6.860   4.758  1.00 20.00    -0.273 OA
HETATM    4  H28 UNL     1     -33.168   6.429   1.612  1.00 20.00     0.162 HD
ENDROOT
BRANCH   1   5
HETATM    5  C3  UNL     1     -34.403   5.501   3.549  1.00 20.00     0.082 A 
HETATM    6  C2  UNL     1     -35.770   5.944   3.963  1.00 20.00     0.019 A 
HETATM    7  C4  UNL     1     -35.025   4.934   4.788  1.00 20.00    -0.005 A 
HETATM    8  C5  UNL     1     -34.564   5.287   6.161  1.00 20.00     0.011 C 
ENDBRANCH   1   5
BRANCH   2   9
HETATM    9  C8  UNL     1     -31.647   7.783   2.307  1.00 20.00     0.126 C 
BRANCH   9  10
HETATM   10  C9  UNL     1     -32.042   9.016   1.485  1.00 20.00    -0.005 C 
HETATM   11  C6  UNL     1     -32.481   8.652   0.066  1.00 20.00     0.011 C 
HETATM   12  C7  UNL     1     -33.117   9.850   2.184  1.00 20.00     0.011 C 
ENDBRANCH   9  10
ENDBRANCH   2   9
TORSDOF 3
