REMARK  1 active torsions:
REMARK  status: ('A' for Active; 'I' for Inactive)
REMARK    1  A    between atoms: C1_1  and  C4_4 
ROOT
HETATM    1  C2  UNL     1     -34.164   6.130   5.976  1.00 20.00     0.023 C 
HETATM    2  C3  UNL     1     -34.410   4.726   6.496  1.00 20.00     0.075 C 
HETATM    3  C4  UNL     1     -33.535   5.974   4.595  1.00 20.00     0.066 C 
HETATM    4  C5  UNL     1     -34.423   5.003   3.793  1.00 20.00     0.010 C 
HETATM    5  C6  UNL     1     -35.702   5.632   3.224  1.00 20.00     0.027 C 
HETATM    6  C7  UNL     1     -33.637   4.311   2.677  1.00 20.00     0.027 C 
HETATM    7  S9  UNL     1     -34.923   3.757   5.050  1.00 20.00    -0.159 SA
ENDROOT
BRANCH   3   8
HETATM    8  C1  UNL     1     -33.371   7.307   3.929  1.00 20.00     0.237 C 
HETATM    9  O8  UNL     1     -32.459   7.567   3.151  1.00 20.00    -0.306 OA
ENDBRANCH   3   8
TORSDOF 1
