REMARK  0 active torsions:
REMARK  status: ('A' for Active; 'I' for Inactive)
ROOT
HETATM    1  C1  UNL     1     -35.062   4.189   5.823  1.00 20.00     0.137 A 
HETATM    2  C2  UNL     1     -35.228   4.234   4.449  1.00 20.00     0.118 A 
HETATM    3  C3  UNL     1     -33.693   5.633   5.148  1.00 20.00     0.177 A 
HETATM    4  C4  UNL     1     -33.941   5.737   2.847  1.00 20.00     0.112 A 
HETATM    5  C5  UNL     1     -32.975   6.658   3.026  1.00 20.00    -0.002 A 
HETATM    6  C6  UNL     1     -32.319   7.462   1.960  1.00 20.00     0.058 C 
HETATM    7  N7  UNL     1     -34.092   5.075   6.257  1.00 20.00    -0.235 NA
HETATM    8  N8  UNL     1     -34.332   5.174   4.038  1.00 20.00    -0.309 N 
HETATM    9  S9  UNL     1     -32.520   6.846   4.740  1.00 20.00    -0.055 SA
ENDROOT
TORSDOF 0
