REMARK  2 active torsions:
REMARK  status: ('A' for Active; 'I' for Inactive)
REMARK    1  A    between atoms: C5_5  and  C6_6 
REMARK    2  A    between atoms: C7_7  and  N9_9 
ROOT
HETATM    1  C1  UNL     1     -32.419   7.465   2.114  1.00 20.00     0.079 C 
HETATM    2  C7  UNL     1     -32.284   6.283   2.970  1.00 20.00     0.252 C 
HETATM    3  N8  UNL     1     -32.525   8.401   1.436  1.00 20.00    -0.196 NA
ENDROOT
BRANCH   2   4
HETATM    4  N9  UNL     1     -33.558   5.849   3.498  1.00 20.00    -0.341 N 
HETATM    5  C4  UNL     1     -34.497   5.149   2.786  1.00 20.00     0.092 A 
HETATM    6  C2  UNL     1     -35.571   4.917   3.618  1.00 20.00     0.020 A 
HETATM    7  C3  UNL     1     -35.266   5.498   4.874  1.00 20.00     0.034 A 
HETATM    8  C5  UNL     1     -34.016   6.067   4.771  1.00 20.00     0.073 A 
BRANCH   8   9
HETATM    9  C6  UNL     1     -33.291   6.769   5.786  1.00 20.00     0.288 C 
HETATM   10  O10 UNL     1     -33.719   6.963   6.941  1.00 20.00    -0.300 OA
ENDBRANCH   8   9
ENDBRANCH   2   4
TORSDOF 2
