REMARK  1 active torsions:
REMARK  status: ('A' for Active; 'I' for Inactive)
REMARK    1  A    between atoms: C3_3  and  C7_7 
ROOT
HETATM    1  C1  UNL     1     -35.199   4.110   5.955  1.00 20.00    -0.030 C 
HETATM    2  C2  UNL     1     -34.736   5.232   6.523  1.00 20.00    -0.025 C 
HETATM    3  C4  UNL     1     -35.120   3.840   4.486  1.00 20.00     0.028 C 
HETATM    4  C5  UNL     1     -34.766   5.086   3.672  1.00 20.00     0.021 C 
HETATM    5  C6  UNL     1     -34.049   6.341   5.758  1.00 20.00     0.018 C 
HETATM    6  C7  UNL     1     -33.632   5.918   4.313  1.00 20.00     0.016 C 
HETATM    7  C8  UNL     1     -32.881   6.882   6.595  1.00 20.00     0.015 C 
HETATM    8  C9  UNL     1     -32.305   5.142   4.256  1.00 20.00     0.023 C 
ENDROOT
BRANCH   6   9
HETATM    9  C3  UNL     1     -33.456   7.150   3.457  1.00 20.00     0.241 C 
HETATM   10  O10 UNL     1     -32.408   7.433   2.887  1.00 20.00    -0.306 OA
ENDBRANCH   6   9
TORSDOF 1
