REMARK  3 active torsions:
REMARK  status: ('A' for Active; 'I' for Inactive)
REMARK    1  A    between atoms: C1_1  and  N8_8 
REMARK    2  A    between atoms: C6_6  and  C7_7 
REMARK    3  A    between atoms: C6_6  and  N8_8 
ROOT
HETATM    1  C2  UNL     1     -35.329   5.679   3.464  1.00 20.00     0.033 C 
HETATM    2  C6  UNL     1     -33.975   5.511   4.155  1.00 20.00     0.087 C 
ENDROOT
BRANCH   2   3
HETATM    3  C7  UNL     1     -34.050   5.064   5.652  1.00 20.00    -0.031 C 
HETATM    4  C3  UNL     1     -32.653   4.910   6.283  1.00 20.00     0.016 C 
HETATM    5  C4  UNL     1     -34.849   6.090   6.481  1.00 20.00     0.016 C 
HETATM    6  C5  UNL     1     -34.784   3.708   5.756  1.00 20.00     0.016 C 
ENDBRANCH   2   3
BRANCH   2   7
HETATM    7  N8  UNL     1     -33.213   6.732   3.993  1.00 20.00    -0.363 N 
HETATM    8  H24 UNL     1     -33.241   7.420   4.737  1.00 20.00     0.162 HD
BRANCH   7   9
HETATM    9  C1  UNL     1     -32.453   7.003   2.880  1.00 20.00     0.348 C 
HETATM   10  O9  UNL     1     -31.779   7.999   2.651  1.00 20.00    -0.284 OA
ENDBRANCH   7   9
ENDBRANCH   2   7
TORSDOF 3
