REMARK  1 active torsions:
REMARK  status: ('A' for Active; 'I' for Inactive)
REMARK    1  A    between atoms: C3_3  and  C7_7 
ROOT
HETATM    1  C1  UNL     1     -34.903   4.669   5.663  1.00 20.00    -0.030 C 
HETATM    2  C2  UNL     1     -35.208   4.602   4.359  1.00 20.00    -0.025 C 
HETATM    3  C4  UNL     1     -33.901   5.628   6.226  1.00 20.00     0.028 C 
HETATM    4  C5  UNL     1     -33.488   6.714   5.229  1.00 20.00     0.021 C 
HETATM    5  C6  UNL     1     -34.557   5.465   3.302  1.00 20.00     0.018 C 
HETATM    6  C7  UNL     1     -33.252   6.159   3.807  1.00 20.00     0.016 C 
HETATM    7  C8  UNL     1     -34.346   4.645   2.022  1.00 20.00     0.015 C 
HETATM    8  C9  UNL     1     -32.021   5.236   3.791  1.00 20.00     0.023 C 
ENDROOT
BRANCH   6   9
HETATM    9  C3  UNL     1     -32.946   7.345   2.925  1.00 20.00     0.241 C 
HETATM   10  O10 UNL     1     -31.895   7.475   2.306  1.00 20.00    -0.306 OA
ENDBRANCH   6   9
TORSDOF 1
