REMARK  1 active torsions:
REMARK  status: ('A' for Active; 'I' for Inactive)
REMARK    1  A    between atoms: C1_1  and  C2_2 
ROOT
HETATM    1  C2  UNL     1     -33.303   6.163   3.602  1.00 20.00     0.462 C 
HETATM    2  F4  UNL     1     -33.913   5.467   2.610  1.00 20.00    -0.163 F 
HETATM    3  F5  UNL     1     -33.423   7.478   3.290  1.00 20.00    -0.163 F 
HETATM    4  F6  UNL     1     -31.982   5.862   3.537  1.00 20.00    -0.163 F 
ENDROOT
BRANCH   1   5
HETATM    5  C1  UNL     1     -33.881   5.852   4.942  1.00 20.00     0.300 C 
HETATM    6  O3  UNL     1     -33.508   6.349   5.994  1.00 20.00    -0.275 OA
HETATM    7 BR7  UNL     1     -35.307   4.594   5.045  1.00 20.00     0.001 Br
ENDBRANCH   1   5
TORSDOF 1
