REMARK  2 active torsions:
REMARK  status: ('A' for Active; 'I' for Inactive)
REMARK    1  A    between atoms: C2_2  and  C6_6 
REMARK    2  A    between atoms: C3_3  and  C7_7 
ROOT
HETATM    1  C1  UNL     1     -32.070   7.462   3.728  1.00 20.00     0.100 C 
HETATM    2  C2  UNL     1     -31.971   7.610   2.229  1.00 20.00     0.089 C 
HETATM    3  C3  UNL     1     -33.450   5.740   3.245  1.00 20.00     0.168 C 
HETATM    4  N8  UNL     1     -32.802   6.553   4.289  1.00 20.00    -0.289 NA
HETATM    5  S9  UNL     1     -32.900   6.209   1.582  1.00 20.00    -0.132 SA
ENDROOT
BRANCH   2   6
HETATM    6  C6  UNL     1     -32.581   8.929   1.791  1.00 20.00     0.016 C 
HETATM    7  C4  UNL     1     -32.525   9.107   0.305  1.00 20.00     0.006 C 
ENDBRANCH   2   6
BRANCH   3   8
HETATM    8  C7  UNL     1     -34.958   5.908   3.364  1.00 20.00     0.033 C 
HETATM    9  C5  UNL     1     -35.458   5.499   4.713  1.00 20.00     0.008 C 
ENDBRANCH   3   8
TORSDOF 2
