REMARK  3 active torsions:
REMARK  status: ('A' for Active; 'I' for Inactive)
REMARK    1  A    between atoms: C1_1  and  C5_5 
REMARK    2  A    between atoms: C6_6  and  C8_8 
REMARK    3  A    between atoms: C8_8  and  C9_9 
ROOT
HETATM    1  C2  UNL     1     -34.236   5.679   2.857  1.00 20.00     0.028 C 
HETATM    2  C3  UNL     1     -32.429   4.985   3.738  1.00 20.00     0.028 C 
HETATM    3  C4  UNL     1     -33.383   6.726   4.499  1.00 20.00     0.028 C 
HETATM    4  C5  UNL     1     -33.846   5.263   4.297  1.00 20.00     0.038 C 
HETATM    5  C6  UNL     1     -32.822   6.363   3.063  1.00 20.00    -0.037 C 
ENDROOT
BRANCH   4   6
HETATM    6  C1  UNL     1     -34.629   4.418   5.238  1.00 20.00     0.227 C 
HETATM    7  O10 UNL     1     -34.937   3.262   4.964  1.00 20.00    -0.279 OA
HETATM    8 CL11 UNL     1     -35.021   5.264   6.704  1.00 20.00    -0.043 Cl
ENDBRANCH   4   6
BRANCH   5   9
HETATM    9  C8  UNL     1     -32.044   7.200   2.126  1.00 20.00     0.009 C 
BRANCH   9  10
HETATM   10  C9  UNL     1     -32.808   8.460   1.668  1.00 20.00    -0.004 C 
HETATM   11  C7  UNL     1     -31.994   9.340   0.734  1.00 20.00     0.005 C 
ENDBRANCH   9  10
ENDBRANCH   5   9
TORSDOF 3
