REMARK  2 active torsions:
REMARK  status: ('A' for Active; 'I' for Inactive)
REMARK    1  A    between atoms: C2_2  and  C3_3 
REMARK    2  A    between atoms: C4_4  and  C5_5 
ROOT
HETATM    1  C1  UNL     1     -34.085   6.025   5.474  1.00 20.00    -0.020 C 
HETATM    2  C2  UNL     1     -34.074   5.749   4.165  1.00 20.00    -0.062 C 
HETATM    3  C6  UNL     1     -34.936   5.063   6.233  1.00 20.00     0.028 C 
HETATM    4  C7  UNL     1     -34.918   4.557   3.842  1.00 20.00     0.038 C 
HETATM    5  C8  UNL     1     -35.721   4.358   5.128  1.00 20.00     0.008 C 
ENDROOT
BRANCH   2   6
HETATM    6  C3  UNL     1     -33.350   6.457   3.157  1.00 20.00     0.010 C 
HETATM    7  C4  UNL     1     -33.230   7.794   3.139  1.00 20.00     0.050 C 
BRANCH   7   8
HETATM    8  C5  UNL     1     -32.461   8.475   2.061  1.00 20.00     0.145 C 
HETATM    9  C9  UNL     1     -32.908   9.863   1.685  1.00 20.00     0.096 C 
HETATM   10  O10 UNL     1     -31.493   7.950   1.515  1.00 20.00    -0.294 OA
ENDBRANCH   7   8
ENDBRANCH   2   6
TORSDOF 2
