REMARK  3 active torsions:
REMARK  status: ('A' for Active; 'I' for Inactive)
REMARK    1  A    between atoms: C1_1  and  C3_3 
REMARK    2  A    between atoms: C2_2  and  C8_8 
REMARK    3  A    between atoms: C3_3  and  O10_10 
ROOT
HETATM    1  C1  UNL     1     -33.225   7.262   3.119  1.00 20.00     0.079 C 
HETATM    2  C2  UNL     1     -32.843   7.381   1.839  1.00 20.00    -0.012 C 
ENDROOT
BRANCH   1   3
HETATM    3  C3  UNL     1     -33.998   6.075   3.549  1.00 20.00     0.282 C 
HETATM    4  O9  UNL     1     -34.340   5.152   2.826  1.00 20.00    -0.260 OA
BRANCH   3   5
HETATM    5  O10 UNL     1     -34.249   6.207   4.879  1.00 20.00    -0.323 OA
HETATM    6  C7  UNL     1     -34.994   5.140   5.474  1.00 20.00     0.213 C 
ENDBRANCH   3   5
ENDBRANCH   1   3
BRANCH   2   7
HETATM    7  C8  UNL     1     -32.047   8.524   1.222  1.00 20.00    -0.034 C 
HETATM    8  C4  UNL     1     -32.777   9.265   0.087  1.00 20.00     0.018 C 
HETATM    9  C5  UNL     1     -31.719   9.537   2.335  1.00 20.00     0.018 C 
HETATM   10  C6  UNL     1     -30.733   7.949   0.664  1.00 20.00     0.018 C 
ENDBRANCH   2   7
TORSDOF 3
