REMARK  1 active torsions:
REMARK  status: ('A' for Active; 'I' for Inactive)
REMARK    1  A    between atoms: C3_3  and  C6_6 
ROOT
HETATM    1  C1  UNL     1     -34.495   4.426   6.166  1.00 20.00    -0.030 C 
HETATM    2  C2  UNL     1     -34.933   3.945   5.000  1.00 20.00    -0.030 C 
HETATM    3  C4  UNL     1     -34.077   5.855   6.063  1.00 20.00     0.038 C 
HETATM    4  C5  UNL     1     -34.883   4.972   3.917  1.00 20.00     0.038 C 
HETATM    5  C6  UNL     1     -34.117   6.128   4.560  1.00 20.00     0.054 C 
ENDROOT
BRANCH   5   6
HETATM    6  C3  UNL     1     -32.720   6.203   4.014  1.00 20.00     0.236 C 
HETATM    7  O7  UNL     1     -32.268   7.192   3.446  1.00 20.00    -0.306 OA
ENDBRANCH   5   6
TORSDOF 1
