REMARK  5 active torsions:
REMARK  status: ('A' for Active; 'I' for Inactive)
REMARK    1  A    between atoms: C2_2  and  C4_4 
REMARK    2  A    between atoms: C4_4  and  N7_7 
REMARK    3  A    between atoms: C5_5  and  C6_6 
REMARK    4  A    between atoms: C5_5  and  N7_7 
REMARK    5  A    between atoms: C6_6  and  S8_8 
ROOT
HETATM    1  C1  UNL     1     -33.409   6.272   2.936  1.00 20.00    -0.109 C 
HETATM    2  C2  UNL     1     -34.325   5.588   3.303  1.00 20.00    -0.077 C 
HETATM    3  C3  UNL     1     -32.293   7.106   2.489  1.00 20.00     0.112 C 
ENDROOT
BRANCH   2   4
HETATM    4  C4  UNL     1     -35.443   4.749   3.744  1.00 20.00     0.362 C 
BRANCH   4   5
HETATM    5  N7  UNL     1     -35.816   5.060   5.118  1.00 20.00     0.095 N 
HETATM    6  H18 UNL     1     -36.765   4.729   5.291  1.00 20.00     0.317 HD
BRANCH   5   7
HETATM    7  C5  UNL     1     -34.907   4.423   6.061  1.00 20.00     0.280 C 
BRANCH   7   8
HETATM    8  C6  UNL     1     -33.595   5.179   6.227  1.00 20.00     0.100 C 
BRANCH   8   9
HETATM    9  S8  UNL     1     -33.853   6.887   6.796  1.00 20.00    -0.180 SA
HETATM   10  H19 UNL     1     -32.556   7.220   6.826  1.00 20.00     0.101 HD
ENDBRANCH   8   9
ENDBRANCH   7   8
ENDBRANCH   5   7
ENDBRANCH   4   5
ENDBRANCH   2   4
TORSDOF 5
