REMARK  0 active torsions:
REMARK  status: ('A' for Active; 'I' for Inactive)
ROOT
HETATM    1  C1  UNL     1     -32.952   7.038   4.783  1.00 20.00     0.037 C 
HETATM    2  C2  UNL     1     -34.347   5.590   5.527  1.00 20.00     0.017 C 
HETATM    3  C3  UNL     1     -31.869   7.823   4.775  1.00 20.00    -0.063 C 
HETATM    4  C4  UNL     1     -33.738   6.680   3.556  1.00 20.00     0.074 C 
HETATM    5  C5  UNL     1     -34.542   5.460   4.028  1.00 20.00    -0.002 C 
HETATM    6  C6  UNL     1     -35.113   4.753   6.504  1.00 20.00     0.066 C 
HETATM    7  C7  UNL     1     -31.115   8.153   6.032  1.00 20.00     0.045 C 
HETATM    8  C8  UNL     1     -31.333   8.429   3.510  1.00 20.00     0.045 C 
HETATM    9  C9  UNL     1     -36.008   5.562   3.619  1.00 20.00     0.021 C 
HETATM   10  C10 UNL     1     -33.922   4.152   3.532  1.00 20.00     0.021 C 
HETATM   11  N11 UNL     1     -33.453   6.446   5.914  1.00 20.00    -0.262 NA
ENDROOT
TORSDOF 0
