REMARK  2 active torsions:
REMARK  status: ('A' for Active; 'I' for Inactive)
REMARK    1  A    between atoms: C2_2  and  C7_7 
REMARK    2  A    between atoms: C3_3  and  C7_7 
ROOT
HETATM    1  C6  UNL     1     -34.651   4.653   3.455  1.00 20.00     0.022 C 
HETATM    2  C7  UNL     1     -33.586   5.511   4.133  1.00 20.00     0.073 C 
ENDROOT
BRANCH   2   3
HETATM    3  C2  UNL     1     -33.496   6.872   3.501  1.00 20.00    -0.019 C 
HETATM    4  C1  UNL     1     -32.380   7.355   2.935  1.00 20.00    -0.034 C 
HETATM    5  C4  UNL     1     -32.285   8.704   2.305  1.00 20.00     0.036 C 
ENDBRANCH   2   3
BRANCH   2   6
HETATM    6  C3  UNL     1     -33.912   5.719   5.607  1.00 20.00     0.130 C 
HETATM    7  C5  UNL     1     -34.713   4.635   6.285  1.00 20.00     0.091 C 
HETATM    8  O8  UNL     1     -33.581   6.735   6.219  1.00 20.00    -0.298 OA
ENDBRANCH   2   6
TORSDOF 2
