REMARK  0 active torsions:
REMARK  status: ('A' for Active; 'I' for Inactive)
ROOT
HETATM    1  C1  UNL     1     -32.893   6.702   4.027  1.00 20.00     0.099 C 
HETATM    2  C2  UNL     1     -35.044   3.908   4.377  1.00 20.00    -0.026 C 
HETATM    3  C3  UNL     1     -34.657   5.077   3.850  1.00 20.00     0.019 C 
HETATM    4  C4  UNL     1     -35.009   3.666   5.853  1.00 20.00     0.057 C 
HETATM    5  C5  UNL     1     -34.872   4.968   6.651  1.00 20.00     0.277 C 
HETATM    6  C6  UNL     1     -34.114   6.208   4.694  1.00 20.00     0.350 C 
HETATM    7  C7  UNL     1     -33.611   6.993   6.948  1.00 20.00     0.312 C 
HETATM    8  N8  UNL     1     -31.934   7.090   3.502  1.00 20.00    -0.195 NA
HETATM    9  N9  UNL     1     -33.811   5.819   6.091  1.00 20.00     0.106 N 
ENDROOT
TORSDOF 0
