REMARK  2 active torsions:
REMARK  status: ('A' for Active; 'I' for Inactive)
REMARK    1  A    between atoms: C1_1  and  C8_8 
REMARK    2  A    between atoms: C2_2  and  C3_3 
ROOT
HETATM    1  C1  UNL     1     -33.388   8.062   2.194  1.00 20.00    -0.009 C 
HETATM    2  C3  UNL     1     -33.118   7.095   3.090  1.00 20.00    -0.027 C 
HETATM    3  C4  UNL     1     -31.800   6.480   3.440  1.00 20.00     0.051 C 
ENDROOT
BRANCH   1   4
HETATM    4  C8  UNL     1     -32.455   8.803   1.239  1.00 20.00    -0.033 C 
HETATM    5  C5  UNL     1     -32.527  10.312   1.569  1.00 20.00     0.018 C 
HETATM    6  C6  UNL     1     -30.996   8.355   1.433  1.00 20.00     0.018 C 
HETATM    7  C7  UNL     1     -32.880   8.639  -0.231  1.00 20.00     0.018 C 
ENDBRANCH   1   4
BRANCH   2   8
HETATM    8  C2  UNL     1     -34.296   6.576   3.846  1.00 20.00     0.265 C 
HETATM    9  O9  UNL     1     -34.213   5.694   4.693  1.00 20.00    -0.302 OA
ENDBRANCH   2   8
TORSDOF 2
