REMARK  0 active torsions:
REMARK  status: ('A' for Active; 'I' for Inactive)
ROOT
HETATM    1  C1  UNL     1     -33.408   6.543   5.091  1.00 20.00     0.149 C 
HETATM    2  C2  UNL     1     -33.396   6.311   3.772  1.00 20.00     0.010 C 
HETATM    3  C3  UNL     1     -34.373   5.372   3.131  1.00 20.00     0.050 C 
HETATM    4  C4  UNL     1     -35.512   5.048   4.097  1.00 20.00     0.032 C 
HETATM    5  C5  UNL     1     -34.959   4.812   5.497  1.00 20.00     0.174 C 
HETATM    6  O6  UNL     1     -34.241   5.946   6.003  1.00 20.00    -0.362 OA
HETATM    7 BR7  UNL     1     -32.210   7.167   2.617  1.00 20.00    -0.054 Br
ENDROOT
TORSDOF 0
