REMARK  2 active torsions:
REMARK  status: ('A' for Active; 'I' for Inactive)
REMARK       I    between atoms: C1_1  and  N9_9 
REMARK    1  A    between atoms: C7_7  and  C8_8 
REMARK    2  A    between atoms: C7_7  and  N9_9 
ROOT
HETATM    1  C3  UNL     1     -33.361   4.379   2.752  1.00 20.00     0.033 C 
HETATM    2  C7  UNL     1     -33.293   5.562   3.720  1.00 20.00     0.087 C 
ENDROOT
BRANCH   2   3
HETATM    3  C8  UNL     1     -34.428   5.600   4.795  1.00 20.00    -0.031 C 
HETATM    4  C4  UNL     1     -34.296   6.812   5.737  1.00 20.00     0.016 C 
HETATM    5  C5  UNL     1     -35.811   5.660   4.114  1.00 20.00     0.016 C 
HETATM    6  C6  UNL     1     -34.384   4.312   5.648  1.00 20.00     0.016 C 
ENDBRANCH   2   3
BRANCH   2   7
HETATM    7  N9  UNL     1     -33.232   6.789   2.954  1.00 20.00    -0.356 N 
HETATM    8  C1  UNL     1     -32.133   7.625   2.958  1.00 20.00     0.213 C 
HETATM    9  C2  UNL     1     -32.288   8.833   2.095  1.00 20.00     0.117 C 
HETATM   10  O10 UNL     1     -31.093   7.459   3.584  1.00 20.00    -0.274 OA
HETATM   11  H27 UNL     1     -34.033   7.047   2.388  1.00 20.00     0.162 HD
ENDBRANCH   2   7
TORSDOF 2
