REMARK  3 active torsions:
REMARK  status: ('A' for Active; 'I' for Inactive)
REMARK    1  A    between atoms: C5_5  and  N8_8 
REMARK    2  A    between atoms: C6_6  and  C7_7 
REMARK    3  A    between atoms: C7_7  and  N8_8 
ROOT
HETATM    1  C1  UNL     1     -32.421   8.821   0.174  1.00 20.00     0.013 C 
HETATM    2  C2  UNL     1     -32.511   8.500   1.327  1.00 20.00    -0.087 C 
HETATM    3  C5  UNL     1     -32.620   8.114   2.736  1.00 20.00     0.364 C 
ENDROOT
BRANCH   3   4
HETATM    4  N8  UNL     1     -33.017   6.712   2.858  1.00 20.00     0.095 N 
HETATM    5  C4  UNL     1     -31.864   5.834   2.663  1.00 20.00     0.310 C 
BRANCH   4   6
HETATM    6  C7  UNL     1     -33.631   6.466   4.163  1.00 20.00     0.272 C 
BRANCH   6   7
HETATM    7  C6  UNL     1     -34.516   5.226   4.163  1.00 20.00     0.026 C 
HETATM    8  C3  UNL     1     -35.177   4.975   5.511  1.00 20.00     0.007 C 
ENDBRANCH   6   7
ENDBRANCH   4   6
ENDBRANCH   3   4
TORSDOF 3
