REMARK  0 active torsions:
REMARK  status: ('A' for Active; 'I' for Inactive)
ROOT
HETATM    1  C1  UNL     1     -32.096   8.288   4.424  1.00 20.00     0.143 A 
HETATM    2  C2  UNL     1     -33.264   6.743   5.590  1.00 20.00     0.059 A 
HETATM    3  C3  UNL     1     -33.633   6.125   4.409  1.00 20.00     0.063 A 
HETATM    4  C4  UNL     1     -32.461   7.666   3.238  1.00 20.00     0.048 A 
HETATM    5  C5  UNL     1     -33.799   6.008   6.781  1.00 20.00     0.062 C 
HETATM    6  C6  UNL     1     -34.912   5.174   6.126  1.00 20.00     0.016 C 
HETATM    7  C7  UNL     1     -34.454   4.892   4.677  1.00 20.00     0.036 C 
HETATM    8  C8  UNL     1     -31.992   8.212   1.934  1.00 20.00     0.072 C 
HETATM    9  C9  UNL     1     -35.620   4.701   3.722  1.00 20.00     0.016 C 
HETATM   10  N10 UNL     1     -32.488   7.834   5.635  1.00 20.00    -0.261 NA
HETATM   11  N11 UNL     1     -33.236   6.559   3.205  1.00 20.00    -0.254 NA
ENDROOT
TORSDOF 0
