REMARK  0 active torsions:
REMARK  status: ('A' for Active; 'I' for Inactive)
ROOT
HETATM    1  C1  UNL     1     -33.720   6.405   4.571  1.00 20.00     0.011 C 
HETATM    2  C2  UNL     1     -33.033   7.203   3.497  1.00 20.00     0.054 C 
HETATM    3  C3  UNL     1     -33.572   6.551   2.224  1.00 20.00     0.006 C 
HETATM    4  C4  UNL     1     -35.110   4.713   6.296  1.00 20.00     0.022 C 
HETATM    5  C5  UNL     1     -34.000   5.143   2.643  1.00 20.00     0.011 C 
HETATM    6  C6  UNL     1     -34.736   4.176   4.922  1.00 20.00     0.012 C 
HETATM    7  C7  UNL     1     -34.053   5.686   6.815  1.00 20.00     0.148 C 
HETATM    8  C8  UNL     1     -34.645   5.370   4.003  1.00 20.00     0.033 C 
HETATM    9  N9  UNL     1     -33.484   6.601   5.818  1.00 20.00    -0.298 NA
ENDROOT
TORSDOF 0
