REMARK  1 active torsions:
REMARK  status: ('A' for Active; 'I' for Inactive)
REMARK    1  A    between atoms: C1_1  and  C6_6 
ROOT
HETATM    1  C2  UNL     1     -35.478   5.948   2.960  1.00 20.00     0.001 C 
HETATM    2  C3  UNL     1     -34.325   5.341   2.167  1.00 20.00     0.011 C 
HETATM    3  C4  UNL     1     -35.759   5.162   4.238  1.00 20.00     0.009 C 
HETATM    4  C5  UNL     1     -33.318   4.477   4.352  1.00 20.00     0.020 C 
HETATM    5  C6  UNL     1     -33.057   5.146   2.996  1.00 20.00     0.048 C 
HETATM    6  C7  UNL     1     -34.524   5.026   5.154  1.00 20.00    -0.047 C 
HETATM    7  C8  UNL     1     -34.189   6.377   5.815  1.00 20.00     0.015 C 
HETATM    8  C9  UNL     1     -34.854   4.031   6.286  1.00 20.00     0.015 C 
ENDROOT
BRANCH   5   9
HETATM    9  C1  UNL     1     -32.293   6.427   3.154  1.00 20.00     0.235 C 
HETATM   10  O10 UNL     1     -32.691   7.508   2.730  1.00 20.00    -0.306 OA
ENDBRANCH   5   9
TORSDOF 1
