REMARK  0 active torsions:
REMARK  status: ('A' for Active; 'I' for Inactive)
ROOT
HETATM    1  C1  UNL     1     -33.414   6.463   5.222  1.00 20.00     0.131 C 
HETATM    2  C2  UNL     1     -34.589   5.672   4.711  1.00 20.00     0.079 C 
HETATM    3  C3  UNL     1     -34.064   5.132   3.388  1.00 20.00     0.013 C 
HETATM    4  C4  UNL     1     -32.192   8.238   3.889  1.00 20.00     0.021 C 
HETATM    5  C5  UNL     1     -33.661   7.372   2.184  1.00 20.00     0.014 C 
HETATM    6  C6  UNL     1     -32.386   6.741   4.144  1.00 20.00     0.060 C 
HETATM    7  C7  UNL     1     -33.056   6.160   2.892  1.00 20.00    -0.002 C 
HETATM    8  C8  UNL     1     -32.638   8.491   2.433  1.00 20.00    -0.047 C 
HETATM    9  C9  UNL     1     -33.277   9.873   2.272  1.00 20.00     0.015 C 
HETATM   10  C10 UNL     1     -31.442   8.378   1.472  1.00 20.00     0.015 C 
HETATM   11  O11 UNL     1     -33.318   6.861   6.377  1.00 20.00    -0.298 OA
ENDROOT
TORSDOF 0
