REMARK  3 active torsions:
REMARK  status: ('A' for Active; 'I' for Inactive)
REMARK    1  A    between atoms: C2_2  and  C7_7 
REMARK    2  A    between atoms: C5_5  and  C8_8 
REMARK    3  A    between atoms: C7_7  and  C8_8 
ROOT
HETATM    1  C3  UNL     1     -33.766   5.700   6.082  1.00 20.00     0.281 C 
HETATM    2  C4  UNL     1     -35.018   4.841   6.160  1.00 20.00     0.106 C 
HETATM    3  C5  UNL     1     -34.374   5.822   3.799  1.00 20.00     0.282 C 
HETATM    4  N9  UNL     1     -33.911   6.620   4.945  1.00 20.00     0.098 N 
HETATM    5  S10 UNL     1     -35.380   4.446   4.435  1.00 20.00    -0.132 SA
HETATM    6  H25 UNL     1     -34.582   7.354   5.161  1.00 20.00     0.317 HD
ENDROOT
BRANCH   3   7
HETATM    7  C8  UNL     1     -33.194   5.291   2.992  1.00 20.00     0.050 C 
BRANCH   7   8
HETATM    8  C7  UNL     1     -32.103   6.350   2.834  1.00 20.00     0.030 C 
BRANCH   8   9
HETATM    9  C2  UNL     1     -32.616   7.556   2.102  1.00 20.00    -0.031 C 
HETATM   10  C1  UNL     1     -31.842   8.366   1.365  1.00 20.00    -0.035 C 
HETATM   11  C6  UNL     1     -32.350   9.569   0.642  1.00 20.00     0.036 C 
ENDBRANCH   8   9
ENDBRANCH   7   8
ENDBRANCH   3   7
TORSDOF 3
