REMARK  0 active torsions:
REMARK  status: ('A' for Active; 'I' for Inactive)
ROOT
HETATM    1  C1  UNL     1     -33.372   5.732   4.769  1.00 20.00     0.292 C 
HETATM    2  C2  UNL     1     -34.487   5.454   2.714  1.00 20.00     0.346 C 
HETATM    3  C3  UNL     1     -34.632   5.048   5.333  1.00 20.00     0.029 C 
HETATM    4  C4  UNL     1     -35.187   5.802   6.539  1.00 20.00     0.028 C 
HETATM    5  C5  UNL     1     -34.382   3.576   5.684  1.00 20.00     0.028 C 
HETATM    6  C6  UNL     1     -32.112   5.925   2.702  1.00 20.00     0.310 C 
HETATM    7  N7  UNL     1     -33.204   5.251   3.391  1.00 20.00     0.094 N 
HETATM    8  S8  UNL     1     -35.800   5.133   3.930  1.00 20.00    -0.128 SA
ENDROOT
TORSDOF 0
