REMARK  1 active torsions:
REMARK  status: ('A' for Active; 'I' for Inactive)
REMARK    1  A    between atoms: C1_1  and  C5_5 
ROOT
HETATM    1  C2  UNL     1     -33.033   5.278   5.833  1.00 20.00     0.006 C 
HETATM    2  C3  UNL     1     -34.257   4.565   5.241  1.00 20.00     0.006 C 
HETATM    3  C4  UNL     1     -34.552   6.886   4.972  1.00 20.00     0.011 C 
HETATM    4  C5  UNL     1     -32.588   6.435   3.655  1.00 20.00     0.059 C 
HETATM    5  C6  UNL     1     -33.049   6.641   5.118  1.00 20.00    -0.003 C 
HETATM    6  C7  UNL     1     -34.783   5.579   4.205  1.00 20.00    -0.006 C 
HETATM    7  C8  UNL     1     -33.813   5.735   2.987  1.00 20.00    -0.034 C 
HETATM    8  C9  UNL     1     -34.495   6.565   1.878  1.00 20.00     0.016 C 
HETATM    9  C10 UNL     1     -33.403   4.394   2.356  1.00 20.00     0.016 C 
ENDROOT
BRANCH   4  10
HETATM   10  C1  UNL     1     -32.187   7.742   3.036  1.00 20.00     0.236 C 
HETATM   11  O11 UNL     1     -31.777   7.847   1.885  1.00 20.00    -0.306 OA
ENDBRANCH   4  10
TORSDOF 1
