REMARK  2 active torsions:
REMARK  status: ('A' for Active; 'I' for Inactive)
REMARK    1  A    between atoms: C6_6  and  C10_10 
REMARK    2  A    between atoms: C7_7  and  C11_11 
ROOT
HETATM    1  C1  UNL     1     -32.470   8.892   0.349  1.00 20.00     0.059 C 
HETATM    2  C10 UNL     1     -31.636   8.388   1.431  1.00 20.00     0.128 C 
HETATM    3  N12 UNL     1     -33.110   9.312  -0.524  1.00 20.00    -0.197 NA
ENDROOT
BRANCH   2   4
HETATM    4  C6  UNL     1     -32.518   7.360   2.137  1.00 20.00    -0.002 C 
HETATM    5  C2  UNL     1     -31.663   6.369   2.935  1.00 20.00     0.006 C 
HETATM    6  C4  UNL     1     -32.526   5.360   3.692  1.00 20.00     0.005 C 
HETATM    7  C7  UNL     1     -33.545   6.057   4.603  1.00 20.00    -0.011 C 
HETATM    8  C5  UNL     1     -34.401   7.048   3.804  1.00 20.00     0.005 C 
HETATM    9  C3  UNL     1     -33.538   8.057   3.047  1.00 20.00     0.006 C 
BRANCH   7  10
HETATM   10  C11 UNL     1     -34.428   5.030   5.309  1.00 20.00    -0.019 C 
HETATM   11  C8  UNL     1     -35.053   5.634   6.565  1.00 20.00     0.010 C 
HETATM   12  C9  UNL     1     -35.511   4.513   4.365  1.00 20.00     0.010 C 
ENDBRANCH   7  10
ENDBRANCH   2   4
TORSDOF 2
