REMARK  2 active torsions:
REMARK  status: ('A' for Active; 'I' for Inactive)
REMARK    1  A    between atoms: C7_7  and  C10_10 
REMARK    2  A    between atoms: C7_7  and  O11_11 
ROOT
HETATM    1  C1  UNL     1     -34.933   5.147   6.576  1.00 20.00     0.000 C 
HETATM    2  C2  UNL     1     -34.871   3.940   5.645  1.00 20.00     0.000 C 
HETATM    3  C3  UNL     1     -33.923   6.247   6.280  1.00 20.00     0.003 C 
HETATM    4  C4  UNL     1     -35.419   4.247   4.258  1.00 20.00     0.003 C 
HETATM    5  C5  UNL     1     -33.944   6.808   4.855  1.00 20.00     0.038 C 
HETATM    6  C6  UNL     1     -34.424   4.831   3.255  1.00 20.00     0.038 C 
HETATM    7  C7  UNL     1     -33.403   5.868   3.761  1.00 20.00     0.061 C 
ENDROOT
BRANCH   7   8
HETATM    8  C10 UNL     1     -32.919   6.704   2.564  1.00 20.00     0.012 C 
HETATM    9  C8  UNL     1     -31.834   7.679   3.004  1.00 20.00     0.012 C 
HETATM   10  C9  UNL     1     -32.412   5.792   1.453  1.00 20.00     0.012 C 
ENDBRANCH   7   8
BRANCH   7  11
HETATM   11  O11 UNL     1     -32.254   5.182   4.269  1.00 20.00    -0.389 OA
HETATM   12  H31 UNL     1     -31.950   4.608   3.553  1.00 20.00     0.210 HD
ENDBRANCH   7  11
TORSDOF 2
