REMARK  3 active torsions:
REMARK  status: ('A' for Active; 'I' for Inactive)
REMARK    1  A    between atoms: C1_1  and  C7_7 
REMARK    2  A    between atoms: C6_6  and  C7_7 
REMARK    3  A    between atoms: C6_6  and  C8_8 
ROOT
HETATM    1  C6  UNL     1     -34.218   6.821   4.401  1.00 20.00     0.019 C 
ENDROOT
BRANCH   1   2
HETATM    2  C7  UNL     1     -32.698   6.951   4.612  1.00 20.00     0.043 C 
HETATM    3  C2  UNL     1     -32.379   8.188   5.452  1.00 20.00     0.017 C 
BRANCH   2   4
HETATM    4  C1  UNL     1     -31.976   7.115   3.292  1.00 20.00     0.235 C 
HETATM    5  O9  UNL     1     -32.496   7.613   2.298  1.00 20.00    -0.306 OA
ENDBRANCH   2   4
ENDBRANCH   1   2
BRANCH   1   6
HETATM    6  C8  UNL     1     -34.754   5.438   3.930  1.00 20.00    -0.051 C 
HETATM    7  C3  UNL     1     -36.273   5.446   3.705  1.00 20.00     0.014 C 
HETATM    8  C4  UNL     1     -34.054   4.987   2.636  1.00 20.00     0.014 C 
HETATM    9  C5  UNL     1     -34.435   4.407   5.033  1.00 20.00     0.014 C 
ENDBRANCH   1   6
TORSDOF 3
