REMARK  2 active torsions:
REMARK  status: ('A' for Active; 'I' for Inactive)
REMARK    1  A    between atoms: C1_1  and  S9_9 
REMARK    2  A    between atoms: C2_2  and  N7_7 
ROOT
HETATM    1  C1  UNL     1     -33.696   6.829   4.081  1.00 20.00     0.102 C 
HETATM    2  C2  UNL     1     -32.767   6.969   3.115  1.00 20.00     0.011 C 
HETATM    3  C3  UNL     1     -31.997   5.751   2.665  1.00 20.00     0.068 C 
ENDROOT
BRANCH   2   4
HETATM    4  N7  UNL     1     -32.423   8.124   2.468  1.00 20.00    -0.393 N 
HETATM    5  C4  UNL     1     -31.940   8.107   1.096  1.00 20.00     0.148 C 
HETATM    6  C5  UNL     1     -32.754   9.429   3.022  1.00 20.00     0.148 C 
ENDBRANCH   2   4
BRANCH   1   7
HETATM    7  S9  UNL     1     -34.043   5.249   4.842  1.00 20.00     0.036 S 
HETATM    8  C6  UNL     1     -35.332   4.732   3.685  1.00 20.00     0.132 C 
HETATM    9  O8  UNL     1     -34.692   5.567   6.155  1.00 20.00    -0.254 OA
ENDBRANCH   1   7
TORSDOF 2
