REMARK  0 active torsions:
REMARK  status: ('A' for Active; 'I' for Inactive)
ROOT
HETATM    1  C1  UNL     1     -32.435   8.128   2.756  1.00 20.00     0.015 C 
HETATM    2  C2  UNL     1     -32.914   7.080   3.091  1.00 20.00    -0.071 C 
HETATM    3  C3  UNL     1     -33.505   6.207   5.978  1.00 20.00     0.039 C 
HETATM    4  C4  UNL     1     -33.517   3.897   5.100  1.00 20.00     0.039 C 
HETATM    5  C5  UNL     1     -35.042   6.167   5.949  1.00 20.00     0.273 C 
HETATM    6  C6  UNL     1     -35.052   3.944   5.028  1.00 20.00     0.273 C 
HETATM    7  C7  UNL     1     -35.039   5.860   3.561  1.00 20.00     0.329 C 
HETATM    8  C8  UNL     1     -32.954   5.309   4.857  1.00 20.00     0.043 C 
HETATM    9  C9  UNL     1     -33.501   5.797   3.501  1.00 20.00     0.195 C 
HETATM   10  N10 UNL     1     -35.553   5.324   4.846  1.00 20.00     0.092 N 
HETATM   11  F11 UNL     1     -33.146   4.887   2.547  1.00 20.00    -0.227 F 
ENDROOT
TORSDOF 0
