REMARK  1 active torsions:
REMARK  status: ('A' for Active; 'I' for Inactive)
REMARK    1  A    between atoms: C10_10  and  O11_11 
ROOT
HETATM    1  C1  UNL     1     -34.052   4.192   5.440  1.00 20.00    -0.025 C 
HETATM    2  C2  UNL     1     -32.942   4.890   5.721  1.00 20.00    -0.025 C 
HETATM    3  C3  UNL     1     -34.768   5.389   2.735  1.00 20.00     0.008 C 
HETATM    4  C4  UNL     1     -33.257   5.433   2.523  1.00 20.00     0.032 C 
HETATM    5  C5  UNL     1     -34.727   6.156   6.427  1.00 20.00     0.018 C 
HETATM    6  C6  UNL     1     -35.188   5.180   5.333  1.00 20.00     0.013 C 
HETATM    7  C7  UNL     1     -33.335   6.345   5.802  1.00 20.00     0.015 C 
HETATM    8  C8  UNL     1     -35.028   6.077   4.076  1.00 20.00     0.000 C 
HETATM    9  C9  UNL     1     -33.741   6.897   4.409  1.00 20.00     0.027 C 
HETATM   10  C10 UNL     1     -32.810   6.720   3.210  1.00 20.00     0.123 C 
ENDROOT
BRANCH  10  11
HETATM   11  O11 UNL     1     -31.445   6.661   3.571  1.00 20.00    -0.395 OA
HETATM   12  H25 UNL     1     -30.936   6.531   2.752  1.00 20.00     0.210 HD
ENDBRANCH  10  11
TORSDOF 1
