REMARK  0 active torsions:
REMARK  status: ('A' for Active; 'I' for Inactive)
ROOT
HETATM    1  C1  UNL     1     -33.194   6.603   3.492  1.00 20.00     0.135 C 
HETATM    2  C2  UNL     1     -34.310   5.987   5.533  1.00 20.00     0.092 C 
HETATM    3  C3  UNL     1     -34.823   4.883   4.598  1.00 20.00     0.073 C 
HETATM    4  C4  UNL     1     -33.921   5.526   6.930  1.00 20.00     0.033 C 
HETATM    5  C5  UNL     1     -34.123   3.534   4.722  1.00 20.00     0.024 C 
HETATM    6  N6  UNL     1     -33.203   6.646   4.866  1.00 20.00    -0.370 N 
HETATM    7  S7  UNL     1     -32.111   7.411   2.529  1.00 20.00    -0.053 SA
HETATM    8  S8  UNL     1     -34.494   5.569   2.931  1.00 20.00    -0.094 SA
HETATM    9  H17 UNL     1     -32.435   7.049   5.388  1.00 20.00     0.161 HD
ENDROOT
TORSDOF 0
