REMARK  0 active torsions:
REMARK  status: ('A' for Active; 'I' for Inactive)
ROOT
HETATM    1  C1  UNL     1     -34.765   5.276   5.298  1.00 20.00     0.222 C 
HETATM    2  C2  UNL     1     -32.420   6.305   2.880  1.00 20.00     0.001 C 
HETATM    3  C3  UNL     1     -32.660   6.372   4.386  1.00 20.00     0.014 C 
HETATM    4  C4  UNL     1     -33.690   5.681   2.326  1.00 20.00     0.007 C 
HETATM    5  C5  UNL     1     -36.043   5.529   3.325  1.00 20.00     0.128 C 
HETATM    6  C6  UNL     1     -34.176   6.463   4.560  1.00 20.00     0.083 C 
HETATM    7  C7  UNL     1     -34.784   6.354   3.153  1.00 20.00     0.016 C 
HETATM    8  N8  UNL     1     -35.819   4.789   4.536  1.00 20.00    -0.360 N 
HETATM    9  O9  UNL     1     -34.384   4.852   6.378  1.00 20.00    -0.273 OA
HETATM   10  H20 UNL     1     -36.378   3.987   4.809  1.00 20.00     0.162 HD
ENDROOT
TORSDOF 0
