REMARK  1 active torsions:
REMARK  status: ('A' for Active; 'I' for Inactive)
REMARK    1  A    between atoms: C1_1  and  C4_4 
ROOT
HETATM    1  C2  UNL     1     -34.535   5.279   3.794  1.00 20.00     0.035 C 
HETATM    2  C3  UNL     1     -33.587   6.387   5.341  1.00 20.00     0.035 C 
HETATM    3  C4  UNL     1     -33.790   6.637   3.826  1.00 20.00     0.089 C 
HETATM    4  C5  UNL     1     -34.864   5.513   5.288  1.00 20.00     0.084 C 
HETATM    5 CL8  UNL     1     -34.985   4.103   6.373  1.00 20.00    -0.125 Cl
ENDROOT
BRANCH   3   6
HETATM    6  C1  UNL     1     -32.543   6.718   3.024  1.00 20.00     0.177 C 
HETATM    7  O6  UNL     1     -31.726   5.772   3.200  1.00 20.00    -0.648 OA
HETATM    8  O7  UNL     1     -32.463   7.727   2.269  1.00 20.00    -0.648 OA
ENDBRANCH   3   6
TORSDOF 1
