REMARK  2 active torsions:
REMARK  status: ('A' for Active; 'I' for Inactive)
REMARK    1  A    between atoms: C3_3  and  C7_7 
REMARK    2  A    between atoms: C3_3  and  O11_11 
ROOT
HETATM    1  C1  UNL     1     -33.542   6.012   4.408  1.00 20.00    -0.070 C 
HETATM    2  C2  UNL     1     -33.493   6.374   5.695  1.00 20.00    -0.027 C 
HETATM    3  C4  UNL     1     -34.514   5.009   3.853  1.00 20.00     0.034 C 
HETATM    4  C5  UNL     1     -34.413   5.221   2.348  1.00 20.00     0.005 C 
HETATM    5  C6  UNL     1     -32.963   5.642   2.127  1.00 20.00     0.019 C 
HETATM    6  C7  UNL     1     -32.635   6.529   3.326  1.00 20.00     0.114 C 
HETATM    7  C8  UNL     1     -34.397   5.830   6.750  1.00 20.00     0.036 C 
ENDROOT
BRANCH   6   8
HETATM    8  C3  UNL     1     -32.969   7.965   3.051  1.00 20.00     0.266 C 
HETATM    9  O10 UNL     1     -33.811   8.603   3.670  1.00 20.00    -0.265 OA
BRANCH   8  10
HETATM   10  O11 UNL     1     -32.199   8.424   2.025  1.00 20.00    -0.326 OA
HETATM   11  C9  UNL     1     -32.416   9.790   1.656  1.00 20.00     0.213 C 
ENDBRANCH   8  10
ENDBRANCH   6   8
TORSDOF 2
