REMARK  1 active torsions:
REMARK  status: ('A' for Active; 'I' for Inactive)
REMARK    1  A    between atoms: C3_3  and  C4_4 
ROOT
HETATM    1  C1  UNL     1     -34.343   4.957   4.987  1.00 20.00     0.065 A 
HETATM    2  C2  UNL     1     -34.708   5.062   6.304  1.00 20.00     0.172 A 
HETATM    3  C3  UNL     1     -33.602   6.128   4.752  1.00 20.00     0.169 A 
HETATM    4  N5  UNL     1     -33.514   6.900   5.839  1.00 20.00    -0.124 NA
HETATM    5  O6  UNL     1     -34.219   6.218   6.823  1.00 20.00    -0.225 OA
ENDROOT
BRANCH   3   6
HETATM    6  C4  UNL     1     -32.958   6.551   3.498  1.00 20.00     0.436 C 
HETATM    7  F7  UNL     1     -33.120   5.673   2.453  1.00 20.00    -0.164 F 
HETATM    8  F8  UNL     1     -33.411   7.750   3.004  1.00 20.00    -0.164 F 
HETATM    9  F9  UNL     1     -31.600   6.711   3.610  1.00 20.00    -0.164 F 
ENDBRANCH   3   6
TORSDOF 1
