REMARK  0 active torsions:
REMARK  status: ('A' for Active; 'I' for Inactive)
ROOT
HETATM    1  C1  UNL     1     -33.606   5.761   3.716  1.00 20.00     0.134 C 
HETATM    2  C2  UNL     1     -33.275   6.364   5.068  1.00 20.00     0.109 C 
HETATM    3  C3  UNL     1     -34.184   3.520   4.635  1.00 20.00     0.044 C 
HETATM    4  C4  UNL     1     -34.493   6.352   6.003  1.00 20.00     0.280 C 
HETATM    5  C5  UNL     1     -34.717   3.920   6.015  1.00 20.00     0.273 C 
HETATM    6  C6  UNL     1     -35.876   5.173   4.433  1.00 20.00     0.284 C 
HETATM    7  C7  UNL     1     -34.643   4.650   3.721  1.00 20.00     0.085 C 
HETATM    8  N8  UNL     1     -35.418   5.210   5.837  1.00 20.00     0.089 N 
HETATM    9  O9  UNL     1     -33.018   6.099   2.691  1.00 20.00    -0.297 OA
ENDROOT
TORSDOF 0
