REMARK  1 active torsions:
REMARK  status: ('A' for Active; 'I' for Inactive)
REMARK    1  A    between atoms: C4_4  and  C7_7 
ROOT
HETATM    1  C1  UNL     1     -35.622   4.996   4.217  1.00 20.00     0.035 A 
HETATM    2  C2  UNL     1     -35.004   5.936   3.495  1.00 20.00    -0.008 A 
HETATM    3  C3  UNL     1     -35.190   5.002   5.620  1.00 20.00     0.085 A 
HETATM    4  C4  UNL     1     -34.011   6.822   4.179  1.00 20.00     0.080 A 
HETATM    5  N8  UNL     1     -35.606   4.216   6.548  1.00 20.00    -0.293 NA
HETATM    6  S9  UNL     1     -33.998   6.248   5.914  1.00 20.00    -0.102 SA
HETATM    7  H20 UNL     1     -36.300   3.566   6.162  1.00 20.00     0.187 HD
ENDROOT
BRANCH   4   8
HETATM    8  C7  UNL     1     -32.619   6.708   3.572  1.00 20.00    -0.005 C 
HETATM    9  C5  UNL     1     -32.283   5.251   3.255  1.00 20.00     0.011 C 
HETATM   10  C6  UNL     1     -32.505   7.568   2.313  1.00 20.00     0.011 C 
ENDBRANCH   4   8
TORSDOF 1
