REMARK  0 active torsions:
REMARK  status: ('A' for Active; 'I' for Inactive)
ROOT
HETATM    1  C1  UNL     1     -33.268   5.657   2.374  1.00 20.00     0.047 A 
HETATM    2  C2  UNL     1     -32.145   6.464   2.645  1.00 20.00     0.141 A 
HETATM    3  C3  UNL     1     -33.882   5.497   3.595  1.00 20.00     0.032 A 
HETATM    4  C4  UNL     1     -35.096   4.749   4.023  1.00 20.00     0.059 C 
HETATM    5  C5  UNL     1     -35.602   5.227   5.388  1.00 20.00     0.008 C 
HETATM    6  C6  UNL     1     -34.449   5.354   6.387  1.00 20.00     0.022 C 
HETATM    7  C7  UNL     1     -33.406   6.357   5.895  1.00 20.00     0.151 C 
HETATM    8  N8  UNL     1     -32.044   6.798   3.935  1.00 20.00    -0.185 NA
HETATM    9  N9  UNL     1     -33.108   6.189   4.487  1.00 20.00    -0.274 N 
ENDROOT
TORSDOF 0
