REMARK  2 active torsions:
REMARK  status: ('A' for Active; 'I' for Inactive)
REMARK    1  A    between atoms: C3_3  and  C7_7 
REMARK    2  A    between atoms: C3_3  and  O11_11 
ROOT
HETATM    1  C1  UNL     1     -33.582   6.337   3.695  1.00 20.00    -0.070 C 
HETATM    2  C2  UNL     1     -34.575   5.606   3.175  1.00 20.00    -0.027 C 
HETATM    3  C4  UNL     1     -33.407   6.592   5.166  1.00 20.00     0.034 C 
HETATM    4  C5  UNL     1     -32.392   7.727   5.206  1.00 20.00     0.005 C 
HETATM    5  C6  UNL     1     -31.515   7.488   3.980  1.00 20.00     0.019 C 
HETATM    6  C7  UNL     1     -32.484   6.996   2.907  1.00 20.00     0.114 C 
HETATM    7  C8  UNL     1     -35.631   4.936   3.987  1.00 20.00     0.036 C 
ENDROOT
BRANCH   6   8
HETATM    8  C3  UNL     1     -33.060   8.138   2.125  1.00 20.00     0.266 C 
HETATM    9  O10 UNL     1     -34.249   8.424   2.105  1.00 20.00    -0.265 OA
BRANCH   8  10
HETATM   10  O11 UNL     1     -32.061   8.783   1.458  1.00 20.00    -0.326 OA
HETATM   11  C9  UNL     1     -32.473   9.902   0.665  1.00 20.00     0.213 C 
ENDBRANCH   8  10
ENDBRANCH   6   8
TORSDOF 2
