REMARK  2 active torsions:
REMARK  status: ('A' for Active; 'I' for Inactive)
REMARK    1  A    between atoms: C1_1  and  C3_3 
REMARK    2  A    between atoms: C1_1  and  C8_8 
ROOT
HETATM    1  C1  UNL     1     -34.076   6.186   3.972  1.00 20.00     0.134 C 
HETATM    2  O9  UNL     1     -34.614   5.392   3.200  1.00 20.00    -0.297 OA
ENDROOT
BRANCH   1   3
HETATM    3  C3  UNL     1     -34.681   6.478   5.322  1.00 20.00     0.060 A 
HETATM    4  C2  UNL     1     -33.828   6.285   6.527  1.00 20.00     0.017 A 
HETATM    5  C4  UNL     1     -34.978   5.356   6.255  1.00 20.00    -0.007 A 
HETATM    6  C5  UNL     1     -34.718   3.924   5.929  1.00 20.00     0.011 C 
ENDBRANCH   1   3
BRANCH   1   7
HETATM    7  C8  UNL     1     -32.764   6.890   3.637  1.00 20.00     0.048 C 
HETATM    8  C6  UNL     1     -31.669   5.860   3.391  1.00 20.00     0.017 C 
HETATM    9  C7  UNL     1     -32.929   7.806   2.427  1.00 20.00     0.017 C 
ENDBRANCH   1   7
TORSDOF 2
