REMARK  0 active torsions:
REMARK  status: ('A' for Active; 'I' for Inactive)
ROOT
HETATM    1  C1  UNL     1     -35.225   5.328   3.051  1.00 20.00     0.005 C 
HETATM    2  C2  UNL     1     -35.786   5.344   4.470  1.00 20.00     0.033 C 
HETATM    3  C3  UNL     1     -33.801   5.868   2.952  1.00 20.00     0.033 C 
HETATM    4  C4  UNL     1     -34.717   5.254   5.576  1.00 20.00     0.052 C 
HETATM    5  C5  UNL     1     -33.419   6.836   4.088  1.00 20.00     0.052 C 
HETATM    6  C6  UNL     1     -34.088   3.847   5.605  1.00 20.00     0.040 C 
HETATM    7  C7  UNL     1     -35.415   5.473   6.935  1.00 20.00     0.040 C 
HETATM    8  C8  UNL     1     -34.188   8.166   3.959  1.00 20.00     0.040 C 
HETATM    9  C9  UNL     1     -31.914   7.148   3.972  1.00 20.00     0.040 C 
HETATM   10  N10 UNL     1     -33.620   6.223   5.409  1.00 20.00    -0.234 N 
HETATM   11  F11 UNL     1     -33.511   7.132   6.433  1.00 20.00    -0.103 F 
ENDROOT
TORSDOF 0
