REMARK  0 active torsions:
REMARK  status: ('A' for Active; 'I' for Inactive)
ROOT
HETATM    1  C1  UNL     1     -32.841   6.845   2.866  1.00 20.00     0.124 C 
HETATM    2  C2  UNL     1     -34.765   5.427   3.294  1.00 20.00     0.024 C 
HETATM    3  C3  UNL     1     -33.736   6.156   3.715  1.00 20.00     0.145 C 
HETATM    4  C4  UNL     1     -35.431   4.826   4.469  1.00 20.00     0.057 C 
HETATM    5  C5  UNL     1     -34.736   5.561   5.610  1.00 20.00     0.180 C 
HETATM    6  N6  UNL     1     -32.106   7.412   2.169  1.00 20.00    -0.189 NA
HETATM    7  O7  UNL     1     -33.546   6.187   5.091  1.00 20.00    -0.341 OA
ENDROOT
TORSDOF 0
