REMARK  0 active torsions:
REMARK  status: ('A' for Active; 'I' for Inactive)
ROOT
HETATM    1  C1  UNL     1     -32.820   5.887   3.987  1.00 20.00     0.102 C 
HETATM    2  C2  UNL     1     -34.296   6.689   5.793  1.00 20.00     0.068 C 
HETATM    3  C3  UNL     1     -34.384   4.293   5.034  1.00 20.00     0.068 C 
HETATM    4  C4  UNL     1     -34.139   5.736   4.617  1.00 20.00     0.183 C 
HETATM    5  N5  UNL     1     -31.779   6.007   3.488  1.00 20.00    -0.194 NA
HETATM    6  F6  UNL     1     -35.080   6.066   3.686  1.00 20.00    -0.228 F 
ENDROOT
TORSDOF 0
