REMARK  0 active torsions:
REMARK  status: ('A' for Active; 'I' for Inactive)
ROOT
HETATM    1  C1  UNL     1     -34.199   3.783   6.003  1.00 20.00    -0.030 C 
HETATM    2  C2  UNL     1     -35.041   4.181   5.040  1.00 20.00    -0.023 C 
HETATM    3  C3  UNL     1     -33.189   6.596   4.246  1.00 20.00     0.150 C 
HETATM    4  C4  UNL     1     -33.251   4.694   6.720  1.00 20.00     0.027 C 
HETATM    5  C5  UNL     1     -33.739   6.140   6.762  1.00 20.00     0.016 C 
HETATM    6  C6  UNL     1     -35.058   5.593   4.563  1.00 20.00     0.045 C 
HETATM    7  C7  UNL     1     -34.213   6.611   5.398  1.00 20.00     0.067 C 
HETATM    8  C8  UNL     1     -34.185   5.898   3.294  1.00 20.00     0.160 C 
HETATM    9  O9  UNL     1     -32.047   6.988   4.134  1.00 20.00    -0.296 OA
HETATM   10 CL10 UNL     1     -33.474   4.588   2.314  1.00 20.00    -0.116 Cl
ENDROOT
TORSDOF 0
