REMARK  0 active torsions:
REMARK  status: ('A' for Active; 'I' for Inactive)
ROOT
HETATM    1  C1  UNL     1     -33.375   6.646   5.172  1.00 20.00     0.026 C 
HETATM    2  C2  UNL     1     -33.623   5.705   2.814  1.00 20.00     0.026 C 
HETATM    3  C3  UNL     1     -34.587   5.896   5.711  1.00 20.00     0.075 C 
HETATM    4  C4  UNL     1     -34.855   4.878   3.163  1.00 20.00     0.075 C 
HETATM    5  C5  UNL     1     -33.491   6.954   3.681  1.00 20.00     0.059 C 
HETATM    6  S6  UNL     1     -34.815   4.296   4.882  1.00 20.00    -0.169 SA
HETATM    7 BR7  UNL     1     -31.893   7.942   3.118  1.00 20.00    -0.091 Br
ENDROOT
TORSDOF 0
