REMARK  0 active torsions:
REMARK  status: ('A' for Active; 'I' for Inactive)
ROOT
HETATM    1  C1  UNL     1     -32.904   7.860   4.203  1.00 20.00    -0.013 C 
HETATM    2  C2  UNL     1     -33.715   7.047   4.881  1.00 20.00    -0.066 C 
HETATM    3  C3  UNL     1     -32.889   7.294   2.836  1.00 20.00     0.156 C 
HETATM    4  C4  UNL     1     -33.919   6.851   6.344  1.00 20.00     0.036 C 
HETATM    5  C5  UNL     1     -33.629   5.979   2.761  1.00 20.00     0.093 C 
HETATM    6  C6  UNL     1     -34.446   5.407   6.412  1.00 20.00     0.009 C 
HETATM    7  C7  UNL     1     -34.361   5.954   4.090  1.00 20.00     0.026 C 
HETATM    8  C8  UNL     1     -34.132   4.781   5.037  1.00 20.00    -0.010 C 
HETATM    9  C9  UNL     1     -32.050   8.981   4.644  1.00 20.00     0.052 C 
HETATM   10  C10 UNL     1     -35.004   3.578   4.718  1.00 20.00     0.010 C 
HETATM   11  O11 UNL     1     -32.298   7.811   1.898  1.00 20.00    -0.293 OA
ENDROOT
TORSDOF 0
