REMARK  0 active torsions:
REMARK  status: ('A' for Active; 'I' for Inactive)
ROOT
HETATM    1  C1  UNL     1     -35.975   5.460   3.761  1.00 20.00     0.223 A 
HETATM    2  C2  UNL     1     -34.450   5.690   3.820  1.00 20.00     0.096 A 
HETATM    3  C3  UNL     1     -34.479   4.707   5.027  1.00 20.00     0.093 A 
HETATM    4  C4  UNL     1     -33.672   5.240   2.599  1.00 20.00     0.022 C 
HETATM    5  C5  UNL     1     -34.096   5.267   6.381  1.00 20.00     0.033 C 
HETATM    6  N6  UNL     1     -35.928   4.658   4.858  1.00 20.00    -0.356 N 
HETATM    7  O7  UNL     1     -36.889   5.818   3.054  1.00 20.00    -0.273 OA
HETATM    8  H16 UNL     1     -36.666   4.152   5.328  1.00 20.00     0.162 HD
ENDROOT
TORSDOF 0
