REMARK  0 active torsions:
REMARK  status: ('A' for Active; 'I' for Inactive)
ROOT
HETATM    1  C1  UNL     1     -35.299   5.552   4.172  1.00 20.00     0.223 A 
HETATM    2  C2  UNL     1     -34.121   6.272   4.861  1.00 20.00     0.096 A 
HETATM    3  C3  UNL     1     -34.437   5.344   6.076  1.00 20.00     0.093 A 
HETATM    4  C4  UNL     1     -32.786   6.158   4.152  1.00 20.00     0.022 C 
HETATM    5  C5  UNL     1     -33.456   4.269   6.499  1.00 20.00     0.033 C 
HETATM    6  N6  UNL     1     -35.517   4.783   5.271  1.00 20.00    -0.356 N 
HETATM    7  O7  UNL     1     -35.848   5.604   3.095  1.00 20.00    -0.273 OA
HETATM    8  H16 UNL     1     -36.207   4.063   5.437  1.00 20.00     0.162 HD
ENDROOT
TORSDOF 0
