REMARK  2 active torsions:
REMARK  status: ('A' for Active; 'I' for Inactive)
REMARK    1  A    between atoms: C2_2  and  O12_12 
REMARK    2  A    between atoms: C7_7  and  O12_12 
ROOT
HETATM    1  C3  UNL     1     -32.342   6.444   5.024  1.00 20.00     0.036 C 
HETATM    2  C4  UNL     1     -34.598   5.678   5.860  1.00 20.00     0.013 C 
HETATM    3  C5  UNL     1     -33.616   4.654   3.755  1.00 20.00     0.041 C 
HETATM    4  C6  UNL     1     -33.637   6.870   5.729  1.00 20.00    -0.015 C 
HETATM    5  C7  UNL     1     -32.605   5.800   3.663  1.00 20.00     0.128 C 
HETATM    6  C8  UNL     1     -34.924   4.995   4.512  1.00 20.00    -0.045 C 
HETATM    7  C9  UNL     1     -33.326   7.458   7.106  1.00 20.00     0.010 C 
HETATM    8  C10 UNL     1     -35.684   3.681   4.793  1.00 20.00     0.015 C 
HETATM    9  C11 UNL     1     -35.851   5.888   3.664  1.00 20.00     0.015 C 
ENDROOT
BRANCH   5  10
HETATM   10  O12 UNL     1     -33.067   6.777   2.736  1.00 20.00    -0.359 OA
BRANCH  10  11
HETATM   11  C2  UNL     1     -32.122   7.554   2.225  1.00 20.00     0.125 C 
HETATM   12  C1  UNL     1     -32.301   8.816   1.829  1.00 20.00     0.037 C 
ENDBRANCH  10  11
ENDBRANCH   5  10
TORSDOF 2
