REMARK  2 active torsions:
REMARK  status: ('A' for Active; 'I' for Inactive)
REMARK    1  A    between atoms: C1_1  and  C3_3 
REMARK    2  A    between atoms: C5_5  and  O10_10 
ROOT
HETATM    1  C2  UNL     1     -32.829   6.845   4.548  1.00 20.00     0.074 C 
HETATM    2  C3  UNL     1     -33.478   5.492   4.714  1.00 20.00     0.080 C 
HETATM    3  C4  UNL     1     -34.208   5.314   3.385  1.00 20.00     0.131 C 
HETATM    4  C5  UNL     1     -32.456   6.843   3.078  1.00 20.00     0.260 C 
HETATM    5  C6  UNL     1     -35.632   5.860   3.332  1.00 20.00     0.040 C 
HETATM    6  O9  UNL     1     -33.436   6.040   2.407  1.00 20.00    -0.356 OA
ENDROOT
BRANCH   2   7
HETATM    7  C1  UNL     1     -34.351   5.413   5.925  1.00 20.00     0.238 C 
HETATM    8  O8  UNL     1     -34.494   6.338   6.717  1.00 20.00    -0.306 OA
ENDBRANCH   2   7
BRANCH   4   9
HETATM    9  O10 UNL     1     -32.428   8.173   2.589  1.00 20.00    -0.366 OA
HETATM   10  C7  UNL     1     -32.082   8.214   1.212  1.00 20.00     0.204 C 
ENDBRANCH   4   9
TORSDOF 2
