REMARK  0 active torsions:
REMARK  status: ('A' for Active; 'I' for Inactive)
ROOT
HETATM    1  C1  UNL     1     -34.997   5.530   5.421  1.00 20.00     0.223 A 
HETATM    2  C2  UNL     1     -34.434   6.465   4.329  1.00 20.00     0.096 A 
HETATM    3  C3  UNL     1     -35.411   5.717   3.369  1.00 20.00     0.093 A 
HETATM    4  C4  UNL     1     -32.937   6.373   4.104  1.00 20.00     0.022 C 
HETATM    5  C5  UNL     1     -34.875   4.821   2.271  1.00 20.00     0.033 C 
HETATM    6  N6  UNL     1     -35.831   4.935   4.527  1.00 20.00    -0.356 N 
HETATM    7  O7  UNL     1     -34.810   5.350   6.602  1.00 20.00    -0.273 OA
HETATM    8  H16 UNL     1     -36.498   4.186   4.657  1.00 20.00     0.162 HD
ENDROOT
TORSDOF 0
