REMARK  2 active torsions:
REMARK  status: ('A' for Active; 'I' for Inactive)
REMARK    1  A    between atoms: C2_2  and  O12_12 
REMARK    2  A    between atoms: C7_7  and  O12_12 
ROOT
HETATM    1  C3  UNL     1     -31.681   7.737   2.200  1.00 20.00     0.036 C 
HETATM    2  C4  UNL     1     -32.670   6.188   3.954  1.00 20.00     0.013 C 
HETATM    3  C5  UNL     1     -34.065   6.957   1.976  1.00 20.00     0.041 C 
HETATM    4  C6  UNL     1     -31.612   7.265   3.655  1.00 20.00    -0.015 C 
HETATM    5  C7  UNL     1     -33.092   8.115   1.758  1.00 20.00     0.128 C 
HETATM    6  C8  UNL     1     -34.105   6.453   3.433  1.00 20.00    -0.045 C 
HETATM    7  C9  UNL     1     -31.639   8.438   4.637  1.00 20.00     0.010 C 
HETATM    8  C10 UNL     1     -34.863   7.449   4.330  1.00 20.00     0.015 C 
HETATM    9  C11 UNL     1     -34.890   5.123   3.474  1.00 20.00     0.015 C 
ENDROOT
BRANCH   5  10
HETATM   10  O12 UNL     1     -33.080   8.431   0.368  1.00 20.00    -0.359 OA
BRANCH  10  11
HETATM   11  C2  UNL     1     -32.647   9.649   0.075  1.00 20.00     0.125 C 
HETATM   12  C1  UNL     1     -32.021   9.988  -1.055  1.00 20.00     0.037 C 
ENDBRANCH  10  11
ENDBRANCH   5  10
TORSDOF 2
