REMARK  2 active torsions:
REMARK  status: ('A' for Active; 'I' for Inactive)
REMARK    1  A    between atoms: C7_7  and  C9_9 
REMARK    2  A    between atoms: C9_9  and  C10_10 
ROOT
HETATM    1  C1  UNL     1     -36.247   5.118   3.988  1.00 20.00     0.064 C 
HETATM    2  C2  UNL     1     -34.526   5.564   2.205  1.00 20.00     0.019 C 
HETATM    3  C3  UNL     1     -34.059   6.199   4.605  1.00 20.00     0.019 C 
HETATM    4  C4  UNL     1     -33.037   5.695   1.878  1.00 20.00     0.006 C 
HETATM    5  C5  UNL     1     -32.569   6.331   4.283  1.00 20.00     0.006 C 
HETATM    6  C6  UNL     1     -34.754   5.195   3.676  1.00 20.00     0.093 C 
HETATM    7  C7  UNL     1     -32.300   6.664   2.810  1.00 20.00    -0.014 C 
HETATM    8  N11 UNL     1     -37.382   5.059   4.224  1.00 20.00    -0.197 NA
ENDROOT
BRANCH   7   9
HETATM    9  C9  UNL     1     -32.660   8.063   2.510  1.00 20.00     0.004 C 
BRANCH   9  10
HETATM   10  C10 UNL     1     -32.263   8.443   1.088  1.00 20.00    -0.004 C 
HETATM   11  C8  UNL     1     -32.657   9.876   0.770  1.00 20.00     0.005 C 
ENDBRANCH   9  10
ENDBRANCH   7   9
TORSDOF 2
