REMARK  1 active torsions:
REMARK  status: ('A' for Active; 'I' for Inactive)
REMARK    1  A    between atoms: C8_8  and  C11_11 
ROOT
HETATM    1  C1  UNL     1     -32.568   6.841   3.015  1.00 20.00     0.136 C 
HETATM    2  C2  UNL     1     -34.431   5.423   2.304  1.00 20.00     0.017 C 
HETATM    3  C3  UNL     1     -34.850   7.080   4.306  1.00 20.00     0.018 C 
HETATM    4  C4  UNL     1     -32.696   4.592   3.701  1.00 20.00     0.023 C 
HETATM    5  C5  UNL     1     -32.899   5.463   2.453  1.00 20.00     0.057 C 
HETATM    6  C6  UNL     1     -33.319   6.849   4.422  1.00 20.00     0.065 C 
HETATM    7  C7  UNL     1     -34.932   5.622   3.760  1.00 20.00    -0.003 C 
HETATM    8  C8  UNL     1     -33.673   5.320   4.641  1.00 20.00    -0.023 C 
HETATM    9  O12 UNL     1     -31.901   7.691   2.450  1.00 20.00    -0.297 OA
ENDROOT
BRANCH   8  10
HETATM   10  C11 UNL     1     -33.810   4.748   6.027  1.00 20.00    -0.013 C 
HETATM   11  C9  UNL     1     -34.780   5.577   6.880  1.00 20.00     0.010 C 
HETATM   12  C10 UNL     1     -34.275   3.286   5.984  1.00 20.00     0.010 C 
ENDBRANCH   8  10
TORSDOF 1
