REMARK  1 active torsions:
REMARK  status: ('A' for Active; 'I' for Inactive)
REMARK    1  A    between atoms: C1_1  and  C3_3 
ROOT
HETATM    1  C2  UNL     1     -32.020   5.769   3.447  1.00 20.00     0.084 A 
HETATM    2  C3  UNL     1     -33.474   6.154   3.633  1.00 20.00     0.087 A 
HETATM    3  C4  UNL     1     -32.388   7.220   3.561  1.00 20.00     0.195 A 
HETATM    4  C5  UNL     1     -34.396   5.936   2.458  1.00 20.00     0.029 C 
HETATM    5  F7  UNL     1     -32.046   7.829   4.766  1.00 20.00    -0.224 F 
HETATM    6 CL9  UNL     1     -32.215   8.242   2.145  1.00 20.00    -0.081 Cl
ENDROOT
BRANCH   2   7
HETATM    7  C1  UNL     1     -34.064   5.917   4.972  1.00 20.00     0.231 C 
HETATM    8  O6  UNL     1     -33.612   6.452   5.980  1.00 20.00    -0.279 OA
HETATM    9 CL8  UNL     1     -35.416   4.828   4.908  1.00 20.00    -0.043 Cl
ENDBRANCH   2   7
TORSDOF 1
