REMARK  1 active torsions:
REMARK  status: ('A' for Active; 'I' for Inactive)
REMARK    1  A    between atoms: C7_7  and  C11_11 
ROOT
HETATM    1  C1  UNL     1     -32.142   8.622   1.349  1.00 20.00     0.063 C 
HETATM    2  C11 UNL     1     -31.788   8.384   2.756  1.00 20.00     0.162 C 
HETATM    3  N12 UNL     1     -32.420   8.811   0.238  1.00 20.00    -0.197 NA
ENDROOT
BRANCH   2   4
HETATM    4  C7  UNL     1     -32.615   7.279   3.325  1.00 20.00    -0.045 A 
HETATM    5  C3  UNL     1     -33.075   6.253   2.484  1.00 20.00     0.009 A 
HETATM    6  C2  UNL     1     -33.855   5.212   2.992  1.00 20.00     0.008 A 
HETATM    7  C5  UNL     1     -34.151   5.214   4.345  1.00 20.00    -0.052 A 
HETATM    8  C6  UNL     1     -33.692   6.237   5.183  1.00 20.00    -0.051 A 
HETATM    9  C8  UNL     1     -34.991   4.238   5.106  1.00 20.00     0.039 C 
HETATM   10  C4  UNL     1     -32.929   7.279   4.686  1.00 20.00     0.015 A 
HETATM   11  C9  UNL     1     -34.185   6.041   6.582  1.00 20.00     0.039 C 
HETATM   12  C10 UNL     1     -34.581   4.557   6.552  1.00 20.00     0.009 C 
ENDBRANCH   2   4
TORSDOF 1
