REMARK  2 active torsions:
REMARK  status: ('A' for Active; 'I' for Inactive)
REMARK    1  A    between atoms: C2_2  and  C5_5 
REMARK    2  A    between atoms: C2_2  and  O9_9 
ROOT
HETATM    1  C1  UNL     1     -34.721   5.353   5.065  1.00 20.00     0.140 C 
HETATM    2  C3  UNL     1     -34.125   5.427   6.481  1.00 20.00     0.080 C 
HETATM    3  C4  UNL     1     -33.433   6.738   6.044  1.00 20.00     0.030 C 
HETATM    4  C5  UNL     1     -34.271   6.793   4.739  1.00 20.00     0.155 C 
HETATM    5  O7  UNL     1     -35.313   4.491   4.451  1.00 20.00    -0.297 OA
ENDROOT
BRANCH   4   6
HETATM    6  C2  UNL     1     -33.546   6.835   3.394  1.00 20.00     0.269 C 
HETATM    7  O8  UNL     1     -33.444   5.877   2.640  1.00 20.00    -0.264 OA
BRANCH   6   8
HETATM    8  O9  UNL     1     -33.045   8.086   3.186  1.00 20.00    -0.326 OA
HETATM    9  C6  UNL     1     -32.336   8.268   1.956  1.00 20.00     0.213 C 
ENDBRANCH   6   8
ENDBRANCH   4   6
TORSDOF 2
