REMARK  1 active torsions:
REMARK  status: ('A' for Active; 'I' for Inactive)
REMARK    1  A    between atoms: C1_1  and  C7_7 
ROOT
HETATM    1  C2  UNL     1     -34.844   5.294   2.362  1.00 20.00     0.006 C 
HETATM    2  C3  UNL     1     -33.318   5.165   2.383  1.00 20.00     0.017 C 
HETATM    3  C4  UNL     1     -35.204   6.163   3.559  1.00 20.00     0.069 C 
HETATM    4  C5  UNL     1     -33.934   6.093   6.815  1.00 20.00     0.197 C 
HETATM    5  C6  UNL     1     -34.729   4.849   6.534  1.00 20.00     0.197 C 
HETATM    6  C7  UNL     1     -32.849   5.715   3.737  1.00 20.00     0.109 C 
HETATM    7  C8  UNL     1     -34.123   5.827   4.580  1.00 20.00     0.173 C 
HETATM    8  O10 UNL     1     -34.040   6.826   5.596  1.00 20.00    -0.352 OA
HETATM    9  O11 UNL     1     -34.396   4.548   5.180  1.00 20.00    -0.352 OA
ENDROOT
BRANCH   6  10
HETATM   10  C1  UNL     1     -32.165   7.037   3.544  1.00 20.00     0.241 C 
HETATM   11  O9  UNL     1     -32.443   7.816   2.638  1.00 20.00    -0.306 OA
ENDBRANCH   6  10
TORSDOF 1
