REMARK  2 active torsions:
REMARK  status: ('A' for Active; 'I' for Inactive)
REMARK    1  A    between atoms: C1_1  and  C3_3 
REMARK    2  A    between atoms: C2_2  and  C6_6 
ROOT
HETATM    1  C1  UNL     1     -33.262   6.455   3.477  1.00 20.00     0.046 C 
HETATM    2  C2  UNL     1     -33.475   6.212   4.777  1.00 20.00    -0.014 C 
ENDROOT
BRANCH   2   3
HETATM    3  C6  UNL     1     -34.529   5.278   5.275  1.00 20.00    -0.026 A 
HETATM    4  C4  UNL     1     -34.628   5.127   6.768  1.00 20.00     0.014 A 
HETATM    5  C5  UNL     1     -34.040   4.022   5.943  1.00 20.00     0.014 A 
HETATM    6  C8  UNL     1     -35.776   5.227   4.455  1.00 20.00     0.019 C 
ENDBRANCH   2   3
BRANCH   1   7
HETATM    7  C3  UNL     1     -32.194   7.398   3.046  1.00 20.00     0.145 C 
HETATM    8  C7  UNL     1     -32.425   8.144   1.758  1.00 20.00     0.096 C 
HETATM    9  O9  UNL     1     -31.162   7.559   3.694  1.00 20.00    -0.294 OA
ENDBRANCH   1   7
TORSDOF 2
