REMARK  0 active torsions:
REMARK  status: ('A' for Active; 'I' for Inactive)
ROOT
HETATM    1  C1  UNL     1     -32.562   8.115   2.429  1.00 20.00     0.015 C 
HETATM    2  C2  UNL     1     -33.022   7.106   2.889  1.00 20.00    -0.083 C 
HETATM    3  C3  UNL     1     -35.081   5.798   3.300  1.00 20.00     0.216 C 
HETATM    4  C4  UNL     1     -33.581   5.879   3.450  1.00 20.00     0.226 C 
HETATM    5  C5  UNL     1     -34.506   5.094   5.377  1.00 20.00     0.158 C 
HETATM    6  C6  UNL     1     -35.140   5.886   6.515  1.00 20.00     0.078 C 
HETATM    7  C7  UNL     1     -34.022   3.731   5.854  1.00 20.00     0.078 C 
HETATM    8  O8  UNL     1     -35.474   4.899   4.337  1.00 20.00    -0.352 OA
HETATM    9  O9  UNL     1     -33.389   5.840   4.868  1.00 20.00    -0.336 OA
ENDROOT
TORSDOF 0
