REMARK  0 active torsions:
REMARK  status: ('A' for Active; 'I' for Inactive)
ROOT
HETATM    1  C1  UNL     1     -32.486  10.003   1.155  1.00 20.00     0.015 C 
HETATM    2  C2  UNL     1     -32.579   8.874   1.551  1.00 20.00    -0.083 C 
HETATM    3  C3  UNL     1     -31.639   7.148   3.054  1.00 20.00     0.216 C 
HETATM    4  C4  UNL     1     -32.693   7.500   2.033  1.00 20.00     0.226 C 
HETATM    5  C5  UNL     1     -33.632   6.307   3.731  1.00 20.00     0.158 C 
HETATM    6  C6  UNL     1     -34.106   6.802   5.092  1.00 20.00     0.078 C 
HETATM    7  C7  UNL     1     -34.335   5.014   3.336  1.00 20.00     0.078 C 
HETATM    8  O8  UNL     1     -32.219   6.064   3.779  1.00 20.00    -0.352 OA
HETATM    9  O9  UNL     1     -33.919   7.318   2.751  1.00 20.00    -0.336 OA
ENDROOT
TORSDOF 0
