REMARK  2 active torsions:
REMARK  status: ('A' for Active; 'I' for Inactive)
REMARK    1  A    between atoms: C2_2  and  C5_5 
REMARK    2  A    between atoms: C5_5  and  O6_6 
ROOT
HETATM    1  C1  UNL     1     -32.883   4.958   4.987  1.00 20.00     0.097 A 
HETATM    2  C2  UNL     1     -34.128   5.555   5.623  1.00 20.00     0.049 A 
HETATM    3  C3  UNL     1     -33.777   5.850   4.202  1.00 20.00     0.254 A 
HETATM    4  C4  UNL     1     -33.945   6.648   6.639  1.00 20.00     0.024 C 
HETATM    5  F7  UNL     1     -33.346   7.100   3.819  1.00 20.00    -0.205 F 
HETATM    6  F8  UNL     1     -34.524   5.342   3.163  1.00 20.00    -0.205 F 
ENDROOT
BRANCH   2   7
HETATM    7  C5  UNL     1     -35.291   4.640   5.890  1.00 20.00     0.179 C 
BRANCH   7   8
HETATM    8  O6  UNL     1     -35.450   3.746   4.794  1.00 20.00    -0.400 OA
HETATM    9  H16 UNL     1     -36.206   3.177   5.007  1.00 20.00     0.209 HD
ENDBRANCH   7   8
ENDBRANCH   2   7
TORSDOF 2
