REMARK  1 active torsions:
REMARK  status: ('A' for Active; 'I' for Inactive)
REMARK    1  A    between atoms: C2_2  and  C5_5 
ROOT
HETATM    1  C1  UNL     1     -33.960   5.159   5.055  1.00 20.00     0.153 A 
HETATM    2  C2  UNL     1     -34.444   5.845   3.791  1.00 20.00     0.096 A 
HETATM    3  C3  UNL     1     -34.846   4.360   5.943  1.00 20.00     0.042 C 
HETATM    4  C4  UNL     1     -35.871   5.755   3.352  1.00 20.00     0.050 C 
HETATM    5  O6  UNL     1     -34.253   6.562   5.021  1.00 20.00    -0.369 OA
ENDROOT
BRANCH   2   6
HETATM    6  C5  UNL     1     -33.441   6.186   2.733  1.00 20.00     0.154 C 
HETATM    7 CL7  UNL     1     -32.567   7.686   3.140  1.00 20.00    -0.127 Cl
ENDBRANCH   2   6
TORSDOF 1
