REMARK  3 active torsions:
REMARK  status: ('A' for Active; 'I' for Inactive)
REMARK    1  A    between atoms: C1_1  and  C4_4 
REMARK    2  A    between atoms: C2_2  and  C5_5 
REMARK    3  A    between atoms: C2_2  and  O9_9 
ROOT
HETATM    1  C3  UNL     1     -35.558   5.783   3.522  1.00 20.00     0.028 A 
HETATM    2  C4  UNL     1     -34.210   5.250   3.123  1.00 20.00     0.061 A 
HETATM    3  C5  UNL     1     -34.899   4.721   4.358  1.00 20.00     0.097 A 
ENDROOT
BRANCH   3   4
HETATM    4  C2  UNL     1     -34.406   5.064   5.697  1.00 20.00     0.263 C 
HETATM    5  O8  UNL     1     -34.451   4.307   6.658  1.00 20.00    -0.265 OA
BRANCH   4   6
HETATM    6  O9  UNL     1     -33.904   6.331   5.688  1.00 20.00    -0.326 OA
HETATM    7  C6  UNL     1     -33.387   6.797   6.938  1.00 20.00     0.213 C 
ENDBRANCH   4   6
ENDBRANCH   3   4
BRANCH   2   8
HETATM    8  C1  UNL     1     -33.033   6.120   3.233  1.00 20.00     0.236 C 
HETATM    9  O7  UNL     1     -33.094   7.344   3.223  1.00 20.00    -0.306 OA
ENDBRANCH   2   8
TORSDOF 3
