REMARK  3 active torsions:
REMARK  status: ('A' for Active; 'I' for Inactive)
REMARK    1  A    between atoms: C4_4  and  C10_10 
REMARK    2  A    between atoms: C8_8  and  C10_10 
REMARK    3  A    between atoms: C8_8  and  O11_11 
ROOT
HETATM    1  C1  UNL     1     -35.180   4.925   6.201  1.00 20.00    -0.030 C 
HETATM    2  C2  UNL     1     -35.308   4.302   5.022  1.00 20.00    -0.028 C 
HETATM    3  C5  UNL     1     -34.301   6.121   6.405  1.00 20.00     0.030 C 
HETATM    4  C6  UNL     1     -34.610   4.750   3.769  1.00 20.00     0.065 C 
HETATM    5  C7  UNL     1     -33.328   6.362   5.244  1.00 20.00     0.042 C 
HETATM    6  C8  UNL     1     -34.000   6.162   3.878  1.00 20.00     0.068 C 
ENDROOT
BRANCH   6   7
HETATM    7  C10 UNL     1     -33.003   6.409   2.743  1.00 20.00     0.038 C 
HETATM    8  C9  UNL     1     -31.894   5.357   2.767  1.00 20.00     0.017 C 
BRANCH   7   9
HETATM    9  C4  UNL     1     -32.415   7.791   2.859  1.00 20.00    -0.030 C 
HETATM   10  C3  UNL     1     -32.547   8.739   1.925  1.00 20.00     0.007 C 
ENDBRANCH   7   9
ENDBRANCH   6   7
BRANCH   6  11
HETATM   11  O11 UNL     1     -35.046   7.133   3.751  1.00 20.00    -0.389 OA
HETATM   12  H27 UNL     1     -35.444   6.988   2.882  1.00 20.00     0.210 HD
ENDBRANCH   6  11
TORSDOF 3
