REMARK  0 active torsions:
REMARK  status: ('A' for Active; 'I' for Inactive)
ROOT
HETATM    1  C1  UNL     1     -36.288   5.631   3.874  1.00 20.00     0.280 C 
HETATM    2  C2  UNL     1     -35.376   6.383   2.914  1.00 20.00     0.104 C 
HETATM    3  C3  UNL     1     -33.419   5.772   4.712  1.00 20.00     0.114 C 
HETATM    4  C4  UNL     1     -34.514   5.016   5.494  1.00 20.00     0.159 C 
HETATM    5  C5  UNL     1     -35.047   5.845   6.680  1.00 20.00     0.049 C 
HETATM    6  C6  UNL     1     -33.880   3.733   6.071  1.00 20.00     0.049 C 
HETATM    7  N7  UNL     1     -35.607   4.569   4.612  1.00 20.00     0.093 N 
HETATM    8  S8  UNL     1     -34.032   7.217   3.796  1.00 20.00    -0.165 SA
HETATM    9  H21 UNL     1     -36.297   4.055   5.162  1.00 20.00     0.316 HD
ENDROOT
TORSDOF 0
