REMARK  0 active torsions:
REMARK  status: ('A' for Active; 'I' for Inactive)
ROOT
HETATM    1  C1  UNL     1     -33.262   5.992   2.445  1.00 20.00     0.282 C 
HETATM    2  C2  UNL     1     -33.102   6.617   4.793  1.00 20.00     0.286 C 
HETATM    3  C3  UNL     1     -34.601   5.272   2.574  1.00 20.00     0.104 C 
HETATM    4  C4  UNL     1     -34.428   5.969   5.218  1.00 20.00     0.071 C 
HETATM    5  C5  UNL     1     -34.385   5.552   6.686  1.00 20.00     0.023 C 
HETATM    6  C6  UNL     1     -31.901   7.857   3.117  1.00 20.00     0.310 C 
HETATM    7  N7  UNL     1     -33.122   7.098   3.402  1.00 20.00     0.086 N 
HETATM    8  S8  UNL     1     -34.787   4.498   4.202  1.00 20.00    -0.161 SA
ENDROOT
TORSDOF 0
