REMARK  3 active torsions:
REMARK  status: ('A' for Active; 'I' for Inactive)
REMARK    1  A    between atoms: C2_2  and  C3_3 
REMARK    2  A    between atoms: C3_3  and  N8_8 
REMARK    3  A    between atoms: C7_7  and  N8_8 
ROOT
HETATM    1  C3  UNL     1     -34.276   5.670   4.447  1.00 20.00     0.102 C 
HETATM    2  S9  UNL     1     -35.570   5.842   3.384  1.00 20.00    -0.060 SA
ENDROOT
BRANCH   1   3
HETATM    3  C2  UNL     1     -34.376   4.951   5.748  1.00 20.00    -0.034 C 
HETATM    4  C1  UNL     1     -34.118   5.650   6.861  1.00 20.00     0.021 C 
HETATM    5  C4  UNL     1     -34.738   3.501   5.727  1.00 20.00     0.050 C 
ENDBRANCH   1   3
BRANCH   1   6
HETATM    6  N8  UNL     1     -33.053   6.219   4.128  1.00 20.00    -0.377 N 
HETATM    7  H22 UNL     1     -32.309   6.090   4.807  1.00 20.00     0.160 HD
BRANCH   6   8
HETATM    8  C7  UNL     1     -32.707   6.940   2.918  1.00 20.00     0.074 C 
HETATM    9  C5  UNL     1     -32.218   5.949   1.870  1.00 20.00     0.031 C 
HETATM   10  C6  UNL     1     -31.645   7.978   3.250  1.00 20.00     0.031 C 
ENDBRANCH   6   8
ENDBRANCH   1   6
TORSDOF 3
