REMARK  2 active torsions:
REMARK  status: ('A' for Active; 'I' for Inactive)
REMARK    1  A    between atoms: C2_2  and  C4_4 
REMARK    2  A    between atoms: C3_3  and  C5_5 
ROOT
HETATM    1  C1  UNL     1     -32.964   5.711   2.549  1.00 20.00     0.133 A 
HETATM    2  C2  UNL     1     -32.408   6.807   3.175  1.00 20.00     0.016 A 
HETATM    3  C3  UNL     1     -33.659   5.314   4.591  1.00 20.00     0.181 A 
HETATM    4  N6  UNL     1     -33.682   4.853   3.360  1.00 20.00    -0.248 NA
HETATM    5  S10 UNL     1     -32.793   6.773   4.846  1.00 20.00    -0.068 SA
ENDROOT
BRANCH   3   6
HETATM    6  C5  UNL     1     -34.322   4.661   5.742  1.00 20.00     0.441 C 
HETATM    7  F7  UNL     1     -34.983   3.503   5.423  1.00 20.00    -0.164 F 
HETATM    8  F8  UNL     1     -33.465   4.302   6.750  1.00 20.00    -0.164 F 
HETATM    9  F9  UNL     1     -35.263   5.455   6.341  1.00 20.00    -0.164 F 
ENDBRANCH   3   6
BRANCH   2  10
HETATM   10  C4  UNL     1     -31.593   7.903   2.615  1.00 20.00     0.162 C 
HETATM   11 CL11 UNL     1     -32.602   9.050   1.694  1.00 20.00    -0.125 Cl
ENDBRANCH   2  10
TORSDOF 2
