REMARK  2 active torsions:
REMARK  status: ('A' for Active; 'I' for Inactive)
REMARK       I    between atoms: C1_1  and  N6_6 
REMARK    1  A    between atoms: C4_4  and  C5_5 
REMARK    2  A    between atoms: C5_5  and  N6_6 
ROOT
HETATM    1  C1  UNL     1     -34.134   5.287   5.883  1.00 20.00     0.316 C 
HETATM    2  C3  UNL     1     -34.873   4.370   3.645  1.00 20.00     0.154 C 
HETATM    3  N6  UNL     1     -34.327   5.446   4.483  1.00 20.00    -0.343 N 
HETATM    4  O7  UNL     1     -34.412   4.242   6.476  1.00 20.00    -0.254 OA
HETATM    5 CL8  UNL     1     -33.463   6.662   6.741  1.00 20.00    -0.020 Cl
ENDROOT
BRANCH   3   6
HETATM    6  C5  UNL     1     -33.999   6.669   3.804  1.00 20.00     0.126 C 
BRANCH   6   7
HETATM    7  C4  UNL     1     -32.562   6.684   3.296  1.00 20.00     0.015 C 
HETATM    8  C2  UNL     1     -32.200   7.985   2.594  1.00 20.00     0.006 C 
ENDBRANCH   6   7
ENDBRANCH   3   6
TORSDOF 2
