REMARK  1 active torsions:
REMARK  status: ('A' for Active; 'I' for Inactive)
REMARK    1  A    between atoms: C3_3  and  C7_7 
REMARK       I    between atoms: C3_3  and  N8_8 
ROOT
HETATM    1  C1  UNL     1     -34.958   5.324   6.248  1.00 20.00    -0.010 A 
HETATM    2  C2  UNL     1     -33.931   6.120   6.562  1.00 20.00    -0.010 A 
HETATM    3  C3  UNL     1     -33.426   5.669   2.965  1.00 20.00     0.219 C 
HETATM    4  C4  UNL     1     -34.964   4.995   4.796  1.00 20.00     0.153 A 
HETATM    5  C5  UNL     1     -33.103   6.435   5.364  1.00 20.00     0.153 A 
HETATM    6  N8  UNL     1     -33.793   5.709   4.300  1.00 20.00    -0.345 N 
HETATM    7  O9  UNL     1     -34.041   5.043   2.100  1.00 20.00    -0.273 OA
ENDROOT
BRANCH   3   8
HETATM    8  C7  UNL     1     -32.193   6.458   2.607  1.00 20.00     0.098 C 
HETATM    9  C6  UNL     1     -32.578   7.858   2.196  1.00 20.00     0.014 C 
ENDBRANCH   3   8
TORSDOF 1
