REMARK  1 active torsions:
REMARK  status: ('A' for Active; 'I' for Inactive)
REMARK    1  A    between atoms: C2_2  and  C5_5 
ROOT
HETATM    1  C1  UNL     1     -32.544   6.786   2.612  1.00 20.00     0.153 A 
HETATM    2  C2  UNL     1     -33.569   6.016   3.425  1.00 20.00     0.096 A 
HETATM    3  C3  UNL     1     -31.891   8.034   3.089  1.00 20.00     0.042 C 
HETATM    4  C4  UNL     1     -34.511   5.100   2.707  1.00 20.00     0.050 C 
HETATM    5  O6  UNL     1     -32.194   5.607   3.349  1.00 20.00    -0.369 OA
ENDROOT
BRANCH   2   6
HETATM    6  C5  UNL     1     -33.994   6.477   4.783  1.00 20.00     0.154 C 
HETATM    7 CL7  UNL     1     -34.734   5.146   5.710  1.00 20.00    -0.127 Cl
ENDBRANCH   2   6
TORSDOF 1
