REMARK  3 active torsions:
REMARK  status: ('A' for Active; 'I' for Inactive)
REMARK    1  A    between atoms: C2_2  and  N9_9 
REMARK    2  A    between atoms: C3_3  and  C8_8 
REMARK    3  A    between atoms: C7_7  and  C8_8 
ROOT
HETATM    1  C3  UNL     1     -33.399   5.565   3.337  1.00 20.00     0.099 C 
HETATM    2  N9  UNL     1     -32.988   6.791   3.335  1.00 20.00    -0.277 NA
ENDROOT
BRANCH   1   3
HETATM    3  C8  UNL     1     -34.508   5.085   4.271  1.00 20.00    -0.001 C 
HETATM    4  C5  UNL     1     -34.222   3.602   4.564  1.00 20.00     0.021 C 
HETATM    5  C6  UNL     1     -34.525   5.856   5.600  1.00 20.00     0.021 C 
BRANCH   3   6
HETATM    6  C7  UNL     1     -35.858   5.189   3.535  1.00 20.00     0.129 C 
HETATM    7 CL10 UNL     1     -37.245   4.661   4.527  1.00 20.00    -0.129 Cl
ENDBRANCH   3   6
ENDBRANCH   1   3
BRANCH   2   8
HETATM    8  C2  UNL     1     -31.994   7.071   2.448  1.00 20.00     0.111 C 
HETATM    9  C1  UNL     1     -31.833   8.272   1.878  1.00 20.00    -0.012 C 
HETATM   10  C4  UNL     1     -32.719   9.443   2.145  1.00 20.00     0.037 C 
ENDBRANCH   2   8
TORSDOF 3
