REMARK  0 active torsions:
REMARK  status: ('A' for Active; 'I' for Inactive)
ROOT
HETATM    1  C1  UNL     1     -34.406   4.965   4.950  1.00 20.00     0.282 C 
HETATM    2  C2  UNL     1     -32.883   6.857   4.764  1.00 20.00     0.286 C 
HETATM    3  C3  UNL     1     -34.668   4.838   3.452  1.00 20.00     0.104 C 
HETATM    4  C4  UNL     1     -32.953   6.964   3.234  1.00 20.00     0.071 C 
HETATM    5  C5  UNL     1     -31.666   7.560   2.670  1.00 20.00     0.023 C 
HETATM    6  C6  UNL     1     -34.062   6.437   6.820  1.00 20.00     0.310 C 
HETATM    7  N7  UNL     1     -34.131   6.350   5.359  1.00 20.00     0.086 N 
HETATM    8  S8  UNL     1     -33.220   5.326   2.479  1.00 20.00    -0.161 SA
ENDROOT
TORSDOF 0
