REMARK  2 active torsions:
REMARK  status: ('A' for Active; 'I' for Inactive)
REMARK    1  A    between atoms: C1_1  and  C3_3 
REMARK    2  A    between atoms: C2_2  and  N9_9 
ROOT
HETATM    1  C1  UNL     1     -33.683   7.108   3.635  1.00 20.00     0.050 C 
HETATM    2  C2  UNL     1     -32.582   7.122   2.862  1.00 20.00     0.002 C 
HETATM    3  C4  UNL     1     -31.954   5.816   2.452  1.00 20.00     0.068 C 
ENDROOT
BRANCH   1   4
HETATM    4  C3  UNL     1     -34.322   5.846   4.114  1.00 20.00     0.026 C 
HETATM    5  C5  UNL     1     -35.385   5.267   3.206  1.00 20.00     0.070 C 
HETATM    6  N8  UNL     1     -33.942   5.297   5.220  1.00 20.00    -0.299 NA
HETATM    7  C6  UNL     1     -34.580   4.060   5.641  1.00 20.00     0.177 C 
ENDBRANCH   1   4
BRANCH   2   8
HETATM    8  N9  UNL     1     -31.955   8.239   2.381  1.00 20.00    -0.398 N 
HETATM    9  C7  UNL     1     -32.701   9.434   2.107  1.00 20.00     0.146 C 
HETATM   10  H23 UNL     1     -30.977   8.172   2.238  1.00 20.00     0.158 HD
ENDBRANCH   2   8
TORSDOF 2
