REMARK  1 active torsions:
REMARK  status: ('A' for Active; 'I' for Inactive)
REMARK    1  A    between atoms: C1_1  and  C9_9 
ROOT
HETATM    1  C1  UNL     1     -34.032   6.498   4.080  1.00 20.00     0.020 C 
HETATM    2  C2  UNL     1     -34.860   5.603   3.229  1.00 20.00     0.058 C 
HETATM    3  C3  UNL     1     -35.801   4.984   4.258  1.00 20.00     0.038 C 
HETATM    4  C4  UNL     1     -35.012   4.984   5.575  1.00 20.00     0.055 C 
HETATM    5  C5  UNL     1     -34.140   3.746   5.755  1.00 20.00     0.041 C 
HETATM    6  C6  UNL     1     -35.888   5.270   6.786  1.00 20.00     0.041 C 
HETATM    7  N10 UNL     1     -34.107   6.136   5.334  1.00 20.00    -0.224 N 
HETATM    8  O11 UNL     1     -33.448   6.687   6.272  1.00 20.00    -0.085 OA
ENDROOT
BRANCH   1   9
HETATM    9  C9  UNL     1     -33.138   7.577   3.607  1.00 20.00     0.025 C 
HETATM   10  C7  UNL     1     -31.714   7.054   3.391  1.00 20.00     0.016 C 
HETATM   11  C8  UNL     1     -33.666   8.219   2.318  1.00 20.00     0.016 C 
ENDBRANCH   1   9
TORSDOF 1
