REMARK  2 active torsions:
REMARK  status: ('A' for Active; 'I' for Inactive)
REMARK    1  A    between atoms: C5_5  and  C8_8 
REMARK    2  A    between atoms: C6_6  and  N9_9 
ROOT
HETATM    1  C1  UNL     1     -34.659   5.277   3.544  1.00 20.00     0.006 C 
HETATM    2  C2  UNL     1     -33.192   6.618   5.103  1.00 20.00     0.006 C 
HETATM    3  C3  UNL     1     -35.792   5.309   4.570  1.00 20.00     0.024 C 
HETATM    4  C4  UNL     1     -34.317   6.659   6.138  1.00 20.00     0.024 C 
HETATM    5  C5  UNL     1     -33.738   6.495   3.675  1.00 20.00    -0.015 C 
HETATM    6  C6  UNL     1     -35.297   5.493   6.004  1.00 20.00     0.109 C 
ENDROOT
BRANCH   5   7
HETATM    7  C8  UNL     1     -32.593   6.415   2.666  1.00 20.00     0.000 C 
HETATM    8  C7  UNL     1     -31.703   7.611   2.746  1.00 20.00     0.005 C 
ENDBRANCH   5   7
BRANCH   6   9
HETATM    9  N9  UNL     1     -34.662   4.254   6.474  1.00 20.00    -0.059 NA
HETATM   10  O10 UNL     1     -34.653   3.394   5.595  1.00 20.00    -0.101 OA
ENDBRANCH   6   9
TORSDOF 2
