REMARK  2 active torsions:
REMARK  status: ('A' for Active; 'I' for Inactive)
REMARK    1  A    between atoms: C2_2  and  C6_6 
REMARK    2  A    between atoms: C3_3  and  C7_7 
ROOT
HETATM    1  C1  UNL     1     -32.312   7.343   4.634  1.00 20.00     0.133 A 
HETATM    2  C2  UNL     1     -32.473   7.187   3.273  1.00 20.00     0.016 A 
HETATM    3  C3  UNL     1     -34.043   5.996   4.659  1.00 20.00     0.078 A 
HETATM    4  N8  UNL     1     -33.212   6.661   5.430  1.00 20.00    -0.257 NA
HETATM    5  S9  UNL     1     -33.801   6.144   2.966  1.00 20.00    -0.076 SA
ENDROOT
BRANCH   3   6
HETATM    6  C7  UNL     1     -35.176   5.124   5.168  1.00 20.00     0.037 C 
HETATM    7  C4  UNL     1     -35.270   5.159   6.695  1.00 20.00     0.016 C 
HETATM    8  C5  UNL     1     -35.051   3.685   4.661  1.00 20.00     0.016 C 
ENDBRANCH   3   6
BRANCH   2   9
HETATM    9  C6  UNL     1     -31.700   7.765   2.157  1.00 20.00     0.162 C 
HETATM   10 CL10 UNL     1     -32.602   9.084   1.364  1.00 20.00    -0.125 Cl
ENDBRANCH   2   9
TORSDOF 2
