REMARK  1 active torsions:
REMARK  status: ('A' for Active; 'I' for Inactive)
REMARK    1  A    between atoms: C5_5  and  C8_8 
ROOT
HETATM    1  C1  UNL     1     -32.977   7.058   4.970  1.00 20.00     0.052 C 
HETATM    2  C2  UNL     1     -32.944   6.139   3.993  1.00 20.00    -0.080 C 
HETATM    3  C3  UNL     1     -33.649   6.766   6.260  1.00 20.00     0.150 C 
HETATM    4  C6  UNL     1     -33.624   4.796   4.107  1.00 20.00     0.043 C 
HETATM    5  C7  UNL     1     -34.216   5.380   6.483  1.00 20.00     0.092 C 
HETATM    6  C8  UNL     1     -34.719   4.750   5.183  1.00 20.00     0.024 C 
HETATM    7  C9  UNL     1     -32.211   6.395   2.708  1.00 20.00     0.043 C 
HETATM    8  O11 UNL     1     -33.679   7.625   7.140  1.00 20.00    -0.293 OA
ENDROOT
BRANCH   6   9
HETATM    9  C5  UNL     1     -35.989   5.403   4.710  1.00 20.00    -0.088 C 
HETATM   10  C4  UNL     1     -35.979   6.438   3.857  1.00 20.00     0.014 C 
HETATM   11  C10 UNL     1     -37.268   4.830   5.247  1.00 20.00     0.043 C 
ENDBRANCH   6   9
TORSDOF 1
