REMARK  4 active torsions:
REMARK  status: ('A' for Active; 'I' for Inactive)
REMARK    1  A    between atoms: C1_1  and  C7_7 
REMARK    2  A    between atoms: C1_1  and  C8_8 
REMARK    3  A    between atoms: C7_7  and  O10_10 
REMARK    4  A    between atoms: C7_7  and  O11_11 
ROOT
HETATM    1  C1  UNL     1     -34.184   6.640   4.139  1.00 20.00     0.188 C 
HETATM    2  O9  UNL     1     -35.004   7.563   4.148  1.00 20.00    -0.292 OA
ENDROOT
BRANCH   1   3
HETATM    3  C7  UNL     1     -34.123   5.659   5.307  1.00 20.00     0.330 C 
BRANCH   3   4
HETATM    4  O10 UNL     1     -34.454   6.456   6.444  1.00 20.00    -0.359 OA
HETATM    5  C5  UNL     1     -33.346   7.217   6.905  1.00 20.00     0.205 C 
ENDBRANCH   3   4
BRANCH   3   6
HETATM    6  O11 UNL     1     -35.079   4.625   5.103  1.00 20.00    -0.359 OA
HETATM    7  C6  UNL     1     -34.794   3.461   5.868  1.00 20.00     0.205 C 
ENDBRANCH   3   6
ENDBRANCH   1   3
BRANCH   1   8
HETATM    8  C8  UNL     1     -33.239   6.419   2.938  1.00 20.00     0.015 C 
HETATM    9  C2  UNL     1     -33.540   5.044   2.326  1.00 20.00     0.023 C 
HETATM   10  C3  UNL     1     -33.502   7.504   1.877  1.00 20.00     0.023 C 
HETATM   11  C4  UNL     1     -31.766   6.501   3.356  1.00 20.00     0.023 C 
ENDBRANCH   1   8
TORSDOF 4
