REMARK  2 active torsions:
REMARK  status: ('A' for Active; 'I' for Inactive)
REMARK    1  A    between atoms: C4_4  and  C7_7 
REMARK    2  A    between atoms: C5_5  and  O8_8 
ROOT
HETATM    1  C1  UNL     1     -34.971   5.646   2.936  1.00 20.00     0.007 C 
HETATM    2  C2  UNL     1     -36.033   5.471   4.026  1.00 20.00     0.032 C 
HETATM    3  C3  UNL     1     -33.818   5.509   5.024  1.00 20.00     0.036 C 
HETATM    4  C4  UNL     1     -33.669   5.134   3.550  1.00 20.00    -0.012 C 
HETATM    5  C5  UNL     1     -35.273   5.167   5.320  1.00 20.00     0.118 C 
ENDROOT
BRANCH   4   6
HETATM    6  C7  UNL     1     -32.429   5.727   2.905  1.00 20.00     0.000 C 
HETATM    7  C6  UNL     1     -32.410   7.221   2.997  1.00 20.00     0.005 C 
ENDBRANCH   4   6
BRANCH   5   8
HETATM    8  O8  UNL     1     -35.369   3.778   5.619  1.00 20.00    -0.396 OA
HETATM    9  H22 UNL     1     -36.314   3.582   5.721  1.00 20.00     0.210 HD
ENDBRANCH   5   8
TORSDOF 2
