REMARK  1 active torsions:
REMARK  status: ('A' for Active; 'I' for Inactive)
REMARK    1  A    between atoms: C5_5  and  O10_10 
ROOT
HETATM    1  C1  UNL     1     -33.893   5.965   3.004  1.00 20.00     0.050 A 
HETATM    2  C2  UNL     1     -32.787   7.396   4.632  1.00 20.00     0.079 A 
HETATM    3  C3  UNL     1     -34.488   5.289   4.055  1.00 20.00    -0.046 A 
HETATM    4  C4  UNL     1     -34.235   5.653   5.383  1.00 20.00    -0.018 A 
HETATM    5  C5  UNL     1     -33.381   6.700   5.687  1.00 20.00     0.075 A 
HETATM    6  C6  UNL     1     -33.041   7.031   3.300  1.00 20.00     0.119 A 
HETATM    7  C7  UNL     1     -35.397   4.102   3.992  1.00 20.00     0.039 C 
HETATM    8  C8  UNL     1     -34.952   4.744   6.331  1.00 20.00     0.042 C 
HETATM    9  C9  UNL     1     -36.004   4.118   5.403  1.00 20.00     0.009 C 
HETATM   10  F11 UNL     1     -32.453   7.708   2.304  1.00 20.00    -0.206 F 
ENDROOT
BRANCH   5  11
HETATM   11  O10 UNL     1     -33.120   7.048   6.973  1.00 20.00    -0.360 OA
HETATM   12  H20 UNL     1     -32.503   7.798   7.003  1.00 20.00     0.217 HD
ENDBRANCH   5  11
TORSDOF 1
