REMARK  2 active torsions:
REMARK  status: ('A' for Active; 'I' for Inactive)
REMARK    1  A    between atoms: C4_4  and  C8_8 
REMARK    2  A    between atoms: C5_5  and  O9_9 
ROOT
HETATM    1  C1  UNL     1     -34.443   4.865   3.007  1.00 20.00     0.007 C 
HETATM    2  C2  UNL     1     -33.111   5.366   2.462  1.00 20.00     0.032 C 
HETATM    3  C3  UNL     1     -34.203   7.096   3.816  1.00 20.00     0.036 C 
HETATM    4  C4  UNL     1     -34.696   5.714   4.251  1.00 20.00    -0.009 C 
HETATM    5  C5  UNL     1     -33.018   6.834   2.885  1.00 20.00     0.118 C 
ENDROOT
BRANCH   4   6
HETATM    6  C8  UNL     1     -33.951   5.189   5.476  1.00 20.00    -0.019 C 
HETATM    7  C6  UNL     1     -34.201   6.084   6.691  1.00 20.00     0.010 C 
HETATM    8  C7  UNL     1     -34.360   3.748   5.786  1.00 20.00     0.010 C 
ENDBRANCH   4   6
BRANCH   5   9
HETATM    9  O9  UNL     1     -31.789   7.048   3.568  1.00 20.00    -0.396 OA
HETATM   10  H25 UNL     1     -31.082   6.820   2.945  1.00 20.00     0.210 HD
ENDBRANCH   5   9
TORSDOF 2
