REMARK  0 active torsions:
REMARK  status: ('A' for Active; 'I' for Inactive)
ROOT
HETATM    1  C1  UNL     1     -32.453   7.111   3.883  1.00 20.00     0.047 A 
HETATM    2  C2  UNL     1     -33.396   6.158   4.312  1.00 20.00     0.025 A 
HETATM    3  C3  UNL     1     -33.897   5.410   3.286  1.00 20.00    -0.002 A 
HETATM    4  C4  UNL     1     -32.281   7.034   2.510  1.00 20.00     0.075 A 
HETATM    5  C5  UNL     1     -34.001   5.734   5.545  1.00 20.00     0.161 A 
HETATM    6  C6  UNL     1     -34.895   4.390   3.684  1.00 20.00     0.055 A 
HETATM    7  C7  UNL     1     -34.984   4.596   5.229  1.00 20.00     0.089 A 
HETATM    8  O8  UNL     1     -33.774   6.197   6.651  1.00 20.00    -0.292 OA
HETATM    9  S9  UNL     1     -33.269   5.810   1.786  1.00 20.00    -0.082 SA
HETATM   10 CL10 UNL     1     -31.244   7.982   1.527  1.00 20.00    -0.076 Cl
ENDROOT
TORSDOF 0
