REMARK  2 active torsions:
REMARK  status: ('A' for Active; 'I' for Inactive)
REMARK    1  A    between atoms: C4_4  and  C8_8 
REMARK    2  A    between atoms: C5_5  and  O9_9 
ROOT
HETATM    1  C1  UNL     1     -32.747   4.838   5.112  1.00 20.00     0.007 C 
HETATM    2  C2  UNL     1     -34.020   4.572   5.924  1.00 20.00     0.032 C 
HETATM    3  C3  UNL     1     -34.392   6.434   4.420  1.00 20.00     0.036 C 
HETATM    4  C4  UNL     1     -33.194   5.646   3.894  1.00 20.00    -0.009 C 
HETATM    5  C5  UNL     1     -35.124   5.408   5.276  1.00 20.00     0.118 C 
ENDROOT
BRANCH   4   6
HETATM    6  C8  UNL     1     -32.097   6.532   3.328  1.00 20.00    -0.019 C 
HETATM    7  C6  UNL     1     -32.591   7.287   2.092  1.00 20.00     0.010 C 
HETATM    8  C7  UNL     1     -31.593   7.516   4.385  1.00 20.00     0.010 C 
ENDBRANCH   4   6
BRANCH   5   9
HETATM    9  O9  UNL     1     -35.915   4.561   4.448  1.00 20.00    -0.396 OA
HETATM   10  H25 UNL     1     -36.287   3.877   5.026  1.00 20.00     0.210 HD
ENDBRANCH   5   9
TORSDOF 2
