REMARK  1 active torsions:
REMARK  status: ('A' for Active; 'I' for Inactive)
REMARK    1  A    between atoms: C2_2  and  C6_6 
ROOT
HETATM    1  C1  UNL     1     -32.575   6.561   4.051  1.00 20.00     0.134 A 
HETATM    2  C2  UNL     1     -33.787   6.140   3.546  1.00 20.00     0.006 A 
HETATM    3  C3  UNL     1     -32.533   7.646   2.145  1.00 20.00     0.167 A 
HETATM    4  N7  UNL     1     -31.854   7.424   3.249  1.00 20.00    -0.240 NA
HETATM    5  S8  UNL     1     -34.047   6.849   2.006  1.00 20.00    -0.061 SA
HETATM    6 CL9  UNL     1     -31.976   8.668   0.887  1.00 20.00    -0.054 Cl
ENDROOT
BRANCH   2   7
HETATM    7  C6  UNL     1     -34.820   5.207   4.149  1.00 20.00     0.019 C 
HETATM    8  C4  UNL     1     -36.229   5.522   3.641  1.00 20.00     0.015 C 
HETATM    9  C5  UNL     1     -34.775   5.231   5.679  1.00 20.00     0.015 C 
ENDBRANCH   2   7
TORSDOF 1
