REMARK  2 active torsions:
REMARK  status: ('A' for Active; 'I' for Inactive)
REMARK    1  A    between atoms: C4_4  and  C7_7 
REMARK    2  A    between atoms: C5_5  and  O8_8 
ROOT
HETATM    1  C1  UNL     1     -34.262   6.591   6.577  1.00 20.00     0.007 C 
HETATM    2  C2  UNL     1     -35.225   5.410   6.613  1.00 20.00     0.032 C 
HETATM    3  C3  UNL     1     -33.271   4.898   5.219  1.00 20.00     0.036 C 
HETATM    4  C4  UNL     1     -33.483   6.413   5.276  1.00 20.00    -0.012 C 
HETATM    5  C5  UNL     1     -34.522   4.284   5.852  1.00 20.00     0.118 C 
ENDROOT
BRANCH   4   6
HETATM    6  C7  UNL     1     -34.246   6.939   4.062  1.00 20.00     0.000 C 
HETATM    7  C6  UNL     1     -33.500   6.705   2.787  1.00 20.00     0.005 C 
ENDBRANCH   4   6
BRANCH   5   8
HETATM    8  O8  UNL     1     -35.373   3.775   4.833  1.00 20.00    -0.396 OA
HETATM    9  H22 UNL     1     -36.168   3.441   5.277  1.00 20.00     0.210 HD
ENDBRANCH   5   8
TORSDOF 2
