REMARK  0 active torsions:
REMARK  status: ('A' for Active; 'I' for Inactive)
ROOT
HETATM    1  C1  UNL     1     -33.632   6.988   2.432  1.00 20.00     0.047 A 
HETATM    2  C2  UNL     1     -33.975   6.586   3.736  1.00 20.00     0.026 A 
HETATM    3  C3  UNL     1     -33.097   7.040   4.678  1.00 20.00    -0.001 A 
HETATM    4  C4  UNL     1     -32.473   7.748   2.452  1.00 20.00     0.075 A 
HETATM    5  C5  UNL     1     -35.005   5.814   4.380  1.00 20.00     0.175 A 
HETATM    6  C6  UNL     1     -33.422   6.659   6.077  1.00 20.00     0.071 A 
HETATM    7  C7  UNL     1     -34.688   5.769   5.883  1.00 20.00     0.137 A 
HETATM    8  O8  UNL     1     -35.947   5.277   3.819  1.00 20.00    -0.291 OA
HETATM    9  S9  UNL     1     -31.840   7.952   4.050  1.00 20.00    -0.082 SA
HETATM   10 CL10 UNL     1     -31.662   8.460   1.120  1.00 20.00    -0.076 Cl
HETATM   11 BR11 UNL     1     -34.307   3.914   6.304  1.00 20.00    -0.082 Br
ENDROOT
TORSDOF 0
