REMARK  2 active torsions:
REMARK  status: ('A' for Active; 'I' for Inactive)
REMARK    1  A    between atoms: C6_6  and  C8_8 
REMARK    2  A    between atoms: C7_7  and  C8_8 
ROOT
HETATM    1  C1  UNL     1     -34.905   4.437   6.226  1.00 20.00     0.001 A 
HETATM    2  C2  UNL     1     -34.184   5.483   6.927  1.00 20.00     0.001 A 
HETATM    3  C3  UNL     1     -34.944   4.721   4.915  1.00 20.00     0.013 A 
HETATM    4  C4  UNL     1     -33.778   6.413   6.047  1.00 20.00     0.013 A 
HETATM    5  C5  UNL     1     -34.237   5.975   4.744  1.00 20.00    -0.018 A 
HETATM    6  C7  UNL     1     -34.043   6.615   3.588  1.00 20.00     0.028 C 
HETATM    7 CL10 UNL     1     -34.707   5.975   2.121  1.00 20.00    -0.088 Cl
ENDROOT
BRANCH   6   8
HETATM    8  C8  UNL     1     -33.305   7.912   3.459  1.00 20.00     0.121 C 
BRANCH   8   9
HETATM    9  C6  UNL     1     -32.095   7.793   2.557  1.00 20.00     0.236 C 
HETATM   10  O9  UNL     1     -31.933   8.404   1.506  1.00 20.00    -0.307 OA
ENDBRANCH   8   9
ENDBRANCH   6   8
TORSDOF 2
