REMARK  4 active torsions:
REMARK  status: ('A' for Active; 'I' for Inactive)
REMARK    1  A    between atoms: C1_1  and  C7_7 
REMARK    2  A    between atoms: C1_1  and  O11_11 
REMARK    3  A    between atoms: C7_7  and  C8_8 
REMARK    4  A    between atoms: C8_8  and  C9_9 
ROOT
HETATM    1  C2  UNL     1     -33.410   7.485   5.794  1.00 20.00     0.011 C 
HETATM    2  C8  UNL     1     -33.486   6.230   4.904  1.00 20.00    -0.002 C 
ENDROOT
BRANCH   2   3
HETATM    3  C7  UNL     1     -33.822   6.662   3.456  1.00 20.00     0.116 C 
BRANCH   3   4
HETATM    4  C1  UNL     1     -32.853   7.688   2.902  1.00 20.00     0.258 C 
HETATM    5  O10 UNL     1     -31.656   7.504   2.731  1.00 20.00    -0.265 OA
BRANCH   4   6
HETATM    6  O11 UNL     1     -33.540   8.827   2.591  1.00 20.00    -0.326 OA
HETATM    7  C6  UNL     1     -32.759   9.880   2.016  1.00 20.00     0.213 C 
ENDBRANCH   4   6
ENDBRANCH   3   4
ENDBRANCH   2   3
BRANCH   2   8
HETATM    8  C9  UNL     1     -34.461   5.128   5.468  1.00 20.00    -0.048 C 
HETATM    9  C3  UNL     1     -33.726   3.824   5.831  1.00 20.00     0.015 C 
HETATM   10  C4  UNL     1     -35.560   4.793   4.435  1.00 20.00     0.015 C 
HETATM   11  C5  UNL     1     -35.178   5.649   6.734  1.00 20.00     0.015 C 
ENDBRANCH   2   8
TORSDOF 4
