REMARK  2 active torsions:
REMARK  status: ('A' for Active; 'I' for Inactive)
REMARK    1  A    between atoms: C2_2  and  C5_5 
REMARK    2  A    between atoms: C9_9  and  N10_10 
ROOT
HETATM    1  C3  UNL     1     -35.495   5.448   2.957  1.00 20.00     0.070 C 
HETATM    2  C4  UNL     1     -34.053   5.152   2.523  1.00 20.00     0.277 C 
HETATM    3  C5  UNL     1     -34.953   5.503   4.398  1.00 20.00     0.247 C 
HETATM    4  N10 UNL     1     -33.572   5.544   3.864  1.00 20.00     0.105 N 
ENDROOT
BRANCH   4   5
HETATM    5  C9  UNL     1     -33.074   6.920   3.841  1.00 20.00     0.150 C 
HETATM    6  C6  UNL     1     -34.207   7.862   3.417  1.00 20.00     0.048 C 
HETATM    7  C7  UNL     1     -32.582   7.298   5.242  1.00 20.00     0.048 C 
HETATM    8  C8  UNL     1     -31.918   7.024   2.839  1.00 20.00     0.048 C 
ENDBRANCH   4   5
BRANCH   3   9
HETATM    9  C2  UNL     1     -35.165   4.287   5.214  1.00 20.00    -0.002 C 
HETATM   10  C1  UNL     1     -35.117   4.265   6.551  1.00 20.00     0.009 C 
ENDBRANCH   3   9
TORSDOF 2
