REMARK  0 active torsions:
REMARK  status: ('A' for Active; 'I' for Inactive)
ROOT
HETATM    1  C1  UNL     1     -33.055   6.168   2.079  1.00 20.00     0.097 A 
HETATM    2  C2  UNL     1     -32.234   7.983   3.311  1.00 20.00     0.097 A 
HETATM    3  C3  UNL     1     -33.605   5.593   3.224  1.00 20.00    -0.016 A 
HETATM    4  C4  UNL     1     -32.759   7.465   4.494  1.00 20.00    -0.016 A 
HETATM    5  C5  UNL     1     -33.484   6.257   4.460  1.00 20.00     0.045 A 
HETATM    6  C6  UNL     1     -34.364   4.298   3.108  1.00 20.00     0.044 C 
HETATM    7  C7  UNL     1     -32.586   8.232   5.778  1.00 20.00     0.044 C 
HETATM    8  C8  UNL     1     -34.469   3.598   4.458  1.00 20.00     0.025 C 
HETATM    9  C9  UNL     1     -32.782   7.329   6.990  1.00 20.00     0.025 C 
HETATM   10  C10 UNL     1     -34.941   4.577   5.525  1.00 20.00     0.123 C 
HETATM   11  C11 UNL     1     -34.063   6.518   6.843  1.00 20.00     0.123 C 
HETATM   12  N12 UNL     1     -32.396   7.328   2.157  1.00 20.00    -0.374 N 
HETATM   13  N13 UNL     1     -34.031   5.715   5.624  1.00 20.00    -0.380 N 
HETATM   14  H28 UNL     1     -32.003   7.728   1.306  1.00 20.00     0.164 HD
ENDROOT
TORSDOF 0
