REMARK  2 active torsions:
REMARK  status: ('A' for Active; 'I' for Inactive)
REMARK    1  A    between atoms: C7_7  and  C8_8 
REMARK    2  A    between atoms: C8_8  and  O10_10 
ROOT
HETATM    1  C1  UNL     1     -33.878   6.275   5.367  1.00 20.00     0.071 C 
HETATM    2  C2  UNL     1     -32.491   7.420   2.146  1.00 20.00     0.000 C 
HETATM    3  C3  UNL     1     -33.802   7.922   2.740  1.00 20.00     0.002 C 
HETATM    4  C4  UNL     1     -31.805   6.415   3.065  1.00 20.00     0.002 C 
HETATM    5  C5  UNL     1     -34.740   6.766   3.096  1.00 20.00     0.027 C 
HETATM    6  C6  UNL     1     -32.733   5.252   3.423  1.00 20.00     0.027 C 
HETATM    7  C7  UNL     1     -34.084   5.710   4.013  1.00 20.00     0.070 C 
HETATM    8  N9  UNL     1     -33.717   6.717   6.428  1.00 20.00    -0.196 NA
ENDROOT
BRANCH   7   9
HETATM    9  C8  UNL     1     -35.020   4.497   4.142  1.00 20.00     0.188 C 
BRANCH   9  10
HETATM   10  O10 UNL     1     -36.238   4.940   4.702  1.00 20.00    -0.399 OA
HETATM   11  H23 UNL     1     -36.821   4.165   4.779  1.00 20.00     0.209 HD
ENDBRANCH   9  10
ENDBRANCH   7   9
TORSDOF 2
