REMARK  0 active torsions:
REMARK  status: ('A' for Active; 'I' for Inactive)
ROOT
HETATM    1  C1  UNL     1     -34.590   5.563   6.622  1.00 20.00     0.136 A 
HETATM    2  C2  UNL     1     -35.140   4.555   5.830  1.00 20.00     0.136 A 
HETATM    3  C3  UNL     1     -32.413   7.017   4.220  1.00 20.00     0.083 A 
HETATM    4  C4  UNL     1     -33.392   5.220   2.810  1.00 20.00     0.083 A 
HETATM    5  C5  UNL     1     -33.329   6.254   4.902  1.00 20.00     0.092 A 
HETATM    6  C6  UNL     1     -33.894   5.217   4.088  1.00 20.00     0.092 A 
HETATM    7  N7  UNL     1     -33.662   6.460   6.202  1.00 20.00    -0.257 NA
HETATM    8  N8  UNL     1     -34.822   4.331   4.530  1.00 20.00    -0.257 NA
HETATM    9  S9  UNL     1     -32.238   6.477   2.597  1.00 20.00    -0.109 SA
ENDROOT
TORSDOF 0
