REMARK  0 active torsions:
REMARK  status: ('A' for Active; 'I' for Inactive)
ROOT
HETATM    1  C1  UNL     1     -34.599   5.233   2.626  1.00 20.00     0.064 C 
HETATM    2  C2  UNL     1     -33.685   6.345   3.124  1.00 20.00     0.170 C 
HETATM    3  C3  UNL     1     -34.237   6.130   5.419  1.00 20.00     0.205 C 
HETATM    4  C4  UNL     1     -35.667   4.929   3.630  1.00 20.00     0.258 A 
HETATM    5  C5  UNL     1     -35.465   5.361   5.057  1.00 20.00     0.277 A 
HETATM    6  N6  UNL     1     -35.362   3.959   4.686  1.00 20.00     0.099 N 
HETATM    7  O7  UNL     1     -33.204   6.019   4.430  1.00 20.00    -0.389 OA
HETATM    8  H16 UNL     1     -36.211   3.462   4.954  1.00 20.00     0.317 HD
ENDROOT
TORSDOF 0
