REMARK  1 active torsions:
REMARK  status: ('A' for Active; 'I' for Inactive)
REMARK    1  A    between atoms: C2_2  and  C6_6 
ROOT
HETATM    1  C1  UNL     1     -32.990   6.863   5.367  1.00 20.00    -0.021 C 
HETATM    2  C2  UNL     1     -32.822   6.543   4.070  1.00 20.00    -0.061 C 
HETATM    3  C3  UNL     1     -34.060   6.323   6.270  1.00 20.00     0.037 C 
HETATM    4  C4  UNL     1     -33.711   5.604   3.296  1.00 20.00     0.108 C 
HETATM    5  C5  UNL     1     -34.771   5.076   5.760  1.00 20.00     0.078 C 
HETATM    6  S7  UNL     1     -35.332   5.318   4.056  1.00 20.00    -0.165 SA
ENDROOT
BRANCH   2   7
HETATM    7  C6  UNL     1     -31.684   7.129   3.280  1.00 20.00     0.149 C 
HETATM    8 CL8  UNL     1     -32.402   7.994   1.923  1.00 20.00    -0.126 Cl
ENDBRANCH   2   7
TORSDOF 1
