REMARK  2 active torsions:
REMARK  status: ('A' for Active; 'I' for Inactive)
REMARK    1  A    between atoms: C7_7  and  C9_9 
REMARK    2  A    between atoms: C8_8  and  C10_10 
ROOT
HETATM    1  C1  UNL     1     -32.825   5.855   3.486  1.00 20.00     0.131 C 
HETATM    2  C2  UNL     1     -33.943   5.244   2.673  1.00 20.00     0.083 C 
HETATM    3  C6  UNL     1     -34.690   7.148   3.891  1.00 20.00     0.018 C 
HETATM    4  C7  UNL     1     -33.417   6.683   4.611  1.00 20.00     0.060 C 
HETATM    5  C8  UNL     1     -35.134   5.721   3.528  1.00 20.00    -0.002 C 
HETATM    6  O11 UNL     1     -31.632   5.688   3.283  1.00 20.00    -0.298 OA
ENDROOT
BRANCH   4   7
HETATM    7  C9  UNL     1     -34.001   5.747   5.681  1.00 20.00     0.001 C 
HETATM    8  C4  UNL     1     -33.118   4.624   6.214  1.00 20.00     0.006 C 
HETATM    9  C3  UNL     1     -33.487   3.383   5.411  1.00 20.00     0.001 C 
HETATM   10  C5  UNL     1     -34.959   3.567   5.058  1.00 20.00     0.005 C 
HETATM   11  C10 UNL     1     -35.181   5.071   4.938  1.00 20.00    -0.005 C 
ENDBRANCH   4   7
TORSDOF 2
