REMARK  2 active torsions:
REMARK  status: ('A' for Active; 'I' for Inactive)
REMARK    1  A    between atoms: C1_1  and  C4_4 
REMARK    2  A    between atoms: C1_1  and  C5_5 
ROOT
HETATM    1  C2  UNL     1     -33.998   4.007   6.237  1.00 20.00     0.055 A 
HETATM    2  C3  UNL     1     -35.327   4.667   6.452  1.00 20.00     0.055 A 
HETATM    3  C4  UNL     1     -34.190   5.449   5.852  1.00 20.00     0.164 A 
HETATM    4  F7  UNL     1     -33.592   6.377   6.699  1.00 20.00    -0.235 F 
ENDROOT
BRANCH   3   5
HETATM    5  C1  UNL     1     -34.231   5.827   4.438  1.00 20.00     0.179 C 
HETATM    6  O6  UNL     1     -35.087   5.358   3.689  1.00 20.00    -0.293 OA
BRANCH   5   7
HETATM    7  C5  UNL     1     -33.171   6.806   3.989  1.00 20.00     0.196 C 
HETATM    8 CL8  UNL     1     -32.154   6.092   2.728  1.00 20.00    -0.122 Cl
ENDBRANCH   5   7
ENDBRANCH   3   5
TORSDOF 2
