REMARK  4 active torsions:
REMARK  status: ('A' for Active; 'I' for Inactive)
REMARK    1  A    between atoms: C1_1  and  C8_8 
REMARK    2  A    between atoms: C1_1  and  C9_9 
REMARK    3  A    between atoms: C6_6  and  C8_8 
REMARK    4  A    between atoms: C7_7  and  C9_9 
ROOT
HETATM    1  C1  UNL     1     -33.276   6.668   3.537  1.00 20.00     0.127 C 
HETATM    2  O10 UNL     1     -32.338   7.064   4.226  1.00 20.00    -0.298 OA
ENDROOT
BRANCH   1   3
HETATM    3  C8  UNL     1     -33.489   7.141   2.108  1.00 20.00     0.082 C 
BRANCH   3   4
HETATM    4  C6  UNL     1     -32.416   8.109   1.645  1.00 20.00    -0.008 A 
HETATM    5  C2  UNL     1     -32.667   9.014   0.470  1.00 20.00     0.005 A 
HETATM    6  C3  UNL     1     -32.588   9.588   1.857  1.00 20.00     0.005 A 
ENDBRANCH   3   4
ENDBRANCH   1   3
BRANCH   1   7
HETATM    7  C9  UNL     1     -34.300   5.672   4.056  1.00 20.00     0.082 C 
BRANCH   7   8
HETATM    8  C7  UNL     1     -34.044   5.264   5.495  1.00 20.00    -0.008 A 
HETATM    9  C4  UNL     1     -34.656   6.046   6.624  1.00 20.00     0.005 A 
HETATM   10  C5  UNL     1     -35.148   4.659   6.318  1.00 20.00     0.005 A 
ENDBRANCH   7   8
ENDBRANCH   1   7
TORSDOF 4
