REMARK  1 active torsions:
REMARK  status: ('A' for Active; 'I' for Inactive)
REMARK    1  A    between atoms: C6_6  and  O8_8 
ROOT
HETATM    1  C1  UNL     1     -32.277   8.638   1.633  1.00 20.00     0.015 C 
HETATM    2  C2  UNL     1     -32.546   7.687   2.316  1.00 20.00    -0.077 C 
HETATM    3  C3  UNL     1     -33.951   5.648   2.549  1.00 20.00     0.080 C 
HETATM    4  C4  UNL     1     -34.497   4.936   3.770  1.00 20.00     0.171 C 
HETATM    5  C5  UNL     1     -33.488   6.918   4.483  1.00 20.00     0.219 C 
HETATM    6  C6  UNL     1     -32.874   6.529   3.148  1.00 20.00     0.143 C 
HETATM    7  O7  UNL     1     -34.373   5.849   4.867  1.00 20.00    -0.387 OA
ENDROOT
BRANCH   6   8
HETATM    8  O8  UNL     1     -31.701   5.757   3.394  1.00 20.00    -0.375 OA
HETATM    9  H16 UNL     1     -31.070   6.336   3.854  1.00 20.00     0.211 HD
ENDBRANCH   6   8
TORSDOF 1
