REMARK  3 active torsions:
REMARK  status: ('A' for Active; 'I' for Inactive)
REMARK    1  A    between atoms: C2_2  and  C6_6 
REMARK    2  A    between atoms: C3_3  and  C6_6 
REMARK    3  A    between atoms: C3_3  and  C7_7 
ROOT
HETATM    1  C3  UNL     1     -33.688   5.864   3.465  1.00 20.00     0.240 C 
HETATM    2  O8  UNL     1     -33.468   4.901   2.730  1.00 20.00    -0.287 OA
ENDROOT
BRANCH   1   3
HETATM    3  C6  UNL     1     -34.789   5.849   4.522  1.00 20.00     0.088 C 
HETATM    4  C5  UNL     1     -35.959   5.037   3.964  1.00 20.00     0.023 C 
BRANCH   3   5
HETATM    5  C2  UNL     1     -34.188   5.376   5.834  1.00 20.00    -0.082 C 
HETATM    6  C1  UNL     1     -34.178   4.098   6.248  1.00 20.00     0.014 C 
HETATM    7  C4  UNL     1     -33.555   6.449   6.682  1.00 20.00     0.043 C 
ENDBRANCH   3   5
ENDBRANCH   1   3
BRANCH   1   8
HETATM    8  C7  UNL     1     -32.855   7.111   3.375  1.00 20.00     0.451 C 
HETATM    9  F9  UNL     1     -33.242   8.041   4.284  1.00 20.00    -0.163 F 
HETATM   10  F10 UNL     1     -32.939   7.696   2.154  1.00 20.00    -0.163 F 
HETATM   11  F11 UNL     1     -31.541   6.859   3.601  1.00 20.00    -0.163 F 
ENDBRANCH   1   8
TORSDOF 3
