REMARK  2 active torsions:
REMARK  status: ('A' for Active; 'I' for Inactive)
REMARK    1  A    between atoms: C1_1  and  C7_7 
REMARK    2  A    between atoms: C7_7  and  N8_8 
ROOT
HETATM    1  C1  UNL     1     -33.312   6.706   3.255  1.00 20.00    -0.053 C 
HETATM    2  C2  UNL     1     -32.668   7.346   2.470  1.00 20.00    -0.021 C 
HETATM    3 BR9  UNL     1     -31.650   8.361   1.228  1.00 20.00     0.010 Br
ENDROOT
BRANCH   1   4
HETATM    4  C7  UNL     1     -34.106   5.917   4.219  1.00 20.00     0.214 C 
HETATM    5  C3  UNL     1     -33.424   4.567   4.473  1.00 20.00     0.063 C 
HETATM    6  C4  UNL     1     -35.520   5.695   3.671  1.00 20.00     0.063 C 
BRANCH   4   7
HETATM    7  N8  UNL     1     -34.210   6.631   5.495  1.00 20.00     0.100 N 
HETATM    8  C5  UNL     1     -32.881   6.860   6.059  1.00 20.00     0.311 C 
HETATM    9  C6  UNL     1     -35.043   5.881   6.431  1.00 20.00     0.311 C 
ENDBRANCH   4   7
ENDBRANCH   1   4
TORSDOF 2
