REMARK  2 active torsions:
REMARK  status: ('A' for Active; 'I' for Inactive)
REMARK    1  A    between atoms: C1_1  and  C9_9 
REMARK    2  A    between atoms: C9_9  and  N10_10 
ROOT
HETATM    1  C2  UNL     1     -32.672   9.302   1.641  1.00 20.00     0.003 C 
HETATM    2  C3  UNL     1     -34.067   8.846   2.052  1.00 20.00     0.030 C 
HETATM    3  C4  UNL     1     -31.722   8.112   1.566  1.00 20.00     0.030 C 
HETATM    4  C5  UNL     1     -34.023   8.005   3.329  1.00 20.00     0.273 C 
HETATM    5  C6  UNL     1     -31.753   7.294   2.858  1.00 20.00     0.273 C 
HETATM    6  N10 UNL     1     -33.120   6.856   3.176  1.00 20.00     0.099 N 
ENDROOT
BRANCH   6   7
HETATM    7  C9  UNL     1     -33.125   6.036   4.387  1.00 20.00     0.287 C 
HETATM    8  C8  UNL     1     -33.116   6.886   5.645  1.00 20.00     0.051 C 
BRANCH   7   9
HETATM    9  C1  UNL     1     -34.369   5.164   4.338  1.00 20.00     0.155 C 
HETATM   10  C7  UNL     1     -34.526   4.153   5.445  1.00 20.00     0.093 C 
HETATM   11  O11 UNL     1     -35.233   5.293   3.471  1.00 20.00    -0.296 OA
ENDBRANCH   7   9
ENDBRANCH   6   7
TORSDOF 2
