REMARK  1 active torsions:
REMARK  status: ('A' for Active; 'I' for Inactive)
REMARK    1  A    between atoms: C11_11  and  N13_13 
ROOT
HETATM    1  C1  UNL     1     -32.240   9.117   1.484  1.00 20.00     0.089 C 
HETATM    2  C11 UNL     1     -31.733   8.235   2.533  1.00 20.00     0.395 C 
HETATM    3  N12 UNL     1     -32.640   9.818   0.650  1.00 20.00    -0.195 NA
ENDROOT
BRANCH   2   4
HETATM    4  N13 UNL     1     -32.792   7.362   3.039  1.00 20.00     0.101 N 
HETATM    5  C7  UNL     1     -33.000   6.227   2.129  1.00 20.00     0.274 C 
HETATM    6  C6  UNL     1     -34.134   5.320   2.616  1.00 20.00     0.035 C 
HETATM    7  C9  UNL     1     -33.866   4.831   4.042  1.00 20.00    -0.007 C 
HETATM    8  C4  UNL     1     -35.016   3.970   4.575  1.00 20.00     0.005 C 
HETATM    9  C10 UNL     1     -33.616   6.039   4.963  1.00 20.00     0.018 C 
HETATM   10  C2  UNL     1     -34.743   3.514   6.008  1.00 20.00     0.000 C 
HETATM   11  C3  UNL     1     -34.441   4.690   6.933  1.00 20.00     0.000 C 
HETATM   12  C5  UNL     1     -33.316   5.571   6.392  1.00 20.00     0.007 C 
HETATM   13  C8  UNL     1     -32.480   6.910   4.403  1.00 20.00     0.278 C 
ENDBRANCH   2   4
TORSDOF 1
