REMARK  2 active torsions:
REMARK  status: ('A' for Active; 'I' for Inactive)
REMARK    1  A    between atoms: C2_2  and  C4_4 
REMARK       I    between atoms: C2_2  and  N6_6 
REMARK    2  A    between atoms: C4_4  and  C5_5 
ROOT
HETATM    1  C1  UNL     1     -32.272   7.059   2.943  1.00 20.00     0.166 C 
HETATM    2  C2  UNL     1     -33.740   5.734   3.892  1.00 20.00     0.244 C 
HETATM    3  N6  UNL     1     -32.443   6.158   3.676  1.00 20.00    -0.199 NA
HETATM    4  O7  UNL     1     -34.511   5.282   3.046  1.00 20.00    -0.271 OA
HETATM    5  S8  UNL     1     -32.001   8.279   1.955  1.00 20.00    -0.055 SA
ENDROOT
BRANCH   2   6
HETATM    6  C4  UNL     1     -34.134   5.843   5.358  1.00 20.00     0.105 C 
BRANCH   6   7
HETATM    7  C5  UNL     1     -35.161   4.802   5.796  1.00 20.00     0.005 C 
HETATM    8  C3  UNL     1     -34.661   3.376   5.614  1.00 20.00     0.005 C 
ENDBRANCH   6   7
ENDBRANCH   2   6
TORSDOF 2
