REMARK  0 active torsions:
REMARK  status: ('A' for Active; 'I' for Inactive)
ROOT
HETATM    1  C1  UNL     1     -33.978   6.526   6.465  1.00 20.00     0.028 C 
HETATM    2  C2  UNL     1     -32.801   7.408   4.451  1.00 20.00     0.033 C 
HETATM    3  C3  UNL     1     -33.799   6.389   2.461  1.00 20.00     0.046 C 
HETATM    4  C4  UNL     1     -34.870   5.366   6.507  1.00 20.00     0.112 C 
HETATM    5  C5  UNL     1     -33.478   6.410   5.238  1.00 20.00    -0.025 C 
HETATM    6  C6  UNL     1     -32.946   7.378   3.112  1.00 20.00     0.036 C 
HETATM    7  C7  UNL     1     -34.267   5.330   3.148  1.00 20.00     0.042 C 
HETATM    8  C8  UNL     1     -33.874   5.116   4.583  1.00 20.00     0.185 C 
HETATM    9  N9  UNL     1     -34.933   4.583   5.470  1.00 20.00    -0.286 NA
HETATM   10 CL10 UNL     1     -32.207   8.583   2.122  1.00 20.00    -0.084 Cl
HETATM   11 CL11 UNL     1     -35.248   4.134   2.393  1.00 20.00    -0.086 Cl
ENDROOT
TORSDOF 0
