REMARK  3 active torsions:
REMARK  status: ('A' for Active; 'I' for Inactive)
REMARK    1  A    between atoms: C1_1  and  C6_6 
REMARK    2  A    between atoms: C5_5  and  C7_7 
REMARK    3  A    between atoms: C6_6  and  C7_7 
ROOT
HETATM    1  C2  UNL     1     -34.813   5.742   6.120  1.00 20.00     0.033 C 
HETATM    2  C3  UNL     1     -35.430   4.370   6.288  1.00 20.00     0.168 C 
HETATM    3  C4  UNL     1     -33.995   4.309   4.453  1.00 20.00     0.172 C 
HETATM    4  C5  UNL     1     -34.460   5.742   4.649  1.00 20.00     0.012 C 
HETATM    5  O9  UNL     1     -34.774   3.503   5.350  1.00 20.00    -0.391 OA
ENDROOT
BRANCH   4   6
HETATM    6  C7  UNL     1     -33.425   6.779   4.257  1.00 20.00     0.013 C 
BRANCH   6   7
HETATM    7  C6  UNL     1     -33.081   6.698   2.773  1.00 20.00     0.070 C 
BRANCH   7   8
HETATM    8  C1  UNL     1     -32.025   7.696   2.364  1.00 20.00     0.231 C 
HETATM    9  O8  UNL     1     -31.957   8.230   1.262  1.00 20.00    -0.307 OA
ENDBRANCH   7   8
ENDBRANCH   6   7
ENDBRANCH   4   6
TORSDOF 3
