REMARK  1 active torsions:
REMARK  status: ('A' for Active; 'I' for Inactive)
REMARK    1  A    between atoms: C4_4  and  C5_5 
ROOT
HETATM    1  C1  UNL     1     -34.743   6.014   6.521  1.00 20.00     0.135 A 
HETATM    2  C2  UNL     1     -35.108   5.662   5.240  1.00 20.00     0.136 A 
HETATM    3  C3  UNL     1     -32.785   6.886   5.723  1.00 20.00     0.152 A 
HETATM    4  C4  UNL     1     -33.149   6.533   4.443  1.00 20.00     0.157 A 
HETATM    5  N6  UNL     1     -33.574   6.632   6.786  1.00 20.00    -0.269 NA
HETATM    6  N7  UNL     1     -34.318   5.916   4.178  1.00 20.00    -0.254 NA
ENDROOT
BRANCH   4   7
HETATM    7  C5  UNL     1     -32.251   6.829   3.293  1.00 20.00     0.435 C 
HETATM    8  F8  UNL     1     -31.090   7.456   3.649  1.00 20.00    -0.165 F 
HETATM    9  F9  UNL     1     -31.855   5.716   2.605  1.00 20.00    -0.165 F 
HETATM   10  F10 UNL     1     -32.834   7.643   2.364  1.00 20.00    -0.165 F 
ENDBRANCH   4   7
TORSDOF 1
