REMARK  3 active torsions:
REMARK  status: ('A' for Active; 'I' for Inactive)
REMARK    1  A    between atoms: C4_4  and  C7_7 
REMARK    2  A    between atoms: C6_6  and  N9_9 
REMARK    3  A    between atoms: C7_7  and  N9_9 
ROOT
HETATM    1  C1  UNL     1     -32.211   8.461   1.785  1.00 20.00     0.089 C 
HETATM    2  C6  UNL     1     -32.105   7.541   2.916  1.00 20.00     0.393 C 
HETATM    3  N8  UNL     1     -32.291   9.192   0.887  1.00 20.00    -0.195 NA
ENDROOT
BRANCH   2   4
HETATM    4  N9  UNL     1     -33.395   6.970   3.238  1.00 20.00     0.100 N 
HETATM    5  H21 UNL     1     -34.053   7.698   3.482  1.00 20.00     0.317 HD
BRANCH   4   6
HETATM    6  C7  UNL     1     -33.270   6.062   4.405  1.00 20.00     0.221 C 
HETATM    7  C5  UNL     1     -33.202   6.899   5.674  1.00 20.00     0.043 C 
BRANCH   6   8
HETATM    8  C4  UNL     1     -34.453   5.106   4.422  1.00 20.00     0.018 A 
HETATM    9  C2  UNL     1     -34.554   4.044   5.481  1.00 20.00     0.007 A 
HETATM   10  C3  UNL     1     -35.498   5.214   5.499  1.00 20.00     0.007 A 
ENDBRANCH   6   8
ENDBRANCH   4   6
ENDBRANCH   2   4
TORSDOF 3
