REMARK  3 active torsions:
REMARK  status: ('A' for Active; 'I' for Inactive)
REMARK    1  A    between atoms: C4_4  and  C7_7 
REMARK    2  A    between atoms: C6_6  and  N9_9 
REMARK    3  A    between atoms: C7_7  and  N9_9 
ROOT
HETATM    1  C1  UNL     1     -32.097   7.895   2.148  1.00 20.00     0.089 C 
HETATM    2  C6  UNL     1     -32.360   6.679   2.915  1.00 20.00     0.393 C 
HETATM    3  N8  UNL     1     -31.885   8.859   1.537  1.00 20.00    -0.195 NA
ENDROOT
BRANCH   2   4
HETATM    4  N9  UNL     1     -33.529   6.841   3.754  1.00 20.00     0.100 N 
HETATM    5  H21 UNL     1     -33.293   7.354   4.593  1.00 20.00     0.317 HD
BRANCH   4   6
HETATM    6  C7  UNL     1     -34.046   5.513   4.164  1.00 20.00     0.221 C 
HETATM    7  C5  UNL     1     -34.809   4.901   2.998  1.00 20.00     0.043 C 
BRANCH   6   8
HETATM    8  C4  UNL     1     -34.931   5.680   5.391  1.00 20.00     0.018 A 
HETATM    9  C2  UNL     1     -35.186   4.513   6.305  1.00 20.00     0.007 A 
HETATM   10  C3  UNL     1     -34.327   5.656   6.768  1.00 20.00     0.007 A 
ENDBRANCH   6   8
ENDBRANCH   4   6
ENDBRANCH   2   4
TORSDOF 3
