REMARK  1 active torsions:
REMARK  status: ('A' for Active; 'I' for Inactive)
REMARK    1  A    between atoms: C7_7  and  O9_9 
ROOT
HETATM    1  C1  UNL     1     -32.607   7.262   3.505  1.00 20.00     0.097 C 
HETATM    2  C2  UNL     1     -33.628   6.606   5.560  1.00 20.00    -0.006 C 
HETATM    3  C3  UNL     1     -33.596   6.522   4.219  1.00 20.00     0.047 C 
HETATM    4  C4  UNL     1     -34.624   5.881   6.418  1.00 20.00     0.028 C 
HETATM    5  C5  UNL     1     -35.416   4.813   5.664  1.00 20.00     0.007 C 
HETATM    6  C6  UNL     1     -35.831   5.312   4.281  1.00 20.00     0.037 C 
HETATM    7  C7  UNL     1     -34.607   5.708   3.446  1.00 20.00     0.161 C 
HETATM    8  N8  UNL     1     -31.803   7.864   2.924  1.00 20.00    -0.192 NA
ENDROOT
BRANCH   7   9
HETATM    9  O9  UNL     1     -33.984   4.513   2.971  1.00 20.00    -0.390 OA
HETATM   10  H18 UNL     1     -34.664   4.024   2.484  1.00 20.00     0.210 HD
ENDBRANCH   7   9
TORSDOF 1
