REMARK  1 active torsions:
REMARK  status: ('A' for Active; 'I' for Inactive)
REMARK    1  A    between atoms: C7_7  and  N8_8 
ROOT
HETATM    1  C1  UNL     1     -31.916   8.933   0.953  1.00 20.00     0.013 C 
HETATM    2  C2  UNL     1     -31.971   8.315   1.981  1.00 20.00    -0.087 C 
HETATM    3  C7  UNL     1     -32.033   7.563   3.237  1.00 20.00     0.365 C 
ENDROOT
BRANCH   3   4
HETATM    4  N8  UNL     1     -33.339   6.944   3.401  1.00 20.00     0.106 N 
HETATM    5  C5  UNL     1     -33.619   6.591   4.793  1.00 20.00     0.351 C 
HETATM    6  C3  UNL     1     -34.647   5.503   4.621  1.00 20.00     0.156 C 
HETATM    7  C4  UNL     1     -34.731   5.058   3.191  1.00 20.00     0.110 C 
HETATM    8  O9  UNL     1     -35.327   5.045   5.529  1.00 20.00    -0.296 OA
HETATM    9  C6  UNL     1     -33.474   5.706   2.625  1.00 20.00     0.281 C 
ENDBRANCH   3   4
TORSDOF 1
