REMARK  2 active torsions:
REMARK  status: ('A' for Active; 'I' for Inactive)
REMARK    1  A    between atoms: C4_4  and  C6_6 
REMARK    2  A    between atoms: C5_5  and  C7_7 
ROOT
HETATM    1  C1  UNL     1     -34.629   4.938   3.132  1.00 20.00     0.007 C 
HETATM    2  C2  UNL     1     -33.496   5.965   3.384  1.00 20.00     0.007 C 
HETATM    3  C3  UNL     1     -35.492   6.752   4.392  1.00 20.00     0.014 C 
HETATM    4  C4  UNL     1     -35.611   5.220   4.292  1.00 20.00     0.017 C 
HETATM    5  C5  UNL     1     -33.976   6.700   4.656  1.00 20.00     0.017 C 
ENDROOT
BRANCH   4   6
HETATM    6  C6  UNL     1     -34.946   4.731   5.570  1.00 20.00     0.155 A 
HETATM    7  C7  UNL     1     -33.854   5.720   5.813  1.00 20.00     0.155 A 
HETATM    8  O8  UNL     1     -34.962   5.597   6.708  1.00 20.00    -0.375 OA
ENDBRANCH   4   6
TORSDOF 2
