REMARK  3 active torsions:
REMARK  status: ('A' for Active; 'I' for Inactive)
REMARK    1  A    between atoms: C3_3  and  C6_6 
REMARK    2  A    between atoms: C3_3  and  O11_11 
REMARK    3  A    between atoms: C8_8  and  O11_11 
ROOT
HETATM    1  C1  UNL     1     -34.569   5.551   5.916  1.00 20.00    -0.025 C 
HETATM    2  C2  UNL     1     -35.451   4.917   5.131  1.00 20.00    -0.005 C 
HETATM    3  C4  UNL     1     -33.507   6.434   5.334  1.00 20.00     0.069 C 
HETATM    4  C5  UNL     1     -35.402   5.029   3.636  1.00 20.00     0.196 C 
HETATM    5  C6  UNL     1     -33.818   6.773   3.877  1.00 20.00     0.224 C 
HETATM    6  O10 UNL     1     -34.169   5.588   3.167  1.00 20.00    -0.372 OA
ENDROOT
BRANCH   5   7
HETATM    7  C3  UNL     1     -32.607   7.296   3.178  1.00 20.00     0.288 C 
HETATM    8  O9  UNL     1     -31.531   7.494   3.726  1.00 20.00    -0.262 OA
BRANCH   7   9
HETATM    9  O11 UNL     1     -32.897   7.509   1.862  1.00 20.00    -0.320 OA
BRANCH   9  10
HETATM   10  C8  UNL     1     -32.162   8.564   1.234  1.00 20.00     0.174 C 
HETATM   11  C7  UNL     1     -32.928   9.861   1.393  1.00 20.00     0.034 C 
ENDBRANCH   9  10
ENDBRANCH   7   9
ENDBRANCH   5   7
TORSDOF 3
