REMARK  3 active torsions:
REMARK  status: ('A' for Active; 'I' for Inactive)
REMARK    1  A    between atoms: C6_6  and  C7_7 
REMARK    2  A    between atoms: C7_7  and  C8_8 
REMARK    3  A    between atoms: C7_7  and  O9_9 
ROOT
HETATM    1  C1  UNL     1     -32.160   7.950   1.845  1.00 20.00     0.012 C 
HETATM    2  C2  UNL     1     -32.281   7.223   2.793  1.00 20.00    -0.115 C 
HETATM    3  C6  UNL     1     -32.425   6.328   3.956  1.00 20.00     0.125 C 
ENDROOT
BRANCH   3   4
HETATM    4  C7  UNL     1     -33.903   6.159   4.346  1.00 20.00     0.136 C 
BRANCH   4   5
HETATM    5  C8  UNL     1     -34.168   5.194   5.545  1.00 20.00    -0.025 C 
HETATM    6  C3  UNL     1     -34.920   5.957   6.657  1.00 20.00     0.017 C 
HETATM    7  C4  UNL     1     -35.026   3.981   5.137  1.00 20.00     0.017 C 
HETATM    8  C5  UNL     1     -32.839   4.683   6.133  1.00 20.00     0.017 C 
ENDBRANCH   4   5
BRANCH   4   9
HETATM    9  O9  UNL     1     -34.624   5.712   3.191  1.00 20.00    -0.394 OA
HETATM   10  H23 UNL     1     -34.224   4.869   2.934  1.00 20.00     0.210 HD
ENDBRANCH   4   9
ENDBRANCH   3   4
TORSDOF 3
