REMARK  3 active torsions:
REMARK  status: ('A' for Active; 'I' for Inactive)
REMARK    1  A    between atoms: C6_6  and  N8_8 
REMARK    2  A    between atoms: C6_6  and  O9_9 
REMARK    3  A    between atoms: C7_7  and  O9_9 
ROOT
HETATM    1  O9  UNL     1     -33.728   6.618   3.549  1.00 20.00    -0.352 OA
ENDROOT
BRANCH   1   2
HETATM    2  C6  UNL     1     -33.652   5.349   4.209  1.00 20.00     0.440 C 
BRANCH   2   3
HETATM    3  N8  UNL     1     -34.663   5.213   5.268  1.00 20.00     0.102 N 
HETATM    4  C4  UNL     1     -34.236   5.929   6.471  1.00 20.00     0.312 C 
HETATM    5  C5  UNL     1     -34.910   3.805   5.582  1.00 20.00     0.312 C 
ENDBRANCH   2   3
ENDBRANCH   1   2
BRANCH   1   6
HETATM    6  C7  UNL     1     -32.516   6.937   2.879  1.00 20.00     0.052 C 
HETATM    7  C1  UNL     1     -31.847   5.636   2.437  1.00 20.00     0.045 C 
HETATM    8  C2  UNL     1     -32.872   7.796   1.668  1.00 20.00     0.045 C 
HETATM    9  C3  UNL     1     -31.617   7.712   3.841  1.00 20.00     0.045 C 
ENDBRANCH   1   6
TORSDOF 3
