REMARK  0 active torsions:
REMARK  status: ('A' for Active; 'I' for Inactive)
ROOT
HETATM    1  C1  UNL     1     -33.090   7.178   3.096  1.00 20.00     0.071 C 
HETATM    2  C2  UNL     1     -34.046   5.898   4.984  1.00 20.00     0.152 C 
HETATM    3  C3  UNL     1     -34.724   5.331   2.795  1.00 20.00     0.028 C 
HETATM    4  C4  UNL     1     -35.466   4.436   3.782  1.00 20.00     0.018 C 
HETATM    5  C5  UNL     1     -34.287   6.532   3.631  1.00 20.00     0.163 C 
HETATM    6  C6  UNL     1     -34.635   4.496   5.075  1.00 20.00     0.015 C 
HETATM    7  C7  UNL     1     -33.500   3.470   5.076  1.00 20.00     0.023 C 
HETATM    8  C8  UNL     1     -35.514   4.341   6.312  1.00 20.00     0.023 C 
HETATM    9  N9  UNL     1     -32.139   7.689   2.671  1.00 20.00    -0.196 NA
HETATM   10  O10 UNL     1     -33.448   6.449   5.903  1.00 20.00    -0.296 OA
ENDROOT
TORSDOF 0
