REMARK  0 active torsions:
REMARK  status: ('A' for Active; 'I' for Inactive)
ROOT
HETATM    1  C1  UNL     1     -33.648   6.487   5.631  1.00 20.00     0.047 C 
HETATM    2  C2  UNL     1     -34.335   5.777   6.531  1.00 20.00    -0.023 C 
HETATM    3  C3  UNL     1     -33.719   6.147   4.186  1.00 20.00     0.157 C 
HETATM    4  C4  UNL     1     -35.168   4.577   6.205  1.00 20.00     0.028 C 
HETATM    5  C5  UNL     1     -34.826   3.991   4.837  1.00 20.00     0.021 C 
HETATM    6  C6  UNL     1     -34.702   5.059   3.734  1.00 20.00     0.017 C 
HETATM    7  C7  UNL     1     -36.055   5.724   3.435  1.00 20.00     0.023 C 
HETATM    8  C8  UNL     1     -34.178   4.390   2.453  1.00 20.00     0.023 C 
HETATM    9  O9  UNL     1     -33.030   6.788   3.392  1.00 20.00    -0.292 OA
ENDROOT
TORSDOF 0
