REMARK  0 active torsions:
REMARK  status: ('A' for Active; 'I' for Inactive)
ROOT
HETATM    1  C1  UNL     1     -34.227   5.772   4.327  1.00 20.00    -0.064 C 
HETATM    2  C2  UNL     1     -33.821   6.394   3.217  1.00 20.00     0.016 C 
HETATM    3  C3  UNL     1     -35.003   4.503   4.383  1.00 20.00     0.061 C 
HETATM    4  C4  UNL     1     -33.905   6.190   5.722  1.00 20.00     0.201 C 
HETATM    5  C5  UNL     1     -34.583   3.985   5.743  1.00 20.00     0.172 C 
HETATM    6  O6  UNL     1     -34.431   5.150   6.566  1.00 20.00    -0.387 OA
ENDROOT
TORSDOF 0
