REMARK  1 active torsions:
REMARK  status: ('A' for Active; 'I' for Inactive)
REMARK    1  A    between atoms: C5_5  and  C10_10 
ROOT
HETATM    1  C1  UNL     1     -33.650   6.226   4.410  1.00 20.00     0.166 C 
HETATM    2  C2  UNL     1     -32.221   6.349   3.935  1.00 20.00     0.086 C 
HETATM    3  C3  UNL     1     -33.273   5.939   1.626  1.00 20.00     0.009 C 
HETATM    4  C4  UNL     1     -33.872   4.754   2.381  1.00 20.00     0.052 C 
HETATM    5  C5  UNL     1     -32.160   6.640   2.430  1.00 20.00    -0.004 C 
HETATM    6  C6  UNL     1     -34.536   5.229   3.677  1.00 20.00     0.159 C 
HETATM    7  C7  UNL     1     -34.869   4.056   4.588  1.00 20.00     0.060 C 
HETATM    8  O11 UNL     1     -34.070   6.884   5.361  1.00 20.00    -0.294 OA
HETATM    9  F12 UNL     1     -35.712   5.839   3.343  1.00 20.00    -0.235 F 
ENDROOT
BRANCH   5  10
HETATM   10  C10 UNL     1     -32.176   8.145   2.154  1.00 20.00    -0.018 C 
HETATM   11  C8  UNL     1     -32.080   8.418   0.655  1.00 20.00     0.010 C 
HETATM   12  C9  UNL     1     -33.436   8.784   2.736  1.00 20.00     0.010 C 
ENDBRANCH   5  10
TORSDOF 1
