REMARK  0 active torsions:
REMARK  status: ('A' for Active; 'I' for Inactive)
ROOT
HETATM    1  C1  UNL     1     -33.960   4.669   6.433  1.00 20.00     0.003 C 
HETATM    2  C2  UNL     1     -34.888   3.779   5.610  1.00 20.00     0.001 C 
HETATM    3  C3  UNL     1     -33.930   6.094   5.891  1.00 20.00     0.041 C 
HETATM    4  C4  UNL     1     -34.506   3.793   4.128  1.00 20.00     0.012 C 
HETATM    5  C5  UNL     1     -32.179   6.561   4.036  1.00 20.00     0.207 A 
HETATM    6  C6  UNL     1     -33.573   6.095   4.424  1.00 20.00     0.089 A 
HETATM    7  C7  UNL     1     -34.443   5.218   3.515  1.00 20.00    -0.014 C 
HETATM    8  C8  UNL     1     -33.890   5.086   2.082  1.00 20.00     0.018 C 
HETATM    9  C9  UNL     1     -35.863   5.816   3.402  1.00 20.00     0.018 C 
HETATM   10  O10 UNL     1     -33.322   7.413   3.906  1.00 20.00    -0.374 OA
ENDROOT
TORSDOF 0
