REMARK  1 active torsions:
REMARK  status: ('A' for Active; 'I' for Inactive)
REMARK    1  A    between atoms: C1_1  and  C3_3 
ROOT
HETATM    1  C1  UNL     1     -33.346   6.549   4.485  1.00 20.00     0.035 C 
HETATM    2  C2  UNL     1     -34.395   5.899   4.987  1.00 20.00     0.053 C 
HETATM    3  C4  UNL     1     -32.732   7.386   5.536  1.00 20.00     0.073 C 
HETATM    4  C5  UNL     1     -33.445   6.847   6.770  1.00 20.00     0.180 C 
HETATM    5  C6  UNL     1     -35.347   4.968   4.326  1.00 20.00     0.077 C 
HETATM    6  O8  UNL     1     -34.636   6.158   6.338  1.00 20.00    -0.355 OA
ENDROOT
BRANCH   1   7
HETATM    7  C3  UNL     1     -32.843   6.497   3.123  1.00 20.00     0.250 C 
HETATM    8  O7  UNL     1     -32.991   5.460   2.457  1.00 20.00    -0.274 OA
HETATM    9 CL9  UNL     1     -32.046   7.933   2.502  1.00 20.00    -0.039 Cl
ENDBRANCH   1   7
TORSDOF 1
