REMARK  2 active torsions:
REMARK  status: ('A' for Active; 'I' for Inactive)
REMARK    1  A    between atoms: C3_3  and  C8_8 
REMARK    2  A    between atoms: C8_8  and  N10_10 
ROOT
HETATM    1  C1  UNL     1     -34.021   6.555   5.453  1.00 20.00     0.100 C 
HETATM    2  C8  UNL     1     -34.328   6.750   4.025  1.00 20.00     0.356 C 
HETATM    3  N9  UNL     1     -33.783   6.405   6.580  1.00 20.00    -0.195 NA
ENDROOT
BRANCH   2   4
HETATM    4  C3  UNL     1     -33.153   7.434   3.336  1.00 20.00    -0.041 C 
HETATM    5  C2  UNL     1     -33.385   8.264   2.297  1.00 20.00    -0.025 C 
HETATM    6  C4  UNL     1     -32.388   9.000   1.462  1.00 20.00     0.036 C 
HETATM    7  C5  UNL     1     -31.776   7.129   3.874  1.00 20.00     0.046 C 
ENDBRANCH   2   4
BRANCH   2   8
HETATM    8  N10 UNL     1     -34.669   5.469   3.401  1.00 20.00     0.102 N 
HETATM    9  C6  UNL     1     -35.837   4.880   4.055  1.00 20.00     0.311 C 
HETATM   10  C7  UNL     1     -33.531   4.554   3.463  1.00 20.00     0.311 C 
ENDBRANCH   2   8
TORSDOF 2
