REMARK  0 active torsions:
REMARK  status: ('A' for Active; 'I' for Inactive)
ROOT
HETATM    1  C1  UNL     1     -34.461   6.477   6.515  1.00 20.00    -0.003 C 
HETATM    2  C2  UNL     1     -33.348   6.814   5.650  1.00 20.00     0.011 C 
HETATM    3  C3  UNL     1     -35.170   5.457   5.992  1.00 20.00    -0.017 C 
HETATM    4  C4  UNL     1     -33.381   5.957   4.630  1.00 20.00    -0.005 C 
HETATM    5  C5  UNL     1     -32.905   5.975   3.243  1.00 20.00     0.156 C 
HETATM    6  C6  UNL     1     -33.903   5.204   2.408  1.00 20.00     0.084 C 
HETATM    7  C7  UNL     1     -35.098   5.034   3.381  1.00 20.00     0.021 C 
HETATM    8  C8  UNL     1     -34.471   4.944   4.771  1.00 20.00     0.045 C 
HETATM    9  O9  UNL     1     -31.892   6.522   2.849  1.00 20.00    -0.293 OA
ENDROOT
TORSDOF 0
