REMARK  1 active torsions:
REMARK  status: ('A' for Active; 'I' for Inactive)
REMARK    1  A    between atoms: C3_3  and  C8_8 
ROOT
HETATM    1  C1  UNL     1     -34.581   5.299   2.931  1.00 20.00     0.302 C 
HETATM    2  C2  UNL     1     -33.427   6.216   5.350  1.00 20.00     0.209 C 
HETATM    3  C3  UNL     1     -33.605   6.474   3.018  1.00 20.00     0.149 C 
HETATM    4  C4  UNL     1     -34.410   5.031   5.358  1.00 20.00     0.171 C 
HETATM    5  C5  UNL     1     -35.286   5.106   6.618  1.00 20.00     0.051 C 
HETATM    6  C6  UNL     1     -33.650   3.691   5.365  1.00 20.00     0.051 C 
HETATM    7  N9  UNL     1     -35.304   5.127   4.192  1.00 20.00     0.097 N 
HETATM    8  O10 UNL     1     -32.709   6.279   4.116  1.00 20.00    -0.382 OA
HETATM    9  H27 UNL     1     -35.924   5.929   4.316  1.00 20.00     0.317 HD
ENDROOT
BRANCH   3  10
HETATM   10  C8  UNL     1     -32.771   6.588   1.750  1.00 20.00     0.029 C 
HETATM   11  C7  UNL     1     -31.781   7.706   1.834  1.00 20.00     0.007 C 
ENDBRANCH   3  10
TORSDOF 1
