REMARK  2 active torsions:
REMARK  status: ('A' for Active; 'I' for Inactive)
REMARK    1  A    between atoms: C1_1  and  C5_5 
REMARK       I    between atoms: C1_1  and  N7_7 
REMARK    2  A    between atoms: C5_5  and  C6_6 
ROOT
HETATM    1  C1  UNL     1     -33.077   6.699   4.771  1.00 20.00     0.220 C 
HETATM    2  C2  UNL     1     -34.700   3.869   5.739  1.00 20.00     0.040 C 
HETATM    3  C3  UNL     1     -34.190   5.123   6.459  1.00 20.00     0.127 C 
HETATM    4  C4  UNL     1     -34.609   4.640   4.417  1.00 20.00     0.127 C 
HETATM    5  N7  UNL     1     -33.839   5.627   5.147  1.00 20.00    -0.352 N 
HETATM    6  O8  UNL     1     -32.526   7.465   5.560  1.00 20.00    -0.273 OA
ENDROOT
BRANCH   1   7
HETATM    7  C5  UNL     1     -32.951   6.879   3.282  1.00 20.00     0.118 C 
BRANCH   7   8
HETATM    8  C6  UNL     1     -32.093   8.086   2.961  1.00 20.00     0.124 C 
HETATM    9 CL9  UNL     1     -31.899   8.301   1.203  1.00 20.00    -0.130 Cl
ENDBRANCH   7   8
ENDBRANCH   1   7
TORSDOF 2
