REMARK  2 active torsions:
REMARK  status: ('A' for Active; 'I' for Inactive)
REMARK    1  A    between atoms: C6_6  and  C7_7 
REMARK    2  A    between atoms: C7_7  and  N9_9 
ROOT
HETATM    1  C1  UNL     1     -34.552   4.504   5.122  1.00 20.00     0.101 C 
HETATM    2  C4  UNL     1     -35.773   6.467   4.295  1.00 20.00     0.066 C 
HETATM    3  C7  UNL     1     -34.392   5.810   4.448  1.00 20.00     0.243 C 
HETATM    4  N8  UNL     1     -34.679   3.480   5.653  1.00 20.00    -0.195 NA
ENDROOT
BRANCH   3   5
HETATM    5  C6  UNL     1     -33.666   5.664   3.072  1.00 20.00     0.030 C 
HETATM    6  C2  UNL     1     -33.432   7.001   2.354  1.00 20.00     0.013 C 
HETATM    7  C3  UNL     1     -34.385   4.702   2.110  1.00 20.00     0.013 C 
ENDBRANCH   3   5
BRANCH   3   8
HETATM    8  N9  UNL     1     -33.603   6.686   5.302  1.00 20.00     0.102 N 
HETATM    9  C5  UNL     1     -33.987   6.536   6.700  1.00 20.00     0.309 C 
HETATM   10  H23 UNL     1     -32.615   6.456   5.200  1.00 20.00     0.317 HD
ENDBRANCH   3   8
TORSDOF 2
