REMARK  1 active torsions:
REMARK  status: ('A' for Active; 'I' for Inactive)
REMARK    1  A    between atoms: C1_1  and  S9_9 
ROOT
HETATM    1  C1  UNL     1     -33.912   6.033   4.715  1.00 20.00     0.047 A 
HETATM    2  C2  UNL     1     -33.091   6.970   5.370  1.00 20.00     0.069 A 
HETATM    3  C3  UNL     1     -33.555   6.129   3.392  1.00 20.00     0.044 A 
HETATM    4  C4  UNL     1     -33.044   7.296   6.807  1.00 20.00     0.074 C 
HETATM    5  C5  UNL     1     -34.039   5.419   2.191  1.00 20.00     0.071 C 
HETATM    6  C6  UNL     1     -31.882   7.543   2.160  1.00 20.00     0.179 C 
HETATM    7  N7  UNL     1     -32.275   7.615   4.532  1.00 20.00    -0.176 NA
HETATM    8  N8  UNL     1     -32.580   7.081   3.337  1.00 20.00    -0.277 N 
ENDROOT
BRANCH   1   9
HETATM    9  S9  UNL     1     -35.105   4.993   5.431  1.00 20.00    -0.139 SA
HETATM   10  H19 UNL     1     -35.532   4.357   4.321  1.00 20.00     0.107 HD
ENDBRANCH   1   9
TORSDOF 1
