REMARK  3 active torsions:
REMARK  status: ('A' for Active; 'I' for Inactive)
REMARK    1  A    between atoms: C2_2  and  C5_5 
REMARK    2  A    between atoms: C2_2  and  C7_7 
REMARK    3  A    between atoms: C5_5  and  C6_6 
ROOT
HETATM    1  C1  UNL     1     -33.980   6.424   5.542  1.00 20.00     0.071 C 
HETATM    2  C4  UNL     1     -34.671   5.442   3.388  1.00 20.00     0.033 C 
HETATM    3  C7  UNL     1     -34.021   6.632   4.085  1.00 20.00     0.158 C 
HETATM    4  N8  UNL     1     -33.950   6.262   6.691  1.00 20.00    -0.196 NA
ENDROOT
BRANCH   3   5
HETATM    5  C2  UNL     1     -32.619   6.846   3.523  1.00 20.00     0.144 C 
HETATM    6  O9  UNL     1     -31.932   5.909   3.116  1.00 20.00    -0.297 OA
BRANCH   5   7
HETATM    7  C5  UNL     1     -32.116   8.283   3.508  1.00 20.00     0.079 C 
BRANCH   7   8
HETATM    8  C6  UNL     1     -32.463   9.044   2.230  1.00 20.00     0.003 C 
HETATM    9  C3  UNL     1     -31.932   8.355   0.980  1.00 20.00     0.005 C 
ENDBRANCH   7   8
ENDBRANCH   5   7
ENDBRANCH   3   5
TORSDOF 3
