REMARK  3 active torsions:
REMARK  status: ('A' for Active; 'I' for Inactive)
REMARK    1  A    between atoms: C2_2  and  C4_4 
REMARK    2  A    between atoms: C2_2  and  C9_9 
REMARK    3  A    between atoms: C8_8  and  C9_9 
ROOT
HETATM    1  C1  UNL     1     -36.215   5.335   3.892  1.00 20.00     0.071 C 
HETATM    2  C9  UNL     1     -34.910   4.692   4.132  1.00 20.00     0.162 C 
HETATM    3  N10 UNL     1     -37.242   5.840   3.699  1.00 20.00    -0.196 NA
ENDROOT
BRANCH   2   4
HETATM    4  C2  UNL     1     -33.791   5.719   4.197  1.00 20.00     0.148 C 
HETATM    5  O11 UNL     1     -33.711   6.603   5.043  1.00 20.00    -0.296 OA
BRANCH   4   6
HETATM    6  C4  UNL     1     -32.743   5.617   3.138  1.00 20.00     0.061 A 
HETATM    7  C3  UNL     1     -31.544   6.506   3.232  1.00 20.00     0.017 A 
HETATM    8  C5  UNL     1     -32.563   6.728   2.151  1.00 20.00    -0.007 A 
HETATM    9  C6  UNL     1     -33.398   7.963   2.156  1.00 20.00     0.011 C 
ENDBRANCH   4   6
ENDBRANCH   2   4
BRANCH   2  10
HETATM   10  C8  UNL     1     -34.931   3.814   5.392  1.00 20.00     0.022 C 
HETATM   11  C7  UNL     1     -35.207   4.569   6.689  1.00 20.00     0.007 C 
ENDBRANCH   2  10
TORSDOF 3
