REMARK  2 active torsions:
REMARK  status: ('A' for Active; 'I' for Inactive)
REMARK    1  A    between atoms: C1_1  and  C3_3 
REMARK    2  A    between atoms: C7_7  and  C9_9 
ROOT
HETATM    1  C1  UNL     1     -33.768   6.456   4.779  1.00 20.00    -0.002 C 
HETATM    2  C2  UNL     1     -34.366   5.459   4.103  1.00 20.00     0.021 C 
HETATM    3  C4  UNL     1     -33.041   7.582   4.089  1.00 20.00     0.047 C 
HETATM    4  C5  UNL     1     -34.390   5.393   2.599  1.00 20.00     0.052 C 
HETATM    5  C6  UNL     1     -33.961   6.697   1.922  1.00 20.00     0.010 C 
HETATM    6  C7  UNL     1     -32.730   7.293   2.611  1.00 20.00    -0.010 C 
HETATM    7 CL11 UNL     1     -35.187   4.136   4.866  1.00 20.00    -0.088 Cl
ENDROOT
BRANCH   1   8
HETATM    8  C3  UNL     1     -33.769   6.519   6.250  1.00 20.00     0.267 C 
HETATM    9  O10 UNL     1     -33.802   5.517   6.945  1.00 20.00    -0.302 OA
ENDBRANCH   1   8
BRANCH   6  10
HETATM   10  C9  UNL     1     -32.260   8.559   1.898  1.00 20.00     0.000 C 
HETATM   11  C8  UNL     1     -33.308   9.623   1.914  1.00 20.00     0.005 C 
ENDBRANCH   6  10
TORSDOF 2
