REMARK  3 active torsions:
REMARK  status: ('A' for Active; 'I' for Inactive)
REMARK    1  A    between atoms: C2_2  and  C7_7 
REMARK    2  A    between atoms: C2_2  and  C8_8 
REMARK    3  A    between atoms: C7_7  and  C9_9 
ROOT
HETATM    1  C1  UNL     1     -32.390   7.981   1.802  1.00 20.00     0.071 C 
HETATM    2  C3  UNL     1     -30.754   7.214   3.481  1.00 20.00     0.033 C 
HETATM    3  C8  UNL     1     -32.221   7.504   3.185  1.00 20.00     0.158 C 
HETATM    4  N10 UNL     1     -32.525   8.359   0.713  1.00 20.00    -0.196 NA
ENDROOT
BRANCH   3   5
HETATM    5  C2  UNL     1     -33.042   6.243   3.432  1.00 20.00     0.144 C 
HETATM    6  O11 UNL     1     -33.286   5.435   2.535  1.00 20.00    -0.296 OA
BRANCH   5   7
HETATM    7  C7  UNL     1     -33.583   6.031   4.840  1.00 20.00     0.088 C 
BRANCH   7   8
HETATM    8  C9  UNL     1     -34.480   4.784   5.010  1.00 20.00    -0.045 C 
HETATM    9  C4  UNL     1     -35.032   4.685   6.441  1.00 20.00     0.015 C 
HETATM   10  C5  UNL     1     -33.714   3.494   4.670  1.00 20.00     0.015 C 
HETATM   11  C6  UNL     1     -35.667   4.914   4.036  1.00 20.00     0.015 C 
ENDBRANCH   7   8
ENDBRANCH   5   7
ENDBRANCH   3   5
TORSDOF 3
