REMARK  2 active torsions:
REMARK  status: ('A' for Active; 'I' for Inactive)
REMARK    1  A    between atoms: C2_2  and  C4_4 
REMARK    2  A    between atoms: C2_2  and  C8_8 
ROOT
HETATM    1  C1  UNL     1     -36.246   3.736   5.305  1.00 20.00     0.071 C 
HETATM    2  C7  UNL     1     -34.045   4.369   6.214  1.00 20.00     0.033 C 
HETATM    3  C8  UNL     1     -34.856   4.075   4.956  1.00 20.00     0.158 C 
HETATM    4  N9  UNL     1     -37.341   3.466   5.577  1.00 20.00    -0.196 NA
ENDROOT
BRANCH   3   5
HETATM    5  C2  UNL     1     -34.806   5.278   4.030  1.00 20.00     0.148 C 
HETATM    6  O10 UNL     1     -35.792   5.890   3.638  1.00 20.00    -0.296 OA
BRANCH   5   7
HETATM    7  C4  UNL     1     -33.447   5.700   3.577  1.00 20.00     0.061 A 
HETATM    8  C3  UNL     1     -32.650   6.601   4.461  1.00 20.00     0.017 A 
HETATM    9  C5  UNL     1     -33.244   7.137   3.185  1.00 20.00    -0.007 A 
HETATM   10  C6  UNL     1     -32.365   7.463   2.027  1.00 20.00     0.011 C 
ENDBRANCH   5   7
ENDBRANCH   3   5
TORSDOF 2
