REMARK  3 active torsions:
REMARK  status: ('A' for Active; 'I' for Inactive)
REMARK    1  A    between atoms: C4_4  and  N9_9 
REMARK    2  A    between atoms: C6_6  and  N9_9 
REMARK    3  A    between atoms: C7_7  and  N9_9 
ROOT
HETATM    1  C1  UNL     1     -33.007   6.947   2.989  1.00 20.00     0.089 C 
HETATM    2  C6  UNL     1     -33.998   5.883   3.135  1.00 20.00     0.396 C 
HETATM    3  N8  UNL     1     -32.219   7.791   2.871  1.00 20.00    -0.195 NA
ENDROOT
BRANCH   2   4
HETATM    4  N9  UNL     1     -34.812   6.089   4.332  1.00 20.00     0.105 N 
BRANCH   4   5
HETATM    5  C4  UNL     1     -36.063   5.339   4.235  1.00 20.00     0.224 A 
HETATM    6  C2  UNL     1     -37.244   5.714   5.088  1.00 20.00     0.038 A 
HETATM    7  C3  UNL     1     -37.280   5.961   3.608  1.00 20.00     0.038 A 
ENDBRANCH   4   5
BRANCH   4   8
HETATM    8  C7  UNL     1     -34.070   5.693   5.529  1.00 20.00     0.269 C 
HETATM    9  C5  UNL     1     -34.864   5.953   6.764  1.00 20.00     0.037 C 
ENDBRANCH   4   8
ENDBRANCH   2   4
TORSDOF 3
