REMARK  0 active torsions:
REMARK  status: ('A' for Active; 'I' for Inactive)
ROOT
HETATM    1  C1  UNL     1     -32.839   7.589   5.136  1.00 20.00     0.039 A 
HETATM    2  C2  UNL     1     -32.215   8.058   3.979  1.00 20.00     0.022 A 
HETATM    3  C3  UNL     1     -33.358   6.383   2.632  1.00 20.00     0.029 A 
HETATM    4  C4  UNL     1     -33.977   5.935   3.784  1.00 20.00    -0.021 A 
HETATM    5  C5  UNL     1     -33.718   6.531   5.009  1.00 20.00     0.075 A 
HETATM    6  C6  UNL     1     -32.474   7.460   2.734  1.00 20.00     0.011 A 
HETATM    7  C7  UNL     1     -34.898   4.793   3.976  1.00 20.00     0.073 C 
HETATM    8  C8  UNL     1     -35.379   5.103   5.402  1.00 20.00     0.129 C 
HETATM    9  C9  UNL     1     -35.572   3.849   6.239  1.00 20.00     0.040 C 
HETATM   10  O10 UNL     1     -34.398   5.956   6.051  1.00 20.00    -0.345 OA
HETATM   11 BR11 UNL     1     -31.607   8.113   1.185  1.00 20.00    -0.051 Br
ENDROOT
TORSDOF 0
