REMARK  0 active torsions:
REMARK  status: ('A' for Active; 'I' for Inactive)
ROOT
HETATM    1  C1  UNL     1     -35.081   6.016   3.571  1.00 20.00     0.064 C 
HETATM    2  C2  UNL     1     -32.611   6.374   3.894  1.00 20.00     0.023 C 
HETATM    3  C3  UNL     1     -33.862   7.683   2.133  1.00 20.00     0.028 C 
HETATM    4  C4  UNL     1     -31.372   8.067   2.459  1.00 20.00     0.013 C 
HETATM    5  C5  UNL     1     -33.945   7.039   3.525  1.00 20.00     0.094 C 
HETATM    6  C6  UNL     1     -31.414   7.326   3.804  1.00 20.00    -0.017 C 
HETATM    7  C7  UNL     1     -32.708   8.700   1.992  1.00 20.00    -0.046 C 
HETATM    8  C8  UNL     1     -31.377   8.253   4.948  1.00 20.00     0.010 C 
HETATM    9  C9  UNL     1     -33.026   9.991   2.771  1.00 20.00     0.015 C 
HETATM   10  C10 UNL     1     -32.570   9.089   0.504  1.00 20.00     0.015 C 
HETATM   11  N11 UNL     1     -35.942   5.239   3.606  1.00 20.00    -0.197 NA
ENDROOT
TORSDOF 0
