REMARK  2 active torsions:
REMARK  status: ('A' for Active; 'I' for Inactive)
REMARK    1  A    between atoms: C7_7  and  C12_12 
REMARK    2  A    between atoms: C11_11  and  C12_12 
ROOT
HETATM    1  C1  UNL     1     -34.434   4.217   4.937  1.00 20.00     0.064 C 
HETATM    2  C2  UNL     1     -35.438   6.378   4.249  1.00 20.00     0.019 C 
HETATM    3  C3  UNL     1     -34.385   4.839   2.537  1.00 20.00     0.019 C 
HETATM    4  C4  UNL     1     -34.186   7.258   4.223  1.00 20.00     0.007 C 
HETATM    5  C5  UNL     1     -33.136   5.722   2.514  1.00 20.00     0.007 C 
HETATM    6  C6  UNL     1     -35.156   4.922   3.860  1.00 20.00     0.093 C 
HETATM    7  C7  UNL     1     -33.463   7.177   2.873  1.00 20.00    -0.007 C 
HETATM    8  N13 UNL     1     -33.867   3.663   5.784  1.00 20.00    -0.197 NA
ENDROOT
BRANCH   7   9
HETATM    9  C12 UNL     1     -32.193   8.026   2.889  1.00 20.00    -0.044 C 
HETATM   10  C9  UNL     1     -32.570   9.486   3.211  1.00 20.00     0.015 C 
HETATM   11  C10 UNL     1     -31.253   7.501   3.993  1.00 20.00     0.015 C 
BRANCH   9  12
HETATM   12  C11 UNL     1     -31.512   7.930   1.495  1.00 20.00     0.004 C 
HETATM   13  C8  UNL     1     -32.336   8.409   0.306  1.00 20.00     0.006 C 
ENDBRANCH   9  12
ENDBRANCH   7   9
TORSDOF 2
