REMARK  3 active torsions:
REMARK  status: ('A' for Active; 'I' for Inactive)
REMARK    1  A    between atoms: C5_5  and  C6_6 
REMARK    2  A    between atoms: C6_6  and  C7_7 
REMARK    3  A    between atoms: C7_7  and  N9_9 
ROOT
HETATM    1  C1  UNL     1     -33.451   6.647   6.061  1.00 20.00     0.095 C 
HETATM    2  C7  UNL     1     -33.280   5.773   4.889  1.00 20.00     0.327 C 
HETATM    3  N8  UNL     1     -33.584   7.334   6.987  1.00 20.00    -0.195 NA
ENDROOT
BRANCH   2   4
HETATM    4  C6  UNL     1     -33.279   6.577   3.577  1.00 20.00     0.050 C 
BRANCH   4   5
HETATM    5  C5  UNL     1     -31.965   7.307   3.267  1.00 20.00    -0.001 C 
HETATM    6  C2  UNL     1     -32.074   8.117   1.983  1.00 20.00     0.005 C 
ENDBRANCH   4   5
ENDBRANCH   2   4
BRANCH   2   7
HETATM    7  N9  UNL     1     -34.310   4.736   4.871  1.00 20.00     0.098 N 
HETATM    8  C3  UNL     1     -35.641   5.339   4.808  1.00 20.00     0.311 C 
HETATM    9  C4  UNL     1     -34.194   3.877   6.049  1.00 20.00     0.311 C 
ENDBRANCH   2   7
TORSDOF 3
