REMARK  3 active torsions:
REMARK  status: ('A' for Active; 'I' for Inactive)
REMARK    1  A    between atoms: C6_6  and  C8_8 
REMARK    2  A    between atoms: C7_7  and  C8_8 
REMARK    3  A    between atoms: C8_8  and  N10_10 
ROOT
HETATM    1  C1  UNL     1     -34.808   5.442   3.589  1.00 20.00     0.102 C 
HETATM    2  C8  UNL     1     -33.843   5.524   4.707  1.00 20.00     0.244 C 
HETATM    3  N9  UNL     1     -35.566   5.378   2.713  1.00 20.00    -0.194 NA
ENDROOT
BRANCH   2   4
HETATM    4  C6  UNL     1     -33.954   4.255   5.592  1.00 20.00     0.053 C 
HETATM    5  C2  UNL     1     -35.328   4.027   6.220  1.00 20.00     0.009 C 
ENDBRANCH   2   4
BRANCH   2   6
HETATM    6  C7  UNL     1     -34.156   6.760   5.589  1.00 20.00     0.053 C 
HETATM    7  C3  UNL     1     -33.224   6.955   6.784  1.00 20.00     0.009 C 
ENDBRANCH   2   6
BRANCH   2   8
HETATM    8  N10 UNL     1     -32.497   5.634   4.176  1.00 20.00     0.103 N 
HETATM    9  C4  UNL     1     -32.360   6.834   3.344  1.00 20.00     0.311 C 
HETATM   10  C5  UNL     1     -32.144   4.441   3.398  1.00 20.00     0.311 C 
ENDBRANCH   2   8
TORSDOF 3
