REMARK  4 active torsions:
REMARK  status: ('A' for Active; 'I' for Inactive)
REMARK    1  A    between atoms: C1_1  and  C8_8 
REMARK    2  A    between atoms: C7_7  and  N10_10 
REMARK    3  A    between atoms: C8_8  and  N10_10 
REMARK    4  A    between atoms: C9_9  and  N10_10 
ROOT
HETATM    1  N10 UNL     1     -34.002   5.769   4.521  1.00 20.00     0.103 N 
ENDROOT
BRANCH   1   2
HETATM    2  C7  UNL     1     -33.998   6.659   5.692  1.00 20.00     0.269 C 
HETATM    3  C3  UNL     1     -34.666   6.015   6.859  1.00 20.00     0.037 C 
ENDBRANCH   1   2
BRANCH   1   4
HETATM    4  C8  UNL     1     -35.343   5.432   4.125  1.00 20.00     0.287 C 
HETATM    5  C4  UNL     1     -35.408   4.982   2.677  1.00 20.00     0.051 C 
BRANCH   4   6
HETATM    6  C1  UNL     1     -35.825   4.329   5.052  1.00 20.00     0.155 C 
HETATM    7  C2  UNL     1     -37.289   4.345   5.414  1.00 20.00     0.093 C 
HETATM    8  O11 UNL     1     -35.082   3.436   5.460  1.00 20.00    -0.296 OA
ENDBRANCH   4   6
ENDBRANCH   1   4
BRANCH   1   9
HETATM    9  C9  UNL     1     -33.261   6.404   3.420  1.00 20.00     0.216 C 
HETATM   10  C5  UNL     1     -31.828   6.658   3.864  1.00 20.00     0.042 C 
HETATM   11  C6  UNL     1     -33.967   7.694   3.030  1.00 20.00     0.042 C 
ENDBRANCH   1   9
TORSDOF 4
