REMARK  3 active torsions:
REMARK  status: ('A' for Active; 'I' for Inactive)
REMARK    1  A    between atoms: C5_5  and  C6_6 
REMARK    2  A    between atoms: C6_6  and  C7_7 
REMARK    3  A    between atoms: C7_7  and  N9_9 
ROOT
HETATM    1  C1  UNL     1     -34.825   6.023   3.597  1.00 20.00     0.095 C 
HETATM    2  C7  UNL     1     -33.635   5.687   4.396  1.00 20.00     0.327 C 
HETATM    3  N8  UNL     1     -35.761   6.286   2.963  1.00 20.00    -0.195 NA
ENDROOT
BRANCH   2   4
HETATM    4  C6  UNL     1     -32.724   6.911   4.594  1.00 20.00     0.050 C 
BRANCH   4   5
HETATM    5  C5  UNL     1     -31.779   7.211   3.422  1.00 20.00    -0.001 C 
HETATM    6  C2  UNL     1     -32.558   7.532   2.155  1.00 20.00     0.005 C 
ENDBRANCH   4   5
ENDBRANCH   2   4
BRANCH   2   7
HETATM    7  N9  UNL     1     -34.029   5.105   5.677  1.00 20.00     0.098 N 
HETATM    8  C3  UNL     1     -34.807   3.884   5.467  1.00 20.00     0.311 C 
HETATM    9  C4  UNL     1     -34.797   6.070   6.463  1.00 20.00     0.311 C 
ENDBRANCH   2   7
TORSDOF 3
