REMARK  3 active torsions:
REMARK  status: ('A' for Active; 'I' for Inactive)
REMARK    1  A    between atoms: C1_1  and  C4_4 
REMARK    2  A    between atoms: C1_1  and  C7_7 
REMARK    3  A    between atoms: C7_7  and  C8_8 
ROOT
HETATM    1  C1  UNL     1     -34.585   5.701   4.473  1.00 20.00     0.131 C 
HETATM    2  O9  UNL     1     -35.155   5.048   3.601  1.00 20.00    -0.298 OA
ENDROOT
BRANCH   1   3
HETATM    3  C4  UNL     1     -34.765   5.368   5.932  1.00 20.00     0.055 A 
HETATM    4  C2  UNL     1     -35.097   3.966   6.293  1.00 20.00     0.013 A 
HETATM    5  C3  UNL     1     -33.735   4.521   6.586  1.00 20.00     0.013 A 
ENDBRANCH   1   3
BRANCH   1   6
HETATM    6  C7  UNL     1     -33.703   6.901   4.164  1.00 20.00     0.082 C 
BRANCH   6   7
HETATM    7  C8  UNL     1     -32.939   6.785   2.837  1.00 20.00    -0.016 C 
HETATM    8  C5  UNL     1     -32.015   5.564   2.828  1.00 20.00     0.010 C 
HETATM    9  C6  UNL     1     -32.119   8.053   2.591  1.00 20.00     0.010 C 
ENDBRANCH   6   7
ENDBRANCH   1   6
TORSDOF 3
