REMARK  1 active torsions:
REMARK  status: ('A' for Active; 'I' for Inactive)
REMARK    1  A    between atoms: C2_2  and  C3_3 
ROOT
HETATM    1  C1  UNL     1     -34.268   5.522   3.838  1.00 20.00     0.064 C 
HETATM    2  C2  UNL     1     -35.432   5.235   4.688  1.00 20.00     0.194 C 
HETATM    3  N4  UNL     1     -33.350   5.749   3.166  1.00 20.00    -0.197 NA
ENDROOT
BRANCH   2   4
HETATM    4  C3  UNL     1     -35.034   5.091   6.144  1.00 20.00     0.366 C 
HETATM    5  F5  UNL     1     -34.443   6.228   6.585  1.00 20.00    -0.213 F 
HETATM    6  F6  UNL     1     -34.132   4.089   6.289  1.00 20.00    -0.213 F 
ENDBRANCH   2   4
TORSDOF 1
