REMARK  1 active torsions:
REMARK  status: ('A' for Active; 'I' for Inactive)
REMARK    1  A    between atoms: C3_3  and  C6_6 
ROOT
HETATM    1  C1  UNL     1     -34.715   6.058   5.724  1.00 20.00     0.019 A 
HETATM    2  C2  UNL     1     -35.305   4.828   6.136  1.00 20.00     0.028 A 
HETATM    3  C3  UNL     1     -34.005   5.923   4.551  1.00 20.00     0.015 A 
HETATM    4  C4  UNL     1     -35.023   3.800   5.263  1.00 20.00     0.051 A 
HETATM    5  S8  UNL     1     -34.051   4.319   3.953  1.00 20.00    -0.085 SA
HETATM    6 BR9  UNL     1     -35.636   2.015   5.472  1.00 20.00    -0.043 Br
ENDROOT
BRANCH   3   7
HETATM    7  C6  UNL     1     -33.261   7.068   3.858  1.00 20.00     0.185 A 
HETATM    8  C5  UNL     1     -32.647   6.813   2.496  1.00 20.00     0.206 A 
HETATM    9  O7  UNL     1     -31.832   7.052   3.646  1.00 20.00    -0.376 OA
ENDBRANCH   3   7
TORSDOF 1
