REMARK  2 active torsions:
REMARK  status: ('A' for Active; 'I' for Inactive)
REMARK    1  A    between atoms: C7_7  and  C10_10 
REMARK    2  A    between atoms: C8_8  and  C9_9 
ROOT
HETATM    1  C1  UNL     1     -34.435   6.657   3.318  1.00 20.00    -0.019 A 
HETATM    2  C3  UNL     1     -33.206   6.457   2.825  1.00 20.00    -0.087 A 
HETATM    3  C5  UNL     1     -32.735   5.041   2.984  1.00 20.00     0.039 A 
HETATM    4  C8  UNL     1     -35.019   5.413   3.897  1.00 20.00     0.021 A 
HETATM    5  C10 UNL     1     -33.895   4.343   3.702  1.00 20.00     0.005 A 
HETATM    6  C11 UNL     1     -32.338   7.476   2.179  1.00 20.00     0.043 C 
ENDROOT
BRANCH   4   7
HETATM    7  C9  UNL     1     -35.272   5.372   5.428  1.00 20.00     0.022 C 
HETATM    8  C4  UNL     1     -34.051   5.865   6.179  1.00 20.00    -0.082 C 
HETATM    9  C2  UNL     1     -33.082   4.953   6.011  1.00 20.00    -0.019 C 
HETATM   10  C12 UNL     1     -34.008   7.154   6.907  1.00 20.00     0.043 C 
HETATM   11  C7  UNL     1     -33.651   3.847   5.153  1.00 20.00     0.014 C 
HETATM   12  C6  UNL     1     -35.091   3.869   5.692  1.00 20.00     0.018 C 
ENDBRANCH   4   7
TORSDOF 2
