REMARK  1 active torsions:
REMARK  status: ('A' for Active; 'I' for Inactive)
REMARK    1  A    between atoms: C7_7  and  C8_8 
ROOT
HETATM    1  C1  UNL     1     -32.505   8.597   2.319  1.00 20.00     0.066 C 
HETATM    2  C4  UNL     1     -31.400   6.774   3.557  1.00 20.00     0.048 C 
HETATM    3  C5  UNL     1     -31.840   5.616   2.687  1.00 20.00     0.169 C 
HETATM    4  C6  UNL     1     -32.588   7.714   3.496  1.00 20.00     0.124 C 
HETATM    5  C8  UNL     1     -33.769   6.747   3.376  1.00 20.00     0.143 C 
HETATM    6  N9  UNL     1     -32.440   9.292   1.392  1.00 20.00    -0.197 NA
HETATM    7  O10 UNL     1     -33.262   5.519   2.820  1.00 20.00    -0.384 OA
ENDROOT
BRANCH   5   8
HETATM    8  C7  UNL     1     -34.401   6.445   4.706  1.00 20.00     0.016 A 
HETATM    9  C2  UNL     1     -35.163   5.165   4.909  1.00 20.00     0.007 A 
HETATM   10  C3  UNL     1     -33.835   5.365   5.585  1.00 20.00     0.007 A 
ENDBRANCH   5   8
TORSDOF 1
