REMARK  0 active torsions:
REMARK  status: ('A' for Active; 'I' for Inactive)
ROOT
HETATM    1  C1  UNL     1     -32.075   7.364   2.089  1.00 20.00     0.015 C 
HETATM    2  C2  UNL     1     -32.310   7.117   3.240  1.00 20.00    -0.082 C 
HETATM    3  C3  UNL     1     -35.093   3.551   5.183  1.00 20.00     0.000 C 
HETATM    4  C4  UNL     1     -34.989   4.301   3.852  1.00 20.00     0.003 C 
HETATM    5  C5  UNL     1     -33.989   3.972   6.156  1.00 20.00     0.003 C 
HETATM    6  C6  UNL     1     -34.980   5.815   4.063  1.00 20.00     0.042 C 
HETATM    7  C7  UNL     1     -33.976   5.486   6.368  1.00 20.00     0.042 C 
HETATM    8  C8  UNL     1     -32.589   6.824   4.610  1.00 20.00     0.235 A 
HETATM    9  C9  UNL     1     -33.899   6.188   5.040  1.00 20.00     0.099 A 
HETATM   10  O10 UNL     1     -33.675   7.600   5.142  1.00 20.00    -0.356 OA
ENDROOT
TORSDOF 0
