REMARK  3 active torsions:
REMARK  status: ('A' for Active; 'I' for Inactive)
REMARK    1  A    between atoms: C2_2  and  C8_8 
REMARK    2  A    between atoms: C6_6  and  C7_7 
REMARK    3  A    between atoms: C6_6  and  C8_8 
ROOT
HETATM    1  C1  UNL     1     -34.232   5.655   4.824  1.00 20.00     0.063 C 
HETATM    2  C4  UNL     1     -33.777   4.482   2.716  1.00 20.00     0.025 C 
HETATM    3  C7  UNL     1     -34.529   5.638   3.378  1.00 20.00     0.089 C 
HETATM    4  N9  UNL     1     -34.000   5.668   5.961  1.00 20.00    -0.197 NA
ENDROOT
BRANCH   3   5
HETATM    5  C6  UNL     1     -34.140   6.973   2.711  1.00 20.00     0.030 C 
BRANCH   5   6
HETATM    6  C8  UNL     1     -32.645   7.086   2.355  1.00 20.00     0.052 C 
HETATM    7  C5  UNL     1     -31.782   6.996   3.612  1.00 20.00     0.018 C 
BRANCH   6   8
HETATM    8  C2  UNL     1     -32.330   8.402   1.650  1.00 20.00     0.127 C 
HETATM    9  C3  UNL     1     -31.183   8.390   0.673  1.00 20.00     0.091 C 
HETATM   10  O10 UNL     1     -32.952   9.439   1.883  1.00 20.00    -0.298 OA
ENDBRANCH   6   8
ENDBRANCH   5   6
ENDBRANCH   3   5
TORSDOF 3
