REMARK  1 active torsions:
REMARK  status: ('A' for Active; 'I' for Inactive)
REMARK    1  A    between atoms: C2_2  and  C7_7 
ROOT
HETATM    1  C1  UNL     1     -34.188   5.307   3.526  1.00 20.00     0.141 C 
HETATM    2  C3  UNL     1     -35.314   4.787   4.395  1.00 20.00     0.079 C 
HETATM    3  C4  UNL     1     -34.804   4.394   5.772  1.00 20.00     0.007 C 
HETATM    4  C5  UNL     1     -34.029   5.530   6.430  1.00 20.00     0.002 C 
HETATM    5  C6  UNL     1     -32.857   5.968   5.553  1.00 20.00     0.024 C 
HETATM    6  C7  UNL     1     -33.273   6.378   4.128  1.00 20.00     0.070 C 
HETATM    7  C8  UNL     1     -34.012   7.720   4.110  1.00 20.00     0.031 C 
HETATM    8  O9  UNL     1     -34.081   4.940   2.355  1.00 20.00    -0.297 OA
ENDROOT
BRANCH   6   9
HETATM    9  C2  UNL     1     -31.999   6.537   3.336  1.00 20.00     0.248 C 
HETATM   10  O10 UNL     1     -31.662   7.589   2.803  1.00 20.00    -0.306 OA
ENDBRANCH   6   9
TORSDOF 1
