REMARK  0 active torsions:
REMARK  status: ('A' for Active; 'I' for Inactive)
ROOT
HETATM    1  C1  UNL     1     -34.574   4.015   4.440  1.00 20.00     0.092 C 
HETATM    2  C2  UNL     1     -34.657   6.066   6.305  1.00 20.00     0.023 C 
HETATM    3  C3  UNL     1     -34.236   6.470   4.902  1.00 20.00     0.016 C 
HETATM    4  C4  UNL     1     -34.030   4.726   6.645  1.00 20.00     0.148 C 
HETATM    5  C5  UNL     1     -34.689   5.421   3.878  1.00 20.00    -0.014 C 
HETATM    6  C6  UNL     1     -33.821   5.513   2.617  1.00 20.00     0.020 C 
HETATM    7  C7  UNL     1     -36.162   5.633   3.493  1.00 20.00     0.020 C 
HETATM    8  N8  UNL     1     -34.310   3.688   5.656  1.00 20.00    -0.305 NA
ENDROOT
TORSDOF 0
