REMARK  1 active torsions:
REMARK  status: ('A' for Active; 'I' for Inactive)
REMARK    1  A    between atoms: C2_2  and  C3_3 
ROOT
HETATM    1  C1  UNL     1     -33.892   5.795   4.087  1.00 20.00    -0.077 C 
HETATM    2  C2  UNL     1     -32.917   5.889   3.172  1.00 20.00     0.044 C 
HETATM    3  C4  UNL     1     -34.903   4.679   4.079  1.00 20.00     0.034 C 
HETATM    4  C5  UNL     1     -34.042   6.785   5.213  1.00 20.00     0.034 C 
HETATM    5  C6  UNL     1     -34.942   3.973   5.434  1.00 20.00     0.004 C 
HETATM    6  C7  UNL     1     -34.085   6.068   6.563  1.00 20.00     0.004 C 
HETATM    7  C8  UNL     1     -35.140   4.960   6.585  1.00 20.00     0.001 C 
ENDROOT
BRANCH   2   8
HETATM    8  C3  UNL     1     -31.985   7.025   3.282  1.00 20.00     0.259 C 
HETATM    9  O9  UNL     1     -32.198   8.097   2.726  1.00 20.00    -0.302 OA
ENDBRANCH   2   8
TORSDOF 1
