REMARK  3 active torsions:
REMARK  status: ('A' for Active; 'I' for Inactive)
REMARK    1  A    between atoms: C1_1  and  C4_4 
REMARK    2  A    between atoms: C2_2  and  C9_9 
REMARK    3  A    between atoms: C9_9  and  O10_10 
ROOT
HETATM    1  C3  UNL     1     -34.280   4.989   3.394  1.00 20.00    -0.011 C 
HETATM    2  C4  UNL     1     -33.924   6.172   3.907  1.00 20.00    -0.008 C 
HETATM    3  C5  UNL     1     -35.128   4.210   4.344  1.00 20.00     0.028 C 
HETATM    4  C6  UNL     1     -34.478   6.371   5.280  1.00 20.00     0.048 C 
HETATM    5  C7  UNL     1     -34.946   4.965   5.659  1.00 20.00     0.009 C 
ENDROOT
BRANCH   2   6
HETATM    6  C1  UNL     1     -33.133   7.123   3.220  1.00 20.00    -0.069 C 
HETATM    7  C2  UNL     1     -32.463   7.930   2.637  1.00 20.00    -0.075 C 
BRANCH   7   8
HETATM    8  C9  UNL     1     -31.644   8.912   1.928  1.00 20.00     0.261 C 
BRANCH   8   9
HETATM    9  O10 UNL     1     -32.475   9.934   1.395  1.00 20.00    -0.384 OA
HETATM   10  C8  UNL     1     -32.830  10.888   2.388  1.00 20.00     0.202 C 
ENDBRANCH   8   9
ENDBRANCH   7   8
ENDBRANCH   2   6
TORSDOF 3
