REMARK  2 active torsions:
REMARK  status: ('A' for Active; 'I' for Inactive)
REMARK    1  A    between atoms: C1_1  and  C4_4 
REMARK    2  A    between atoms: C4_4  and  N5_5 
ROOT
HETATM    1  C4  UNL     1     -33.508   6.049   4.916  1.00 20.00     0.367 C 
ENDROOT
BRANCH   1   2
HETATM    2  C1  UNL     1     -32.930   6.237   3.529  1.00 20.00     0.247 C 
HETATM    3  O6  UNL     1     -33.407   5.729   2.519  1.00 20.00    -0.278 OA
HETATM    4 CL7  UNL     1     -31.517   7.259   3.569  1.00 20.00    -0.042 Cl
ENDBRANCH   1   2
BRANCH   1   5
HETATM    5  N5  UNL     1     -34.148   4.736   4.996  1.00 20.00     0.088 N 
HETATM    6  C2  UNL     1     -35.476   4.776   4.386  1.00 20.00     0.310 C 
HETATM    7  C3  UNL     1     -34.238   4.295   6.388  1.00 20.00     0.310 C 
ENDBRANCH   1   5
TORSDOF 2
