REMARK  2 active torsions:
REMARK  status: ('A' for Active; 'I' for Inactive)
REMARK    1  A    between atoms: C2_2  and  C3_3 
REMARK    2  A    between atoms: C3_3  and  O11_11 
ROOT
HETATM    1  C1  UNL     1     -34.021   5.905   3.851  1.00 20.00    -0.074 C 
HETATM    2  C2  UNL     1     -33.168   6.143   2.844  1.00 20.00     0.085 C 
HETATM    3  C4  UNL     1     -34.987   4.749   3.835  1.00 20.00     0.034 C 
HETATM    4  C5  UNL     1     -34.068   6.759   5.091  1.00 20.00     0.034 C 
HETATM    5  C6  UNL     1     -34.836   3.899   5.097  1.00 20.00     0.004 C 
HETATM    6  C7  UNL     1     -33.922   5.899   6.347  1.00 20.00     0.004 C 
HETATM    7  C8  UNL     1     -34.927   4.747   6.367  1.00 20.00     0.001 C 
ENDROOT
BRANCH   2   8
HETATM    8  C3  UNL     1     -32.245   7.292   2.919  1.00 20.00     0.282 C 
HETATM    9  O10 UNL     1     -31.784   7.766   3.945  1.00 20.00    -0.260 OA
BRANCH   8  10
HETATM   10  O11 UNL     1     -32.012   7.712   1.646  1.00 20.00    -0.323 OA
HETATM   11  C9  UNL     1     -31.128   8.830   1.520  1.00 20.00     0.213 C 
ENDBRANCH   8  10
ENDBRANCH   2   8
TORSDOF 2
