REMARK  2 active torsions:
REMARK  status: ('A' for Active; 'I' for Inactive)
REMARK    1  A    between atoms: C4_4  and  O6_6 
REMARK    2  A    between atoms: C4_4  and  O7_7 
ROOT
HETATM    1  C1  UNL     1     -36.169   5.412   3.758  1.00 20.00     0.120 C 
HETATM    2  C4  UNL     1     -34.725   5.212   3.950  1.00 20.00     0.369 C 
HETATM    3  N5  UNL     1     -37.309   5.568   3.606  1.00 20.00    -0.192 NA
ENDROOT
BRANCH   2   4
HETATM    4  O6  UNL     1     -34.484   4.712   5.269  1.00 20.00    -0.354 OA
HETATM    5  C2  UNL     1     -34.939   5.595   6.286  1.00 20.00     0.206 C 
ENDBRANCH   2   4
BRANCH   2   6
HETATM    6  O7  UNL     1     -34.078   6.476   3.759  1.00 20.00    -0.354 OA
HETATM    7  C3  UNL     1     -32.692   6.335   3.471  1.00 20.00     0.206 C 
ENDBRANCH   2   6
TORSDOF 2
