REMARK  1 active torsions:
REMARK  status: ('A' for Active; 'I' for Inactive)
REMARK    1  A    between atoms: C3_3  and  C6_6 
ROOT
HETATM    1  C1  UNL     1     -32.213   8.181   2.168  1.00 20.00    -0.154 C 
HETATM    2  C5  UNL     1     -31.898   8.460   0.940  1.00 20.00     0.096 C 
HETATM    3  C6  UNL     1     -32.525   7.908   3.398  1.00 20.00     0.058 C 
ENDROOT
BRANCH   3   4
HETATM    4  C3  UNL     1     -33.280   6.740   3.751  1.00 20.00    -0.041 A 
HETATM    5  C2  UNL     1     -33.649   6.375   4.986  1.00 20.00    -0.009 A 
HETATM    6  C4  UNL     1     -34.399   5.114   4.816  1.00 20.00     0.156 A 
HETATM    7  C9  UNL     1     -33.431   6.988   6.318  1.00 20.00     0.052 C 
HETATM    8  C8  UNL     1     -34.481   4.701   3.376  1.00 20.00     0.088 A 
HETATM    9  O10 UNL     1     -34.891   4.489   5.744  1.00 20.00    -0.293 OA
HETATM   10  C7  UNL     1     -33.720   5.808   2.660  1.00 20.00     0.047 A 
ENDBRANCH   3   4
TORSDOF 1
