REMARK  1 active torsions:
REMARK  status: ('A' for Active; 'I' for Inactive)
REMARK    1  A    between atoms: C1_1  and  C6_6 
ROOT
HETATM    1  C1  UNL     1     -33.687   6.306   3.805  1.00 20.00     0.149 C 
HETATM    2  C2  UNL     1     -35.378   4.951   4.113  1.00 20.00     0.209 C 
HETATM    3  C3  UNL     1     -34.483   4.991   5.346  1.00 20.00     0.070 C 
HETATM    4  C4  UNL     1     -35.268   5.297   6.617  1.00 20.00     0.042 C 
HETATM    5  C5  UNL     1     -33.678   3.699   5.510  1.00 20.00     0.042 C 
HETATM    6  N7  UNL     1     -33.538   6.093   5.074  1.00 20.00    -0.257 NA
HETATM    7  O8  UNL     1     -34.620   5.617   3.112  1.00 20.00    -0.335 OA
ENDROOT
BRANCH   1   8
HETATM    8  C6  UNL     1     -32.902   7.278   3.003  1.00 20.00     0.200 C 
HETATM    9 CL9  UNL     1     -31.316   7.433   3.766  1.00 20.00    -0.122 Cl
ENDBRANCH   1   8
TORSDOF 1
