REMARK  2 active torsions:
REMARK  status: ('A' for Active; 'I' for Inactive)
REMARK    1  A    between atoms: C6_6  and  C7_7 
REMARK    2  A    between atoms: C7_7  and  N8_8 
ROOT
HETATM    1  C7  UNL     1     -33.849   5.998   3.914  1.00 20.00     0.443 C 
HETATM    2  F9  UNL     1     -34.653   6.986   4.412  1.00 20.00    -0.172 F 
HETATM    3  F10 UNL     1     -34.298   5.787   2.643  1.00 20.00    -0.172 F 
ENDROOT
BRANCH   1   4
HETATM    4  C6  UNL     1     -32.402   6.564   3.855  1.00 20.00     0.046 C 
HETATM    5  C1  UNL     1     -31.341   5.457   3.976  1.00 20.00     0.023 C 
HETATM    6  C2  UNL     1     -32.200   7.274   2.500  1.00 20.00     0.023 C 
HETATM    7  C3  UNL     1     -32.178   7.595   4.978  1.00 20.00     0.023 C 
ENDBRANCH   1   4
BRANCH   1   8
HETATM    8  N8  UNL     1     -33.985   4.772   4.723  1.00 20.00     0.152 N 
HETATM    9  C4  UNL     1     -34.051   5.058   6.156  1.00 20.00     0.317 C 
HETATM   10  C5  UNL     1     -35.146   3.969   4.333  1.00 20.00     0.317 C 
ENDBRANCH   1   8
TORSDOF 2
