REMARK  0 active torsions:
REMARK  status: ('A' for Active; 'I' for Inactive)
ROOT
HETATM    1  C1  UNL     1     -35.281   4.291   5.119  1.00 20.00     0.097 C 
HETATM    2  C2  UNL     1     -31.887   7.839   3.103  1.00 20.00     0.008 C 
HETATM    3  C3  UNL     1     -31.752   7.754   4.436  1.00 20.00     0.029 C 
HETATM    4  C4  UNL     1     -33.577   6.092   2.942  1.00 20.00    -0.004 C 
HETATM    5  C5  UNL     1     -34.219   6.099   6.360  1.00 20.00     0.136 C 
HETATM    6  C6  UNL     1     -34.329   5.324   5.275  1.00 20.00     0.053 C 
HETATM    7  C7  UNL     1     -32.919   7.116   2.363  1.00 20.00    -0.065 C 
HETATM    8  C8  UNL     1     -32.718   6.859   5.097  1.00 20.00     0.047 C 
HETATM    9  C9  UNL     1     -33.227   5.648   4.326  1.00 20.00     0.106 C 
HETATM   10  C10 UNL     1     -33.181   7.562   0.958  1.00 20.00     0.048 C 
HETATM   11  N11 UNL     1     -36.063   3.443   4.991  1.00 20.00    -0.192 NA
HETATM   12  N12 UNL     1     -33.225   7.039   6.279  1.00 20.00    -0.263 NA
ENDROOT
TORSDOF 0
