REMARK  1 active torsions:
REMARK  status: ('A' for Active; 'I' for Inactive)
REMARK    1  A    between atoms: C4_4  and  C6_6 
ROOT
HETATM    1  C1  UNL     1     -35.036   4.947   6.358  1.00 20.00     0.135 A 
HETATM    2  C2  UNL     1     -34.912   4.412   5.095  1.00 20.00     0.136 A 
HETATM    3  C3  UNL     1     -33.506   6.560   5.825  1.00 20.00     0.149 A 
HETATM    4  C4  UNL     1     -33.381   6.025   4.562  1.00 20.00     0.122 A 
HETATM    5  N7  UNL     1     -34.335   6.030   6.746  1.00 20.00    -0.269 NA
HETATM    6  N8  UNL     1     -34.083   4.942   4.174  1.00 20.00    -0.256 NA
ENDROOT
BRANCH   4   7
HETATM    7  C6  UNL     1     -32.454   6.636   3.570  1.00 20.00     0.285 C 
HETATM    8  C5  UNL     1     -33.141   7.712   2.730  1.00 20.00     0.097 C 
HETATM    9  F9  UNL     1     -31.924   5.723   2.694  1.00 20.00    -0.200 F 
HETATM   10  F10 UNL     1     -31.357   7.224   4.150  1.00 20.00    -0.200 F 
ENDBRANCH   4   7
TORSDOF 1
