REMARK  3 active torsions:
REMARK  status: ('A' for Active; 'I' for Inactive)
REMARK    1  A    between atoms: C3_3  and  C7_7 
REMARK    2  A    between atoms: C7_7  and  C8_8 
REMARK    3  A    between atoms: C8_8  and  C9_9 
ROOT
HETATM    1  C1  UNL     1     -34.294   5.796   5.432  1.00 20.00     0.088 C 
HETATM    2  C2  UNL     1     -34.045   6.805   4.462  1.00 20.00     0.096 C 
HETATM    3  C3  UNL     1     -33.907   6.566   3.144  1.00 20.00    -0.074 C 
HETATM    4  C4  UNL     1     -34.015   5.160   2.615  1.00 20.00     0.044 C 
HETATM    5  N10 UNL     1     -34.496   4.977   6.228  1.00 20.00    -0.192 NA
ENDROOT
BRANCH   3   6
HETATM    6  C7  UNL     1     -33.615   7.631   2.106  1.00 20.00     0.034 C 
BRANCH   6   7
HETATM    7  C8  UNL     1     -32.110   7.875   1.938  1.00 20.00     0.008 C 
BRANCH   7   8
HETATM    8  C9  UNL     1     -31.778   8.906   0.842  1.00 20.00    -0.023 C 
HETATM    9  C5  UNL     1     -32.422  10.252   1.183  1.00 20.00     0.009 C 
HETATM   10  C6  UNL     1     -32.236   8.452  -0.545  1.00 20.00     0.009 C 
ENDBRANCH   7   8
ENDBRANCH   6   7
ENDBRANCH   3   6
TORSDOF 3
