REMARK  4 active torsions:
REMARK  status: ('A' for Active; 'I' for Inactive)
REMARK    1  A    between atoms: C7_7  and  C9_9 
REMARK    2  A    between atoms: C9_9  and  C11_11 
REMARK    3  A    between atoms: C10_10  and  C12_12 
REMARK    4  A    between atoms: C11_11  and  C12_12 
ROOT
HETATM    1  C1  UNL     1     -34.272   7.080   6.354  1.00 20.00     0.004 C 
HETATM    2  C2  UNL     1     -34.240   5.575   6.588  1.00 20.00     0.008 C 
HETATM    3  C3  UNL     1     -33.269   7.296   5.230  1.00 20.00     0.038 C 
HETATM    4  C4  UNL     1     -35.006   4.260   4.529  1.00 20.00     0.034 C 
HETATM    5  C5  UNL     1     -35.686   5.402   3.811  1.00 20.00     0.169 C 
HETATM    6  C6  UNL     1     -33.855   4.933   5.243  1.00 20.00     0.022 C 
HETATM    7  C7  UNL     1     -33.505   6.099   4.311  1.00 20.00     0.064 C 
HETATM    8  O13 UNL     1     -34.660   6.346   3.484  1.00 20.00    -0.380 OA
ENDROOT
BRANCH   7   9
HETATM    9  C9  UNL     1     -32.324   5.823   3.392  1.00 20.00     0.038 C 
BRANCH   9  10
HETATM   10  C11 UNL     1     -31.691   7.120   2.890  1.00 20.00     0.003 C 
BRANCH  10  11
HETATM   11  C12 UNL     1     -32.707   7.977   2.133  1.00 20.00    -0.000 C 
BRANCH  11  12
HETATM   12  C10 UNL     1     -32.066   9.259   1.601  1.00 20.00    -0.005 C 
HETATM   13  C8  UNL     1     -33.064  10.098   0.820  1.00 20.00     0.005 C 
ENDBRANCH  11  12
ENDBRANCH  10  11
ENDBRANCH   9  10
ENDBRANCH   7   9
TORSDOF 4
