REMARK  3 active torsions:
REMARK  status: ('A' for Active; 'I' for Inactive)
REMARK    1  A    between atoms: C6_6  and  C8_8 
REMARK    2  A    between atoms: C7_7  and  O11_11 
REMARK    3  A    between atoms: C9_9  and  C10_10 
ROOT
HETATM    1  C1  UNL     1     -33.131   6.669   5.985  1.00 20.00    -0.023 C 
HETATM    2  C2  UNL     1     -32.523   7.364   4.997  1.00 20.00     0.001 C 
HETATM    3  C6  UNL     1     -34.343   6.045   5.398  1.00 20.00     0.019 C 
HETATM    4  C7  UNL     1     -33.176   7.092   3.640  1.00 20.00     0.145 C 
HETATM    5  C10 UNL     1     -33.758   5.747   4.011  1.00 20.00     0.030 C 
ENDROOT
BRANCH   4   6
HETATM    6  O11 UNL     1     -32.201   6.969   2.625  1.00 20.00    -0.391 OA
HETATM    7  H25 UNL     1     -31.710   7.809   2.594  1.00 20.00     0.210 HD
ENDBRANCH   4   6
BRANCH   5   8
HETATM    8  C9  UNL     1     -34.844   4.870   3.366  1.00 20.00    -0.007 C 
HETATM    9  C4  UNL     1     -34.454   3.420   3.758  1.00 20.00     0.005 C 
HETATM   10  C3  UNL     1     -34.540   3.464   5.308  1.00 20.00     0.005 C 
HETATM   11  C8  UNL     1     -35.231   4.813   5.596  1.00 20.00    -0.006 C 
HETATM   12  C5  UNL     1     -36.064   4.999   4.299  1.00 20.00     0.010 C 
ENDBRANCH   5   8
TORSDOF 3
