REMARK  0 active torsions:
REMARK  status: ('A' for Active; 'I' for Inactive)
ROOT
HETATM    1  C1  UNL     1     -34.804   4.731   6.264  1.00 20.00     0.002 C 
HETATM    2  C2  UNL     1     -35.071   4.536   4.963  1.00 20.00     0.030 C 
HETATM    3  C3  UNL     1     -33.863   5.738   6.728  1.00 20.00    -0.001 C 
HETATM    4  C4  UNL     1     -33.443   6.725   5.917  1.00 20.00     0.006 C 
HETATM    5  C5  UNL     1     -33.125   6.292   2.588  1.00 20.00     0.228 C 
HETATM    6  C6  UNL     1     -34.353   5.444   4.057  1.00 20.00     0.064 C 
HETATM    7  C7  UNL     1     -33.980   6.824   4.529  1.00 20.00     0.184 C 
HETATM    8  N8  UNL     1     -33.012   7.220   3.492  1.00 20.00    -0.268 NA
HETATM    9  N9  UNL     1     -33.926   5.210   2.866  1.00 20.00    -0.244 NA
ENDROOT
TORSDOF 0
