REMARK  2 active torsions:
REMARK  status: ('A' for Active; 'I' for Inactive)
REMARK    1  A    between atoms: C1_1  and  C5_5 
REMARK    2  A    between atoms: C1_1  and  C6_6 
ROOT
HETATM    1  C2  UNL     1     -34.315   4.929   5.103  1.00 20.00     0.029 C 
HETATM    2  C3  UNL     1     -34.153   6.414   4.881  1.00 20.00     0.042 C 
HETATM    3  C4  UNL     1     -34.986   4.491   3.821  1.00 20.00     0.168 C 
HETATM    4  C5  UNL     1     -33.887   6.495   3.389  1.00 20.00     0.192 C 
HETATM    5  O8  UNL     1     -34.477   5.341   2.785  1.00 20.00    -0.378 OA
ENDROOT
BRANCH   4   6
HETATM    6  C1  UNL     1     -32.426   6.443   3.064  1.00 20.00     0.169 C 
HETATM    7  O7  UNL     1     -31.849   5.364   2.948  1.00 20.00    -0.294 OA
BRANCH   6   8
HETATM    8  C6  UNL     1     -31.743   7.781   2.898  1.00 20.00     0.195 C 
HETATM    9 CL9  UNL     1     -31.806   8.311   1.211  1.00 20.00    -0.122 Cl
ENDBRANCH   6   8
ENDBRANCH   4   6
TORSDOF 2
