REMARK  1 active torsions:
REMARK  status: ('A' for Active; 'I' for Inactive)
REMARK    1  A    between atoms: C3_3  and  C7_7 
ROOT
HETATM    1  C1  UNL     1     -35.018   4.810   3.381  1.00 20.00    -0.025 C 
HETATM    2  C2  UNL     1     -33.682   4.796   3.250  1.00 20.00    -0.024 C 
HETATM    3  C4  UNL     1     -35.031   7.114   4.177  1.00 20.00     0.021 C 
HETATM    4  C5  UNL     1     -35.333   5.651   4.602  1.00 20.00     0.017 C 
HETATM    5  C6  UNL     1     -33.114   5.640   4.379  1.00 20.00     0.027 C 
HETATM    6  C7  UNL     1     -33.476   7.118   4.059  1.00 20.00     0.056 C 
HETATM    7  C8  UNL     1     -34.124   5.286   5.507  1.00 20.00    -0.033 C 
HETATM    8  C9  UNL     1     -34.084   3.806   5.961  1.00 20.00     0.016 C 
HETATM    9  C10 UNL     1     -34.000   6.130   6.790  1.00 20.00     0.016 C 
ENDROOT
BRANCH   6  10
HETATM   10  C3  UNL     1     -32.993   7.578   2.716  1.00 20.00     0.236 C 
HETATM   11  O11 UNL     1     -31.960   7.172   2.194  1.00 20.00    -0.306 OA
ENDBRANCH   6  10
TORSDOF 1
