REMARK  1 active torsions:
REMARK  status: ('A' for Active; 'I' for Inactive)
REMARK    1  A    between atoms: C6_6  and  N12_12 
ROOT
HETATM    1  C1  UNL     1     -34.706   4.580   3.382  1.00 20.00     0.026 A 
HETATM    2  C2  UNL     1     -34.028   5.303   2.423  1.00 20.00     0.097 A 
HETATM    3  C3  UNL     1     -34.468   5.209   4.628  1.00 20.00    -0.034 A 
HETATM    4  C4  UNL     1     -33.647   6.292   4.386  1.00 20.00     0.022 A 
HETATM    5  C7  UNL     1     -34.935   4.849   5.996  1.00 20.00     0.040 C 
HETATM    6  C8  UNL     1     -33.151   7.264   5.395  1.00 20.00     0.058 C 
HETATM    7  C9  UNL     1     -34.735   6.023   6.975  1.00 20.00     0.005 C 
HETATM    8  C10 UNL     1     -33.356   6.691   6.811  1.00 20.00     0.006 C 
HETATM    9  N12 UNL     1     -33.387   6.345   3.045  1.00 20.00    -0.330 N 
ENDROOT
BRANCH   9  10
HETATM   10  C6  UNL     1     -32.612   7.290   2.395  1.00 20.00     0.003 C 
HETATM   11  C5  UNL     1     -32.460   8.564   2.807  1.00 20.00     0.038 C 
HETATM   12  C11 UNL     1     -31.876   6.890   1.133  1.00 20.00     0.068 C 
ENDBRANCH   9  10
TORSDOF 1
