REMARK  1 active torsions:
REMARK  status: ('A' for Active; 'I' for Inactive)
REMARK    1  A    between atoms: C7_7  and  N8_8 
ROOT
HETATM    1  C1  UNL     1     -32.250   9.032   0.849  1.00 20.00     0.013 C 
HETATM    2  C2  UNL     1     -32.081   8.315   1.797  1.00 20.00    -0.087 C 
HETATM    3  C7  UNL     1     -31.869   7.440   2.953  1.00 20.00     0.364 C 
ENDROOT
BRANCH   3   4
HETATM    4  N8  UNL     1     -33.158   6.956   3.483  1.00 20.00     0.100 N 
HETATM    5  C3  UNL     1     -33.625   5.839   2.650  1.00 20.00     0.283 C 
HETATM    6  C5  UNL     1     -35.020   5.360   3.046  1.00 20.00     0.104 C 
HETATM    7  S9  UNL     1     -35.052   4.727   4.746  1.00 20.00    -0.166 SA
HETATM    8  C6  UNL     1     -34.289   6.160   5.555  1.00 20.00     0.104 C 
HETATM    9  C4  UNL     1     -32.974   6.552   4.885  1.00 20.00     0.283 C 
ENDBRANCH   3   4
TORSDOF 1
