REMARK  2 active torsions:
REMARK  status: ('A' for Active; 'I' for Inactive)
REMARK    1  A    between atoms: C5_5  and  C6_6 
REMARK    2  A    between atoms: C6_6  and  N7_7 
ROOT
HETATM    1  C1  UNL     1     -32.119   8.597   1.567  1.00 20.00     0.012 C 
HETATM    2  C2  UNL     1     -32.449   7.603   2.155  1.00 20.00    -0.116 C 
HETATM    3  C5  UNL     1     -32.851   6.384   2.873  1.00 20.00     0.123 C 
ENDROOT
BRANCH   3   4
HETATM    4  C6  UNL     1     -33.506   6.699   4.214  1.00 20.00     0.283 C 
BRANCH   4   5
HETATM    5  N7  UNL     1     -33.931   5.473   4.888  1.00 20.00     0.080 N 
HETATM    6  C3  UNL     1     -34.851   4.716   4.039  1.00 20.00     0.309 C 
HETATM    7  C4  UNL     1     -34.560   5.786   6.170  1.00 20.00     0.309 C 
ENDBRANCH   4   5
ENDBRANCH   3   4
TORSDOF 2
