REMARK  0 active torsions:
REMARK  status: ('A' for Active; 'I' for Inactive)
ROOT
HETATM    1  C1  UNL     1     -34.313   6.392   6.048  1.00 20.00     0.131 C 
HETATM    2  C2  UNL     1     -34.276   4.187   4.479  1.00 20.00     0.059 C 
HETATM    3  C3  UNL     1     -35.096   4.138   5.752  1.00 20.00     0.179 C 
HETATM    4  C4  UNL     1     -34.392   5.567   3.826  1.00 20.00     0.051 C 
HETATM    5  C5  UNL     1     -34.041   7.427   7.092  1.00 20.00     0.099 C 
HETATM    6  C6  UNL     1     -33.361   5.686   2.695  1.00 20.00     0.040 C 
HETATM    7  C7  UNL     1     -35.792   5.828   3.256  1.00 20.00     0.040 C 
HETATM    8  N8  UNL     1     -34.091   6.620   4.802  1.00 20.00    -0.261 NA
HETATM    9  O9  UNL     1     -34.790   5.250   6.607  1.00 20.00    -0.338 OA
ENDROOT
TORSDOF 0
