REMARK  1 active torsions:
REMARK  status: ('A' for Active; 'I' for Inactive)
REMARK    1  A    between atoms: C4_4  and  C10_10 
ROOT
HETATM    1  C1  UNL     1     -34.335   6.554   5.080  1.00 20.00     0.092 C 
HETATM    2  C2  UNL     1     -33.396   5.874   2.561  1.00 20.00     0.029 C 
HETATM    3  C3  UNL     1     -33.769   4.705   3.459  1.00 20.00     0.016 C 
HETATM    4  C4  UNL     1     -32.687   6.932   3.400  1.00 20.00     0.110 C 
HETATM    5  C5  UNL     1     -34.700   5.164   4.588  1.00 20.00    -0.014 C 
HETATM    6  C6  UNL     1     -36.156   5.229   4.101  1.00 20.00     0.020 C 
HETATM    7  C7  UNL     1     -34.609   4.192   5.771  1.00 20.00     0.020 C 
HETATM    8  N11 UNL     1     -33.478   7.358   4.556  1.00 20.00    -0.299 NA
ENDROOT
BRANCH   4   9
HETATM    9  C10 UNL     1     -32.380   8.169   2.561  1.00 20.00     0.002 C 
HETATM   10  C8  UNL     1     -31.449   7.816   1.402  1.00 20.00     0.011 C 
HETATM   11  C9  UNL     1     -33.670   8.799   2.038  1.00 20.00     0.011 C 
ENDBRANCH   4   9
TORSDOF 1
