REMARK  0 active torsions:
REMARK  status: ('A' for Active; 'I' for Inactive)
ROOT
HETATM    1  C1  UNL     1     -33.972   4.907   2.540  1.00 20.00     0.011 A 
HETATM    2  C2  UNL     1     -33.229   5.872   1.861  1.00 20.00     0.024 A 
HETATM    3  C3  UNL     1     -32.978   7.126   3.911  1.00 20.00     0.031 A 
HETATM    4  C4  UNL     1     -34.218   5.041   3.912  1.00 20.00    -0.028 A 
HETATM    5  C5  UNL     1     -33.733   6.168   4.598  1.00 20.00    -0.046 A 
HETATM    6  C6  UNL     1     -32.731   6.979   2.546  1.00 20.00     0.034 A 
HETATM    7  C7  UNL     1     -33.972   6.304   6.078  1.00 20.00     0.065 C 
HETATM    8  C8  UNL     1     -35.047   4.011   4.636  1.00 20.00     0.206 C 
HETATM    9  C9  UNL     1     -35.137   5.429   6.526  1.00 20.00     0.172 C 
HETATM   10  O10 UNL     1     -34.927   4.096   6.060  1.00 20.00    -0.386 OA
HETATM   11 CL11 UNL     1     -31.808   8.165   1.707  1.00 20.00    -0.084 Cl
ENDROOT
TORSDOF 0
