REMARK  2 active torsions:
REMARK  status: ('A' for Active; 'I' for Inactive)
REMARK    1  A    between atoms: C4_4  and  C6_6 
REMARK    2  A    between atoms: C7_7  and  C9_9 
ROOT
HETATM    1  C1  UNL     1     -33.124   7.479   6.121  1.00 20.00    -0.003 C 
HETATM    2  C2  UNL     1     -32.485   7.370   4.835  1.00 20.00     0.011 C 
HETATM    3  C3  UNL     1     -34.182   6.726   6.446  1.00 20.00    -0.021 C 
HETATM    4  C4  UNL     1     -32.830   6.406   3.969  1.00 20.00    -0.012 C 
HETATM    5  C8  UNL     1     -34.793   5.719   5.499  1.00 20.00     0.016 C 
HETATM    6  C9  UNL     1     -33.907   5.381   4.253  1.00 20.00     0.051 C 
HETATM    7  C10 UNL     1     -35.158   4.437   6.258  1.00 20.00     0.015 C 
ENDROOT
BRANCH   4   8
HETATM    8  C6  UNL     1     -32.044   6.335   2.731  1.00 20.00     0.266 C 
HETATM    9  O11 UNL     1     -31.532   7.322   2.218  1.00 20.00    -0.302 OA
ENDBRANCH   4   8
BRANCH   6  10
HETATM   10  C7  UNL     1     -34.805   5.157   3.067  1.00 20.00    -0.027 C 
HETATM   11  C5  UNL     1     -34.936   3.983   2.438  1.00 20.00     0.007 C 
ENDBRANCH   6  10
TORSDOF 2
