REMARK  2 active torsions:
REMARK  status: ('A' for Active; 'I' for Inactive)
REMARK    1  A    between atoms: C4_4  and  C5_5 
REMARK    2  A    between atoms: C5_5  and  C8_8 
ROOT
HETATM    1  C1  UNL     1     -35.231   4.737   5.133  1.00 20.00    -0.027 A 
HETATM    2  C2  UNL     1     -35.200   4.801   3.794  1.00 20.00    -0.026 A 
HETATM    3  C3  UNL     1     -33.361   6.421   5.262  1.00 20.00    -0.012 A 
HETATM    4  C4  UNL     1     -33.337   6.479   3.922  1.00 20.00    -0.003 A 
HETATM    5  C6  UNL     1     -34.318   5.540   6.015  1.00 20.00     0.054 A 
HETATM    6  C7  UNL     1     -34.249   5.683   3.036  1.00 20.00     0.069 A 
ENDROOT
BRANCH   4   7
HETATM    7  C5  UNL     1     -32.362   7.374   3.294  1.00 20.00     0.261 C 
HETATM    8  O9  UNL     1     -31.154   7.223   3.483  1.00 20.00    -0.283 OA
BRANCH   7   9
HETATM    9  C8  UNL     1     -32.899   8.471   2.419  1.00 20.00     0.455 C 
HETATM   10  F10 UNL     1     -34.254   8.459   2.347  1.00 20.00    -0.163 F 
HETATM   11  F11 UNL     1     -32.438   8.372   1.146  1.00 20.00    -0.163 F 
HETATM   12  F12 UNL     1     -32.541   9.699   2.873  1.00 20.00    -0.163 F 
ENDBRANCH   7   9
ENDBRANCH   4   7
TORSDOF 2
