REMARK  2 active torsions:
REMARK  status: ('A' for Active; 'I' for Inactive)
REMARK    1  A    between atoms: C1_1  and  C4_4 
REMARK    2  A    between atoms: C1_1  and  C6_6 
ROOT
HETATM    1  C1  UNL     1     -34.178   5.617   3.841  1.00 20.00     0.145 C 
HETATM    2  O7  UNL     1     -35.292   6.037   3.554  1.00 20.00    -0.296 OA
ENDROOT
BRANCH   1   3
HETATM    3  C4  UNL     1     -33.024   5.900   2.936  1.00 20.00     0.057 A 
HETATM    4  C2  UNL     1     -32.736   7.318   2.572  1.00 20.00     0.013 A 
HETATM    5  C3  UNL     1     -31.824   6.580   3.506  1.00 20.00     0.013 A 
ENDBRANCH   1   3
BRANCH   1   6
HETATM    6  C6  UNL     1     -33.869   4.825   5.090  1.00 20.00     0.123 C 
HETATM    7  C5  UNL     1     -34.722   3.577   5.211  1.00 20.00     0.030 C 
HETATM    8 BR8  UNL     1     -34.251   6.025   6.576  1.00 20.00    -0.084 Br
ENDBRANCH   1   6
TORSDOF 2
