REMARK  0 active torsions:
REMARK  status: ('A' for Active; 'I' for Inactive)
ROOT
HETATM    1  C1  UNL     1     -32.223   8.090   2.389  1.00 20.00     0.015 C 
HETATM    2  C2  UNL     1     -33.234   7.785   7.212  1.00 20.00     0.015 C 
HETATM    3  C3  UNL     1     -32.753   7.292   3.112  1.00 20.00    -0.082 C 
HETATM    4  C4  UNL     1     -33.752   7.412   6.195  1.00 20.00    -0.082 C 
HETATM    5  C5  UNL     1     -33.398   6.318   3.994  1.00 20.00     0.243 C 
HETATM    6  C6  UNL     1     -34.383   6.958   4.955  1.00 20.00     0.243 C 
HETATM    7  C7  UNL     1     -35.300   5.063   4.079  1.00 20.00     0.160 C 
HETATM    8  C8  UNL     1     -36.600   5.247   3.308  1.00 20.00     0.078 C 
HETATM    9  C9  UNL     1     -35.126   3.619   4.533  1.00 20.00     0.078 C 
HETATM   10  O10 UNL     1     -34.207   5.423   3.224  1.00 20.00    -0.335 OA
HETATM   11  O11 UNL     1     -35.314   5.907   5.237  1.00 20.00    -0.335 OA
ENDROOT
TORSDOF 0
