REMARK  2 active torsions:
REMARK  status: ('A' for Active; 'I' for Inactive)
REMARK    1  A    between atoms: C1_1  and  C5_5 
REMARK    2  A    between atoms: C5_5  and  O8_8 
ROOT
HETATM    1  C2  UNL     1     -32.311   7.470   3.370  1.00 20.00     0.007 C 
HETATM    2  C3  UNL     1     -32.240   5.963   3.664  1.00 20.00     0.047 C 
HETATM    3  C4  UNL     1     -33.838   7.376   3.524  1.00 20.00     0.047 C 
HETATM    4  C5  UNL     1     -33.629   6.079   4.368  1.00 20.00     0.136 C 
ENDROOT
BRANCH   4   5
HETATM    5  C1  UNL     1     -33.586   6.272   5.908  1.00 20.00     0.253 C 
HETATM    6  O7  UNL     1     -33.029   7.237   6.422  1.00 20.00    -0.276 OA
HETATM    7 CL9  UNL     1     -34.400   4.988   6.750  1.00 20.00    -0.041 Cl
ENDBRANCH   4   5
BRANCH   4   8
HETATM    8  O8  UNL     1     -34.537   5.008   4.025  1.00 20.00    -0.376 OA
HETATM    9  C6  UNL     1     -35.874   5.463   4.050  1.00 20.00     0.203 C 
ENDBRANCH   4   8
TORSDOF 2
