REMARK  2 active torsions:
REMARK  status: ('A' for Active; 'I' for Inactive)
REMARK    1  A    between atoms: C1_1  and  C8_8 
REMARK    2  A    between atoms: C2_2  and  C9_9 
ROOT
HETATM    1  C3  UNL     1     -36.255   5.177   4.079  1.00 20.00     0.082 C 
HETATM    2  C6  UNL     1     -33.950   4.570   4.920  1.00 20.00     0.040 A 
HETATM    3  C7  UNL     1     -34.439   5.718   5.751  1.00 20.00     0.040 A 
HETATM    4  C9  UNL     1     -34.899   5.580   4.319  1.00 20.00     0.112 A 
HETATM    5  N10 UNL     1     -37.351   4.852   3.884  1.00 20.00    -0.195 NA
ENDROOT
BRANCH   4   6
HETATM    6  C2  UNL     1     -34.383   6.502   3.349  1.00 20.00    -0.081 C 
HETATM    7  C1  UNL     1     -33.951   7.274   2.538  1.00 20.00    -0.100 C 
BRANCH   7   8
HETATM    8  C8  UNL     1     -33.425   8.215   1.549  1.00 20.00     0.065 A 
HETATM    9  C4  UNL     1     -31.949   8.256   1.344  1.00 20.00     0.018 A 
HETATM   10  C5  UNL     1     -32.644   9.383   2.046  1.00 20.00     0.018 A 
ENDBRANCH   7   8
ENDBRANCH   4   6
TORSDOF 2
