REMARK  1 active torsions:
REMARK  status: ('A' for Active; 'I' for Inactive)
REMARK    1  A    between atoms: C2_2  and  C8_8 
ROOT
HETATM    1  C1  UNL     1     -33.506   6.399   5.583  1.00 20.00     0.136 C 
HETATM    2  C3  UNL     1     -34.487   6.109   6.699  1.00 20.00     0.079 C 
HETATM    3  C4  UNL     1     -35.238   4.795   6.504  1.00 20.00     0.007 C 
HETATM    4  C5  UNL     1     -34.293   3.707   6.007  1.00 20.00     0.002 C 
HETATM    5  C6  UNL     1     -33.758   4.029   4.611  1.00 20.00     0.018 C 
HETATM    6  C7  UNL     1     -34.473   6.117   3.245  1.00 20.00     0.030 A 
HETATM    7  C8  UNL     1     -33.002   5.923   3.034  1.00 20.00     0.064 A 
HETATM    8  C9  UNL     1     -33.630   5.527   4.366  1.00 20.00     0.031 A 
HETATM    9  O10 UNL     1     -32.679   7.300   5.663  1.00 20.00    -0.297 OA
ENDROOT
BRANCH   7  10
HETATM   10  C2  UNL     1     -32.132   7.096   2.897  1.00 20.00     0.236 C 
HETATM   11  O11 UNL     1     -32.354   8.016   2.117  1.00 20.00    -0.306 OA
ENDBRANCH   7  10
TORSDOF 1
