REMARK  3 active torsions:
REMARK  status: ('A' for Active; 'I' for Inactive)
REMARK    1  A    between atoms: C7_7  and  C8_8 
REMARK    2  A    between atoms: C8_8  and  C9_9 
REMARK    3  A    between atoms: C9_9  and  N10_10 
ROOT
HETATM    1  C1  UNL     1     -32.785   9.064   1.834  1.00 20.00     0.012 C 
HETATM    2  C3  UNL     1     -32.205   8.309   2.566  1.00 20.00    -0.117 C 
HETATM    3  C7  UNL     1     -31.490   7.389   3.462  1.00 20.00     0.096 C 
ENDROOT
BRANCH   3   4
HETATM    4  C8  UNL     1     -32.255   6.077   3.682  1.00 20.00     0.061 C 
BRANCH   4   5
HETATM    5  C9  UNL     1     -33.677   6.252   4.250  1.00 20.00     0.300 C 
HETATM    6  C4  UNL     1     -33.659   6.423   5.713  1.00 20.00    -0.081 C 
HETATM    7  C2  UNL     1     -33.646   6.568   6.905  1.00 20.00     0.014 C 
BRANCH   5   8
HETATM    8  N10 UNL     1     -34.471   5.069   3.909  1.00 20.00     0.095 N 
HETATM    9  C5  UNL     1     -34.903   5.131   2.514  1.00 20.00     0.310 C 
HETATM   10  C6  UNL     1     -35.625   4.957   4.799  1.00 20.00     0.310 C 
ENDBRANCH   5   8
ENDBRANCH   4   5
ENDBRANCH   3   4
TORSDOF 3
