REMARK  3 active torsions:
REMARK  status: ('A' for Active; 'I' for Inactive)
REMARK    1  A    between atoms: C1_1  and  C3_3 
REMARK    2  A    between atoms: C2_2  and  C7_7 
REMARK    3  A    between atoms: C7_7  and  C8_8 
ROOT
HETATM    1  C1  UNL     1     -32.549   7.357   2.173  1.00 20.00    -0.029 C 
HETATM    2  C2  UNL     1     -32.883   6.413   2.836  1.00 20.00    -0.098 C 
ENDROOT
BRANCH   2   3
HETATM    3  C7  UNL     1     -33.293   5.256   3.646  1.00 20.00     0.098 C 
BRANCH   3   4
HETATM    4  C8  UNL     1     -34.103   5.635   4.899  1.00 20.00    -0.012 C 
HETATM    5  C5  UNL     1     -35.395   6.377   4.553  1.00 20.00     0.010 C 
HETATM    6  C6  UNL     1     -34.397   4.425   5.788  1.00 20.00     0.010 C 
ENDBRANCH   3   4
ENDBRANCH   2   3
BRANCH   1   7
HETATM    7  C3  UNL     1     -32.152   8.497   1.383  1.00 20.00     0.198 C 
HETATM    8  C4  UNL     1     -32.991   9.732   1.531  1.00 20.00     0.106 C 
HETATM    9  O9  UNL     1     -31.180   8.418   0.645  1.00 20.00    -0.284 OA
ENDBRANCH   1   7
TORSDOF 3
