REMARK  0 active torsions:
REMARK  status: ('A' for Active; 'I' for Inactive)
ROOT
HETATM    1  C1  UNL     1     -31.952   6.521   3.033  1.00 20.00     0.015 C 
HETATM    2  C2  UNL     1     -32.911   6.007   3.539  1.00 20.00    -0.073 C 
HETATM    3  C3  UNL     1     -33.756   3.989   4.707  1.00 20.00     0.225 C 
HETATM    4  C4  UNL     1     -35.290   4.986   6.089  1.00 20.00     0.442 C 
HETATM    5  C5  UNL     1     -34.089   5.376   4.161  1.00 20.00     0.240 C 
HETATM    6  C6  UNL     1     -35.202   5.294   3.097  1.00 20.00     0.066 C 
HETATM    7  C7  UNL     1     -33.597   6.684   6.209  1.00 20.00     0.315 C 
HETATM    8  N8  UNL     1     -34.623   6.075   5.355  1.00 20.00     0.130 N 
HETATM    9  O9  UNL     1     -34.728   3.720   5.725  1.00 20.00    -0.359 OA
ENDROOT
TORSDOF 0
