REMARK  0 active torsions:
REMARK  status: ('A' for Active; 'I' for Inactive)
ROOT
HETATM    1  C1  UNL     1     -33.709   6.110   5.626  1.00 20.00     0.223 C 
HETATM    2  C2  UNL     1     -33.864   6.074   3.265  1.00 20.00     0.130 C 
HETATM    3  C3  UNL     1     -34.135   4.710   5.212  1.00 20.00     0.079 C 
HETATM    4  C4  UNL     1     -34.716   4.923   3.799  1.00 20.00     0.012 C 
HETATM    5  C5  UNL     1     -35.051   4.049   6.226  1.00 20.00     0.020 C 
HETATM    6  C6  UNL     1     -36.203   5.284   3.774  1.00 20.00     0.012 C 
HETATM    7  C7  UNL     1     -33.044   8.193   4.364  1.00 20.00     0.152 C 
HETATM    8  N8  UNL     1     -33.554   6.842   4.449  1.00 20.00    -0.356 N 
HETATM    9  O9  UNL     1     -33.501   6.477   6.772  1.00 20.00    -0.273 OA
ENDROOT
TORSDOF 0
