REMARK  0 active torsions:
REMARK  status: ('A' for Active; 'I' for Inactive)
ROOT
HETATM    1  C1  UNL     1     -32.081   7.574   2.322  1.00 20.00     0.014 C 
HETATM    2  C2  UNL     1     -32.817   6.715   2.725  1.00 20.00    -0.081 C 
HETATM    3  C3  UNL     1     -34.197   5.967   6.104  1.00 20.00     0.035 C 
HETATM    4  C4  UNL     1     -35.315   4.068   4.960  1.00 20.00     0.035 C 
HETATM    5  C5  UNL     1     -33.026   4.773   4.276  1.00 20.00     0.053 C 
HETATM    6  C6  UNL     1     -34.756   6.919   5.035  1.00 20.00     0.274 C 
HETATM    7  C7  UNL     1     -35.924   5.101   3.997  1.00 20.00     0.274 C 
HETATM    8  C8  UNL     1     -33.720   5.661   3.219  1.00 20.00     0.300 C 
HETATM    9  C9  UNL     1     -33.965   4.584   5.480  1.00 20.00    -0.008 C 
HETATM   10  N10 UNL     1     -34.992   6.226   3.746  1.00 20.00     0.104 N 
ENDROOT
TORSDOF 0
