REMARK  1 active torsions:
REMARK  status: ('A' for Active; 'I' for Inactive)
REMARK    1  A    between atoms: C3_3  and  C9_9 
ROOT
HETATM    1  C1  UNL     1     -34.471   5.185   6.578  1.00 20.00    -0.030 C 
HETATM    2  C2  UNL     1     -35.118   6.208   5.998  1.00 20.00    -0.026 C 
HETATM    3  C4  UNL     1     -33.973   3.997   5.799  1.00 20.00     0.031 C 
HETATM    4  C5  UNL     1     -34.460   7.169   3.779  1.00 20.00     0.022 C 
HETATM    5  C6  UNL     1     -35.389   4.832   3.923  1.00 20.00     0.013 C 
HETATM    6  C7  UNL     1     -32.864   5.156   3.821  1.00 20.00     0.018 C 
HETATM    7  C8  UNL     1     -35.445   6.245   4.520  1.00 20.00     0.009 C 
HETATM    8  C9  UNL     1     -33.324   6.411   3.070  1.00 20.00     0.073 C 
HETATM    9  C10 UNL     1     -34.022   4.231   4.272  1.00 20.00    -0.010 C 
ENDROOT
BRANCH   8  10
HETATM   10  C3  UNL     1     -32.153   7.323   2.868  1.00 20.00     0.223 C 
HETATM   11  O11 UNL     1     -31.241   7.394   3.686  1.00 20.00    -0.279 OA
HETATM   12 CL12 UNL     1     -32.269   8.218   1.383  1.00 20.00    -0.043 Cl
ENDBRANCH   8  10
TORSDOF 1
