REMARK  0 active torsions:
REMARK  status: ('A' for Active; 'I' for Inactive)
ROOT
HETATM    1  C1  UNL     1     -35.304   5.483   5.477  1.00 20.00     0.148 A 
HETATM    2  C2  UNL     1     -33.562   6.644   6.016  1.00 20.00     0.218 A 
HETATM    3  C3  UNL     1     -34.550   5.600   4.346  1.00 20.00     0.061 A 
HETATM    4  C4  UNL     1     -34.401   5.301   2.987  1.00 20.00     0.037 A 
HETATM    5  C5  UNL     1     -33.251   5.835   2.526  1.00 20.00     0.077 A 
HETATM    6  C6  UNL     1     -32.598   6.534   3.661  1.00 20.00     0.253 A 
HETATM    7  N7  UNL     1     -34.676   6.143   6.524  1.00 20.00    -0.253 NA
HETATM    8  N8  UNL     1     -33.465   6.328   4.702  1.00 20.00    -0.272 N 
HETATM    9  O9  UNL     1     -31.565   7.158   3.751  1.00 20.00    -0.268 OA
ENDROOT
TORSDOF 0
