REMARK  2 active torsions:
REMARK  status: ('A' for Active; 'I' for Inactive)
REMARK    1  A    between atoms: C2_2  and  C3_3 
REMARK    2  A    between atoms: C3_3  and  C6_6 
ROOT
HETATM    1  C3  UNL     1     -33.467   6.100   4.811  1.00 20.00     0.170 C 
HETATM    2  O7  UNL     1     -33.485   6.764   5.840  1.00 20.00    -0.291 OA
ENDROOT
BRANCH   1   3
HETATM    3  C2  UNL     1     -34.540   5.114   4.477  1.00 20.00     0.047 C 
HETATM    4  C1  UNL     1     -35.299   5.223   3.379  1.00 20.00     0.035 C 
HETATM    5 BR8  UNL     1     -34.806   3.709   5.688  1.00 20.00    -0.048 Br
ENDBRANCH   1   3
BRANCH   1   6
HETATM    6  C6  UNL     1     -32.348   6.284   3.841  1.00 20.00     0.061 A 
HETATM    7  C4  UNL     1     -32.534   7.238   2.709  1.00 20.00     0.013 A 
HETATM    8  C5  UNL     1     -31.613   7.583   3.840  1.00 20.00     0.013 A 
ENDBRANCH   1   6
TORSDOF 2
