REMARK  1 active torsions:
REMARK  status: ('A' for Active; 'I' for Inactive)
REMARK    1  A    between atoms: C4_4  and  C5_5 
ROOT
HETATM    1  C1  UNL     1     -33.797   4.186   3.697  1.00 20.00    -0.021 C 
HETATM    2  C2  UNL     1     -34.455   3.757   4.782  1.00 20.00    -0.025 C 
HETATM    3  C3  UNL     1     -33.175   6.980   5.010  1.00 20.00    -0.015 C 
HETATM    4  C4  UNL     1     -33.460   6.667   3.733  1.00 20.00    -0.009 C 
HETATM    5  C6  UNL     1     -33.607   6.254   6.259  1.00 20.00     0.028 C 
HETATM    6  C7  UNL     1     -35.027   5.665   6.349  1.00 20.00     0.012 C 
HETATM    7  C8  UNL     1     -35.696   5.541   3.905  1.00 20.00     0.022 C 
HETATM    8  C9  UNL     1     -34.314   5.526   3.246  1.00 20.00     0.045 C 
HETATM    9  C10 UNL     1     -35.493   4.755   5.205  1.00 20.00     0.009 C 
ENDROOT
BRANCH   4  10
HETATM   10  C5  UNL     1     -32.869   7.546   2.713  1.00 20.00     0.152 C 
HETATM   11  C11 UNL     1     -33.805   8.279   1.789  1.00 20.00     0.096 C 
HETATM   12  O12 UNL     1     -31.648   7.664   2.625  1.00 20.00    -0.293 OA
ENDBRANCH   4  10
TORSDOF 1
