REMARK  3 active torsions:
REMARK  status: ('A' for Active; 'I' for Inactive)
REMARK    1  A    between atoms: C3_3  and  C7_7 
REMARK    2  A    between atoms: C5_5  and  C8_8 
REMARK    3  A    between atoms: C6_6  and  C9_9 
ROOT
HETATM    1  C7  UNL     1     -33.793   6.805   3.605  1.00 20.00     0.097 A 
HETATM    2  C8  UNL     1     -33.583   5.342   3.943  1.00 20.00     0.013 A 
HETATM    3  C9  UNL     1     -33.673   6.367   5.051  1.00 20.00     0.013 A 
ENDROOT
BRANCH   1   4
HETATM    4  C3  UNL     1     -32.659   7.515   3.040  1.00 20.00     0.177 C 
HETATM    5  O10 UNL     1     -31.529   7.152   3.468  1.00 20.00    -0.648 OA
HETATM    6  O11 UNL     1     -32.959   8.404   2.195  1.00 20.00    -0.648 OA
ENDBRANCH   1   4
BRANCH   2   7
HETATM    7  C5  UNL     1     -34.698   4.343   4.287  1.00 20.00     0.014 C 
HETATM    8  C1  UNL     1     -34.329   3.629   5.580  1.00 20.00    -0.025 C 
HETATM    9  C2  UNL     1     -34.409   4.541   6.566  1.00 20.00    -0.025 C 
HETATM   10  C6  UNL     1     -34.831   5.854   5.922  1.00 20.00     0.014 C 
HETATM   11  C4  UNL     1     -35.796   5.242   4.888  1.00 20.00     0.017 C 
ENDBRANCH   2   7
TORSDOF 3
