REMARK  0 active torsions:
REMARK  status: ('A' for Active; 'I' for Inactive)
ROOT
HETATM    1  C1  UNL     1     -33.895   5.210   2.916  1.00 20.00     0.037 C 
HETATM    2  C2  UNL     1     -33.672   6.580   3.584  1.00 20.00     0.019 C 
HETATM    3  C3  UNL     1     -34.343   3.418   4.743  1.00 20.00     0.051 C 
HETATM    4  C4  UNL     1     -35.187   4.957   6.545  1.00 20.00     0.052 C 
HETATM    5  C5  UNL     1     -34.948   4.348   3.648  1.00 20.00     0.224 C 
HETATM    6  C6  UNL     1     -35.387   5.952   5.394  1.00 20.00     0.237 C 
HETATM    7  C7  UNL     1     -33.970   6.542   5.083  1.00 20.00     0.081 C 
HETATM    8  C8  UNL     1     -34.014   4.101   6.086  1.00 20.00     0.052 C 
HETATM    9  C9  UNL     1     -37.254   4.690   4.381  1.00 20.00     0.310 C 
HETATM   10  N10 UNL     1     -35.938   5.285   4.194  1.00 20.00     0.094 N 
HETATM   11  S11 UNL     1     -32.770   5.397   5.863  1.00 20.00    -0.157 SA
ENDROOT
TORSDOF 0
