REMARK  0 active torsions:
REMARK  status: ('A' for Active; 'I' for Inactive)
ROOT
HETATM    1  C1  UNL     1     -32.929   6.468   2.676  1.00 20.00     0.003 A 
HETATM    2  C2  UNL     1     -33.692   5.364   2.627  1.00 20.00     0.013 A 
HETATM    3  C3  UNL     1     -32.868   6.962   4.043  1.00 20.00     0.030 A 
HETATM    4  C4  UNL     1     -34.865   4.115   4.459  1.00 20.00    -0.011 C 
HETATM    5  C5  UNL     1     -34.133   5.125   3.979  1.00 20.00    -0.013 A 
HETATM    6  C6  UNL     1     -33.603   6.170   4.844  1.00 20.00     0.039 A 
HETATM    7  C7  UNL     1     -35.168   4.025   5.929  1.00 20.00     0.048 C 
HETATM    8  C8  UNL     1     -35.014   5.354   6.693  1.00 20.00     0.126 C 
HETATM    9  C9  UNL     1     -33.411   7.213   7.090  1.00 20.00     0.149 C 
HETATM   10  N10 UNL     1     -33.903   6.178   6.189  1.00 20.00    -0.384 N 
ENDROOT
TORSDOF 0
