REMARK  1 active torsions:
REMARK  status: ('A' for Active; 'I' for Inactive)
REMARK    1  A    between atoms: C5_5  and  C8_8 
ROOT
HETATM    1  C1  UNL     1     -34.640   4.630   6.068  1.00 20.00    -0.004 C 
HETATM    2  C2  UNL     1     -33.727   5.747   6.306  1.00 20.00    -0.004 C 
HETATM    3  C3  UNL     1     -35.130   4.142   4.907  1.00 20.00    -0.026 C 
HETATM    4  C4  UNL     1     -33.507   6.779   5.466  1.00 20.00    -0.021 C 
HETATM    5  C6  UNL     1     -34.878   4.615   3.481  1.00 20.00     0.033 C 
HETATM    6  C7  UNL     1     -34.164   6.876   4.166  1.00 20.00     0.026 A 
HETATM    7  C8  UNL     1     -33.671   6.978   2.763  1.00 20.00     0.085 A 
HETATM    8  C9  UNL     1     -33.780   5.617   3.384  1.00 20.00     0.011 A 
ENDROOT
BRANCH   7   9
HETATM    9  C5  UNL     1     -32.348   7.560   2.505  1.00 20.00     0.224 C 
HETATM   10  O10 UNL     1     -31.406   7.385   3.272  1.00 20.00    -0.279 OA
HETATM   11 CL11 UNL     1     -32.315   8.482   1.033  1.00 20.00    -0.043 Cl
ENDBRANCH   7   9
TORSDOF 1
