REMARK  1 active torsions:
REMARK  status: ('A' for Active; 'I' for Inactive)
REMARK    1  A    between atoms: C1_1  and  C3_3 
ROOT
HETATM    1  C2  UNL     1     -34.821   5.843   4.337  1.00 20.00     0.056 A 
HETATM    2  C3  UNL     1     -33.428   5.369   4.094  1.00 20.00     0.067 A 
HETATM    3  C4  UNL     1     -33.917   5.533   5.498  1.00 20.00     0.122 A 
HETATM    4 CL7  UNL     1     -33.376   6.877   6.499  1.00 20.00    -0.101 Cl
HETATM    5 CL8  UNL     1     -34.227   4.061   6.417  1.00 20.00    -0.101 Cl
ENDROOT
BRANCH   2   6
HETATM    6  C1  UNL     1     -32.438   6.334   3.522  1.00 20.00     0.090 C 
HETATM    7  N6  UNL     1     -32.707   6.995   2.451  1.00 20.00    -0.310 NA
HETATM    8  C5  UNL     1     -31.629   7.887   2.036  1.00 20.00     0.176 C 
ENDBRANCH   2   6
TORSDOF 1
