REMARK  2 active torsions:
REMARK  status: ('A' for Active; 'I' for Inactive)
REMARK    1  A    between atoms: C3_3  and  C7_7 
REMARK    2  A    between atoms: C6_6  and  O11_11 
ROOT
HETATM    1  C1  UNL     1     -34.125   5.506   7.007  1.00 20.00    -0.028 C 
HETATM    2  C2  UNL     1     -33.945   4.354   6.348  1.00 20.00     0.002 C 
HETATM    3  C4  UNL     1     -34.591   6.767   6.348  1.00 20.00     0.028 C 
HETATM    4  C5  UNL     1     -35.118   6.555   4.923  1.00 20.00     0.023 C 
HETATM    5  C6  UNL     1     -34.156   4.203   4.867  1.00 20.00     0.158 C 
HETATM    6  C7  UNL     1     -34.267   5.555   4.116  1.00 20.00     0.039 C 
HETATM    7  C8  UNL     1     -34.867   5.379   2.712  1.00 20.00     0.026 C 
ENDROOT
BRANCH   6   8
HETATM    8  C3  UNL     1     -32.884   6.130   3.904  1.00 20.00     0.243 C 
HETATM    9  O10 UNL     1     -32.674   7.185   3.314  1.00 20.00    -0.306 OA
ENDBRANCH   6   8
BRANCH   5  10
HETATM   10  O11 UNL     1     -35.340   3.428   4.669  1.00 20.00    -0.386 OA
HETATM   11  C9  UNL     1     -35.082   2.043   4.834  1.00 20.00     0.202 C 
ENDBRANCH   5  10
TORSDOF 2
