REMARK  0 active torsions:
REMARK  status: ('A' for Active; 'I' for Inactive)
ROOT
HETATM    1  C1  UNL     1     -34.913   3.219   5.173  1.00 20.00     0.026 C 
HETATM    2  C2  UNL     1     -34.362   5.224   5.696  1.00 20.00     0.017 C 
HETATM    3  C3  UNL     1     -35.557   2.050   5.261  1.00 20.00     0.040 C 
HETATM    4  C4  UNL     1     -34.197   3.694   3.943  1.00 20.00     0.073 C 
HETATM    5  C5  UNL     1     -34.046   5.198   4.213  1.00 20.00    -0.002 C 
HETATM    6  C6  UNL     1     -34.150   6.448   6.533  1.00 20.00     0.066 C 
HETATM    7  C7  UNL     1     -32.632   5.683   3.908  1.00 20.00     0.021 C 
HETATM    8  C8  UNL     1     -35.086   6.014   3.443  1.00 20.00     0.021 C 
HETATM    9  N9  UNL     1     -34.857   4.134   6.194  1.00 20.00    -0.263 NA
ENDROOT
TORSDOF 0
