REMARK  1 active torsions:
REMARK  status: ('A' for Active; 'I' for Inactive)
REMARK    1  A    between atoms: C3_3  and  C7_7 
ROOT
HETATM    1  C1  UNL     1     -35.882   5.247   4.079  1.00 20.00    -0.025 C 
HETATM    2  C2  UNL     1     -35.404   6.453   4.421  1.00 20.00    -0.020 C 
HETATM    3  C4  UNL     1     -33.656   4.185   4.233  1.00 20.00     0.021 C 
HETATM    4  C5  UNL     1     -34.843   4.999   6.130  1.00 20.00     0.022 C 
HETATM    5  C6  UNL     1     -35.079   4.216   4.834  1.00 20.00     0.010 C 
HETATM    6  C7  UNL     1     -33.071   5.564   4.657  1.00 20.00     0.067 C 
HETATM    7  C8  UNL     1     -34.267   6.225   5.400  1.00 20.00    -0.016 C 
HETATM    8  C10 UNL     1     -33.932   7.391   6.303  1.00 20.00     0.020 C 
ENDROOT
BRANCH   6   9
HETATM    9  C3  UNL     1     -32.575   6.354   3.484  1.00 20.00     0.128 C 
HETATM   10  C9  UNL     1     -31.438   7.305   3.741  1.00 20.00     0.091 C 
HETATM   11  O11 UNL     1     -33.072   6.229   2.366  1.00 20.00    -0.298 OA
ENDBRANCH   6   9
TORSDOF 1
