REMARK  0 active torsions:
REMARK  status: ('A' for Active; 'I' for Inactive)
ROOT
HETATM    1  C1  UNL     1     -37.284   6.375   3.802  1.00 20.00     0.015 C 
HETATM    2  C2  UNL     1     -36.143   6.074   4.020  1.00 20.00    -0.075 C 
HETATM    3  C3  UNL     1     -33.383   6.625   2.552  1.00 20.00     0.034 C 
HETATM    4  C4  UNL     1     -34.463   5.490   6.651  1.00 20.00     0.034 C 
HETATM    5  C5  UNL     1     -34.030   5.319   2.988  1.00 20.00     0.057 C 
HETATM    6  C6  UNL     1     -34.666   4.652   5.397  1.00 20.00     0.057 C 
HETATM    7  C7  UNL     1     -32.939   7.230   3.873  1.00 20.00     0.275 C 
HETATM    8  C8  UNL     1     -33.543   6.596   6.163  1.00 20.00     0.275 C 
HETATM    9  C9  UNL     1     -34.737   5.702   4.288  1.00 20.00     0.221 C 
HETATM   10  N10 UNL     1     -34.019   6.889   4.806  1.00 20.00     0.110 N 
ENDROOT
TORSDOF 0
