REMARK  1 active torsions:
REMARK  status: ('A' for Active; 'I' for Inactive)
REMARK    1  A    between atoms: C3_3  and  C6_6 
ROOT
HETATM    1  C1  UNL     1     -35.171   5.714   3.266  1.00 20.00    -0.022 C 
HETATM    2  C2  UNL     1     -34.610   4.500   3.166  1.00 20.00    -0.022 C 
HETATM    3  C4  UNL     1     -34.386   6.487   4.301  1.00 20.00     0.053 C 
HETATM    4  C5  UNL     1     -33.446   4.459   4.131  1.00 20.00     0.047 C 
HETATM    5  C6  UNL     1     -34.709   5.848   5.677  1.00 20.00     0.062 C 
HETATM    6  C7  UNL     1     -33.969   4.469   5.595  1.00 20.00     0.003 C 
HETATM    7  C8  UNL     1     -32.993   5.916   4.015  1.00 20.00     0.186 C 
HETATM    8  C9  UNL     1     -34.862   3.289   5.958  1.00 20.00     0.011 C 
HETATM    9  F11 UNL     1     -32.556   6.224   2.775  1.00 20.00    -0.248 F 
ENDROOT
BRANCH   5  10
HETATM   10  C3  UNL     1     -34.188   6.703   6.791  1.00 20.00     0.236 C 
HETATM   11  O10 UNL     1     -33.623   7.777   6.612  1.00 20.00    -0.306 OA
ENDBRANCH   5  10
TORSDOF 1
