REMARK  1 active torsions:
REMARK  status: ('A' for Active; 'I' for Inactive)
REMARK    1  A    between atoms: C1_1  and  C4_4 
ROOT
HETATM    1  C2  UNL     1     -33.807   6.315   6.514  1.00 20.00     0.014 C 
HETATM    2  C3  UNL     1     -32.533   7.015   6.031  1.00 20.00     0.012 C 
HETATM    3  C4  UNL     1     -34.436   6.599   5.133  1.00 20.00     0.064 C 
HETATM    4  C5  UNL     1     -32.251   5.911   3.637  1.00 20.00    -0.000 A 
HETATM    5  C6  UNL     1     -33.021   6.707   4.655  1.00 20.00    -0.019 A 
HETATM    6  C7  UNL     1     -32.528   7.391   3.395  1.00 20.00    -0.035 A 
HETATM    7  C9  UNL     1     -32.836   4.843   2.781  1.00 20.00     0.011 C 
HETATM    8  C10 UNL     1     -33.536   7.823   2.361  1.00 20.00     0.016 C 
HETATM    9  C11 UNL     1     -31.343   8.323   3.490  1.00 20.00     0.016 C 
ENDROOT
BRANCH   3  10
HETATM   10  C1  UNL     1     -35.316   5.510   4.528  1.00 20.00     0.128 C 
HETATM   11  C8  UNL     1     -35.081   4.104   5.010  1.00 20.00     0.091 C 
HETATM   12  O12 UNL     1     -36.176   5.768   3.688  1.00 20.00    -0.298 OA
ENDBRANCH   3  10
TORSDOF 1
