REMARK  2 active torsions:
REMARK  status: ('A' for Active; 'I' for Inactive)
REMARK    1  A    between atoms: C1_1  and  C5_5 
REMARK    2  A    between atoms: C5_5  and  C6_6 
ROOT
HETATM    1  C2  UNL     1     -32.834   6.975   2.842  1.00 20.00     0.003 C 
HETATM    2  C3  UNL     1     -33.874   7.367   3.906  1.00 20.00     0.026 C 
HETATM    3  C4  UNL     1     -32.425   5.799   3.744  1.00 20.00     0.026 C 
HETATM    4  C5  UNL     1     -33.814   5.905   4.451  1.00 20.00     0.110 C 
ENDROOT
BRANCH   4   5
HETATM    5  C1  UNL     1     -33.781   5.776   6.000  1.00 20.00     0.249 C 
HETATM    6  O7  UNL     1     -34.668   6.199   6.733  1.00 20.00    -0.306 OA
ENDBRANCH   4   5
BRANCH   4   7
HETATM    7  C6  UNL     1     -34.877   4.985   3.847  1.00 20.00     0.401 C 
HETATM    8  F8  UNL     1     -36.086   5.309   4.327  1.00 20.00    -0.170 F 
HETATM    9  F9  UNL     1     -34.887   5.113   2.513  1.00 20.00    -0.170 F 
HETATM   10  F10 UNL     1     -34.609   3.710   4.163  1.00 20.00    -0.170 F 
ENDBRANCH   4   7
TORSDOF 2
