REMARK  0 active torsions:
REMARK  status: ('A' for Active; 'I' for Inactive)
ROOT
HETATM    1  C1  UNL     1     -32.564   7.293   2.959  1.00 20.00     0.100 C 
HETATM    2  C2  UNL     1     -32.545   7.477   5.398  1.00 20.00     0.042 A 
HETATM    3  C3  UNL     1     -33.032   7.047   6.632  1.00 20.00     0.118 A 
HETATM    4  C4  UNL     1     -33.027   6.870   4.241  1.00 20.00     0.054 A 
HETATM    5  C5  UNL     1     -33.959   5.861   4.381  1.00 20.00    -0.013 A 
HETATM    6  C6  UNL     1     -34.385   5.506   5.656  1.00 20.00     0.042 A 
HETATM    7  C7  UNL     1     -34.664   5.069   3.331  1.00 20.00     0.042 C 
HETATM    8  C8  UNL     1     -35.435   4.434   5.586  1.00 20.00     0.060 C 
HETATM    9  C9  UNL     1     -35.210   3.898   4.165  1.00 20.00     0.011 C 
HETATM   10  N10 UNL     1     -32.187   7.637   1.916  1.00 20.00    -0.191 NA
HETATM   11  N11 UNL     1     -33.955   6.069   6.797  1.00 20.00    -0.265 NA
ENDROOT
TORSDOF 0
