REMARK  1 active torsions:
REMARK  status: ('A' for Active; 'I' for Inactive)
REMARK    1  A    between atoms: C3_3  and  C9_9 
ROOT
HETATM    1  C1  UNL     1     -35.774   5.416   4.299  1.00 20.00    -0.030 C 
HETATM    2  C2  UNL     1     -35.317   6.515   4.919  1.00 20.00    -0.026 C 
HETATM    3  C4  UNL     1     -35.310   4.031   4.656  1.00 20.00     0.031 C 
HETATM    4  C5  UNL     1     -32.886   6.659   5.518  1.00 20.00     0.022 C 
HETATM    5  C6  UNL     1     -34.397   5.083   6.749  1.00 20.00     0.013 C 
HETATM    6  C7  UNL     1     -32.765   4.115   5.105  1.00 20.00     0.018 C 
HETATM    7  C8  UNL     1     -34.316   6.443   6.044  1.00 20.00     0.009 C 
HETATM    8  C9  UNL     1     -32.368   5.517   4.633  1.00 20.00     0.073 C 
HETATM    9  C10 UNL     1     -34.180   3.982   5.709  1.00 20.00    -0.010 C 
ENDROOT
BRANCH   8  10
HETATM   10  C3  UNL     1     -32.741   5.730   3.191  1.00 20.00     0.223 C 
HETATM   11  O11 UNL     1     -33.363   4.885   2.555  1.00 20.00    -0.279 OA
HETATM   12 CL12 UNL     1     -32.191   7.266   2.593  1.00 20.00    -0.043 Cl
ENDBRANCH   8  10
TORSDOF 1
