REMARK  0 active torsions:
REMARK  status: ('A' for Active; 'I' for Inactive)
ROOT
HETATM    1  C1  UNL     1     -32.479   8.050   2.739  1.00 20.00     0.015 C 
HETATM    2  C2  UNL     1     -32.909   7.205   3.474  1.00 20.00    -0.076 C 
HETATM    3  C3  UNL     1     -34.637   5.923   6.551  1.00 20.00     0.004 C 
HETATM    4  C4  UNL     1     -34.816   4.448   6.214  1.00 20.00     0.003 C 
HETATM    5  C5  UNL     1     -33.429   6.512   5.826  1.00 20.00     0.055 C 
HETATM    6  C6  UNL     1     -35.154   4.265   4.736  1.00 20.00     0.042 C 
HETATM    7  C7  UNL     1     -33.423   6.195   4.353  1.00 20.00     0.154 A 
HETATM    8  C8  UNL     1     -34.254   5.034   3.806  1.00 20.00     0.102 A 
HETATM    9  C9  UNL     1     -34.592   4.938   2.347  1.00 20.00     0.050 C 
HETATM   10  O10 UNL     1     -32.858   4.894   4.075  1.00 20.00    -0.350 OA
ENDROOT
TORSDOF 0
