REMARK  1 active torsions:
REMARK  status: ('A' for Active; 'I' for Inactive)
REMARK    1  A    between atoms: C1_1  and  C2_2 
ROOT
HETATM    1  C2  UNL     1     -33.015   5.891   4.602  1.00 20.00     0.154 A 
HETATM    2  C3  UNL     1     -33.911   6.660   5.556  1.00 20.00     0.073 A 
HETATM    3  C4  UNL     1     -34.178   5.229   5.259  1.00 20.00     0.259 A 
HETATM    4  C5  UNL     1     -33.402   7.068   6.895  1.00 20.00     0.017 C 
HETATM    5  F7  UNL     1     -35.290   4.865   4.532  1.00 20.00    -0.205 F 
HETATM    6  F8  UNL     1     -33.976   4.256   6.212  1.00 20.00    -0.205 F 
ENDROOT
BRANCH   1   7
HETATM    7  C1  UNL     1     -33.071   6.200   3.169  1.00 20.00     0.229 C 
HETATM    8  O6  UNL     1     -33.789   5.568   2.400  1.00 20.00    -0.279 OA
HETATM    9 CL9  UNL     1     -32.028   7.523   2.744  1.00 20.00    -0.043 Cl
ENDBRANCH   1   7
TORSDOF 1
