REMARK  1 active torsions:
REMARK  status: ('A' for Active; 'I' for Inactive)
REMARK    1  A    between atoms: C2_2  and  C7_7 
ROOT
HETATM    1  C1  UNL     1     -34.577   4.578   5.211  1.00 20.00     0.132 C 
HETATM    2  C3  UNL     1     -34.268   5.805   6.046  1.00 20.00     0.084 C 
HETATM    3  C4  UNL     1     -35.553   5.797   3.362  1.00 20.00     0.013 C 
HETATM    4  C5  UNL     1     -35.273   7.102   4.135  1.00 20.00     0.007 C 
HETATM    5  C6  UNL     1     -34.362   4.910   3.746  1.00 20.00     0.068 C 
HETATM    6  C7  UNL     1     -33.204   5.896   3.910  1.00 20.00     0.088 C 
HETATM    7  C8  UNL     1     -33.961   6.793   4.896  1.00 20.00     0.006 C 
HETATM    8  O9  UNL     1     -34.968   3.507   5.647  1.00 20.00    -0.298 OA
ENDROOT
BRANCH   6   9
HETATM    9  C2  UNL     1     -32.777   6.576   2.646  1.00 20.00     0.224 C 
HETATM   10  O10 UNL     1     -33.241   6.259   1.555  1.00 20.00    -0.279 OA
HETATM   11 CL11 UNL     1     -31.593   7.813   2.937  1.00 20.00    -0.043 Cl
ENDBRANCH   6   9
TORSDOF 1
