REMARK  1 active torsions:
REMARK  status: ('A' for Active; 'I' for Inactive)
REMARK    1  A    between atoms: C3_3  and  C7_7 
ROOT
HETATM    1  C1  UNL     1     -34.541   4.346   6.236  1.00 20.00    -0.030 C 
HETATM    2  C2  UNL     1     -35.165   4.401   5.052  1.00 20.00    -0.026 C 
HETATM    3  C4  UNL     1     -33.924   5.539   6.900  1.00 20.00     0.027 C 
HETATM    4  C5  UNL     1     -34.311   6.871   6.247  1.00 20.00     0.018 C 
HETATM    5  C6  UNL     1     -35.299   5.668   4.244  1.00 20.00     0.016 C 
HETATM    6  C7  UNL     1     -34.346   6.789   4.717  1.00 20.00     0.080 C 
HETATM    7  C8  UNL     1     -35.168   5.384   2.745  1.00 20.00     0.015 C 
ENDROOT
BRANCH   6   8
HETATM    8  C3  UNL     1     -32.940   6.633   4.205  1.00 20.00     0.223 C 
HETATM    9  O9  UNL     1     -32.613   5.687   3.495  1.00 20.00    -0.279 OA
HETATM   10 CL10 UNL     1     -31.903   7.922   4.738  1.00 20.00    -0.043 Cl
ENDBRANCH   6   8
TORSDOF 1
