REMARK  2 active torsions:
REMARK  status: ('A' for Active; 'I' for Inactive)
REMARK    1  A    between atoms: C1_1  and  N9_9 
REMARK    2  A    between atoms: C4_4  and  C8_8 
ROOT
HETATM    1  C2  UNL     1     -33.892   6.518   2.486  1.00 20.00     0.031 C 
HETATM    2  C3  UNL     1     -32.412   7.089   4.269  1.00 20.00     0.130 C 
HETATM    3  C4  UNL     1     -32.881   7.589   2.907  1.00 20.00     0.005 C 
HETATM    4  C5  UNL     1     -34.583   6.136   3.803  1.00 20.00     0.083 C 
HETATM    5  C6  UNL     1     -35.014   4.675   3.807  1.00 20.00     0.032 C 
HETATM    6  N9  UNL     1     -33.594   6.456   4.831  1.00 20.00    -0.355 N 
ENDROOT
BRANCH   3   7
HETATM    7  C8  UNL     1     -31.749   7.769   1.911  1.00 20.00     0.002 C 
HETATM    8  C7  UNL     1     -32.246   8.216   0.572  1.00 20.00     0.005 C 
ENDBRANCH   3   7
BRANCH   6   9
HETATM    9  C1  UNL     1     -33.797   6.316   6.185  1.00 20.00     0.351 C 
HETATM   10  O10 UNL     1     -34.760   5.797   6.738  1.00 20.00    -0.284 OA
ENDBRANCH   6   9
TORSDOF 2
