REMARK  0 active torsions:
REMARK  status: ('A' for Active; 'I' for Inactive)
ROOT
HETATM    1  C1  UNL     1     -33.068   6.849   3.202  1.00 20.00     0.095 C 
HETATM    2  C2  UNL     1     -35.337   5.293   6.658  1.00 20.00     0.007 C 
HETATM    3  C3  UNL     1     -34.441   6.528   6.793  1.00 20.00     0.008 C 
HETATM    4  C4  UNL     1     -35.069   4.654   4.141  1.00 20.00     0.276 C 
HETATM    5  C5  UNL     1     -34.167   6.814   4.180  1.00 20.00     0.330 C 
HETATM    6  C6  UNL     1     -34.432   4.784   5.513  1.00 20.00     0.021 C 
HETATM    7  C7  UNL     1     -33.719   6.144   5.482  1.00 20.00     0.038 C 
HETATM    8  N8  UNL     1     -32.201   6.877   2.431  1.00 20.00    -0.195 NA
HETATM    9  N9  UNL     1     -35.289   6.021   3.649  1.00 20.00     0.102 N 
HETATM   10  H19 UNL     1     -35.333   6.047   2.632  1.00 20.00     0.317 HD
ENDROOT
TORSDOF 0
