REMARK  1 active torsions:
REMARK  status: ('A' for Active; 'I' for Inactive)
REMARK    1  A    between atoms: C1_1  and  N7_7 
ROOT
HETATM    1  C2  UNL     1     -32.933   6.505   4.680  1.00 20.00     0.159 C 
HETATM    2  C3  UNL     1     -33.146   7.171   3.335  1.00 20.00     0.138 C 
HETATM    3  C4  UNL     1     -34.440   5.255   3.340  1.00 20.00     0.221 C 
HETATM    4  C5  UNL     1     -31.878   7.734   2.727  1.00 20.00     0.041 C 
HETATM    5  C6  UNL     1     -35.915   5.605   3.208  1.00 20.00     0.063 C 
HETATM    6  N7  UNL     1     -33.931   5.466   4.677  1.00 20.00    -0.330 N 
HETATM    7  O9  UNL     1     -33.666   6.123   2.492  1.00 20.00    -0.360 OA
ENDROOT
BRANCH   6   8
HETATM    8  C1  UNL     1     -34.232   4.688   5.769  1.00 20.00     0.352 C 
HETATM    9  O8  UNL     1     -35.066   3.792   5.832  1.00 20.00    -0.283 OA
ENDBRANCH   6   8
TORSDOF 1
