REMARK  2 active torsions:
REMARK  status: ('A' for Active; 'I' for Inactive)
REMARK    1  A    between atoms: C1_1  and  N9_9 
REMARK    2  A    between atoms: C4_4  and  C8_8 
ROOT
HETATM    1  C2  UNL     1     -32.787   6.290   2.809  1.00 20.00     0.031 C 
HETATM    2  C3  UNL     1     -33.546   7.882   4.427  1.00 20.00     0.130 C 
HETATM    3  C4  UNL     1     -33.282   7.736   2.931  1.00 20.00     0.005 C 
HETATM    4  C5  UNL     1     -33.623   5.534   3.847  1.00 20.00     0.083 C 
HETATM    5  C6  UNL     1     -34.912   4.973   3.254  1.00 20.00     0.032 C 
HETATM    6  N9  UNL     1     -33.901   6.543   4.867  1.00 20.00    -0.355 N 
ENDROOT
BRANCH   3   7
HETATM    7  C8  UNL     1     -32.291   8.754   2.394  1.00 20.00     0.002 C 
HETATM    8  C7  UNL     1     -32.022   8.559   0.934  1.00 20.00     0.005 C 
ENDBRANCH   3   7
BRANCH   6   9
HETATM    9  C1  UNL     1     -34.358   6.260   6.133  1.00 20.00     0.351 C 
HETATM   10  O10 UNL     1     -34.675   5.162   6.574  1.00 20.00    -0.284 OA
ENDBRANCH   6   9
TORSDOF 2
