REMARK  0 active torsions:
REMARK  status: ('A' for Active; 'I' for Inactive)
ROOT
HETATM    1  C1  UNL     1     -33.469   5.784   2.353  1.00 20.00     0.013 A 
HETATM    2  C2  UNL     1     -32.674   6.662   1.723  1.00 20.00    -0.025 A 
HETATM    3  C3  UNL     1     -33.632   5.880   3.767  1.00 20.00     0.035 A 
HETATM    4  C4  UNL     1     -33.036   6.804   4.527  1.00 20.00    -0.046 A 
HETATM    5  C5  UNL     1     -34.448   5.031   4.655  1.00 20.00     0.254 A 
HETATM    6  C6  UNL     1     -31.930   7.764   2.438  1.00 20.00     0.031 A 
HETATM    7  C7  UNL     1     -32.124   7.848   3.973  1.00 20.00     0.040 A 
HETATM    8  C8  UNL     1     -33.376   6.681   5.970  1.00 20.00     0.161 A 
HETATM    9  C9  UNL     1     -34.900   4.987   7.115  1.00 20.00     0.153 C 
HETATM   10  N10 UNL     1     -34.266   5.540   5.938  1.00 20.00    -0.348 N 
HETATM   11  O11 UNL     1     -35.127   4.087   4.289  1.00 20.00    -0.267 OA
ENDROOT
TORSDOF 0
