REMARK  0 active torsions:
REMARK  status: ('A' for Active; 'I' for Inactive)
ROOT
HETATM    1  C1  UNL     1     -33.375   5.792   2.727  1.00 20.00     0.031 A 
HETATM    2  C2  UNL     1     -34.836   4.988   4.523  1.00 20.00    -0.014 A 
HETATM    3  C3  UNL     1     -33.427   6.655   6.361  1.00 20.00    -0.013 A 
HETATM    4  C4  UNL     1     -32.357   6.603   2.389  1.00 20.00     0.117 A 
HETATM    5  C5  UNL     1     -32.027   7.433   4.492  1.00 20.00     0.128 A 
HETATM    6  C6  UNL     1     -33.818   5.760   4.109  1.00 20.00    -0.027 A 
HETATM    7  C7  UNL     1     -33.125   6.606   5.059  1.00 20.00    -0.012 A 
HETATM    8  C8  UNL     1     -35.314   4.952   5.949  1.00 20.00     0.032 A 
HETATM    9  C9  UNL     1     -34.525   5.818   6.951  1.00 20.00     0.032 A 
HETATM   10  N10 UNL     1     -31.663   7.436   3.244  1.00 20.00    -0.272 NA
ENDROOT
TORSDOF 0
