REMARK  3 active torsions:
REMARK  status: ('A' for Active; 'I' for Inactive)
REMARK    1  A    between atoms: C2_2  and  C6_6 
REMARK    2  A    between atoms: C3_3  and  C5_5 
REMARK    3  A    between atoms: C3_3  and  O10_10 
ROOT
HETATM    1  C4  UNL     1     -35.319   4.710   4.313  1.00 20.00     0.033 A 
HETATM    2  C5  UNL     1     -33.951   5.011   3.765  1.00 20.00     0.101 A 
HETATM    3  C6  UNL     1     -34.141   4.800   5.258  1.00 20.00     0.023 A 
HETATM    4  C7  UNL     1     -33.620   3.519   5.854  1.00 20.00     0.023 C 
ENDROOT
BRANCH   2   5
HETATM    5  C3  UNL     1     -33.676   6.344   3.211  1.00 20.00     0.263 C 
HETATM    6  O9  UNL     1     -34.541   7.107   2.802  1.00 20.00    -0.265 OA
BRANCH   5   7
HETATM    7  O10 UNL     1     -32.333   6.578   3.229  1.00 20.00    -0.326 OA
HETATM    8  C8  UNL     1     -31.924   7.849   2.714  1.00 20.00     0.213 C 
ENDBRANCH   5   7
ENDBRANCH   2   5
BRANCH   3   9
HETATM    9  C2  UNL     1     -34.095   5.968   6.145  1.00 20.00     0.093 C 
HETATM   10  C1  UNL     1     -35.022   6.295   7.054  1.00 20.00     0.052 C 
HETATM   11  F11 UNL     1     -33.020   6.785   6.036  1.00 20.00    -0.211 F 
ENDBRANCH   3   9
TORSDOF 3
