REMARK  1 active torsions:
REMARK  status: ('A' for Active; 'I' for Inactive)
REMARK    1  A    between atoms: C8_8  and  O11_11 
ROOT
HETATM    1  C1  UNL     1     -35.297   5.735   3.169  1.00 20.00    -0.023 C 
HETATM    2  C2  UNL     1     -34.157   5.169   2.739  1.00 20.00    -0.022 C 
HETATM    3  C3  UNL     1     -31.525   7.814   3.622  1.00 20.00     0.011 A 
HETATM    4  C4  UNL     1     -32.103   7.692   2.238  1.00 20.00     0.011 A 
HETATM    5  C5  UNL     1     -34.154   7.817   3.924  1.00 20.00     0.021 C 
HETATM    6  C6  UNL     1     -34.964   6.569   4.393  1.00 20.00     0.038 C 
HETATM    7  C7  UNL     1     -33.049   5.656   3.654  1.00 20.00     0.046 C 
HETATM    8  C8  UNL     1     -33.832   5.709   4.983  1.00 20.00     0.136 C 
HETATM    9  C9  UNL     1     -32.863   7.153   3.421  1.00 20.00    -0.030 A 
ENDROOT
BRANCH   8  10
HETATM   10  O11 UNL     1     -34.261   4.451   5.464  1.00 20.00    -0.389 OA
HETATM   11  C10 UNL     1     -35.231   4.582   6.498  1.00 20.00     0.202 C 
ENDBRANCH   8  10
TORSDOF 1
