REMARK  2 active torsions:
REMARK  status: ('A' for Active; 'I' for Inactive)
REMARK    1  A    between atoms: C1_1  and  C5_5 
REMARK    2  A    between atoms: C6_6  and  C9_9 
ROOT
HETATM    1  C2  UNL     1     -35.602   5.625   3.791  1.00 20.00     0.012 C 
HETATM    2  C3  UNL     1     -34.319   5.848   3.001  1.00 20.00     0.006 C 
HETATM    3  C4  UNL     1     -33.947   6.801   5.169  1.00 20.00     0.016 C 
HETATM    4  C5  UNL     1     -35.237   5.973   5.236  1.00 20.00     0.047 C 
HETATM    5  C6  UNL     1     -33.710   7.069   3.680  1.00 20.00    -0.010 C 
ENDROOT
BRANCH   5   6
HETATM    6  C9  UNL     1     -32.246   7.278   3.334  1.00 20.00    -0.019 C 
HETATM    7  C7  UNL     1     -31.493   5.946   3.323  1.00 20.00     0.010 C 
HETATM    8  C8  UNL     1     -32.101   7.980   1.983  1.00 20.00     0.010 C 
ENDBRANCH   5   6
BRANCH   4   9
HETATM    9  C1  UNL     1     -35.013   4.728   6.038  1.00 20.00     0.235 C 
HETATM   10  O10 UNL     1     -34.610   3.675   5.555  1.00 20.00    -0.306 OA
ENDBRANCH   4   9
TORSDOF 2
