REMARK  1 active torsions:
REMARK  status: ('A' for Active; 'I' for Inactive)
REMARK    1  A    between atoms: C3_3  and  C9_9 
ROOT
HETATM    1  C1  UNL     1     -32.641   7.345   3.399  1.00 20.00    -0.030 C 
HETATM    2  C2  UNL     1     -31.974   6.179   3.520  1.00 20.00    -0.029 C 
HETATM    3  C4  UNL     1     -34.148   7.474   3.500  1.00 20.00     0.032 C 
HETATM    4  C5  UNL     1     -32.637   4.845   3.821  1.00 20.00     0.044 C 
HETATM    5  C6  UNL     1     -36.059   5.510   3.928  1.00 20.00     0.007 C 
HETATM    6  C7  UNL     1     -35.260   4.193   4.197  1.00 20.00     0.018 C 
HETATM    7  C8  UNL     1     -34.719   6.072   3.400  1.00 20.00     0.005 C 
HETATM    8  C9  UNL     1     -34.016   5.121   4.431  1.00 20.00     0.027 C 
ENDROOT
BRANCH   8   9
HETATM    9  C3  UNL     1     -33.882   5.575   5.932  1.00 20.00     0.132 C 
HETATM   10  C10 UNL     1     -33.225   4.604   6.876  1.00 20.00     0.091 C 
HETATM   11  O11 UNL     1     -34.293   6.669   6.315  1.00 20.00    -0.298 OA
ENDBRANCH   8   9
TORSDOF 1
