REMARK  1 active torsions:
REMARK  status: ('A' for Active; 'I' for Inactive)
REMARK    1  A    between atoms: C1_1  and  C8_8 
ROOT
HETATM    1  C2  UNL     1     -32.835   7.147   4.472  1.00 20.00     0.019 A 
HETATM    2  C3  UNL     1     -32.639   5.779   2.802  1.00 20.00     0.019 A 
HETATM    3  C4  UNL     1     -34.490   6.868   3.100  1.00 20.00     0.019 A 
HETATM    4  C5  UNL     1     -32.461   5.665   4.323  1.00 20.00     0.038 A 
HETATM    5  C6  UNL     1     -34.312   6.754   4.621  1.00 20.00     0.038 A 
HETATM    6  C7  UNL     1     -34.116   5.386   2.950  1.00 20.00     0.038 A 
HETATM    7  C8  UNL     1     -33.014   7.258   2.953  1.00 20.00     0.050 A 
HETATM    8  C9  UNL     1     -33.931   5.287   4.460  1.00 20.00     0.117 A 
HETATM    9  F11 UNL     1     -34.392   4.296   5.217  1.00 20.00    -0.242 F 
ENDROOT
BRANCH   7  10
HETATM   10  C1  UNL     1     -32.493   8.372   2.099  1.00 20.00     0.228 C 
HETATM   11  O10 UNL     1     -31.701   8.167   1.184  1.00 20.00    -0.279 OA
HETATM   12 CL12 UNL     1     -33.140   9.915   2.568  1.00 20.00    -0.043 Cl
ENDBRANCH   7  10
TORSDOF 1
