REMARK  1 active torsions:
REMARK  status: ('A' for Active; 'I' for Inactive)
REMARK    1  A    between atoms: C1_1  and  C6_6 
ROOT
HETATM    1  C2  UNL     1     -32.802   6.948   2.529  1.00 20.00     0.001 C 
HETATM    2  C3  UNL     1     -32.023   5.673   2.794  1.00 20.00     0.001 C 
HETATM    3  C4  UNL     1     -33.631   7.110   3.795  1.00 20.00     0.018 C 
HETATM    4  C5  UNL     1     -33.016   4.754   3.505  1.00 20.00     0.018 C 
HETATM    5  C6  UNL     1     -34.068   5.679   4.148  1.00 20.00     0.032 C 
HETATM    6  C7  UNL     1     -35.416   5.392   3.536  1.00 20.00     0.025 C 
ENDROOT
BRANCH   5   7
HETATM    7  C1  UNL     1     -34.174   5.478   5.658  1.00 20.00     0.227 C 
HETATM    8  O8  UNL     1     -33.928   6.385   6.449  1.00 20.00    -0.279 OA
HETATM    9 CL9  UNL     1     -34.667   3.864   6.071  1.00 20.00    -0.043 Cl
ENDBRANCH   5   7
TORSDOF 1
