REMARK  1 active torsions:
REMARK  status: ('A' for Active; 'I' for Inactive)
REMARK    1  A    between atoms: C3_3  and  C6_6 
ROOT
HETATM    1  C1  UNL     1     -34.619   4.315   5.592  1.00 20.00    -0.003 C 
HETATM    2  C2  UNL     1     -33.975   5.343   6.155  1.00 20.00     0.131 C 
HETATM    3  C4  UNL     1     -35.254   4.431   4.246  1.00 20.00     0.032 C 
HETATM    4  C5  UNL     1     -35.390   5.896   3.836  1.00 20.00     0.045 C 
HETATM    5  C6  UNL     1     -34.160   6.715   4.227  1.00 20.00     0.214 C 
HETATM    6  O8  UNL     1     -33.771   6.574   5.592  1.00 20.00    -0.349 OA
ENDROOT
BRANCH   5   7
HETATM    7  C3  UNL     1     -32.983   6.389   3.354  1.00 20.00     0.248 C 
HETATM    8  O7  UNL     1     -33.048   5.534   2.476  1.00 20.00    -0.277 OA
HETATM    9 CL9  UNL     1     -31.591   7.351   3.748  1.00 20.00    -0.041 Cl
ENDBRANCH   5   7
TORSDOF 1
