REMARK  2 active torsions:
REMARK  status: ('A' for Active; 'I' for Inactive)
REMARK    1  A    between atoms: C5_5  and  O10_10 
REMARK    2  A    between atoms: C9_9  and  O10_10 
ROOT
HETATM    1  C1  UNL     1     -32.066   9.078   0.606  1.00 20.00     0.012 C 
HETATM    2  C2  UNL     1     -32.021   8.378   1.580  1.00 20.00    -0.110 C 
HETATM    3  C3  UNL     1     -31.937   6.048   2.562  1.00 20.00     0.053 A 
HETATM    4  C4  UNL     1     -31.967   7.542   2.743  1.00 20.00     0.095 A 
HETATM    5  C5  UNL     1     -33.174   6.711   3.095  1.00 20.00     0.139 A 
ENDROOT
BRANCH   5   6
HETATM    6  O10 UNL     1     -33.426   6.534   4.480  1.00 20.00    -0.375 OA
BRANCH   6   7
HETATM    7  C9  UNL     1     -34.113   5.307   4.729  1.00 20.00     0.050 C 
HETATM    8  C6  UNL     1     -33.246   4.153   4.229  1.00 20.00     0.045 C 
HETATM    9  C7  UNL     1     -34.332   5.200   6.237  1.00 20.00     0.045 C 
HETATM   10  C8  UNL     1     -35.452   5.341   3.993  1.00 20.00     0.045 C 
ENDBRANCH   6   7
ENDBRANCH   5   6
TORSDOF 2
