REMARK  1 active torsions:
REMARK  status: ('A' for Active; 'I' for Inactive)
REMARK    1  A    between atoms: C4_4  and  C5_5 
ROOT
HETATM    1  C1  UNL     1     -34.625   6.066   6.366  1.00 20.00    -0.022 C 
HETATM    2  C2  UNL     1     -35.316   6.353   5.245  1.00 20.00    -0.021 C 
HETATM    3  C3  UNL     1     -32.666   5.428   5.004  1.00 20.00    -0.006 C 
HETATM    4  C4  UNL     1     -33.366   5.712   3.889  1.00 20.00     0.009 C 
HETATM    5  C6  UNL     1     -34.299   3.726   5.696  1.00 20.00     0.013 C 
HETATM    6  C7  UNL     1     -35.103   4.060   4.396  1.00 20.00     0.014 C 
HETATM    7  C8  UNL     1     -33.549   5.001   6.174  1.00 20.00     0.031 C 
HETATM    8  C9  UNL     1     -34.873   5.553   4.023  1.00 20.00     0.045 C 
ENDROOT
BRANCH   4   9
HETATM    9  C5  UNL     1     -32.719   6.128   2.655  1.00 20.00     0.248 C 
HETATM   10  O10 UNL     1     -32.868   5.444   1.630  1.00 20.00    -0.274 OA
HETATM   11 CL11 UNL     1     -31.756   7.594   2.703  1.00 20.00    -0.039 Cl
ENDBRANCH   4   9
TORSDOF 1
