REMARK  0 active torsions:
REMARK  status: ('A' for Active; 'I' for Inactive)
ROOT
HETATM    1  C1  UNL     1     -32.179   9.093   2.039  1.00 20.00     0.013 C 
HETATM    2  C2  UNL     1     -32.486   8.028   2.497  1.00 20.00    -0.104 C 
HETATM    3  C3  UNL     1     -33.720   6.290   5.402  1.00 20.00     0.048 C 
HETATM    4  C4  UNL     1     -32.809   6.810   4.570  1.00 20.00    -0.001 C 
HETATM    5  C5  UNL     1     -34.859   5.503   4.873  1.00 20.00     0.149 C 
HETATM    6  C6  UNL     1     -34.919   5.230   3.387  1.00 20.00     0.085 C 
HETATM    7  C7  UNL     1     -34.296   6.371   2.592  1.00 20.00     0.034 C 
HETATM    8  C8  UNL     1     -32.866   6.714   3.062  1.00 20.00     0.037 C 
HETATM    9  C9  UNL     1     -31.857   5.659   2.585  1.00 20.00     0.034 C 
HETATM   10  O10 UNL     1     -35.691   5.037   5.649  1.00 20.00    -0.293 OA
ENDROOT
TORSDOF 0
