REMARK  1 active torsions:
REMARK  status: ('A' for Active; 'I' for Inactive)
REMARK    1  A    between atoms: C9_9  and  N10_10 
ROOT
HETATM    1  C1  UNL     1     -35.211   4.293   5.170  1.00 20.00     0.072 A 
HETATM    2  C2  UNL     1     -34.725   4.654   6.361  1.00 20.00    -0.002 A 
HETATM    3  C5  UNL     1     -34.528   5.123   4.159  1.00 20.00     0.243 A 
HETATM    4  C8  UNL     1     -33.699   5.729   6.274  1.00 20.00     0.154 A 
HETATM    5  N10 UNL     1     -33.653   5.949   4.850  1.00 20.00    -0.340 N 
HETATM    6  O11 UNL     1     -34.739   5.049   2.961  1.00 20.00    -0.268 OA
ENDROOT
BRANCH   5   7
HETATM    7  C9  UNL     1     -32.796   6.914   4.217  1.00 20.00     0.094 C 
HETATM    8  C6  UNL     1     -31.824   6.275   3.218  1.00 20.00     0.052 C 
HETATM    9  C3  UNL     1     -31.734   7.305   2.143  1.00 20.00    -0.029 C 
HETATM   10  C4  UNL     1     -32.691   8.229   2.257  1.00 20.00    -0.029 C 
HETATM   11  C7  UNL     1     -33.579   7.969   3.427  1.00 20.00     0.052 C 
ENDBRANCH   5   7
TORSDOF 1
