REMARK  1 active torsions:
REMARK  status: ('A' for Active; 'I' for Inactive)
REMARK    1  A    between atoms: C3_3  and  C8_8 
ROOT
HETATM    1  C1  UNL     1     -32.887   6.994   3.903  1.00 20.00    -0.079 C 
HETATM    2  C2  UNL     1     -32.142   7.392   2.869  1.00 20.00    -0.028 C 
HETATM    3  C4  UNL     1     -34.192   7.604   4.348  1.00 20.00     0.039 C 
HETATM    4  C5  UNL     1     -33.510   4.707   4.568  1.00 20.00     0.023 C 
HETATM    5  C6  UNL     1     -33.164   6.455   6.156  1.00 20.00     0.014 C 
HETATM    6  C7  UNL     1     -32.560   5.880   4.872  1.00 20.00     0.015 C 
HETATM    7  C8  UNL     1     -34.874   5.234   5.058  1.00 20.00     0.077 C 
HETATM    8  C9  UNL     1     -34.547   6.673   5.528  1.00 20.00     0.003 C 
HETATM    9  C10 UNL     1     -32.513   8.509   1.951  1.00 20.00     0.036 C 
ENDROOT
BRANCH   7  10
HETATM   10  C3  UNL     1     -35.943   5.173   4.014  1.00 20.00     0.223 C 
HETATM   11  O11 UNL     1     -35.832   5.762   2.942  1.00 20.00    -0.279 OA
HETATM   12 CL12 UNL     1     -37.291   4.197   4.513  1.00 20.00    -0.043 Cl
ENDBRANCH   7  10
TORSDOF 1
