REMARK  1 active torsions:
REMARK  status: ('A' for Active; 'I' for Inactive)
REMARK    1  A    between atoms: C2_2  and  C9_9 
ROOT
HETATM    1  C1  UNL     1     -34.900   5.054   4.158  1.00 20.00     0.144 C 
HETATM    2  C3  UNL     1     -34.961   3.723   4.878  1.00 20.00     0.084 C 
HETATM    3  C4  UNL     1     -34.921   5.993   6.902  1.00 20.00     0.002 C 
HETATM    4  C5  UNL     1     -34.304   4.616   7.184  1.00 20.00     0.005 C 
HETATM    5  C6  UNL     1     -34.182   6.777   5.807  1.00 20.00     0.027 C 
HETATM    6  C7  UNL     1     -32.824   4.763   5.177  1.00 20.00     0.031 C 
HETATM    7  C8  UNL     1     -33.835   3.882   5.913  1.00 20.00    -0.006 C 
HETATM    8  C9  UNL     1     -33.723   5.883   4.645  1.00 20.00     0.097 C 
HETATM    9  O10 UNL     1     -35.705   5.410   3.309  1.00 20.00    -0.297 OA
ENDROOT
BRANCH   8  10
HETATM   10  C2  UNL     1     -33.026   6.664   3.578  1.00 20.00     0.234 C 
HETATM   11  O11 UNL     1     -32.503   6.114   2.613  1.00 20.00    -0.279 OA
HETATM   12 CL12 UNL     1     -33.061   8.373   3.889  1.00 20.00    -0.043 Cl
ENDBRANCH   8  10
TORSDOF 1
