REMARK  0 active torsions:
REMARK  status: ('A' for Active; 'I' for Inactive)
ROOT
HETATM    1  C1  UNL     1     -33.908   6.289   4.820  1.00 20.00     0.169 C 
HETATM    2  C2  UNL     1     -34.306   5.117   3.082  1.00 20.00     0.062 C 
HETATM    3  C3  UNL     1     -35.029   5.306   4.441  1.00 20.00     0.058 C 
HETATM    4  C4  UNL     1     -33.333   6.298   3.372  1.00 20.00     0.174 C 
HETATM    5  C5  UNL     1     -35.142   4.072   5.313  1.00 20.00     0.018 C 
HETATM    6  O6  UNL     1     -33.602   6.847   5.853  1.00 20.00    -0.294 OA
HETATM    7 CL7  UNL     1     -33.690   7.849   2.542  1.00 20.00    -0.093 Cl
HETATM    8 CL8  UNL     1     -31.585   5.899   3.342  1.00 20.00    -0.093 Cl
ENDROOT
TORSDOF 0
