REMARK  2 active torsions:
REMARK  status: ('A' for Active; 'I' for Inactive)
REMARK    1  A    between atoms: C2_2  and  C5_5 
REMARK    2  A    between atoms: C2_2  and  C9_9 
ROOT
HETATM    1  C1  UNL     1     -33.842   6.540   6.024  1.00 20.00     0.225 C 
HETATM    2  C2  UNL     1     -33.877   5.789   4.957  1.00 20.00    -0.014 C 
HETATM    3  O10 UNL     1     -33.811   7.219   6.984  1.00 20.00    -0.284 OA
ENDROOT
BRANCH   2   4
HETATM    4  C5  UNL     1     -34.314   4.391   5.183  1.00 20.00     0.019 A 
HETATM    5  C3  UNL     1     -35.184   4.109   6.361  1.00 20.00     0.010 A 
HETATM    6  C4  UNL     1     -35.754   4.063   4.976  1.00 20.00     0.010 A 
ENDBRANCH   2   4
BRANCH   2   7
HETATM    7  C9  UNL     1     -33.556   6.269   3.538  1.00 20.00    -0.024 C 
HETATM    8  C6  UNL     1     -34.807   6.120   2.652  1.00 20.00     0.019 C 
HETATM    9  C7  UNL     1     -32.401   5.452   2.924  1.00 20.00     0.019 C 
HETATM   10  C8  UNL     1     -33.127   7.755   3.522  1.00 20.00     0.019 C 
ENDBRANCH   2   7
TORSDOF 2
