REMARK  3 active torsions:
REMARK  status: ('A' for Active; 'I' for Inactive)
REMARK    1  A    between atoms: C1_1  and  C5_5 
REMARK    2  A    between atoms: C6_6  and  C8_8 
REMARK    3  A    between atoms: C8_8  and  C9_9 
ROOT
HETATM    1  C2  UNL     1     -32.679   6.665   4.485  1.00 20.00     0.030 C 
HETATM    2  C3  UNL     1     -34.728   7.092   4.106  1.00 20.00     0.030 C 
HETATM    3  C4  UNL     1     -33.827   5.363   3.257  1.00 20.00     0.030 C 
HETATM    4  C5  UNL     1     -33.991   5.872   4.710  1.00 20.00     0.050 C 
HETATM    5  C6  UNL     1     -33.484   6.905   3.143  1.00 20.00    -0.037 C 
ENDROOT
BRANCH   4   6
HETATM    6  C1  UNL     1     -34.368   5.105   5.868  1.00 20.00     0.181 C 
HETATM    7  O10 UNL     1     -34.027   3.890   5.845  1.00 20.00    -0.647 OA
HETATM    8  O11 UNL     1     -34.992   5.755   6.753  1.00 20.00    -0.647 OA
ENDBRANCH   4   6
BRANCH   5   9
HETATM    9  C8  UNL     1     -33.099   7.689   1.951  1.00 20.00     0.009 C 
BRANCH   9  10
HETATM   10  C9  UNL     1     -32.883   9.186   2.259  1.00 20.00    -0.004 C 
HETATM   11  C7  UNL     1     -32.449   9.986   1.041  1.00 20.00     0.005 C 
ENDBRANCH   9  10
ENDBRANCH   5   9
TORSDOF 3
