REMARK  2 active torsions:
REMARK  status: ('A' for Active; 'I' for Inactive)
REMARK    1  A    between atoms: C3_3  and  C4_4 
REMARK    2  A    between atoms: C5_5  and  C7_7 
ROOT
HETATM    1  C1  UNL     1     -35.151   4.588   5.915  1.00 20.00    -0.007 C 
HETATM    2  C2  UNL     1     -35.031   5.521   6.865  1.00 20.00     0.042 C 
HETATM    3  C4  UNL     1     -34.430   4.879   4.632  1.00 20.00     0.084 C 
HETATM    4  C5  UNL     1     -33.390   5.971   4.942  1.00 20.00     0.065 C 
HETATM    5  S9  UNL     1     -34.043   6.868   6.406  1.00 20.00    -0.136 SA
ENDROOT
BRANCH   3   6
HETATM    6  C3  UNL     1     -35.486   5.275   3.642  1.00 20.00     0.240 C 
HETATM    7  O8  UNL     1     -36.218   6.248   3.788  1.00 20.00    -0.306 OA
ENDBRANCH   3   6
BRANCH   4   8
HETATM    8  C7  UNL     1     -33.049   6.917   3.803  1.00 20.00     0.012 C 
HETATM    9  C6  UNL     1     -32.440   6.197   2.641  1.00 20.00     0.006 C 
ENDBRANCH   4   8
TORSDOF 2
