REMARK  1 active torsions:
REMARK  status: ('A' for Active; 'I' for Inactive)
REMARK    1  A    between atoms: C8_8  and  C10_10 
ROOT
HETATM    1  C1  UNL     1     -34.562   5.539   2.755  1.00 20.00     0.028 A 
HETATM    2  C2  UNL     1     -35.315   4.976   3.776  1.00 20.00     0.120 A 
HETATM    3  C3  UNL     1     -33.242   6.553   4.504  1.00 20.00     0.029 A 
HETATM    4  C4  UNL     1     -33.512   6.342   3.149  1.00 20.00    -0.034 A 
HETATM    5  C5  UNL     1     -34.043   5.954   5.446  1.00 20.00     0.220 A 
HETATM    6  C6  UNL     1     -32.092   7.425   4.642  1.00 20.00     0.013 A 
HETATM    7  C7  UNL     1     -31.669   7.735   3.406  1.00 20.00    -0.016 A 
HETATM    8  C8  UNL     1     -32.506   7.089   2.317  1.00 20.00     0.042 A 
HETATM    9  N11 UNL     1     -35.086   5.162   5.105  1.00 20.00    -0.232 NA
HETATM   10  F12 UNL     1     -33.798   6.147   6.751  1.00 20.00    -0.183 F 
ENDROOT
BRANCH   8  11
HETATM   11  C10 UNL     1     -33.141   8.119   1.393  1.00 20.00     0.009 C 
HETATM   12  C9  UNL     1     -32.111   8.913   0.655  1.00 20.00     0.006 C 
ENDBRANCH   8  11
TORSDOF 1
