REMARK  2 active torsions:
REMARK  status: ('A' for Active; 'I' for Inactive)
REMARK    1  A    between atoms: C6_6  and  C9_9 
REMARK    2  A    between atoms: C9_9  and  N10_10 
ROOT
HETATM    1  C1  UNL     1     -34.997   5.234   5.195  1.00 20.00     0.006 C 
HETATM    2  C2  UNL     1     -34.979   4.831   3.916  1.00 20.00     0.004 C 
HETATM    3  C3  UNL     1     -34.040   6.210   5.686  1.00 20.00    -0.040 C 
HETATM    4  C4  UNL     1     -34.131   6.730   6.918  1.00 20.00     0.020 C 
HETATM    5  C7  UNL     1     -34.015   5.399   2.909  1.00 20.00     0.300 C 
HETATM    6  C8  UNL     1     -32.936   6.595   4.722  1.00 20.00     0.310 C 
HETATM    7  N10 UNL     1     -33.430   6.682   3.337  1.00 20.00     0.099 N 
ENDROOT
BRANCH   7   8
HETATM    8  C9  UNL     1     -32.369   7.099   2.423  1.00 20.00     0.299 C 
BRANCH   8   9
HETATM    9  C6  UNL     1     -32.147   8.567   2.583  1.00 20.00    -0.007 C 
HETATM   10  C5  UNL     1     -32.778   9.500   1.862  1.00 20.00     0.008 C 
ENDBRANCH   8   9
ENDBRANCH   7   8
TORSDOF 2
