REMARK  1 active torsions:
REMARK  status: ('A' for Active; 'I' for Inactive)
REMARK    1  A    between atoms: C1_1  and  C5_5 
ROOT
HETATM    1  C2  UNL     1     -34.744   6.575   2.738  1.00 20.00     0.015 C 
HETATM    2  C3  UNL     1     -35.518   5.683   3.707  1.00 20.00     0.026 C 
HETATM    3  C4  UNL     1     -33.328   4.752   3.576  1.00 20.00     0.038 C 
HETATM    4  C5  UNL     1     -33.373   5.909   2.567  1.00 20.00     0.074 C 
HETATM    5  C6  UNL     1     -34.444   5.045   4.587  1.00 20.00     0.034 C 
HETATM    6  C7  UNL     1     -34.934   3.796   5.307  1.00 20.00     0.032 C 
HETATM    7 CL10 UNL     1     -33.870   6.228   5.814  1.00 20.00    -0.120 Cl
ENDROOT
BRANCH   4   8
HETATM    8  C1  UNL     1     -32.257   6.884   2.793  1.00 20.00     0.223 C 
HETATM    9  O8  UNL     1     -31.432   6.725   3.688  1.00 20.00    -0.279 OA
HETATM   10 CL9  UNL     1     -32.302   8.203   1.663  1.00 20.00    -0.043 Cl
ENDBRANCH   4   8
TORSDOF 1
