REMARK  1 active torsions:
REMARK  status: ('A' for Active; 'I' for Inactive)
REMARK    1  A    between atoms: C8_8  and  O11_11 
ROOT
HETATM    1  C1  UNL     1     -34.248   4.959   3.014  1.00 20.00     0.005 C 
HETATM    2  C2  UNL     1     -35.233   4.558   3.838  1.00 20.00     0.005 C 
HETATM    3  C3  UNL     1     -33.354   6.072   3.323  1.00 20.00    -0.063 C 
HETATM    4  C4  UNL     1     -32.285   6.339   2.559  1.00 20.00     0.019 C 
HETATM    5  C5  UNL     1     -33.311   7.927   6.676  1.00 20.00     0.001 C 
HETATM    6  C6  UNL     1     -32.701   7.707   5.283  1.00 20.00     0.010 C 
HETATM    7  C7  UNL     1     -34.458   6.916   6.817  1.00 20.00     0.008 C 
HETATM    8  C8  UNL     1     -35.485   5.175   5.192  1.00 20.00     0.145 C 
HETATM    9  C9  UNL     1     -33.750   6.883   4.535  1.00 20.00     0.024 C 
HETATM   10  C10 UNL     1     -34.256   5.960   5.648  1.00 20.00     0.026 C 
ENDROOT
BRANCH   8  11
HETATM   11  O11 UNL     1     -35.754   4.134   6.125  1.00 20.00    -0.391 OA
HETATM   12  H25 UNL     1     -36.539   3.665   5.800  1.00 20.00     0.210 HD
ENDBRANCH   8  11
TORSDOF 1
