REMARK  2 active torsions:
REMARK  status: ('A' for Active; 'I' for Inactive)
REMARK    1  A    between atoms: C2_2  and  C7_7 
REMARK    2  A    between atoms: C3_3  and  C6_6 
ROOT
HETATM    1  C4  UNL     1     -33.689   5.602   2.236  1.00 20.00     0.014 C 
HETATM    2  C5  UNL     1     -32.187   5.818   2.486  1.00 20.00     0.015 C 
HETATM    3  C6  UNL     1     -33.988   6.606   3.380  1.00 20.00     0.067 C 
HETATM    4  C7  UNL     1     -32.529   7.166   3.187  1.00 20.00    -0.011 C 
HETATM    5  C10 UNL     1     -31.714   7.426   4.450  1.00 20.00     0.021 C 
ENDROOT
BRANCH   4   6
HETATM    6  C2  UNL     1     -32.469   8.346   2.273  1.00 20.00    -0.084 C 
HETATM    7  C1  UNL     1     -31.638   8.386   1.221  1.00 20.00     0.015 C 
HETATM    8  C8  UNL     1     -33.393   9.482   2.598  1.00 20.00     0.043 C 
ENDBRANCH   4   6
BRANCH   3   9
HETATM    9  C3  UNL     1     -34.371   6.009   4.744  1.00 20.00     0.128 C 
HETATM   10  C9  UNL     1     -35.203   4.755   4.724  1.00 20.00     0.091 C 
HETATM   11  O11 UNL     1     -34.013   6.529   5.799  1.00 20.00    -0.298 OA
ENDBRANCH   3   9
TORSDOF 2
