REMARK  3 active torsions:
REMARK  status: ('A' for Active; 'I' for Inactive)
REMARK    1  A    between atoms: C1_1  and  C7_7 
REMARK    2  A    between atoms: C1_1  and  O10_10 
REMARK    3  A    between atoms: C6_6  and  C7_7 
ROOT
HETATM    1  C4  UNL     1     -34.791   4.570   3.195  1.00 20.00     0.021 A 
HETATM    2  C5  UNL     1     -35.440   5.912   3.344  1.00 20.00     0.021 A 
HETATM    3  C7  UNL     1     -34.064   5.677   3.930  1.00 20.00     0.051 A 
ENDROOT
BRANCH   3   4
HETATM    4  C1  UNL     1     -32.923   6.306   3.215  1.00 20.00     0.267 C 
HETATM    5  O9  UNL     1     -31.930   5.697   2.840  1.00 20.00    -0.264 OA
BRANCH   4   6
HETATM    6  O10 UNL     1     -33.165   7.638   3.054  1.00 20.00    -0.326 OA
HETATM    7  C8  UNL     1     -32.140   8.371   2.375  1.00 20.00     0.213 C 
ENDBRANCH   4   6
ENDBRANCH   3   4
BRANCH   3   8
HETATM    8  C6  UNL     1     -33.876   5.598   5.458  1.00 20.00     0.004 A 
HETATM    9  C2  UNL     1     -35.013   5.782   6.425  1.00 20.00     0.006 A 
HETATM   10  C3  UNL     1     -34.363   4.434   6.276  1.00 20.00     0.006 A 
ENDBRANCH   3   8
TORSDOF 3
