REMARK  2 active torsions:
REMARK  status: ('A' for Active; 'I' for Inactive)
REMARK    1  A    between atoms: C7_7  and  O10_10 
REMARK    2  A    between atoms: C9_9  and  O10_10 
ROOT
HETATM    1  C1  UNL     1     -33.380   6.974   6.556  1.00 20.00     0.015 C 
HETATM    2  C2  UNL     1     -33.540   6.371   5.530  1.00 20.00    -0.079 C 
HETATM    3  C3  UNL     1     -34.987   3.684   4.982  1.00 20.00     0.004 C 
HETATM    4  C4  UNL     1     -35.978   4.751   4.514  1.00 20.00     0.004 C 
HETATM    5  C5  UNL     1     -33.618   4.122   4.466  1.00 20.00     0.051 C 
HETATM    6  C6  UNL     1     -35.158   5.782   3.740  1.00 20.00     0.051 C 
HETATM    7  C7  UNL     1     -33.735   5.633   4.272  1.00 20.00     0.122 C 
ENDROOT
BRANCH   7   8
HETATM    8  O10 UNL     1     -32.806   6.090   3.301  1.00 20.00    -0.368 OA
BRANCH   8   9
HETATM    9  C9  UNL     1     -32.967   7.477   3.034  1.00 20.00     0.165 C 
HETATM   10  C8  UNL     1     -31.951   7.900   1.994  1.00 20.00     0.033 C 
ENDBRANCH   8   9
ENDBRANCH   7   8
TORSDOF 2
