REMARK  1 active torsions:
REMARK  status: ('A' for Active; 'I' for Inactive)
REMARK    1  A    between atoms: C2_2  and  C5_5 
ROOT
HETATM    1  C1  UNL     1     -33.289   6.709   4.869  1.00 20.00     0.016 C 
HETATM    2  C2  UNL     1     -33.674   5.723   4.045  1.00 20.00    -0.019 C 
HETATM    3  C3  UNL     1     -33.727   6.768   6.254  1.00 20.00    -0.066 C 
HETATM    4  C4  UNL     1     -33.219   7.666   7.111  1.00 20.00     0.019 C 
HETATM    5  C6  UNL     1     -34.554   4.578   4.459  1.00 20.00     0.050 C 
HETATM    6  C7  UNL     1     -34.780   5.768   6.679  1.00 20.00     0.047 C 
HETATM    7  C8  UNL     1     -34.615   4.385   5.997  1.00 20.00    -0.040 C 
HETATM    8  C9  UNL     1     -33.337   3.681   6.503  1.00 20.00     0.015 C 
HETATM    9  C10 UNL     1     -35.820   3.496   6.350  1.00 20.00     0.015 C 
ENDROOT
BRANCH   2  10
HETATM   10  C5  UNL     1     -33.179   5.759   2.666  1.00 20.00     0.265 C 
HETATM   11  O11 UNL     1     -32.442   6.645   2.253  1.00 20.00    -0.302 OA
ENDBRANCH   2  10
TORSDOF 1
