REMARK  1 active torsions:
REMARK  status: ('A' for Active; 'I' for Inactive)
REMARK    1  A    between atoms: C2_2  and  C6_6 
ROOT
HETATM    1  C1  UNL     1     -32.930   7.024   2.533  1.00 20.00    -0.067 C 
HETATM    2  C3  UNL     1     -32.533   8.277   2.278  1.00 20.00    -0.085 C 
HETATM    3  C4  UNL     1     -32.548   5.834   1.694  1.00 20.00     0.036 C 
HETATM    4  C5  UNL     1     -33.072   4.646   2.496  1.00 20.00     0.009 C 
HETATM    5  C6  UNL     1     -33.848   6.616   3.655  1.00 20.00     0.080 C 
HETATM    6  C7  UNL     1     -34.291   5.210   3.229  1.00 20.00    -0.004 C 
HETATM    7  C8  UNL     1     -32.942   9.433   3.145  1.00 20.00     0.043 C 
HETATM    8  C9  UNL     1     -31.654   8.611   1.109  1.00 20.00     0.043 C 
HETATM    9  C10 UNL     1     -34.788   4.310   4.350  1.00 20.00     0.011 C 
ENDROOT
BRANCH   5  10
HETATM   10  C2  UNL     1     -33.049   6.654   4.925  1.00 20.00     0.240 C 
HETATM   11  O11 UNL     1     -33.542   6.870   6.028  1.00 20.00    -0.306 OA
ENDBRANCH   5  10
TORSDOF 1
