REMARK  1 active torsions:
REMARK  status: ('A' for Active; 'I' for Inactive)
REMARK    1  A    between atoms: C3_3  and  C7_7 
ROOT
HETATM    1  C1  UNL     1     -34.899   6.094   6.622  1.00 20.00    -0.023 C 
HETATM    2  C2  UNL     1     -35.412   4.864   6.450  1.00 20.00    -0.015 C 
HETATM    3  C4  UNL     1     -33.314   4.855   5.478  1.00 20.00     0.029 C 
HETATM    4  C5  UNL     1     -33.820   6.304   5.580  1.00 20.00     0.029 C 
HETATM    5  C6  UNL     1     -34.682   4.198   5.313  1.00 20.00     0.071 C 
HETATM    6  C7  UNL     1     -34.486   6.608   4.222  1.00 20.00     0.116 C 
HETATM    7  S9  UNL     1     -35.249   4.997   3.761  1.00 20.00    -0.148 SA
ENDROOT
BRANCH   6   8
HETATM    8  C3  UNL     1     -33.504   6.985   3.162  1.00 20.00     0.246 C 
HETATM    9  O8  UNL     1     -32.309   7.156   3.378  1.00 20.00    -0.306 OA
ENDBRANCH   6   8
TORSDOF 1
