REMARK  2 active torsions:
REMARK  status: ('A' for Active; 'I' for Inactive)
REMARK    1  A    between atoms: C3_3  and  C8_8 
REMARK    2  A    between atoms: C9_9  and  N11_11 
ROOT
HETATM    1  C1  UNL     1     -32.316   8.755   0.851  1.00 20.00     0.089 C 
HETATM    2  C9  UNL     1     -31.727   8.043   1.984  1.00 20.00     0.395 C 
HETATM    3  N10 UNL     1     -32.780   9.322  -0.049  1.00 20.00    -0.195 NA
ENDROOT
BRANCH   2   4
HETATM    4  N11 UNL     1     -32.760   7.365   2.766  1.00 20.00     0.101 N 
HETATM    5  C6  UNL     1     -33.147   6.102   2.122  1.00 20.00     0.274 C 
HETATM    6  C4  UNL     1     -34.266   5.407   2.899  1.00 20.00     0.039 C 
HETATM    7  C8  UNL     1     -33.866   5.173   4.355  1.00 20.00     0.011 C 
HETATM    8  C5  UNL     1     -33.385   6.477   4.990  1.00 20.00     0.039 C 
HETATM    9  C7  UNL     1     -32.296   7.137   4.142  1.00 20.00     0.274 C 
BRANCH   7  10
HETATM   10  C3  UNL     1     -35.029   4.637   5.131  1.00 20.00    -0.032 C 
HETATM   11  C2  UNL     1     -35.032   3.452   5.751  1.00 20.00     0.007 C 
ENDBRANCH   7  10
ENDBRANCH   2   4
TORSDOF 2
