REMARK  1 active torsions:
REMARK  status: ('A' for Active; 'I' for Inactive)
REMARK    1  A    between atoms: C3_3  and  C7_7 
ROOT
HETATM    1  C1  UNL     1     -33.307   6.238   4.911  1.00 20.00    -0.020 C 
HETATM    2  C2  UNL     1     -34.297   6.151   5.817  1.00 20.00    -0.086 C 
HETATM    3  C4  UNL     1     -35.505   5.270   5.611  1.00 20.00     0.049 C 
HETATM    4  C5  UNL     1     -34.681   4.918   3.238  1.00 20.00     0.023 C 
HETATM    5  C6  UNL     1     -33.303   5.503   3.595  1.00 20.00     0.005 C 
HETATM    6  C7  UNL     1     -35.383   4.287   4.440  1.00 20.00     0.091 C 
HETATM    7  C8  UNL     1     -34.261   6.926   7.102  1.00 20.00     0.043 C 
HETATM    8  C9  UNL     1     -32.816   6.415   2.467  1.00 20.00     0.014 C 
ENDROOT
BRANCH   6   9
HETATM    9  C3  UNL     1     -34.671   3.033   4.860  1.00 20.00     0.177 C 
HETATM   10  O10 UNL     1     -33.480   3.193   5.246  1.00 20.00    -0.648 OA
HETATM   11  O11 UNL     1     -35.359   1.978   4.771  1.00 20.00    -0.648 OA
ENDBRANCH   6   9
TORSDOF 1
