REMARK  3 active torsions:
REMARK  status: ('A' for Active; 'I' for Inactive)
REMARK    1  A    between atoms: C1_1  and  C6_6 
REMARK    2  A    between atoms: C7_7  and  C8_8 
REMARK    3  A    between atoms: C8_8  and  O10_10 
ROOT
HETATM    1  C2  UNL     1     -32.695   7.559   5.762  1.00 20.00     0.001 C 
HETATM    2  C3  UNL     1     -31.835   7.811   4.526  1.00 20.00     0.011 C 
HETATM    3  C4  UNL     1     -33.335   6.173   5.729  1.00 20.00     0.007 C 
HETATM    4  C5  UNL     1     -33.262   6.201   3.203  1.00 20.00     0.018 C 
HETATM    5  C6  UNL     1     -32.633   7.590   3.247  1.00 20.00     0.047 C 
HETATM    6  C7  UNL     1     -34.136   5.946   4.440  1.00 20.00     0.010 C 
ENDROOT
BRANCH   6   7
HETATM    7  C8  UNL     1     -34.719   4.535   4.408  1.00 20.00     0.168 C 
BRANCH   7   8
HETATM    8  O10 UNL     1     -35.565   4.373   5.531  1.00 20.00    -0.400 OA
HETATM    9  H24 UNL     1     -35.925   3.471   5.491  1.00 20.00     0.209 HD
ENDBRANCH   7   8
ENDBRANCH   6   7
BRANCH   5  10
HETATM   10  C1  UNL     1     -31.669   7.696   2.081  1.00 20.00     0.235 C 
HETATM   11  O9  UNL     1     -31.778   8.529   1.187  1.00 20.00    -0.306 OA
ENDBRANCH   5  10
TORSDOF 3
