REMARK  3 active torsions:
REMARK  status: ('A' for Active; 'I' for Inactive)
REMARK    1  A    between atoms: C1_1  and  C4_4 
REMARK    2  A    between atoms: C3_3  and  C7_7 
REMARK    3  A    between atoms: C7_7  and  O9_9 
ROOT
HETATM    1  C1  UNL     1     -31.910   7.808   2.116  1.00 20.00    -0.066 C 
HETATM    2  C2  UNL     1     -32.367   8.565   1.303  1.00 20.00    -0.108 C 
HETATM    3  C5  UNL     1     -32.923   9.487   0.314  1.00 20.00     0.112 C 
ENDROOT
BRANCH   1   4
HETATM    4  C4  UNL     1     -31.366   6.904   3.086  1.00 20.00     0.148 A 
HETATM    5  C3  UNL     1     -32.280   6.142   4.024  1.00 20.00     0.194 A 
HETATM    6  O8  UNL     1     -31.595   7.329   4.440  1.00 20.00    -0.354 OA
HETATM    7  C6  UNL     1     -29.980   6.397   2.847  1.00 20.00     0.063 C 
BRANCH   5   8
HETATM    8  C7  UNL     1     -33.763   6.263   4.001  1.00 20.00     0.200 C 
BRANCH   8   9
HETATM    9  O9  UNL     1     -34.301   5.473   2.940  1.00 20.00    -0.398 OA
HETATM   10  H19 UNL     1     -35.262   5.589   2.973  1.00 20.00     0.209 HD
ENDBRANCH   8   9
ENDBRANCH   5   8
ENDBRANCH   1   4
TORSDOF 3
