REMARK  0 active torsions:
REMARK  status: ('A' for Active; 'I' for Inactive)
ROOT
HETATM    1  C1  UNL     1     -34.987   4.920   2.532  1.00 20.00     0.053 A 
HETATM    2  C2  UNL     1     -33.855   5.264   3.170  1.00 20.00    -0.070 A 
HETATM    3  C3  UNL     1     -36.104   5.392   3.377  1.00 20.00     0.155 A 
HETATM    4  C4  UNL     1     -35.561   6.098   4.569  1.00 20.00     0.082 A 
HETATM    5  C5  UNL     1     -34.035   6.043   4.432  1.00 20.00    -0.002 A 
HETATM    6  C6  UNL     1     -34.736   5.406   5.639  1.00 20.00    -0.024 A 
HETATM    7  C7  UNL     1     -32.486   4.893   2.706  1.00 20.00     0.044 C 
HETATM    8  C8  UNL     1     -33.241   7.312   4.571  1.00 20.00     0.021 C 
HETATM    9  C9  UNL     1     -34.653   6.091   6.987  1.00 20.00     0.016 C 
HETATM   10  C10 UNL     1     -34.773   3.900   5.777  1.00 20.00     0.016 C 
HETATM   11  O11 UNL     1     -37.291   5.236   3.151  1.00 20.00    -0.293 OA
ENDROOT
TORSDOF 0
