REMARK  1 active torsions:
REMARK  status: ('A' for Active; 'I' for Inactive)
REMARK    1  A    between atoms: C9_9  and  O10_10 
ROOT
HETATM    1  C1  UNL     1     -32.754   7.939   2.736  1.00 20.00     0.012 C 
HETATM    2  C2  UNL     1     -33.115   6.898   3.211  1.00 20.00    -0.112 C 
HETATM    3  C3  UNL     1     -33.780   6.174   6.702  1.00 20.00     0.007 C 
HETATM    4  C4  UNL     1     -34.770   6.796   5.707  1.00 20.00     0.009 C 
HETATM    5  C5  UNL     1     -32.567   5.049   4.825  1.00 20.00     0.024 C 
HETATM    6  C6  UNL     1     -33.557   5.626   3.790  1.00 20.00     0.071 C 
HETATM    7  C7  UNL     1     -33.460   4.811   6.060  1.00 20.00     0.016 C 
HETATM    8  C8  UNL     1     -34.872   5.723   4.600  1.00 20.00     0.030 C 
HETATM    9  C9  UNL     1     -34.791   4.422   5.410  1.00 20.00     0.127 C 
ENDROOT
BRANCH   9  10
HETATM   10  O10 UNL     1     -35.837   4.267   6.345  1.00 20.00    -0.395 OA
HETATM   11  H22 UNL     1     -36.637   4.023   5.847  1.00 20.00     0.210 HD
ENDBRANCH   9  10
TORSDOF 1
