REMARK  0 active torsions:
REMARK  status: ('A' for Active; 'I' for Inactive)
ROOT
HETATM    1  C1  UNL     1     -34.686   6.063   5.211  1.00 20.00     0.251 C 
HETATM    2  C2  UNL     1     -33.263   6.241   4.725  1.00 20.00     0.251 C 
HETATM    3  C3  UNL     1     -35.281   4.955   4.367  1.00 20.00     0.271 C 
HETATM    4  C4  UNL     1     -33.346   6.410   3.221  1.00 20.00     0.271 C 
HETATM    5  F5  UNL     1     -34.688   5.699   6.517  1.00 20.00    -0.242 F 
HETATM    6  F6  UNL     1     -32.732   7.364   5.276  1.00 20.00    -0.242 F 
HETATM    7  F7  UNL     1     -34.758   3.764   4.764  1.00 20.00    -0.235 F 
HETATM    8  F8  UNL     1     -32.168   6.050   2.655  1.00 20.00    -0.235 F 
HETATM    9  S9  UNL     1     -34.691   5.319   2.689  1.00 20.00    -0.089 SA
ENDROOT
TORSDOF 0
