REMARK  2 active torsions:
REMARK  status: ('A' for Active; 'I' for Inactive)
REMARK    1  A    between atoms: C3_3  and  C8_8 
REMARK    2  A    between atoms: C8_8  and  C10_10 
ROOT
HETATM    1  C1  UNL     1     -35.513   5.086   5.853  1.00 20.00    -0.026 C 
HETATM    2  C2  UNL     1     -34.240   4.715   6.055  1.00 20.00    -0.024 C 
HETATM    3  C4  UNL     1     -34.803   4.016   3.937  1.00 20.00     0.018 C 
HETATM    4  C5  UNL     1     -34.945   6.392   3.822  1.00 20.00     0.025 C 
HETATM    5  C6  UNL     1     -35.721   5.165   4.360  1.00 20.00     0.010 C 
HETATM    6  C7  UNL     1     -33.589   4.577   4.692  1.00 20.00     0.024 C 
HETATM    7  C8  UNL     1     -33.449   5.992   4.054  1.00 20.00     0.020 C 
ENDROOT
BRANCH   7   8
HETATM    8  C3  UNL     1     -32.752   6.961   4.972  1.00 20.00     0.241 C 
HETATM    9  O11 UNL     1     -33.303   7.938   5.468  1.00 20.00    -0.306 OA
ENDBRANCH   7   8
BRANCH   7  10
HETATM   10  C10 UNL     1     -32.654   5.970   2.746  1.00 20.00     0.013 C 
HETATM   11  C9  UNL     1     -32.604   7.321   2.112  1.00 20.00     0.006 C 
ENDBRANCH   7  10
TORSDOF 2
