REMARK  2 active torsions:
REMARK  status: ('A' for Active; 'I' for Inactive)
REMARK    1  A    between atoms: C4_4  and  O11_11 
REMARK    2  A    between atoms: C10_10  and  O11_11 
ROOT
HETATM    1  C1  UNL     1     -32.117   8.924   0.641  1.00 20.00     0.014 C 
HETATM    2  C2  UNL     1     -32.215   8.358   1.696  1.00 20.00    -0.091 C 
HETATM    3  C10 UNL     1     -32.332   7.670   2.982  1.00 20.00     0.268 C 
ENDROOT
BRANCH   3   4
HETATM    4  O11 UNL     1     -33.109   6.506   2.849  1.00 20.00    -0.344 OA
BRANCH   4   5
HETATM    5  C4  UNL     1     -33.617   6.068   4.056  1.00 20.00     0.047 C 
HETATM    6  C3  UNL     1     -33.371   6.711   5.209  1.00 20.00     0.006 C 
HETATM    7  C5  UNL     1     -33.919   6.272   6.534  1.00 20.00     0.029 C 
HETATM    8  C6  UNL     1     -34.542   4.875   6.507  1.00 20.00     0.004 C 
HETATM    9  C7  UNL     1     -35.349   4.651   5.231  1.00 20.00     0.011 C 
HETATM   10  C8  UNL     1     -34.494   4.842   3.964  1.00 20.00     0.038 C 
HETATM   11  C9  UNL     1     -33.643   3.601   3.675  1.00 20.00     0.017 C 
ENDBRANCH   4   5
ENDBRANCH   3   4
TORSDOF 2
