REMARK  2 active torsions:
REMARK  status: ('A' for Active; 'I' for Inactive)
REMARK    1  A    between atoms: C1_1  and  C2_2 
REMARK    2  A    between atoms: N7_7  and  O8_8 
ROOT
HETATM    1  C2  UNL     1     -33.377   5.524   4.619  1.00 20.00     0.115 A 
HETATM    2  C3  UNL     1     -34.001   5.614   6.012  1.00 20.00     0.033 A 
HETATM    3  C4  UNL     1     -34.853   5.630   4.786  1.00 20.00     0.260 A 
HETATM    4  C5  UNL     1     -33.884   6.890   6.803  1.00 20.00     0.022 C 
HETATM    5  C6  UNL     1     -33.996   4.367   6.854  1.00 20.00     0.022 C 
HETATM    6  F9  UNL     1     -35.663   4.560   4.473  1.00 20.00    -0.205 F 
HETATM    7  F10 UNL     1     -35.526   6.770   4.403  1.00 20.00    -0.205 F 
ENDROOT
BRANCH   1   8
HETATM    8  C1  UNL     1     -32.622   6.651   4.060  1.00 20.00     0.130 C 
HETATM    9  N7  UNL     1     -32.957   7.175   2.930  1.00 20.00    -0.152 NA
BRANCH   9  10
HETATM   10  O8  UNL     1     -32.075   8.220   2.646  1.00 20.00    -0.267 OA
HETATM   11  H19 UNL     1     -32.413   8.536   1.791  1.00 20.00     0.247 HD
ENDBRANCH   9  10
ENDBRANCH   1   8
TORSDOF 2
