REMARK  2 active torsions:
REMARK  status: ('A' for Active; 'I' for Inactive)
REMARK    1  A    between atoms: C3_3  and  C5_5 
REMARK    2  A    between atoms: C4_4  and  C9_9 
ROOT
HETATM    1  C1  UNL     1     -35.159   4.859   3.775  1.00 20.00     0.005 C 
HETATM    2  C2  UNL     1     -34.840   5.227   2.541  1.00 20.00     0.132 C 
HETATM    3  C4  UNL     1     -34.776   5.950   4.707  1.00 20.00     0.050 C 
HETATM    4  C5  UNL     1     -33.985   6.874   3.763  1.00 20.00     0.204 C 
HETATM    5  O11 UNL     1     -34.229   6.455   2.403  1.00 20.00    -0.350 OA
ENDROOT
BRANCH   3   6
HETATM    6  C9  UNL     1     -34.032   5.467   5.943  1.00 20.00    -0.012 C 
HETATM    7  C7  UNL     1     -34.072   6.523   7.048  1.00 20.00     0.010 C 
HETATM    8  C8  UNL     1     -34.618   4.147   6.446  1.00 20.00     0.010 C 
ENDBRANCH   3   6
BRANCH   4   9
HETATM    9  C3  UNL     1     -32.495   6.835   3.921  1.00 20.00     0.152 C 
HETATM   10  C6  UNL     1     -31.762   5.756   3.169  1.00 20.00     0.093 C 
HETATM   11  O10 UNL     1     -31.900   7.646   4.628  1.00 20.00    -0.296 OA
ENDBRANCH   4   9
TORSDOF 2
