REMARK  2 active torsions:
REMARK  status: ('A' for Active; 'I' for Inactive)
REMARK    1  A    between atoms: C5_5  and  C7_7 
REMARK    2  A    between atoms: C5_5  and  O11_11 
ROOT
HETATM    1  C1  UNL     1     -31.566   7.468   2.701  1.00 20.00     0.003 A 
HETATM    2  C2  UNL     1     -32.045   6.265   3.029  1.00 20.00    -0.007 A 
HETATM    3  C3  UNL     1     -32.634   8.386   2.415  1.00 20.00    -0.066 A 
HETATM    4  C4  UNL     1     -32.491   9.681   2.116  1.00 20.00     0.019 C 
HETATM    5  C6  UNL     1     -33.939   7.637   2.510  1.00 20.00     0.061 A 
HETATM    6  C7  UNL     1     -33.546   6.234   3.025  1.00 20.00     0.066 A 
HETATM    7  C8  UNL     1     -34.108   5.115   2.154  1.00 20.00     0.031 C 
ENDROOT
BRANCH   6   8
HETATM    8  C5  UNL     1     -33.971   6.039   4.455  1.00 20.00     0.271 C 
HETATM    9  O10 UNL     1     -33.697   6.813   5.363  1.00 20.00    -0.264 OA
BRANCH   8  10
HETATM   10  O11 UNL     1     -34.692   4.887   4.564  1.00 20.00    -0.326 OA
HETATM   11  C9  UNL     1     -35.162   4.577   5.880  1.00 20.00     0.213 C 
ENDBRANCH   8  10
ENDBRANCH   6   8
TORSDOF 2
