REMARK  1 active torsions:
REMARK  status: ('A' for Active; 'I' for Inactive)
REMARK    1  A    between atoms: C4_4  and  C5_5 
ROOT
HETATM    1  C1  UNL     1     -31.904   5.912   2.559  1.00 20.00     0.014 C 
HETATM    2  C2  UNL     1     -33.340   5.410   2.556  1.00 20.00     0.062 C 
HETATM    3  C3  UNL     1     -31.979   7.427   2.642  1.00 20.00     0.077 C 
HETATM    4  C4  UNL     1     -34.058   6.094   3.714  1.00 20.00     0.209 C 
HETATM    5  F6  UNL     1     -35.390   6.134   3.450  1.00 20.00    -0.225 F 
HETATM    6  S9  UNL     1     -33.373   7.778   3.752  1.00 20.00    -0.121 SA
ENDROOT
BRANCH   4   7
HETATM    7  C5  UNL     1     -33.855   5.402   5.053  1.00 20.00     0.403 C 
HETATM    8  F7  UNL     1     -34.848   4.504   5.245  1.00 20.00    -0.210 F 
HETATM    9  F8  UNL     1     -33.946   6.316   6.045  1.00 20.00    -0.210 F 
ENDBRANCH   4   7
TORSDOF 1
