REMARK  0 active torsions:
REMARK  status: ('A' for Active; 'I' for Inactive)
ROOT
HETATM    1  C1  UNL     1     -34.192   4.298   5.862  1.00 20.00     0.012 A 
HETATM    2  C2  UNL     1     -33.325   5.781   2.401  1.00 20.00     0.006 A 
HETATM    3  C3  UNL     1     -36.014   4.841   4.386  1.00 20.00     0.101 C 
HETATM    4  C4  UNL     1     -35.330   4.978   5.700  1.00 20.00     0.016 A 
HETATM    5  C5  UNL     1     -34.307   5.855   3.315  1.00 20.00     0.035 A 
HETATM    6  C6  UNL     1     -31.834   7.716   3.289  1.00 20.00     0.015 A 
HETATM    7  C7  UNL     1     -34.086   5.725   5.839  1.00 20.00     0.017 A 
HETATM    8  C8  UNL     1     -32.027   6.284   2.883  1.00 20.00     0.015 A 
HETATM    9  C9  UNL     1     -33.772   6.516   4.595  1.00 20.00     0.048 A 
HETATM   10  C10 UNL     1     -32.291   6.716   4.319  1.00 20.00     0.004 A 
HETATM   11  N11 UNL     1     -35.549   5.274   3.250  1.00 20.00    -0.269 NA
ENDROOT
TORSDOF 0
