REMARK  1 active torsions:
REMARK  status: ('A' for Active; 'I' for Inactive)
REMARK    1  A    between atoms: C2_2  and  C3_3 
ROOT
HETATM    1  C1  UNL     1     -33.054   6.887   5.444  1.00 20.00    -0.015 C 
HETATM    2  C2  UNL     1     -33.392   6.408   4.244  1.00 20.00    -0.012 C 
HETATM    3  C4  UNL     1     -34.119   6.605   6.453  1.00 20.00     0.032 C 
HETATM    4  C5  UNL     1     -34.731   5.734   4.248  1.00 20.00     0.022 C 
HETATM    5  C6  UNL     1     -34.965   5.512   5.768  1.00 20.00    -0.007 C 
HETATM    6  C8  UNL     1     -34.827   4.480   3.388  1.00 20.00     0.015 C 
HETATM    7  C9  UNL     1     -34.562   4.126   6.286  1.00 20.00     0.011 C 
ENDROOT
BRANCH   2   8
HETATM    8  C3  UNL     1     -32.547   6.602   3.077  1.00 20.00     0.151 C 
HETATM    9  C7  UNL     1     -31.689   7.846   3.008  1.00 20.00     0.096 C 
HETATM   10  O10 UNL     1     -32.529   5.774   2.155  1.00 20.00    -0.293 OA
ENDBRANCH   2   8
TORSDOF 1
