REMARK  1 active torsions:
REMARK  status: ('A' for Active; 'I' for Inactive)
REMARK    1  A    between atoms: C3_3  and  C7_7 
ROOT
HETATM    1  C1  UNL     1     -35.354   5.546   3.300  1.00 20.00     0.346 C 
HETATM    2  C2  UNL     1     -33.710   6.441   4.733  1.00 20.00     0.233 C 
HETATM    3  C3  UNL     1     -32.756   5.836   3.683  1.00 20.00     0.081 C 
HETATM    4  C4  UNL     1     -33.063   6.543   6.117  1.00 20.00     0.044 C 
HETATM    5  C6  UNL     1     -34.915   4.370   5.369  1.00 20.00     0.311 C 
HETATM    6  N8  UNL     1     -34.983   5.678   4.717  1.00 20.00     0.098 N 
HETATM    7  S9  UNL     1     -33.852   5.433   2.290  1.00 20.00    -0.132 SA
ENDROOT
BRANCH   3   8
HETATM    8  C7  UNL     1     -31.653   6.787   3.242  1.00 20.00     0.013 C 
HETATM    9  C5  UNL     1     -32.203   8.084   2.741  1.00 20.00     0.006 C 
ENDBRANCH   3   8
TORSDOF 1
