REMARK  0 active torsions:
REMARK  status: ('A' for Active; 'I' for Inactive)
ROOT
HETATM    1  C1  UNL     1     -35.298   4.119   7.045  1.00 20.00     0.012 C 
HETATM    2  C2  UNL     1     -34.737   4.481   6.047  1.00 20.00    -0.111 C 
HETATM    3  C3  UNL     1     -33.411   6.463   3.233  1.00 20.00     0.132 C 
HETATM    4  C4  UNL     1     -33.841   5.229   2.465  1.00 20.00     0.084 C 
HETATM    5  C5  UNL     1     -35.532   6.787   4.352  1.00 20.00     0.014 C 
HETATM    6  C6  UNL     1     -36.056   5.533   3.622  1.00 20.00     0.007 C 
HETATM    7  C7  UNL     1     -34.053   4.924   4.829  1.00 20.00     0.080 C 
HETATM    8  C8  UNL     1     -34.058   6.441   4.607  1.00 20.00     0.071 C 
HETATM    9  C9  UNL     1     -34.804   4.629   3.520  1.00 20.00     0.009 C 
HETATM   10  O10 UNL     1     -32.688   7.348   2.802  1.00 20.00    -0.298 OA
ENDROOT
TORSDOF 0
