REMARK  1 active torsions:
REMARK  status: ('A' for Active; 'I' for Inactive)
REMARK    1  A    between atoms: C2_2  and  C3_3 
ROOT
HETATM    1  C1  UNL     1     -32.338   5.937   3.708  1.00 20.00    -0.011 C 
HETATM    2  C2  UNL     1     -32.992   7.036   3.307  1.00 20.00    -0.019 C 
HETATM    3  C4  UNL     1     -34.425   4.764   4.173  1.00 20.00     0.010 C 
HETATM    4  C5  UNL     1     -35.175   6.044   3.697  1.00 20.00     0.011 C 
HETATM    5  C6  UNL     1     -33.156   5.348   4.844  1.00 20.00     0.017 C 
HETATM    6  C7  UNL     1     -34.231   7.183   4.161  1.00 20.00     0.030 C 
HETATM    7  C8  UNL     1     -33.684   6.649   5.514  1.00 20.00    -0.033 C 
HETATM    8  C9  UNL     1     -32.586   7.530   6.155  1.00 20.00     0.016 C 
HETATM    9  C10 UNL     1     -34.751   6.429   6.603  1.00 20.00     0.016 C 
ENDROOT
BRANCH   2  10
HETATM   10  C3  UNL     1     -32.589   7.919   2.234  1.00 20.00     0.265 C 
HETATM   11  O11 UNL     1     -33.231   8.921   1.904  1.00 20.00    -0.302 OA
ENDBRANCH   2  10
TORSDOF 1
