REMARK  2 active torsions:
REMARK  status: ('A' for Active; 'I' for Inactive)
REMARK    1  A    between atoms: C1_1  and  C4_4 
REMARK    2  A    between atoms: C3_3  and  C5_5 
ROOT
HETATM    1  C4  UNL     1     -33.635   6.924   3.684  1.00 20.00     0.029 A 
HETATM    2  C5  UNL     1     -33.223   7.270   2.271  1.00 20.00     0.089 A 
HETATM    3  C6  UNL     1     -32.462   6.206   3.042  1.00 20.00    -0.028 A 
HETATM    4  C8  UNL     1     -32.604   4.780   2.566  1.00 20.00     0.016 C 
HETATM    5  C9  UNL     1     -31.089   6.517   3.589  1.00 20.00     0.016 C 
ENDROOT
BRANCH   1   6
HETATM    6  C1  UNL     1     -34.904   6.242   3.900  1.00 20.00    -0.025 C 
HETATM    7  C2  UNL     1     -35.179   5.506   4.986  1.00 20.00    -0.034 C 
HETATM    8  C7  UNL     1     -34.221   5.292   6.110  1.00 20.00     0.036 C 
ENDBRANCH   1   6
BRANCH   2   9
HETATM    9  C3  UNL     1     -32.620   8.582   2.000  1.00 20.00     0.224 C 
HETATM   10  O10 UNL     1     -32.816   9.546   2.734  1.00 20.00    -0.279 OA
HETATM   11 CL11 UNL     1     -31.641   8.568   0.564  1.00 20.00    -0.043 Cl
ENDBRANCH   2   9
TORSDOF 2
