REMARK  1 active torsions:
REMARK  status: ('A' for Active; 'I' for Inactive)
REMARK    1  A    between atoms: CA_2  and  C_3 
ROOT
ATOM      1  N   GLY A   1     -33.773   5.404   2.943  1.00 20.00    -0.249 NA
ATOM      2  CA  GLY A   1     -33.414   6.291   3.939  1.00 20.00     0.122 A 
HETATM    3  C1  UNK A   1     -34.689   4.586   3.412  1.00 20.00     0.168 A 
HETATM    4  C2  UNK A   1     -34.060   6.133   5.148  1.00 20.00     0.104 A 
HETATM    5  S3  UNK A   1     -33.799   7.089   6.523  1.00 20.00    -0.070 SA
HETATM    6  S4  UNK A   1     -35.165   4.826   5.044  1.00 20.00    -0.069 SA
ENDROOT
BRANCH   2   7
ATOM      7  C   GLY A   1     -32.414   7.283   3.632  1.00 20.00     0.292 C 
ATOM      8  O   GLY A   1     -31.863   7.381   2.524  1.00 20.00    -0.300 OA
ENDBRANCH   2   7
TORSDOF 1
