REMARK  1 active torsions:
REMARK  status: ('A' for Active; 'I' for Inactive)
REMARK    1  A    between atoms: C5_5  and  C7_7 
ROOT
HETATM    1  C1  UNL     1     -35.281   4.360   3.975  1.00 20.00    -0.026 A 
HETATM    2  C2  UNL     1     -34.887   5.542   3.481  1.00 20.00    -0.013 A 
HETATM    3  C3  UNL     1     -34.225   4.935   6.186  1.00 20.00    -0.019 A 
HETATM    4  C4  UNL     1     -33.823   6.127   5.707  1.00 20.00    -0.071 A 
HETATM    5  C6  UNL     1     -34.960   3.912   5.369  1.00 20.00     0.054 A 
HETATM    6  C7  UNL     1     -34.075   6.528   4.272  1.00 20.00     0.123 A 
HETATM    7  C8  UNL     1     -33.141   7.135   6.588  1.00 20.00     0.044 C 
ENDROOT
BRANCH   6   8
HETATM    8  C5  UNL     1     -32.752   6.622   3.572  1.00 20.00     0.230 C 
HETATM    9  O9  UNL     1     -32.004   5.654   3.473  1.00 20.00    -0.279 OA
HETATM   10 CL10 UNL     1     -32.452   8.218   2.954  1.00 20.00    -0.043 Cl
ENDBRANCH   6   8
TORSDOF 1
