REMARK  1 active torsions:
REMARK  status: ('A' for Active; 'I' for Inactive)
REMARK    1  A    between atoms: C3_3  and  C4_4 
ROOT
HETATM    1  C1  UNL     1     -34.887   5.707   3.616  1.00 20.00    -0.018 A 
HETATM    2  C2  UNL     1     -34.757   5.114   4.816  1.00 20.00    -0.025 A 
HETATM    3  C4  UNL     1     -33.911   6.821   3.943  1.00 20.00     0.084 A 
HETATM    4  C5  UNL     1     -33.689   6.080   5.293  1.00 20.00     0.018 A 
HETATM    5  C7  UNL     1     -34.024   6.870   6.548  1.00 20.00     0.015 C 
ENDROOT
BRANCH   3   6
HETATM    6  C3  UNL     1     -32.764   6.860   2.927  1.00 20.00     0.131 C 
HETATM    7  C6  UNL     1     -32.477   8.189   2.281  1.00 20.00     0.091 C 
HETATM    8  O8  UNL     1     -32.110   5.855   2.654  1.00 20.00    -0.298 OA
ENDBRANCH   3   6
TORSDOF 1
