REMARK  1 active torsions:
REMARK  status: ('A' for Active; 'I' for Inactive)
REMARK    1  A    between atoms: C6_6  and  N10_10 
ROOT
HETATM    1  C1  UNL     1     -34.844   5.468   6.626  1.00 20.00    -0.017 A 
HETATM    2  C2  UNL     1     -34.042   6.463   6.846  1.00 20.00     0.079 A 
HETATM    3  C3  UNL     1     -33.192   6.857   5.743  1.00 20.00     0.047 A 
HETATM    4  C4  UNL     1     -34.025   5.137   4.089  1.00 20.00     0.057 A 
HETATM    5  C5  UNL     1     -34.960   4.446   4.782  1.00 20.00     0.129 A 
HETATM    6  C6  UNL     1     -33.189   6.262   4.528  1.00 20.00     0.135 A 
HETATM    7  N9  UNL     1     -35.402   4.588   6.089  1.00 20.00    -0.218 NA
ENDROOT
BRANCH   6   8
HETATM    8  N10 UNL     1     -32.271   6.806   3.584  1.00 20.00    -0.049 N 
HETATM    9  C7  UNL     1     -31.261   5.768   3.198  1.00 20.00     0.276 C 
HETATM   10  C8  UNL     1     -33.018   7.367   2.411  1.00 20.00     0.276 C 
HETATM   11  H21 UNL     1     -31.761   7.584   4.026  1.00 20.00     0.285 HD
ENDBRANCH   6   8
TORSDOF 1
