REMARK  3 active torsions:
REMARK  status: ('A' for Active; 'I' for Inactive)
REMARK    1  A    between atoms: C4_4  and  C5_5 
REMARK    2  A    between atoms: C6_6  and  C9_9 
REMARK    3  A    between atoms: C7_7  and  C10_10 
ROOT
HETATM    1  C1  UNL     1     -34.424   4.727   5.791  1.00 20.00    -0.029 C 
HETATM    2  C2  UNL     1     -33.933   5.943   5.540  1.00 20.00    -0.021 C 
HETATM    3  C8  UNL     1     -34.993   4.088   4.568  1.00 20.00     0.039 C 
HETATM    4  C9  UNL     1     -34.089   6.338   4.101  1.00 20.00     0.041 C 
HETATM    5  C10 UNL     1     -35.021   5.238   3.551  1.00 20.00     0.062 C 
ENDROOT
BRANCH   4   6
HETATM    6  C6  UNL     1     -32.770   6.384   3.395  1.00 20.00    -0.017 C 
HETATM    7  C5  UNL     1     -32.283   7.482   2.798  1.00 20.00    -0.004 C 
BRANCH   7   8
HETATM    8  C4  UNL     1     -32.985   8.744   2.775  1.00 20.00    -0.011 C 
HETATM    9  C3  UNL     1     -32.503   9.842   2.182  1.00 20.00     0.011 C 
ENDBRANCH   7   8
ENDBRANCH   4   6
BRANCH   5  10
HETATM   10  C7  UNL     1     -36.418   5.775   3.412  1.00 20.00     0.236 C 
HETATM   11  O11 UNL     1     -37.242   5.759   4.321  1.00 20.00    -0.306 OA
ENDBRANCH   5  10
TORSDOF 3
