REMARK  1 active torsions:
REMARK  status: ('A' for Active; 'I' for Inactive)
REMARK    1  A    between atoms: C3_3  and  C7_7 
ROOT
HETATM    1  C1  UNL     1     -34.245   5.258   2.373  1.00 20.00    -0.029 C 
HETATM    2  C2  UNL     1     -33.249   6.069   1.991  1.00 20.00    -0.026 C 
HETATM    3  C4  UNL     1     -34.557   4.955   3.808  1.00 20.00     0.039 C 
HETATM    4  C5  UNL     1     -32.913   6.778   4.397  1.00 20.00     0.020 C 
HETATM    5  C6  UNL     1     -32.354   6.796   2.962  1.00 20.00     0.004 C 
HETATM    6  C7  UNL     1     -33.443   5.391   4.766  1.00 20.00     0.059 C 
HETATM    7  C9  UNL     1     -32.117   8.238   2.510  1.00 20.00     0.014 C 
ENDROOT
BRANCH   6   8
HETATM    8  C3  UNL     1     -33.966   5.396   6.170  1.00 20.00     0.127 C 
HETATM    9  C8  UNL     1     -33.853   4.108   6.939  1.00 20.00     0.091 C 
HETATM   10  O10 UNL     1     -34.462   6.405   6.670  1.00 20.00    -0.298 OA
ENDBRANCH   6   8
TORSDOF 1
