REMARK  3 active torsions:
REMARK  status: ('A' for Active; 'I' for Inactive)
REMARK    1  A    between atoms: C1_1  and  C4_4 
REMARK    2  A    between atoms: C2_2  and  C8_8 
REMARK    3  A    between atoms: C8_8  and  O10_10 
ROOT
HETATM    1  C1  UNL     1     -32.776   7.779   2.346  1.00 20.00    -0.069 C 
HETATM    2  C2  UNL     1     -33.290   6.865   2.932  1.00 20.00    -0.066 C 
ENDROOT
BRANCH   2   3
HETATM    3  C8  UNL     1     -33.920   5.745   3.653  1.00 20.00     0.116 C 
HETATM    4  C5  UNL     1     -33.541   4.411   3.011  1.00 20.00     0.060 C 
HETATM    5  C6  UNL     1     -35.438   5.917   3.676  1.00 20.00     0.060 C 
BRANCH   3   6
HETATM    6  O10 UNL     1     -33.471   5.740   5.009  1.00 20.00    -0.373 OA
HETATM    7  C7  UNL     1     -34.055   4.674   5.740  1.00 20.00     0.204 C 
ENDBRANCH   3   6
ENDBRANCH   2   3
BRANCH   1   8
HETATM    8  C4  UNL     1     -32.151   8.890   1.631  1.00 20.00     0.224 A 
HETATM    9  C3  UNL     1     -32.374   9.013   0.165  1.00 20.00     0.214 A 
HETATM   10  O9  UNL     1     -31.175   8.439   0.700  1.00 20.00    -0.368 OA
ENDBRANCH   1   8
TORSDOF 3
