REMARK  1 active torsions:
REMARK  status: ('A' for Active; 'I' for Inactive)
REMARK    1  A    between atoms: C7_7  and  N11_11 
ROOT
HETATM    1  C1  UNL     1     -34.361   5.733   3.705  1.00 20.00     0.164 C 
HETATM    2  C2  UNL     1     -32.501   5.543   2.115  1.00 20.00     0.013 C 
HETATM    3  C3  UNL     1     -33.628   7.758   2.541  1.00 20.00     0.013 C 
HETATM    4  C4  UNL     1     -31.505   5.845   3.248  1.00 20.00     0.008 C 
HETATM    5  C5  UNL     1     -32.603   8.037   3.652  1.00 20.00     0.008 C 
HETATM    6  C6  UNL     1     -33.839   6.249   2.372  1.00 20.00     0.058 C 
HETATM    7  C7  UNL     1     -33.405   5.943   4.872  1.00 20.00     0.295 C 
HETATM    8  C8  UNL     1     -32.178   6.717   4.329  1.00 20.00     0.026 C 
HETATM    9  O12 UNL     1     -35.460   5.197   3.820  1.00 20.00    -0.295 OA
ENDROOT
BRANCH   7  10
HETATM   10  N11 UNL     1     -34.128   6.645   5.923  1.00 20.00     0.092 N 
HETATM   11  C9  UNL     1     -33.195   7.291   6.850  1.00 20.00     0.310 C 
HETATM   12  C10 UNL     1     -35.007   5.726   6.649  1.00 20.00     0.310 C 
ENDBRANCH   7  10
TORSDOF 1
