REMARK  1 active torsions:
REMARK  status: ('A' for Active; 'I' for Inactive)
REMARK    1  A    between atoms: C6_6  and  N10_10 
ROOT
HETATM    1  C1  UNL     1     -32.191   8.255   1.979  1.00 20.00     0.064 C 
HETATM    2  C2  UNL     1     -32.623   7.623   4.351  1.00 20.00     0.021 C 
HETATM    3  C3  UNL     1     -33.876   6.797   4.633  1.00 20.00     0.037 C 
HETATM    4  C4  UNL     1     -33.025   5.991   2.566  1.00 20.00     0.055 C 
HETATM    5  C5  UNL     1     -32.126   7.170   2.967  1.00 20.00     0.095 C 
HETATM    6  C6  UNL     1     -33.607   5.497   3.887  1.00 20.00     0.223 C 
HETATM    7  N9  UNL     1     -32.243   9.112   1.199  1.00 20.00    -0.197 NA
ENDROOT
BRANCH   6   8
HETATM    8  N10 UNL     1     -34.803   4.693   3.709  1.00 20.00     0.084 N 
HETATM    9  C7  UNL     1     -35.956   5.538   3.383  1.00 20.00     0.309 C 
HETATM   10  C8  UNL     1     -35.083   3.902   4.911  1.00 20.00     0.309 C 
ENDBRANCH   6   8
TORSDOF 1
