REMARK  2 active torsions:
REMARK  status: ('A' for Active; 'I' for Inactive)
REMARK    1  A    between atoms: C1_1  and  C8_8 
REMARK    2  A    between atoms: C3_3  and  C8_8 
ROOT
HETATM    1  C2  UNL     1     -32.694   6.777   2.549  1.00 20.00     0.153 A 
HETATM    2  C3  UNL     1     -33.070   6.691   4.017  1.00 20.00     0.093 A 
HETATM    3  C5  UNL     1     -31.745   7.784   2.005  1.00 20.00     0.042 C 
HETATM    4  C6  UNL     1     -32.499   7.636   5.026  1.00 20.00     0.049 C 
HETATM    5  O10 UNL     1     -32.102   5.809   3.426  1.00 20.00    -0.369 OA
ENDROOT
BRANCH   2   6
HETATM    6  C8  UNL     1     -34.353   6.014   4.388  1.00 20.00     0.087 C 
HETATM    7  C7  UNL     1     -34.787   4.993   3.326  1.00 20.00     0.021 C 
BRANCH   6   8
HETATM    8  C1  UNL     1     -34.235   5.329   5.757  1.00 20.00     0.129 C 
HETATM    9  C4  UNL     1     -33.170   4.271   5.894  1.00 20.00     0.091 C 
HETATM   10  O9  UNL     1     -34.994   5.583   6.692  1.00 20.00    -0.298 OA
ENDBRANCH   6   8
ENDBRANCH   2   6
TORSDOF 2
