REMARK  1 active torsions:
REMARK  status: ('A' for Active; 'I' for Inactive)
REMARK    1  A    between atoms: C5_5  and  N8_8 
ROOT
HETATM    1  C1  UNL     1     -35.154   4.830   3.849  1.00 20.00     0.069 A 
HETATM    2  C2  UNL     1     -34.434   5.636   3.064  1.00 20.00     0.095 A 
HETATM    3  C3  UNL     1     -34.585   5.074   5.193  1.00 20.00     0.168 A 
HETATM    4  C6  UNL     1     -33.466   6.095   5.131  1.00 20.00     0.211 A 
HETATM    5  N8  UNL     1     -33.465   6.383   3.700  1.00 20.00    -0.354 N 
HETATM    6  O9  UNL     1     -34.979   4.517   6.205  1.00 20.00    -0.291 OA
ENDROOT
BRANCH   5   7
HETATM    7  C5  UNL     1     -32.616   7.266   3.110  1.00 20.00    -0.002 C 
HETATM    8  C4  UNL     1     -31.394   7.483   3.615  1.00 20.00     0.038 C 
HETATM    9  C7  UNL     1     -33.129   7.963   1.889  1.00 20.00     0.067 C 
ENDBRANCH   5   7
TORSDOF 1
