REMARK  3 active torsions:
REMARK  status: ('A' for Active; 'I' for Inactive)
REMARK    1  A    between atoms: C3_3  and  C7_7 
REMARK    2  A    between atoms: C4_4  and  O11_11 
REMARK    3  A    between atoms: C7_7  and  C8_8 
ROOT
HETATM    1  C1  UNL     1     -32.094   5.758   2.782  1.00 20.00     0.180 C 
HETATM    2  C2  UNL     1     -32.196   7.249   4.779  1.00 20.00     0.180 C 
HETATM    3  C3  UNL     1     -31.757   7.153   3.315  1.00 20.00     0.034 C 
HETATM    4  C4  UNL     1     -33.792   5.555   4.405  1.00 20.00     0.412 C 
HETATM    5  O9  UNL     1     -33.468   5.446   3.016  1.00 20.00    -0.339 OA
HETATM    6  O10 UNL     1     -33.565   6.869   4.922  1.00 20.00    -0.339 OA
ENDROOT
BRANCH   3   7
HETATM    7  C7  UNL     1     -32.452   8.230   2.476  1.00 20.00     0.008 C 
BRANCH   7   8
HETATM    8  C8  UNL     1     -31.673   8.529   1.198  1.00 20.00    -0.004 C 
HETATM    9  C5  UNL     1     -32.376   9.578   0.352  1.00 20.00     0.005 C 
ENDBRANCH   7   8
ENDBRANCH   3   7
BRANCH   4  10
HETATM   10  O11 UNL     1     -35.157   5.190   4.608  1.00 20.00    -0.344 OA
HETATM   11  C6  UNL     1     -35.322   3.781   4.590  1.00 20.00     0.207 C 
ENDBRANCH   4  10
TORSDOF 3
