REMARK  0 active torsions:
REMARK  status: ('A' for Active; 'I' for Inactive)
ROOT
HETATM    1  C1  UNL     1     -33.970   5.416   2.714  1.00 20.00     0.110 A 
HETATM    2  C2  UNL     1     -34.380   5.199   4.018  1.00 20.00     0.007 A 
HETATM    3  C3  UNL     1     -33.604   5.950   4.932  1.00 20.00     0.002 A 
HETATM    4  C4  UNL     1     -32.734   6.612   4.162  1.00 20.00     0.048 A 
HETATM    5  C5  UNL     1     -35.338   4.460   4.762  1.00 20.00     0.124 A 
HETATM    6  C6  UNL     1     -31.675   7.469   3.736  1.00 20.00     0.048 A 
HETATM    7  C7  UNL     1     -31.959   7.098   2.454  1.00 20.00     0.099 A 
HETATM    8  C8  UNL     1     -34.085   5.677   6.282  1.00 20.00     0.190 A 
HETATM    9  N9  UNL     1     -35.225   4.685   6.044  1.00 20.00    -0.296 NA
HETATM   10  N10 UNL     1     -32.963   6.290   2.895  1.00 20.00    -0.331 N 
ENDROOT
TORSDOF 0
