REMARK  1 active torsions:
REMARK  status: ('A' for Active; 'I' for Inactive)
REMARK    1  A    between atoms: C6_6  and  C9_9 
ROOT
HETATM    1  C1  UNL     1     -34.495   4.895   4.781  1.00 20.00     0.119 C 
HETATM    2  C2  UNL     1     -34.697   6.683   3.119  1.00 20.00     0.043 A 
HETATM    3  C3  UNL     1     -34.055   7.567   2.259  1.00 20.00     0.012 A 
HETATM    4  C4  UNL     1     -31.972   6.679   2.984  1.00 20.00     0.125 A 
HETATM    5  C5  UNL     1     -33.911   5.830   3.877  1.00 20.00     0.136 A 
HETATM    6  C6  UNL     1     -32.667   7.571   2.184  1.00 20.00    -0.036 A 
HETATM    7  N10 UNL     1     -34.971   4.134   5.517  1.00 20.00    -0.190 NA
HETATM    8  N11 UNL     1     -32.560   5.805   3.832  1.00 20.00    -0.249 NA
ENDROOT
BRANCH   6   9
HETATM    9  C9  UNL     1     -31.952   8.505   1.275  1.00 20.00     0.020 A 
HETATM   10  C7  UNL     1     -32.518   9.884   1.043  1.00 20.00     0.010 A 
HETATM   11  C8  UNL     1     -32.573   8.864  -0.052  1.00 20.00     0.010 A 
ENDBRANCH   6   9
TORSDOF 1
