REMARK  2 active torsions:
REMARK  status: ('A' for Active; 'I' for Inactive)
REMARK    1  A    between atoms: C3_3  and  C10_10 
REMARK    2  A    between atoms: C7_7  and  O11_11 
ROOT
HETATM    1  C1  UNL     1     -32.424   9.390   1.860  1.00 20.00     0.012 C 
HETATM    2  C2  UNL     1     -32.299   8.262   2.253  1.00 20.00    -0.113 C 
HETATM    3  C10 UNL     1     -32.138   6.885   2.725  1.00 20.00     0.127 C 
ENDROOT
BRANCH   3   4
HETATM    4  C3  UNL     1     -33.254   6.528   3.647  1.00 20.00    -0.060 C 
HETATM    5  C4  UNL     1     -34.453   6.006   3.339  1.00 20.00    -0.052 C 
HETATM    6  C7  UNL     1     -35.264   5.726   4.569  1.00 20.00     0.147 C 
HETATM    7  C8  UNL     1     -35.016   5.672   2.000  1.00 20.00     0.046 C 
HETATM    8  C5  UNL     1     -34.520   6.492   5.659  1.00 20.00     0.045 C 
HETATM    9  C6  UNL     1     -33.082   6.656   5.141  1.00 20.00     0.014 C 
HETATM   10  C9  UNL     1     -32.471   7.972   5.609  1.00 20.00     0.015 C 
BRANCH   6  11
HETATM   11  O11 UNL     1     -35.262   4.331   4.828  1.00 20.00    -0.391 OA
HETATM   12  H25 UNL     1     -35.795   4.191   5.628  1.00 20.00     0.210 HD
ENDBRANCH   6  11
ENDBRANCH   3   4
TORSDOF 2
