REMARK  2 active torsions:
REMARK  status: ('A' for Active; 'I' for Inactive)
REMARK    1  A    between atoms: C4_4  and  C6_6 
REMARK    2  A    between atoms: C7_7  and  O10_10 
ROOT
HETATM    1  C1  UNL     1     -31.849   7.124   2.373  1.00 20.00     0.218 C 
HETATM    2  C4  UNL     1     -31.949   6.137   3.214  1.00 20.00     0.043 C 
HETATM    3  O9  UNL     1     -31.758   8.017   1.613  1.00 20.00    -0.284 OA
ENDROOT
BRANCH   2   4
HETATM    4  C6  UNL     1     -33.155   5.273   3.375  1.00 20.00     0.064 C 
HETATM    5  C3  UNL     1     -34.281   5.638   2.452  1.00 20.00    -0.020 C 
HETATM    6  C2  UNL     1     -35.467   5.531   3.060  1.00 20.00    -0.027 C 
HETATM    7  C5  UNL     1     -35.325   5.099   4.485  1.00 20.00     0.059 C 
HETATM    8  C7  UNL     1     -33.836   5.349   4.756  1.00 20.00     0.135 C 
BRANCH   8   9
HETATM    9  O10 UNL     1     -33.715   6.645   5.344  1.00 20.00    -0.389 OA
HETATM   10  C8  UNL     1     -34.027   6.614   6.728  1.00 20.00     0.202 C 
ENDBRANCH   8   9
ENDBRANCH   2   4
TORSDOF 2
