REMARK  1 active torsions:
REMARK  status: ('A' for Active; 'I' for Inactive)
REMARK    1  A    between atoms: C3_3  and  C7_7 
ROOT
HETATM    1  C1  UNL     1     -34.383   3.947   6.024  1.00 20.00    -0.030 C 
HETATM    2  C2  UNL     1     -35.141   3.658   4.961  1.00 20.00    -0.026 C 
HETATM    3  C4  UNL     1     -33.938   5.377   6.070  1.00 20.00     0.033 C 
HETATM    4  C5  UNL     1     -34.247   5.065   3.022  1.00 20.00     0.021 C 
HETATM    5  C6  UNL     1     -35.314   4.855   4.119  1.00 20.00     0.013 C 
HETATM    6  C7  UNL     1     -33.974   6.476   3.592  1.00 20.00     0.060 C 
HETATM    7  C8  UNL     1     -34.687   6.039   4.904  1.00 20.00     0.008 C 
ENDROOT
BRANCH   6   8
HETATM    8  C3  UNL     1     -32.523   6.955   3.675  1.00 20.00     0.127 C 
HETATM    9  C9  UNL     1     -31.613   6.558   2.545  1.00 20.00     0.091 C 
HETATM   10  O10 UNL     1     -32.122   7.634   4.619  1.00 20.00    -0.298 OA
ENDBRANCH   6   8
TORSDOF 1
