REMARK  1 active torsions:
REMARK  status: ('A' for Active; 'I' for Inactive)
REMARK    1  A    between atoms: C1_1  and  C5_5 
ROOT
HETATM    1  C2  UNL     1     -34.972   6.323   2.832  1.00 20.00     0.015 C 
HETATM    2  C3  UNL     1     -35.632   5.258   3.705  1.00 20.00     0.021 C 
HETATM    3  C4  UNL     1     -33.974   6.285   5.070  1.00 20.00     0.033 C 
HETATM    4  C5  UNL     1     -33.935   7.016   3.725  1.00 20.00     0.073 C 
HETATM    5  C6  UNL     1     -34.559   4.920   4.727  1.00 20.00     0.083 C 
HETATM    6 CL9  UNL     1     -35.217   4.093   6.146  1.00 20.00    -0.125 Cl
ENDROOT
BRANCH   4   7
HETATM    7  C1  UNL     1     -32.564   6.922   3.126  1.00 20.00     0.223 C 
HETATM    8  O7  UNL     1     -31.910   7.923   2.852  1.00 20.00    -0.279 OA
HETATM    9 CL8  UNL     1     -32.066   5.274   2.890  1.00 20.00    -0.043 Cl
ENDBRANCH   4   7
TORSDOF 1
