REMARK  0 active torsions:
REMARK  status: ('A' for Active; 'I' for Inactive)
ROOT
HETATM    1  C1  UNL     1     -32.886   6.247   2.838  1.00 20.00     0.020 A 
HETATM    2  C2  UNL     1     -32.463   6.740   4.107  1.00 20.00     0.038 A 
HETATM    3  C3  UNL     1     -34.008   5.456   3.030  1.00 20.00     0.093 A 
HETATM    4  C4  UNL     1     -33.347   6.222   5.008  1.00 20.00     0.073 A 
HETATM    5  C5  UNL     1     -35.222   4.819   5.154  1.00 20.00     0.085 A 
HETATM    6  C6  UNL     1     -35.085   5.248   6.438  1.00 20.00     0.065 A 
HETATM    7  C7  UNL     1     -35.045   3.845   6.213  1.00 20.00     0.061 A 
HETATM    8  N8  UNL     1     -34.247   5.416   4.377  1.00 20.00    -0.337 N 
HETATM    9  S9  UNL     1     -33.713   6.313   6.696  1.00 20.00    -0.097 SA
ENDROOT
TORSDOF 0
