REMARK  0 active torsions:
REMARK  status: ('A' for Active; 'I' for Inactive)
ROOT
HETATM    1  C1  UNL     1     -32.349   8.213   1.697  1.00 20.00     0.017 C 
HETATM    2  C2  UNL     1     -32.601   7.331   2.471  1.00 20.00    -0.050 C 
HETATM    3  C3  UNL     1     -34.910   5.392   5.218  1.00 20.00     0.053 C 
HETATM    4  C4  UNL     1     -33.605   6.000   5.703  1.00 20.00     0.174 C 
HETATM    5  C5  UNL     1     -34.695   4.711   3.878  1.00 20.00     0.174 C 
HETATM    6  C6  UNL     1     -32.911   6.246   3.422  1.00 20.00     0.227 C 
HETATM    7  C7  UNL     1     -31.733   5.262   3.415  1.00 20.00     0.095 C 
HETATM    8  O8  UNL     1     -33.063   6.863   4.707  1.00 20.00    -0.345 OA
HETATM    9  O9  UNL     1     -34.111   5.621   2.949  1.00 20.00    -0.345 OA
ENDROOT
TORSDOF 0
