REMARK  2 active torsions:
REMARK  status: ('A' for Active; 'I' for Inactive)
REMARK    1  A    between atoms: C1_1  and  C5_5 
REMARK    2  A    between atoms: C1_1  and  O10_10 
ROOT
HETATM    1  C2  UNL     1     -35.531   4.841   4.255  1.00 20.00     0.015 C 
HETATM    2  C3  UNL     1     -34.853   3.657   4.961  1.00 20.00     0.006 C 
HETATM    3  C4  UNL     1     -34.612   5.291   7.007  1.00 20.00     0.011 A 
HETATM    4  C5  UNL     1     -34.588   6.037   4.483  1.00 20.00     0.090 C 
HETATM    5  C6  UNL     1     -34.038   4.270   6.062  1.00 20.00    -0.009 A 
HETATM    6  C7  UNL     1     -33.869   5.722   5.768  1.00 20.00     0.004 A 
ENDROOT
BRANCH   4   7
HETATM    7  C1  UNL     1     -33.640   6.186   3.332  1.00 20.00     0.263 C 
HETATM    8  O9  UNL     1     -33.642   5.463   2.344  1.00 20.00    -0.265 OA
BRANCH   7   9
HETATM    9  O10 UNL     1     -32.798   7.233   3.567  1.00 20.00    -0.326 OA
HETATM   10  C8  UNL     1     -31.834   7.488   2.541  1.00 20.00     0.213 C 
ENDBRANCH   7   9
ENDBRANCH   4   7
TORSDOF 2
