REMARK  1 active torsions:
REMARK  status: ('A' for Active; 'I' for Inactive)
REMARK    1  A    between atoms: C1_1  and  C7_7 
ROOT
HETATM    1  C2  UNL     1     -33.465   3.888   4.735  1.00 20.00     0.048 C 
HETATM    2  C3  UNL     1     -33.594   6.181   5.702  1.00 20.00     0.048 C 
HETATM    3  C4  UNL     1     -34.591   3.468   5.683  1.00 20.00     0.273 C 
HETATM    4  C5  UNL     1     -34.716   5.689   6.620  1.00 20.00     0.273 C 
HETATM    5  C6  UNL     1     -35.355   5.262   4.436  1.00 20.00     0.288 C 
HETATM    6  C7  UNL     1     -33.839   5.342   4.448  1.00 20.00     0.042 C 
HETATM    7  N8  UNL     1     -35.449   4.681   5.800  1.00 20.00     0.089 N 
ENDROOT
BRANCH   6   8
HETATM    8  C1  UNL     1     -33.235   5.908   3.208  1.00 20.00     0.242 C 
HETATM    9  O9  UNL     1     -32.026   5.992   3.022  1.00 20.00    -0.306 OA
ENDBRANCH   6   8
TORSDOF 1
