REMARK  1 active torsions:
REMARK  status: ('A' for Active; 'I' for Inactive)
REMARK    1  A    between atoms: C7_7  and  C9_9 
ROOT
HETATM    1  C1  UNL     1     -35.107   4.744   5.958  1.00 20.00    -0.004 A 
HETATM    2  C2  UNL     1     -34.058   5.552   6.519  1.00 20.00    -0.004 A 
HETATM    3  C3  UNL     1     -35.535   4.921   4.701  1.00 20.00    -0.017 A 
HETATM    4  C4  UNL     1     -33.495   6.552   5.830  1.00 20.00    -0.020 A 
HETATM    5  C5  UNL     1     -34.249   5.362   2.621  1.00 20.00    -0.021 C 
HETATM    6  C6  UNL     1     -33.023   5.862   2.456  1.00 20.00    -0.017 C 
HETATM    7  C8  UNL     1     -34.971   5.972   3.784  1.00 20.00     0.039 A 
HETATM    8  C9  UNL     1     -32.691   6.905   3.468  1.00 20.00     0.086 C 
HETATM    9  C10 UNL     1     -33.905   6.919   4.423  1.00 20.00     0.034 A 
ENDROOT
BRANCH   8  10
HETATM   10  C7  UNL     1     -32.542   8.200   2.732  1.00 20.00     0.131 C 
HETATM   11  C11 UNL     1     -31.480   8.256   1.667  1.00 20.00     0.091 C 
HETATM   12  O12 UNL     1     -33.254   9.171   2.984  1.00 20.00    -0.298 OA
ENDBRANCH   8  10
TORSDOF 1
