REMARK  2 active torsions:
REMARK  status: ('A' for Active; 'I' for Inactive)
REMARK    1  A    between atoms: C7_7  and  O11_11 
REMARK    2  A    between atoms: C10_10  and  O11_11 
ROOT
HETATM    1  C1  UNL     1     -35.936   5.574   4.248  1.00 20.00    -0.019 C 
HETATM    2  C2  UNL     1     -35.215   4.487   3.908  1.00 20.00    -0.019 C 
HETATM    3  C3  UNL     1     -35.074   5.428   6.550  1.00 20.00    -0.019 C 
HETATM    4  C4  UNL     1     -34.352   4.339   6.209  1.00 20.00    -0.019 C 
HETATM    5  C5  UNL     1     -35.146   6.315   5.316  1.00 20.00     0.060 C 
HETATM    6  C6  UNL     1     -33.950   4.510   4.752  1.00 20.00     0.060 C 
HETATM    7  C7  UNL     1     -33.725   6.031   4.801  1.00 20.00     0.144 C 
ENDROOT
BRANCH   7   8
HETATM    8  O11 UNL     1     -33.441   6.625   3.547  1.00 20.00    -0.379 OA
BRANCH   8   9
HETATM    9  C10 UNL     1     -32.042   6.808   3.356  1.00 20.00     0.114 C 
HETATM   10  C8  UNL     1     -31.456   5.556   2.722  1.00 20.00     0.039 C 
HETATM   11  C9  UNL     1     -31.812   8.040   2.495  1.00 20.00     0.039 C 
ENDBRANCH   8   9
ENDBRANCH   7   8
TORSDOF 2
