REMARK  1 active torsions:
REMARK  status: ('A' for Active; 'I' for Inactive)
REMARK    1  A    between atoms: C1_1  and  C9_9 
ROOT
HETATM    1  C2  UNL     1     -35.115   3.709   6.196  1.00 20.00     0.010 C 
HETATM    2  C3  UNL     1     -33.732   4.223   4.050  1.00 20.00     0.025 C 
HETATM    3  C4  UNL     1     -33.936   5.996   5.795  1.00 20.00     0.025 C 
HETATM    4  C5  UNL     1     -35.235   6.042   3.816  1.00 20.00     0.026 C 
HETATM    5  C6  UNL     1     -35.068   3.741   4.648  1.00 20.00    -0.008 C 
HETATM    6  C7  UNL     1     -35.241   5.252   6.136  1.00 20.00    -0.008 C 
HETATM    7  C8  UNL     1     -35.918   5.050   4.742  1.00 20.00    -0.005 C 
HETATM    8  C9  UNL     1     -33.812   5.739   4.286  1.00 20.00     0.049 C 
ENDROOT
BRANCH   8   9
HETATM    9  C1  UNL     1     -32.777   6.576   3.581  1.00 20.00     0.181 C 
HETATM   10  O10 UNL     1     -32.858   7.819   3.786  1.00 20.00    -0.647 OA
HETATM   11  O11 UNL     1     -31.959   5.923   2.873  1.00 20.00    -0.647 OA
ENDBRANCH   8   9
TORSDOF 1
