REMARK  5 active torsions:
REMARK  status: ('A' for Active; 'I' for Inactive)
REMARK    1  A    between atoms: C1_1  and  C5_5 
REMARK    2  A    between atoms: C2_2  and  C7_7 
REMARK    3  A    between atoms: C5_5  and  O10_10 
REMARK    4  A    between atoms: C7_7  and  C9_9 
REMARK    5  A    between atoms: C8_8  and  C9_9 
ROOT
HETATM    1  C1  UNL     1     -32.546   8.034   2.317  1.00 20.00    -0.068 C 
HETATM    2  C2  UNL     1     -32.763   7.200   3.152  1.00 20.00    -0.103 C 
ENDROOT
BRANCH   1   3
HETATM    3  C5  UNL     1     -32.283   9.051   1.300  1.00 20.00     0.121 A 
HETATM    4  C3  UNL     1     -31.221   8.793   0.292  1.00 20.00     0.055 A 
HETATM    5  C4  UNL     1     -32.668   8.768  -0.108  1.00 20.00     0.055 A 
BRANCH   3   6
HETATM    6  O10 UNL     1     -32.445  10.372   1.805  1.00 20.00    -0.378 OA
HETATM    7  H24 UNL     1     -32.252  10.976   1.071  1.00 20.00     0.211 HD
ENDBRANCH   3   6
ENDBRANCH   1   3
BRANCH   2   8
HETATM    8  C7  UNL     1     -33.026   6.177   4.174  1.00 20.00     0.094 C 
BRANCH   8   9
HETATM    9  C9  UNL     1     -33.982   6.701   5.245  1.00 20.00     0.012 C 
BRANCH   9  10
HETATM   10  C8  UNL     1     -34.230   5.654   6.331  1.00 20.00    -0.004 C 
HETATM   11  C6  UNL     1     -34.878   4.402   5.760  1.00 20.00     0.005 C 
ENDBRANCH   9  10
ENDBRANCH   8   9
ENDBRANCH   2   8
TORSDOF 5
