REMARK  2 active torsions:
REMARK  status: ('A' for Active; 'I' for Inactive)
REMARK    1  A    between atoms: C1_1  and  C7_7 
REMARK    2  A    between atoms: C4_4  and  C7_7 
ROOT
HETATM    1  C6  UNL     1     -33.983   6.808   6.285  1.00 20.00     0.018 C 
HETATM    2  C7  UNL     1     -34.063   6.819   4.761  1.00 20.00     0.055 C 
ENDROOT
BRANCH   2   3
HETATM    3  C1  UNL     1     -34.785   5.579   4.242  1.00 20.00     0.127 C 
HETATM    4  C5  UNL     1     -34.626   4.312   5.044  1.00 20.00     0.091 C 
HETATM    5  O8  UNL     1     -35.448   5.588   3.204  1.00 20.00    -0.298 OA
ENDBRANCH   2   3
BRANCH   2   6
HETATM    6  C4  UNL     1     -32.671   6.906   4.147  1.00 20.00    -0.004 A 
HETATM    7  C2  UNL     1     -32.068   5.708   3.467  1.00 20.00     0.006 A 
HETATM    8  C3  UNL     1     -32.501   6.895   2.653  1.00 20.00     0.006 A 
ENDBRANCH   2   6
TORSDOF 2
