REMARK  1 active torsions:
REMARK  status: ('A' for Active; 'I' for Inactive)
REMARK    1  A    between atoms: C5_5  and  O10_10 
ROOT
HETATM    1  C1  UNL     1     -34.583   5.162   2.787  1.00 20.00     0.011 A 
HETATM    2  C2  UNL     1     -35.362   4.735   3.864  1.00 20.00     0.040 A 
HETATM    3  C3  UNL     1     -33.529   6.024   3.040  1.00 20.00    -0.049 A 
HETATM    4  C4  UNL     1     -33.240   6.448   4.343  1.00 20.00    -0.010 A 
HETATM    5  C5  UNL     1     -35.072   5.160   5.171  1.00 20.00     0.104 A 
HETATM    6  C6  UNL     1     -33.999   6.019   5.418  1.00 20.00     0.156 A 
HETATM    7  C7  UNL     1     -32.541   6.583   2.066  1.00 20.00     0.039 C 
HETATM    8  C8  UNL     1     -32.031   7.328   4.361  1.00 20.00     0.042 C 
HETATM    9  C9  UNL     1     -31.939   7.737   2.883  1.00 20.00     0.009 C 
HETATM   10  F11 UNL     1     -33.711   6.417   6.664  1.00 20.00    -0.203 F 
ENDROOT
BRANCH   5  11
HETATM   11  O10 UNL     1     -35.843   4.724   6.206  1.00 20.00    -0.358 OA
HETATM   12  H20 UNL     1     -36.541   4.134   5.879  1.00 20.00     0.217 HD
ENDBRANCH   5  11
TORSDOF 1
