REMARK  1 active torsions:
REMARK  status: ('A' for Active; 'I' for Inactive)
REMARK    1  A    between atoms: C1_1  and  C3_3 
ROOT
HETATM    1  C2  UNL     1     -34.891   4.397   4.360  1.00 20.00     0.090 C 
HETATM    2  C3  UNL     1     -33.887   6.813   3.721  1.00 20.00     0.195 C 
HETATM    3  C4  UNL     1     -35.024   5.231   5.626  1.00 20.00     0.054 C 
HETATM    4  C5  UNL     1     -34.764   4.403   6.877  1.00 20.00     0.022 C 
HETATM    5  S7  UNL     1     -34.916   5.541   2.956  1.00 20.00    -0.143 SA
HETATM    6  S8  UNL     1     -33.820   6.596   5.516  1.00 20.00    -0.139 SA
ENDROOT
BRANCH   2   7
HETATM    7  C1  UNL     1     -32.504   6.691   3.181  1.00 20.00     0.242 C 
HETATM    8  O6  UNL     1     -31.846   5.664   3.319  1.00 20.00    -0.278 OA
HETATM    9 CL9  UNL     1     -31.987   8.140   2.373  1.00 20.00    -0.042 Cl
ENDBRANCH   2   7
TORSDOF 1
