REMARK  2 active torsions:
REMARK  status: ('A' for Active; 'I' for Inactive)
REMARK    1  A    between atoms: C1_1  and  C4_4 
REMARK    2  A    between atoms: C1_1  and  C5_5 
ROOT
HETATM    1  C1  UNL     1     -33.881   5.935   4.703  1.00 20.00     0.144 C 
HETATM    2  O6  UNL     1     -33.373   6.602   5.603  1.00 20.00    -0.296 OA
ENDROOT
BRANCH   1   3
HETATM    3  C4  UNL     1     -35.105   5.163   4.944  1.00 20.00     0.056 A 
HETATM    4  C2  UNL     1     -35.118   3.687   4.650  1.00 20.00     0.013 A 
HETATM    5  C3  UNL     1     -35.137   4.166   6.071  1.00 20.00     0.013 A 
ENDBRANCH   1   3
BRANCH   1   6
HETATM    6  C5  UNL     1     -33.315   5.848   3.304  1.00 20.00     0.193 C 
HETATM    7 CL7  UNL     1     -32.482   7.348   2.871  1.00 20.00    -0.123 Cl
ENDBRANCH   1   6
TORSDOF 2
