REMARK  1 active torsions:
REMARK  status: ('A' for Active; 'I' for Inactive)
REMARK    1  A    between atoms: C7_7  and  C10_10 
ROOT
HETATM    1  C1  UNL     1     -31.844   8.607   1.094  1.00 20.00     0.015 C 
HETATM    2  C2  UNL     1     -32.071   7.970   2.086  1.00 20.00    -0.085 C 
HETATM    3  C3  UNL     1     -33.352   7.298   5.579  1.00 20.00    -0.018 C 
HETATM    4  C4  UNL     1     -33.699   6.006   5.443  1.00 20.00    -0.059 C 
HETATM    5  C5  UNL     1     -32.815   8.102   4.435  1.00 20.00     0.072 C 
HETATM    6  C6  UNL     1     -32.350   7.190   3.298  1.00 20.00     0.203 C 
HETATM    7  C7  UNL     1     -33.596   5.315   4.094  1.00 20.00     0.151 C 
HETATM    8  C8  UNL     1     -34.152   5.194   6.622  1.00 20.00     0.046 C 
HETATM    9  O11 UNL     1     -33.389   6.250   3.018  1.00 20.00    -0.364 OA
ENDROOT
BRANCH   7  10
HETATM   10  C10 UNL     1     -34.851   4.528   3.724  1.00 20.00     0.032 C 
HETATM   11  C9  UNL     1     -36.060   5.404   3.683  1.00 20.00     0.008 C 
ENDBRANCH   7  10
TORSDOF 1
