REMARK  1 active torsions:
REMARK  status: ('A' for Active; 'I' for Inactive)
REMARK    1  A    between atoms: C4_4  and  C10_10 
ROOT
HETATM    1  C1  UNL     1     -34.182   5.523   2.632  1.00 20.00     0.174 C 
HETATM    2  C2  UNL     1     -34.368   6.315   3.878  1.00 20.00     0.025 A 
HETATM    3  C3  UNL     1     -33.020   6.520   4.458  1.00 20.00     0.030 A 
HETATM    4  C4  UNL     1     -32.049   5.836   3.548  1.00 20.00     0.130 C 
HETATM    5  C5  UNL     1     -34.075   5.788   5.270  1.00 20.00    -0.035 A 
HETATM    6  C6  UNL     1     -34.688   6.536   6.428  1.00 20.00     0.016 C 
HETATM    7  C7  UNL     1     -33.957   4.306   5.516  1.00 20.00     0.016 C 
HETATM    8  O11 UNL     1     -32.824   5.047   2.621  1.00 20.00    -0.385 OA
ENDROOT
BRANCH   4   9
HETATM    9  C10 UNL     1     -31.207   6.822   2.752  1.00 20.00     0.007 C 
HETATM   10  C8  UNL     1     -32.063   7.987   2.254  1.00 20.00     0.012 C 
HETATM   11  C9  UNL     1     -30.039   7.340   3.592  1.00 20.00     0.012 C 
ENDBRANCH   4   9
TORSDOF 1
