REMARK  1 active torsions:
REMARK  status: ('A' for Active; 'I' for Inactive)
REMARK    1  A    between atoms: C1_1  and  C2_2 
ROOT
HETATM    1  C2  UNL     1     -33.062   6.141   4.443  1.00 20.00     0.084 A 
HETATM    2  C3  UNL     1     -34.160   6.607   5.369  1.00 20.00     0.018 A 
HETATM    3  C4  UNL     1     -34.520   5.961   4.046  1.00 20.00     0.048 A 
HETATM    4  C6  UNL     1     -34.362   5.933   6.683  1.00 20.00     0.012 C 
HETATM    5  C7  UNL     1     -35.133   6.822   2.980  1.00 20.00     0.034 C 
HETATM    6 CL9  UNL     1     -35.123   4.286   4.036  1.00 20.00    -0.118 Cl
ENDROOT
BRANCH   1   7
HETATM    7  C1  UNL     1     -32.219   7.138   3.771  1.00 20.00     0.129 C 
HETATM    8  C5  UNL     1     -31.553   8.163   4.649  1.00 20.00     0.091 C 
HETATM    9  O8  UNL     1     -32.064   7.135   2.551  1.00 20.00    -0.298 OA
ENDBRANCH   1   7
TORSDOF 1
