REMARK  1 active torsions:
REMARK  status: ('A' for Active; 'I' for Inactive)
REMARK    1  A    between atoms: C6_6  and  C7_7 
ROOT
HETATM    1  C1  UNL     1     -33.979   6.812   6.168  1.00 20.00    -0.003 C 
HETATM    2  C2  UNL     1     -32.715   7.089   5.492  1.00 20.00     0.015 C 
HETATM    3  C3  UNL     1     -33.520   6.630   3.241  1.00 20.00     0.011 C 
HETATM    4  C4  UNL     1     -34.865   5.804   6.049  1.00 20.00    -0.026 C 
HETATM    5  C5  UNL     1     -33.687   5.298   3.196  1.00 20.00    -0.021 C 
HETATM    6  C6  UNL     1     -32.499   7.083   4.161  1.00 20.00     0.009 C 
HETATM    7  C8  UNL     1     -34.851   4.538   5.213  1.00 20.00     0.035 C 
HETATM    8  C9  UNL     1     -34.974   4.669   3.669  1.00 20.00     0.007 C 
HETATM    9  C11 UNL     1     -36.270   5.360   3.239  1.00 20.00     0.014 C 
ENDROOT
BRANCH   6  10
HETATM   10  C7  UNL     1     -31.179   7.478   3.662  1.00 20.00     0.155 C 
HETATM   11  C10 UNL     1     -29.986   6.674   4.109  1.00 20.00     0.096 C 
HETATM   12  O12 UNL     1     -31.060   8.444   2.908  1.00 20.00    -0.293 OA
ENDBRANCH   6  10
TORSDOF 1
