REMARK  2 active torsions:
REMARK  status: ('A' for Active; 'I' for Inactive)
REMARK    1  A    between atoms: C5_5  and  C7_7 
REMARK    2  A    between atoms: C7_7  and  O8_8 
ROOT
HETATM    1  C1  UNL     1     -31.767   7.800   1.838  1.00 20.00     0.013 C 
HETATM    2  C2  UNL     1     -34.008   8.872   2.323  1.00 20.00     0.013 C 
HETATM    3  C3  UNL     1     -31.830   7.065   3.174  1.00 20.00     0.079 C 
HETATM    4  C4  UNL     1     -34.069   8.138   3.660  1.00 20.00     0.079 C 
HETATM    5  C5  UNL     1     -32.558   9.116   1.878  1.00 20.00     0.009 C 
HETATM    6  C6  UNL     1     -33.264   6.851   3.625  1.00 20.00     0.243 C 
HETATM    7  F9  UNL     1     -33.868   5.967   2.788  1.00 20.00    -0.206 F 
HETATM    8  F10 UNL     1     -33.271   6.280   4.856  1.00 20.00    -0.206 F 
ENDROOT
BRANCH   5   9
HETATM    9  C7  UNL     1     -32.522   9.808   0.516  1.00 20.00     0.168 C 
BRANCH   9  10
HETATM   10  O8  UNL     1     -33.090   8.937  -0.444  1.00 20.00    -0.400 OA
HETATM   11  H22 UNL     1     -33.057   9.396  -1.301  1.00 20.00     0.209 HD
ENDBRANCH   9  10
ENDBRANCH   5   9
TORSDOF 2
