REMARK  1 active torsions:
REMARK  status: ('A' for Active; 'I' for Inactive)
REMARK    1  A    between atoms: C1_1  and  C7_7 
ROOT
HETATM    1  C2  UNL     1     -35.022   3.474   5.625  1.00 20.00     0.001 C 
HETATM    2  C3  UNL     1     -32.962   6.878   5.008  1.00 20.00     0.014 C 
HETATM    3  C4  UNL     1     -34.545   4.465   6.673  1.00 20.00     0.005 C 
HETATM    4  C5  UNL     1     -34.602   4.142   4.327  1.00 20.00     0.006 C 
HETATM    5  C6  UNL     1     -33.781   6.886   6.293  1.00 20.00     0.006 C 
HETATM    6  C7  UNL     1     -34.014   6.654   3.928  1.00 20.00     0.076 C 
HETATM    7  C8  UNL     1     -34.870   5.834   6.071  1.00 20.00    -0.010 C 
HETATM    8  C9  UNL     1     -34.960   5.617   4.542  1.00 20.00     0.002 C 
ENDROOT
BRANCH   6   9
HETATM    9  C1  UNL     1     -33.424   6.240   2.619  1.00 20.00     0.223 C 
HETATM   10  O10 UNL     1     -34.027   5.505   1.842  1.00 20.00    -0.279 OA
HETATM   11 CL11 UNL     1     -31.842   6.915   2.372  1.00 20.00    -0.043 Cl
ENDBRANCH   6   9
TORSDOF 1
