REMARK  0 active torsions:
REMARK  status: ('A' for Active; 'I' for Inactive)
ROOT
HETATM    1  C1  UNL     1     -32.288   8.905   1.843  1.00 20.00     0.017 C 
HETATM    2  C2  UNL     1     -32.307   7.913   2.519  1.00 20.00    -0.057 C 
HETATM    3  C3  UNL     1     -32.332   6.704   3.344  1.00 20.00     0.342 C 
HETATM    4  C4  UNL     1     -33.920   6.533   4.960  1.00 20.00     0.150 C 
HETATM    5  C5  UNL     1     -33.993   5.330   4.040  1.00 20.00     0.150 C 
HETATM    6  C6  UNL     1     -34.087   6.207   6.430  1.00 20.00     0.042 C 
HETATM    7  C7  UNL     1     -35.401   4.879   3.710  1.00 20.00     0.042 C 
HETATM    8  O8  UNL     1     -32.604   7.042   4.713  1.00 20.00    -0.343 OA
HETATM    9  O9  UNL     1     -33.334   5.799   2.859  1.00 20.00    -0.343 OA
ENDROOT
TORSDOF 0
