REMARK  1 active torsions:
REMARK  status: ('A' for Active; 'I' for Inactive)
REMARK    1  A    between atoms: C1_1  and  C2_2 
ROOT
HETATM    1  C2  UNL     1     -33.013   5.788   4.387  1.00 20.00     0.084 A 
HETATM    2  C3  UNL     1     -33.899   6.636   5.268  1.00 20.00     0.018 A 
HETATM    3  C4  UNL     1     -34.429   5.334   4.694  1.00 20.00     0.048 A 
HETATM    4  C6  UNL     1     -33.581   6.802   6.715  1.00 20.00     0.012 C 
HETATM    5  C7  UNL     1     -34.625   4.128   5.565  1.00 20.00     0.034 C 
HETATM    6 CL9  UNL     1     -35.676   5.506   3.430  1.00 20.00    -0.118 Cl
ENDROOT
BRANCH   1   7
HETATM    7  C1  UNL     1     -32.645   6.284   3.054  1.00 20.00     0.129 C 
HETATM    8  C5  UNL     1     -33.316   7.549   2.593  1.00 20.00     0.091 C 
HETATM    9  O8  UNL     1     -31.827   5.694   2.350  1.00 20.00    -0.298 OA
ENDBRANCH   1   7
TORSDOF 1
