REMARK  3 active torsions:
REMARK  status: ('A' for Active; 'I' for Inactive)
REMARK    1  A    between atoms: C1_1  and  C10_10 
REMARK    2  A    between atoms: C7_7  and  C8_8 
REMARK    3  A    between atoms: C9_9  and  C10_10 
ROOT
HETATM    1  C2  UNL     1     -32.086   7.238   2.813  1.00 20.00     0.006 C 
HETATM    2  C3  UNL     1     -34.425   8.094   2.741  1.00 20.00     0.006 C 
HETATM    3  C4  UNL     1     -32.190   7.086   4.348  1.00 20.00     0.019 C 
HETATM    4  C5  UNL     1     -34.532   7.939   4.271  1.00 20.00     0.019 C 
HETATM    5  C7  UNL     1     -33.475   7.026   2.164  1.00 20.00    -0.010 C 
HETATM    6  C10 UNL     1     -33.652   6.761   4.749  1.00 20.00     0.040 C 
ENDROOT
BRANCH   6   7
HETATM    7  C1  UNL     1     -33.777   6.624   6.236  1.00 20.00     0.228 C 
HETATM    8  O11 UNL     1     -33.499   7.549   6.995  1.00 20.00    -0.279 OA
HETATM    9 CL12 UNL     1     -34.342   5.049   6.704  1.00 20.00    -0.043 Cl
ENDBRANCH   6   7
BRANCH   6  10
HETATM   10  C9  UNL     1     -34.027   5.466   4.036  1.00 20.00     0.007 A 
HETATM   11  C6  UNL     1     -35.249   5.266   3.175  1.00 20.00     0.011 A 
HETATM   12  C8  UNL     1     -33.929   5.623   2.539  1.00 20.00    -0.005 A 
ENDBRANCH   6  10
TORSDOF 3
