REMARK  1 active torsions:
REMARK  status: ('A' for Active; 'I' for Inactive)
REMARK    1  A    between atoms: C3_3  and  C4_4 
ROOT
HETATM    1  C1  UNL     1     -34.939   4.981   3.204  1.00 20.00     0.061 C 
HETATM    2  C2  UNL     1     -35.322   4.240   4.249  1.00 20.00     0.087 C 
HETATM    3  C4  UNL     1     -34.174   6.177   3.671  1.00 20.00     0.376 C 
HETATM    4  C5  UNL     1     -34.854   4.871   5.515  1.00 20.00     0.463 C 
HETATM    5  C6  UNL     1     -33.416   6.827   5.967  1.00 20.00     0.324 C 
HETATM    6  N7  UNL     1     -34.417   6.215   5.120  1.00 20.00     0.211 N 
HETATM    7  F9  UNL     1     -34.636   7.319   3.100  1.00 20.00    -0.195 F 
HETATM    8  F10 UNL     1     -35.844   4.955   6.439  1.00 20.00    -0.169 F 
HETATM    9  F11 UNL     1     -33.843   4.156   6.070  1.00 20.00    -0.169 F 
ENDROOT
BRANCH   3  10
HETATM   10  C3  UNL     1     -32.739   5.933   3.331  1.00 20.00     0.312 C 
HETATM   11  O8  UNL     1     -31.840   6.730   3.582  1.00 20.00    -0.301 OA
ENDBRANCH   3  10
TORSDOF 1
