REMARK  1 active torsions:
REMARK  status: ('A' for Active; 'I' for Inactive)
REMARK    1  A    between atoms: C6_6  and  N10_10 
ROOT
HETATM    1  C1  UNL     1     -31.997   7.626   3.188  1.00 20.00     0.066 C 
HETATM    2  C2  UNL     1     -34.100   5.152   3.894  1.00 20.00    -0.054 C 
HETATM    3  C3  UNL     1     -34.968   4.169   4.141  1.00 20.00     0.016 C 
HETATM    4  C4  UNL     1     -33.069   5.361   2.804  1.00 20.00     0.057 C 
HETATM    5  C5  UNL     1     -32.445   6.386   3.794  1.00 20.00     0.134 C 
HETATM    6  C6  UNL     1     -33.801   6.478   4.560  1.00 20.00     0.268 C 
HETATM    7  N9  UNL     1     -31.639   8.617   2.703  1.00 20.00    -0.197 NA
ENDROOT
BRANCH   6   8
HETATM    8  N10 UNL     1     -33.517   6.363   5.988  1.00 20.00     0.089 N 
HETATM    9  C7  UNL     1     -34.760   6.246   6.750  1.00 20.00     0.310 C 
HETATM   10  C8  UNL     1     -32.741   7.514   6.451  1.00 20.00     0.310 C 
ENDBRANCH   6   8
TORSDOF 1
