REMARK  3 active torsions:
REMARK  status: ('A' for Active; 'I' for Inactive)
REMARK    1  A    between atoms: C3_3  and  C8_8 
REMARK    2  A    between atoms: C7_7  and  C8_8 
REMARK    3  A    between atoms: C8_8  and  C9_9 
ROOT
HETATM    1  C1  UNL     1     -32.069   8.226   1.516  1.00 20.00     0.012 C 
HETATM    2  C2  UNL     1     -32.414   7.226   2.085  1.00 20.00    -0.117 C 
HETATM    3  C7  UNL     1     -32.837   5.998   2.781  1.00 20.00     0.105 C 
ENDROOT
BRANCH   3   4
HETATM    4  C8  UNL     1     -33.759   6.311   3.973  1.00 20.00     0.069 C 
BRANCH   4   5
HETATM    5  C3  UNL     1     -34.655   5.111   4.307  1.00 20.00     0.128 C 
HETATM    6  C4  UNL     1     -33.961   3.851   4.760  1.00 20.00     0.091 C 
HETATM    7  O10 UNL     1     -35.881   5.152   4.202  1.00 20.00    -0.298 OA
ENDBRANCH   4   5
BRANCH   4   8
HETATM    8  C9  UNL     1     -33.013   6.768   5.254  1.00 20.00    -0.011 C 
HETATM    9  C5  UNL     1     -32.059   7.944   5.023  1.00 20.00     0.010 C 
HETATM   10  C6  UNL     1     -33.994   7.111   6.380  1.00 20.00     0.010 C 
ENDBRANCH   4   8
ENDBRANCH   3   4
TORSDOF 3
