REMARK  1 active torsions:
REMARK  status: ('A' for Active; 'I' for Inactive)
REMARK    1  A    between atoms: C1_1  and  C6_6 
ROOT
HETATM    1  C2  UNL     1     -34.731   5.598   6.588  1.00 20.00     0.005 C 
HETATM    2  C3  UNL     1     -35.388   4.620   5.599  1.00 20.00     0.005 C 
HETATM    3  C4  UNL     1     -34.100   7.130   4.512  1.00 20.00     0.018 C 
HETATM    4  C5  UNL     1     -34.291   5.068   3.253  1.00 20.00     0.018 C 
HETATM    5  C6  UNL     1     -33.844   6.524   3.136  1.00 20.00     0.073 C 
HETATM    6  C7  UNL     1     -33.742   6.003   5.477  1.00 20.00    -0.010 C 
HETATM    7  C8  UNL     1     -34.108   4.702   4.726  1.00 20.00    -0.010 C 
ENDROOT
BRANCH   5   8
HETATM    8  C1  UNL     1     -32.391   6.602   2.766  1.00 20.00     0.223 C 
HETATM    9  O9  UNL     1     -31.597   5.721   3.083  1.00 20.00    -0.279 OA
HETATM   10 CL10 UNL     1     -32.020   8.044   1.870  1.00 20.00    -0.043 Cl
ENDBRANCH   5   8
TORSDOF 1
