REMARK  1 active torsions:
REMARK  status: ('A' for Active; 'I' for Inactive)
REMARK    1  A    between atoms: C3_3  and  C6_6 
ROOT
HETATM    1  C1  UNL     1     -33.166   7.521   5.197  1.00 20.00    -0.024 C 
HETATM    2  C2  UNL     1     -32.753   7.034   4.012  1.00 20.00    -0.083 C 
HETATM    3  C4  UNL     1     -34.105   6.808   6.124  1.00 20.00     0.032 C 
HETATM    4  C5  UNL     1     -33.241   5.690   3.481  1.00 20.00     0.021 C 
HETATM    5  C6  UNL     1     -34.484   5.150   4.238  1.00 20.00     0.066 C 
HETATM    6  C7  UNL     1     -34.308   5.329   5.758  1.00 20.00    -0.003 C 
HETATM    7  C8  UNL     1     -31.740   7.788   3.195  1.00 20.00     0.043 C 
HETATM    8  C10 UNL     1     -33.472   5.676   1.963  1.00 20.00     0.015 C 
HETATM    9  C11 UNL     1     -35.453   4.719   6.567  1.00 20.00     0.011 C 
ENDROOT
BRANCH   5  10
HETATM   10  C3  UNL     1     -35.760   5.803   3.769  1.00 20.00     0.128 C 
HETATM   11  C9  UNL     1     -36.795   4.900   3.155  1.00 20.00     0.091 C 
HETATM   12  O12 UNL     1     -35.946   7.013   3.886  1.00 20.00    -0.298 OA
ENDBRANCH   5  10
TORSDOF 1
