REMARK  2 active torsions:
REMARK  status: ('A' for Active; 'I' for Inactive)
REMARK    1  A    between atoms: C3_3  and  C6_6 
REMARK    2  A    between atoms: C3_3  and  O10_10 
ROOT
HETATM    1  C1  UNL     1     -32.457   8.923   3.234  1.00 20.00    -0.023 C 
HETATM    2  C2  UNL     1     -32.224   8.311   2.067  1.00 20.00    -0.087 C 
HETATM    3  C4  UNL     1     -32.347   7.986   4.391  1.00 20.00     0.042 C 
HETATM    4  C5  UNL     1     -31.920   6.857   2.252  1.00 20.00     0.048 C 
HETATM    5  C6  UNL     1     -32.269   6.609   3.724  1.00 20.00     0.093 C 
HETATM    6  C7  UNL     1     -32.217   8.934   0.719  1.00 20.00     0.043 C 
ENDROOT
BRANCH   5   7
HETATM    7  C3  UNL     1     -33.589   5.903   3.845  1.00 20.00     0.263 C 
HETATM    8  O9  UNL     1     -34.268   5.551   2.890  1.00 20.00    -0.265 OA
BRANCH   7   9
HETATM    9  O10 UNL     1     -33.893   5.727   5.162  1.00 20.00    -0.326 OA
HETATM   10  C8  UNL     1     -35.133   5.062   5.424  1.00 20.00     0.213 C 
ENDBRANCH   7   9
ENDBRANCH   5   7
TORSDOF 2
