REMARK  1 active torsions:
REMARK  status: ('A' for Active; 'I' for Inactive)
REMARK    1  A    between atoms: C1_1  and  C7_7 
ROOT
HETATM    1  C1  UNL     1     -33.421   6.868   3.577  1.00 20.00    -0.057 C 
HETATM    2  C2  UNL     1     -32.928   7.732   2.905  1.00 20.00     0.276 C 
HETATM    3  O10 UNL     1     -32.445   8.578   2.246  1.00 20.00    -0.274 OA
ENDROOT
BRANCH   1   4
HETATM    4  C7  UNL     1     -33.956   5.930   4.307  1.00 20.00     0.023 A 
HETATM    5  C5  UNL     1     -34.577   4.789   3.637  1.00 20.00     0.021 A 
HETATM    6  C3  UNL     1     -35.138   3.807   4.364  1.00 20.00     0.002 A 
HETATM    7  C4  UNL     1     -35.146   3.845   5.816  1.00 20.00     0.001 A 
HETATM    8  C6  UNL     1     -34.593   4.863   6.500  1.00 20.00     0.012 A 
HETATM    9  C8  UNL     1     -33.959   5.978   5.786  1.00 20.00    -0.027 A 
HETATM   10  C9  UNL     1     -33.415   6.983   6.497  1.00 20.00     0.025 C 
ENDBRANCH   1   4
TORSDOF 1
