REMARK  1 active torsions:
REMARK  status: ('A' for Active; 'I' for Inactive)
REMARK    1  A    between atoms: C2_2  and  C3_3 
ROOT
HETATM    1  C1  UNL     1     -33.852   6.449   5.501  1.00 20.00     0.011 C 
HETATM    2  C2  UNL     1     -33.392   6.392   4.244  1.00 20.00     0.004 C 
HETATM    3  C4  UNL     1     -35.076   5.685   5.916  1.00 20.00     0.195 C 
HETATM    4  C5  UNL     1     -34.046   5.543   3.199  1.00 20.00     0.069 C 
HETATM    5  C6  UNL     1     -34.987   4.527   3.845  1.00 20.00     0.172 C 
HETATM    6  O8  UNL     1     -35.822   5.184   4.799  1.00 20.00    -0.387 OA
ENDROOT
BRANCH   2   7
HETATM    7  C3  UNL     1     -32.199   7.163   3.899  1.00 20.00     0.248 C 
HETATM    8  O7  UNL     1     -31.347   7.374   4.770  1.00 20.00    -0.274 OA
HETATM    9 CL9  UNL     1     -32.070   7.737   2.249  1.00 20.00    -0.039 Cl
ENDBRANCH   2   7
TORSDOF 1
