REMARK  5 active torsions:
REMARK  status: ('A' for Active; 'I' for Inactive)
REMARK    1  A    between atoms: C2_2  and  C7_7 
REMARK    2  A    between atoms: C7_7  and  N11_11 
REMARK    3  A    between atoms: C8_8  and  C9_9 
REMARK    4  A    between atoms: C8_8  and  C10_10 
REMARK    5  A    between atoms: C9_9  and  N11_11 
ROOT
HETATM    1  C1  UNL     1     -32.299   8.230   1.304  1.00 20.00    -0.109 C 
HETATM    2  C2  UNL     1     -32.137   7.598   2.313  1.00 20.00    -0.077 C 
HETATM    3  C3  UNL     1     -32.495   8.998   0.075  1.00 20.00     0.112 C 
ENDROOT
BRANCH   2   4
HETATM    4  C7  UNL     1     -31.935   6.832   3.546  1.00 20.00     0.365 C 
BRANCH   4   5
HETATM    5  N11 UNL     1     -32.935   5.758   3.668  1.00 20.00     0.095 N 
HETATM    6  C6  UNL     1     -32.814   4.847   2.519  1.00 20.00     0.310 C 
BRANCH   5   7
HETATM    7  C9  UNL     1     -34.264   6.289   3.779  1.00 20.00     0.273 C 
BRANCH   7   8
HETATM    8  C8  UNL     1     -35.229   5.313   4.446  1.00 20.00     0.034 C 
BRANCH   8   9
HETATM    9  C10 UNL     1     -34.863   4.919   5.892  1.00 20.00    -0.021 C 
HETATM   10  C4  UNL     1     -34.830   6.170   6.775  1.00 20.00     0.009 C 
HETATM   11  C5  UNL     1     -33.520   4.193   5.977  1.00 20.00     0.009 C 
ENDBRANCH   8   9
ENDBRANCH   7   8
ENDBRANCH   5   7
ENDBRANCH   4   5
ENDBRANCH   2   4
TORSDOF 5
