REMARK  3 active torsions:
REMARK  status: ('A' for Active; 'I' for Inactive)
REMARK    1  A    between atoms: C2_2  and  N7_7 
REMARK    2  A    between atoms: C4_4  and  C5_5 
REMARK    3  A    between atoms: C5_5  and  N7_7 
ROOT
HETATM    1  C1  UNL     1     -32.235   8.218   2.171  1.00 20.00     0.060 C 
HETATM    2  C4  UNL     1     -32.430   7.188   3.201  1.00 20.00     0.143 C 
HETATM    3  N6  UNL     1     -32.079   9.030   1.357  1.00 20.00    -0.197 NA
ENDROOT
BRANCH   2   4
HETATM    4  C5  UNL     1     -33.681   7.444   4.035  1.00 20.00     0.138 C 
BRANCH   4   5
HETATM    5  N7  UNL     1     -33.849   6.409   5.058  1.00 20.00    -0.366 N 
HETATM    6  C3  UNL     1     -33.418   6.775   6.409  1.00 20.00     0.151 C 
BRANCH   5   7
HETATM    7  C2  UNL     1     -34.555   5.257   4.812  1.00 20.00     0.167 C 
HETATM    8  S8  UNL     1     -34.355   3.845   5.789  1.00 20.00    -0.048 SA
HETATM    9  S9  UNL     1     -35.693   5.152   3.513  1.00 20.00    -0.048 SA
ENDBRANCH   5   7
ENDBRANCH   4   5
ENDBRANCH   2   4
TORSDOF 3
