REMARK  2 active torsions:
REMARK  status: ('A' for Active; 'I' for Inactive)
REMARK    1  A    between atoms: C4_4  and  O10_10 
REMARK    2  A    between atoms: C5_5  and  C6_6 
ROOT
HETATM    1  C1  UNL     1     -35.679   5.076   4.330  1.00 20.00     0.040 A 
HETATM    2  C2  UNL     1     -34.964   5.598   3.258  1.00 20.00     0.034 A 
HETATM    3  C3  UNL     1     -33.903   5.737   5.768  1.00 20.00     0.153 A 
HETATM    4  C4  UNL     1     -35.145   5.142   5.612  1.00 20.00     0.083 A 
HETATM    5  C5  UNL     1     -33.730   6.173   3.519  1.00 20.00     0.056 A 
HETATM    6  N9  UNL     1     -33.180   6.256   4.751  1.00 20.00    -0.258 NA
ENDROOT
BRANCH   5   7
HETATM    7  C6  UNL     1     -32.945   6.733   2.431  1.00 20.00     0.027 C 
HETATM    8  C7  UNL     1     -31.742   7.339   2.552  1.00 20.00    -0.029 C 
HETATM    9  C8  UNL     1     -31.026   7.528   3.851  1.00 20.00     0.036 C 
ENDBRANCH   5   7
BRANCH   4  10
HETATM   10  O10 UNL     1     -35.819   4.641   6.676  1.00 20.00    -0.359 OA
HETATM   11  H19 UNL     1     -36.669   4.262   6.395  1.00 20.00     0.217 HD
ENDBRANCH   4  10
TORSDOF 2
