REMARK  1 active torsions:
REMARK  status: ('A' for Active; 'I' for Inactive)
REMARK    1  A    between atoms: C3_3  and  C8_8 
ROOT
HETATM    1  C1  UNL     1     -33.947   6.077   5.905  1.00 20.00    -0.084 C 
HETATM    2  C2  UNL     1     -33.690   7.103   6.721  1.00 20.00     0.015 C 
HETATM    3  C4  UNL     1     -35.276   5.383   5.742  1.00 20.00     0.038 C 
HETATM    4  C5  UNL     1     -33.479   3.925   5.161  1.00 20.00     0.014 C 
HETATM    5  C6  UNL     1     -34.626   4.958   3.340  1.00 20.00     0.021 C 
HETATM    6  C7  UNL     1     -32.949   5.355   5.022  1.00 20.00     0.028 C 
HETATM    7  C8  UNL     1     -33.263   5.644   3.543  1.00 20.00     0.095 C 
HETATM    8  C9  UNL     1     -34.895   4.300   4.713  1.00 20.00    -0.009 C 
ENDROOT
BRANCH   7   9
HETATM    9  C3  UNL     1     -33.279   7.124   3.217  1.00 20.00     0.177 C 
HETATM   10  O10 UNL     1     -34.105   7.813   3.878  1.00 20.00    -0.648 OA
HETATM   11  O11 UNL     1     -32.461   7.479   2.322  1.00 20.00    -0.648 OA
ENDBRANCH   7   9
TORSDOF 1
