REMARK  2 active torsions:
REMARK  status: ('A' for Active; 'I' for Inactive)
REMARK    1  A    between atoms: C1_1  and  N9_9 
REMARK    2  A    between atoms: C4_4  and  C8_8 
ROOT
HETATM    1  C2  UNL     1     -31.966   5.767   2.845  1.00 20.00     0.031 C 
HETATM    2  C3  UNL     1     -32.377   7.187   4.745  1.00 20.00     0.130 C 
HETATM    3  C4  UNL     1     -31.681   7.176   3.388  1.00 20.00     0.005 C 
HETATM    4  C5  UNL     1     -33.301   5.346   3.470  1.00 20.00     0.083 C 
HETATM    5  C6  UNL     1     -34.477   5.483   2.508  1.00 20.00     0.032 C 
HETATM    6  N9  UNL     1     -33.439   6.201   4.643  1.00 20.00    -0.355 N 
ENDROOT
BRANCH   3   7
HETATM    7  C8  UNL     1     -32.193   8.283   2.471  1.00 20.00     0.002 C 
HETATM    8  C7  UNL     1     -31.533   8.250   1.128  1.00 20.00     0.005 C 
ENDBRANCH   3   7
BRANCH   6   9
HETATM    9  C1  UNL     1     -34.380   6.014   5.631  1.00 20.00     0.351 C 
HETATM   10  O10 UNL     1     -35.304   5.209   5.626  1.00 20.00    -0.284 OA
ENDBRANCH   6   9
TORSDOF 2
