REMARK  2 active torsions:
REMARK  status: ('A' for Active; 'I' for Inactive)
REMARK    1  A    between atoms: C4_4  and  O11_11 
REMARK    2  A    between atoms: C10_10  and  O11_11 
ROOT
HETATM    1  C1  UNL     1     -34.912   5.479   4.597  1.00 20.00    -0.075 C 
HETATM    2  C2  UNL     1     -33.952   6.383   4.750  1.00 20.00    -0.049 C 
HETATM    3  C5  UNL     1     -35.342   4.864   5.865  1.00 20.00     0.034 C 
HETATM    4  C6  UNL     1     -35.398   5.371   3.209  1.00 20.00     0.037 C 
HETATM    5  C7  UNL     1     -33.541   6.564   6.154  1.00 20.00     0.037 C 
HETATM    6  C8  UNL     1     -34.263   5.384   6.838  1.00 20.00     0.009 C 
HETATM    7  C9  UNL     1     -34.348   6.212   2.451  1.00 20.00     0.041 C 
HETATM    8  C10 UNL     1     -33.603   7.075   3.495  1.00 20.00     0.157 C 
ENDROOT
BRANCH   8   9
HETATM    9  O11 UNL     1     -32.206   7.046   3.275  1.00 20.00    -0.354 OA
BRANCH   9  10
HETATM   10  C4  UNL     1     -31.793   7.647   2.163  1.00 20.00     0.125 C 
HETATM   11  C3  UNL     1     -32.399   8.687   1.585  1.00 20.00     0.037 C 
ENDBRANCH   9  10
ENDBRANCH   8   9
TORSDOF 2
