REMARK  0 active torsions:
REMARK  status: ('A' for Active; 'I' for Inactive)
ROOT
HETATM    1  C1  UNL     1     -33.694   5.344   2.903  1.00 20.00     0.041 A 
HETATM    2  C2  UNL     1     -34.033   5.494   4.281  1.00 20.00    -0.008 A 
HETATM    3  C3  UNL     1     -32.787   6.337   2.731  1.00 20.00     0.041 A 
HETATM    4  C4  UNL     1     -33.326   6.540   4.831  1.00 20.00     0.064 A 
HETATM    5  C5  UNL     1     -31.840   7.184   2.070  1.00 20.00     0.047 A 
HETATM    6  C6  UNL     1     -33.663   6.684   6.189  1.00 20.00     0.141 A 
HETATM    7  C7  UNL     1     -31.679   7.842   3.256  1.00 20.00     0.100 A 
HETATM    8  C8  UNL     1     -34.879   4.926   5.344  1.00 20.00     0.189 A 
HETATM    9  N9  UNL     1     -34.549   5.798   6.564  1.00 20.00    -0.295 NA
HETATM   10  N10 UNL     1     -32.583   7.020   3.849  1.00 20.00    -0.320 N 
ENDROOT
TORSDOF 0
