REMARK  0 active torsions:
REMARK  status: ('A' for Active; 'I' for Inactive)
ROOT
HETATM    1  C1  UNL     1     -32.359   7.010   3.053  1.00 20.00    -0.039 C 
HETATM    2  C2  UNL     1     -33.350   5.939   3.140  1.00 20.00     0.034 C 
HETATM    3  C3  UNL     1     -34.606   5.075   5.162  1.00 20.00     0.224 C 
HETATM    4  C4  UNL     1     -31.809   7.535   1.952  1.00 20.00     0.021 C 
HETATM    5  C5  UNL     1     -33.656   5.039   2.199  1.00 20.00     0.044 C 
HETATM    6  C6  UNL     1     -32.098   7.505   4.468  1.00 20.00     0.065 C 
HETATM    7  C7  UNL     1     -34.540   5.589   6.592  1.00 20.00     0.105 C 
HETATM    8  C8  UNL     1     -33.330   6.539   6.582  1.00 20.00     0.035 C 
HETATM    9  C9  UNL     1     -33.377   7.096   5.177  1.00 20.00     0.098 C 
HETATM   10  N10 UNL     1     -33.856   5.970   4.412  1.00 20.00    -0.313 N 
HETATM   11  O11 UNL     1     -35.196   4.066   4.811  1.00 20.00    -0.273 OA
ENDROOT
TORSDOF 0
