REMARK  5 active torsions:
REMARK  status: ('A' for Active; 'I' for Inactive)
REMARK    1  A    between atoms: C1_1  and  C5_5 
REMARK    2  A    between atoms: C2_2  and  C9_9 
REMARK    3  A    between atoms: C3_3  and  C6_6 
REMARK    4  A    between atoms: C9_9  and  C11_11 
REMARK    5  A    between atoms: C10_10  and  C11_11 
ROOT
HETATM    1  C4  UNL     1     -34.493   6.815   4.209  1.00 20.00     0.022 A 
HETATM    2  C5  UNL     1     -34.239   5.714   3.244  1.00 20.00     0.020 A 
HETATM    3  C6  UNL     1     -35.063   5.446   4.457  1.00 20.00     0.063 A 
ENDROOT
BRANCH   2   4
HETATM    4  C1  UNL     1     -32.851   5.171   3.162  1.00 20.00    -0.025 C 
HETATM    5  C2  UNL     1     -31.764   5.929   2.954  1.00 20.00    -0.030 C 
BRANCH   5   6
HETATM    6  C9  UNL     1     -31.807   7.419   2.777  1.00 20.00     0.027 C 
BRANCH   6   7
HETATM    7  C11 UNL     1     -31.970   7.843   1.314  1.00 20.00     0.003 C 
BRANCH   7   8
HETATM    8  C10 UNL     1     -31.990   9.362   1.128  1.00 20.00    -0.004 C 
HETATM    9  C8  UNL     1     -33.147   9.998   1.884  1.00 20.00     0.005 C 
ENDBRANCH   7   8
ENDBRANCH   6   7
ENDBRANCH   5   6
ENDBRANCH   2   4
BRANCH   3  10
HETATM   10  C3  UNL     1     -34.568   4.655   5.591  1.00 20.00     0.128 C 
HETATM   11  C7  UNL     1     -34.738   3.163   5.501  1.00 20.00     0.091 C 
HETATM   12  O12 UNL     1     -34.037   5.187   6.565  1.00 20.00    -0.298 OA
ENDBRANCH   3  10
TORSDOF 5
