REMARK  0 active torsions:
REMARK  status: ('A' for Active; 'I' for Inactive)
ROOT
HETATM    1  C1  UNL     1     -34.724   4.674   4.431  1.00 20.00     0.047 A 
HETATM    2  C2  UNL     1     -34.011   4.832   3.302  1.00 20.00     0.052 A 
HETATM    3  C3  UNL     1     -34.464   5.511   5.581  1.00 20.00     0.153 A 
HETATM    4  C4  UNL     1     -33.513   6.459   5.555  1.00 20.00     0.167 A 
HETATM    5  C5  UNL     1     -32.663   6.712   4.378  1.00 20.00     0.262 A 
HETATM    6  C6  UNL     1     -32.935   5.830   3.158  1.00 20.00     0.258 A 
HETATM    7  O7  UNL     1     -33.176   7.243   3.147  1.00 20.00    -0.327 OA
HETATM    8  F8  UNL     1     -35.211   5.321   6.687  1.00 20.00    -0.203 F 
HETATM    9  F9  UNL     1     -33.323   7.215   6.660  1.00 20.00    -0.204 F 
HETATM   10  F10 UNL     1     -31.809   5.402   2.463  1.00 20.00    -0.203 F 
ENDROOT
TORSDOF 0
