REMARK  1 active torsions:
REMARK  status: ('A' for Active; 'I' for Inactive)
REMARK    1  A    between atoms: C10_10  and  O11_11 
ROOT
HETATM    1  C1  UNL     1     -35.101   2.046   4.167  1.00 20.00     0.012 C 
HETATM    2  C2  UNL     1     -32.205   4.960   2.788  1.00 20.00     0.015 C 
HETATM    3  C3  UNL     1     -34.919   3.125   4.661  1.00 20.00    -0.108 C 
HETATM    4  C4  UNL     1     -33.188   5.221   3.426  1.00 20.00    -0.078 C 
HETATM    5  C5  UNL     1     -32.905   5.691   6.643  1.00 20.00     0.002 C 
HETATM    6  C6  UNL     1     -33.803   6.881   6.346  1.00 20.00     0.004 C 
HETATM    7  C7  UNL     1     -33.597   4.360   6.347  1.00 20.00     0.021 C 
HETATM    8  C8  UNL     1     -34.243   6.930   4.879  1.00 20.00     0.053 C 
HETATM    9  C9  UNL     1     -34.694   4.454   5.268  1.00 20.00     0.111 C 
HETATM   10  C10 UNL     1     -34.398   5.543   4.212  1.00 20.00     0.134 C 
ENDROOT
BRANCH  10  11
HETATM   11  O11 UNL     1     -35.494   5.628   3.295  1.00 20.00    -0.376 OA
HETATM   12  H23 UNL     1     -35.269   6.333   2.670  1.00 20.00     0.211 HD
ENDBRANCH  10  11
TORSDOF 1
