REMARK  1 active torsions:
REMARK  status: ('A' for Active; 'I' for Inactive)
REMARK    1  A    between atoms: C2_2  and  C6_6 
ROOT
HETATM    1  C3  UNL     1     -35.636   5.193   4.646  1.00 20.00     0.031 C 
HETATM    2  C4  UNL     1     -35.502   5.531   3.158  1.00 20.00     0.032 C 
HETATM    3  C5  UNL     1     -33.673   6.688   5.188  1.00 20.00     0.040 C 
HETATM    4  C6  UNL     1     -33.580   7.076   3.698  1.00 20.00     0.042 C 
HETATM    5  C7  UNL     1     -34.244   5.266   5.286  1.00 20.00     0.131 C 
HETATM    6  C8  UNL     1     -34.030   5.855   2.865  1.00 20.00     0.139 C 
HETATM    7  N10 UNL     1     -33.346   4.374   4.512  1.00 20.00    -0.192 NA
HETATM    8  N11 UNL     1     -33.231   4.676   3.292  1.00 20.00    -0.192 NA
ENDROOT
BRANCH   4   9
HETATM    9  C2  UNL     1     -32.205   7.542   3.324  1.00 20.00    -0.087 C 
HETATM   10  C1  UNL     1     -31.107   7.073   3.934  1.00 20.00     0.014 C 
HETATM   11  C9  UNL     1     -32.128   8.562   2.227  1.00 20.00     0.043 C 
ENDBRANCH   4   9
TORSDOF 1
