REMARK  3 active torsions:
REMARK  status: ('A' for Active; 'I' for Inactive)
REMARK    1  A    between atoms: C7_7  and  C8_8 
REMARK    2  A    between atoms: C8_8  and  N10_10 
REMARK    3  A    between atoms: C9_9  and  N10_10 
ROOT
HETATM    1  C1  UNL     1     -34.674   3.326   5.567  1.00 20.00     0.015 C 
HETATM    2  C2  UNL     1     -34.511   4.470   5.241  1.00 20.00    -0.076 C 
HETATM    3  C4  UNL     1     -35.639   6.467   4.355  1.00 20.00     0.063 C 
HETATM    4  C5  UNL     1     -33.787   6.686   6.032  1.00 20.00     0.063 C 
HETATM    5  C9  UNL     1     -34.310   5.878   4.841  1.00 20.00     0.213 C 
ENDROOT
BRANCH   5   6
HETATM    6  N10 UNL     1     -33.337   5.929   3.766  1.00 20.00     0.104 N 
HETATM    7  C6  UNL     1     -33.543   4.827   2.821  1.00 20.00     0.312 C 
BRANCH   6   8
HETATM    8  C8  UNL     1     -33.403   7.213   3.061  1.00 20.00     0.273 C 
BRANCH   8   9
HETATM    9  C7  UNL     1     -32.110   7.537   2.322  1.00 20.00     0.026 C 
HETATM   10  C3  UNL     1     -32.163   8.878   1.605  1.00 20.00     0.007 C 
ENDBRANCH   8   9
ENDBRANCH   6   8
ENDBRANCH   5   6
TORSDOF 3
