REMARK  1 active torsions:
REMARK  status: ('A' for Active; 'I' for Inactive)
REMARK    1  A    between atoms: C1_1  and  C4_4 
ROOT
HETATM    1  C1  UNL     1     -32.638   7.769   2.549  1.00 20.00    -0.068 C 
HETATM    2  C2  UNL     1     -32.517   8.708   1.811  1.00 20.00    -0.108 C 
HETATM    3  C6  UNL     1     -32.369   9.852   0.912  1.00 20.00     0.112 C 
ENDROOT
BRANCH   1   4
HETATM    4  C4  UNL     1     -32.785   6.634   3.442  1.00 20.00     0.129 C 
HETATM    5  C5  UNL     1     -34.015   5.689   3.167  1.00 20.00     0.016 C 
HETATM    6  C3  UNL     1     -32.937   4.584   3.146  1.00 20.00     0.182 C 
HETATM    7  C8  UNL     1     -34.711   5.834   1.808  1.00 20.00     0.021 C 
HETATM    8  C9  UNL     1     -35.046   5.539   4.282  1.00 20.00     0.021 C 
HETATM    9  O10 UNL     1     -31.879   5.569   3.025  1.00 20.00    -0.366 OA
HETATM   10  C7  UNL     1     -32.470   7.037   4.881  1.00 20.00     0.061 C 
ENDBRANCH   1   4
TORSDOF 1
