REMARK  1 active torsions:
REMARK  status: ('A' for Active; 'I' for Inactive)
REMARK    1  A    between atoms: C1_1  and  C6_6 
ROOT
HETATM    1  C2  UNL     1     -32.949   6.833   5.106  1.00 20.00     0.019 C 
HETATM    2  C3  UNL     1     -33.529   5.438   3.074  1.00 20.00     0.019 C 
HETATM    3  C4  UNL     1     -34.154   6.259   5.844  1.00 20.00     0.080 C 
HETATM    4  C5  UNL     1     -34.734   4.863   3.814  1.00 20.00     0.080 C 
HETATM    5  C6  UNL     1     -33.162   6.832   3.589  1.00 20.00     0.072 C 
HETATM    6  C7  UNL     1     -34.524   4.882   5.319  1.00 20.00     0.243 C 
HETATM    7  F9  UNL     1     -35.650   4.450   5.938  1.00 20.00    -0.206 F 
HETATM    8  F10 UNL     1     -33.543   4.001   5.644  1.00 20.00    -0.206 F 
ENDROOT
BRANCH   5   9
HETATM    9  C1  UNL     1     -31.923   7.321   2.899  1.00 20.00     0.223 C 
HETATM   10  O8  UNL     1     -30.805   7.126   3.366  1.00 20.00    -0.279 OA
HETATM   11 CL11 UNL     1     -32.285   8.158   1.421  1.00 20.00    -0.043 Cl
ENDBRANCH   5   9
TORSDOF 1
