REMARK  1 active torsions:
REMARK  status: ('A' for Active; 'I' for Inactive)
REMARK    1  A    between atoms: C5_5  and  C7_7 
ROOT
HETATM    1  C1  UNL     1     -34.011   5.720   6.776  1.00 20.00    -0.026 A 
HETATM    2  C2  UNL     1     -33.782   6.780   5.988  1.00 20.00    -0.013 A 
HETATM    3  C3  UNL     1     -34.733   4.386   4.769  1.00 20.00    -0.019 A 
HETATM    4  C4  UNL     1     -34.508   5.441   3.963  1.00 20.00    -0.071 A 
HETATM    5  C6  UNL     1     -34.493   4.402   6.251  1.00 20.00     0.054 A 
HETATM    6  C7  UNL     1     -33.989   6.753   4.500  1.00 20.00     0.123 A 
HETATM    7  C8  UNL     1     -34.821   5.379   2.494  1.00 20.00     0.044 C 
ENDROOT
BRANCH   6   8
HETATM    8  C5  UNL     1     -32.636   7.000   3.903  1.00 20.00     0.230 C 
HETATM    9  O9  UNL     1     -32.121   6.206   3.122  1.00 20.00    -0.279 OA
HETATM   10 CL10 UNL     1     -31.943   8.496   4.451  1.00 20.00    -0.043 Cl
ENDBRANCH   6   8
TORSDOF 1
