REMARK  1 active torsions:
REMARK  status: ('A' for Active; 'I' for Inactive)
REMARK    1  A    between atoms: C1_1  and  C5_5 
ROOT
HETATM    1  C2  UNL     1     -34.294   5.124   6.782  1.00 20.00     0.002 C 
HETATM    2  C3  UNL     1     -33.212   6.034   6.198  1.00 20.00     0.017 C 
HETATM    3  C4  UNL     1     -35.310   4.884   5.669  1.00 20.00     0.010 C 
HETATM    4  C5  UNL     1     -33.669   6.399   4.771  1.00 20.00     0.023 C 
HETATM    5  C6  UNL     1     -34.558   5.185   4.358  1.00 20.00    -0.034 C 
HETATM    6  C8  UNL     1     -34.403   7.750   4.790  1.00 20.00     0.024 C 
HETATM    7  C9  UNL     1     -33.727   3.942   3.958  1.00 20.00     0.016 C 
HETATM    8  C10 UNL     1     -35.549   5.477   3.222  1.00 20.00     0.016 C 
ENDROOT
BRANCH   4   9
HETATM    9  C1  UNL     1     -32.476   6.577   3.869  1.00 20.00     0.132 C 
HETATM   10  C7  UNL     1     -31.490   7.646   4.255  1.00 20.00     0.091 C 
HETATM   11  O11 UNL     1     -32.315   5.882   2.867  1.00 20.00    -0.298 OA
ENDBRANCH   4   9
TORSDOF 1
