REMARK  1 active torsions:
REMARK  status: ('A' for Active; 'I' for Inactive)
REMARK    1  A    between atoms: C3_3  and  C7_7 
ROOT
HETATM    1  C1  UNL     1     -33.994   5.228   6.755  1.00 20.00     0.346 C 
HETATM    2  C2  UNL     1     -34.508   5.457   4.458  1.00 20.00     0.233 C 
HETATM    3  C3  UNL     1     -33.710   6.770   4.627  1.00 20.00     0.081 C 
HETATM    4  C4  UNL     1     -34.422   4.906   3.033  1.00 20.00     0.044 C 
HETATM    5  C6  UNL     1     -34.725   3.267   5.560  1.00 20.00     0.311 C 
HETATM    6  N8  UNL     1     -33.981   4.519   5.471  1.00 20.00     0.098 N 
HETATM    7  S9  UNL     1     -33.626   6.974   6.434  1.00 20.00    -0.132 SA
ENDROOT
BRANCH   3   8
HETATM    8  C7  UNL     1     -32.288   6.753   4.071  1.00 20.00     0.013 C 
HETATM    9  C5  UNL     1     -31.553   8.012   4.396  1.00 20.00     0.006 C 
ENDBRANCH   3   8
TORSDOF 1
