REMARK  4 active torsions:
REMARK  status: ('A' for Active; 'I' for Inactive)
REMARK    1  A    between atoms: C1_1  and  C3_3 
REMARK    2  A    between atoms: C1_1  and  O10_10 
REMARK    3  A    between atoms: C4_4  and  C7_7 
REMARK    4  A    between atoms: C7_7  and  C8_8 
ROOT
HETATM    1  C2  UNL     1     -32.210   5.655   3.128  1.00 20.00     0.020 A 
HETATM    2  C3  UNL     1     -33.622   6.163   3.001  1.00 20.00     0.090 A 
HETATM    3  C4  UNL     1     -32.524   7.077   3.508  1.00 20.00    -0.000 A 
ENDROOT
BRANCH   2   4
HETATM    4  C1  UNL     1     -34.644   5.689   3.941  1.00 20.00     0.263 C 
HETATM    5  O9  UNL     1     -35.814   5.494   3.641  1.00 20.00    -0.265 OA
BRANCH   4   6
HETATM    6  O10 UNL     1     -34.083   5.509   5.171  1.00 20.00    -0.326 OA
HETATM    7  C6  UNL     1     -34.974   5.046   6.191  1.00 20.00     0.213 C 
ENDBRANCH   4   6
ENDBRANCH   2   4
BRANCH   3   8
HETATM    8  C7  UNL     1     -32.040   8.204   2.662  1.00 20.00     0.005 C 
BRANCH   8   9
HETATM    9  C8  UNL     1     -32.547   8.113   1.212  1.00 20.00    -0.004 C 
HETATM   10  C5  UNL     1     -32.082   9.281   0.357  1.00 20.00     0.005 C 
ENDBRANCH   8   9
ENDBRANCH   3   8
TORSDOF 4
