REMARK  0 active torsions:
REMARK  status: ('A' for Active; 'I' for Inactive)
ROOT
HETATM    1  C1  UNL     1     -34.398   6.703   6.758  1.00 20.00     0.352 C 
HETATM    2  C2  UNL     1     -33.472   6.013   4.828  1.00 20.00     0.451 C 
HETATM    3  C3  UNL     1     -34.449   4.990   5.302  1.00 20.00     0.451 C 
HETATM    4  O4  UNL     1     -33.201   6.806   5.975  1.00 20.00    -0.294 OA
HETATM    5  O5  UNL     1     -35.258   5.679   6.243  1.00 20.00    -0.294 OA
HETATM    6  F6  UNL     1     -34.011   6.813   3.882  1.00 20.00    -0.166 F 
HETATM    7  F7  UNL     1     -32.339   5.477   4.343  1.00 20.00    -0.166 F 
HETATM    8  F8  UNL     1     -33.831   3.974   5.944  1.00 20.00    -0.166 F 
HETATM    9  F9  UNL     1     -35.201   4.480   4.311  1.00 20.00    -0.166 F 
ENDROOT
TORSDOF 0
