REMARK  1 active torsions:
REMARK  status: ('A' for Active; 'I' for Inactive)
REMARK    1  A    between atoms: C1_1  and  C5_5 
ROOT
HETATM    1  C2  UNL     1     -34.194   5.121   2.744  1.00 20.00     0.013 C 
HETATM    2  C3  UNL     1     -33.264   5.833   1.767  1.00 20.00     0.009 C 
HETATM    3  C4  UNL     1     -33.999   7.504   3.309  1.00 20.00     0.021 C 
HETATM    4  C5  UNL     1     -34.781   6.223   3.632  1.00 20.00     0.055 C 
HETATM    5  C6  UNL     1     -32.744   7.050   2.542  1.00 20.00    -0.047 C 
HETATM    6  C8  UNL     1     -32.238   8.142   1.596  1.00 20.00     0.015 C 
HETATM    7  C9  UNL     1     -31.612   6.659   3.506  1.00 20.00     0.015 C 
ENDROOT
BRANCH   4   8
HETATM    8  C1  UNL     1     -34.683   5.865   5.084  1.00 20.00     0.127 C 
HETATM    9  C7  UNL     1     -35.389   4.610   5.521  1.00 20.00     0.091 C 
HETATM   10  O10 UNL     1     -34.055   6.563   5.880  1.00 20.00    -0.298 OA
ENDBRANCH   4   8
TORSDOF 1
