REMARK  1 active torsions:
REMARK  status: ('A' for Active; 'I' for Inactive)
REMARK    1  A    between atoms: C3_3  and  C8_8 
ROOT
HETATM    1  C1  UNL     1     -33.904   6.253   5.728  1.00 20.00    -0.079 C 
HETATM    2  C2  UNL     1     -33.364   7.134   6.574  1.00 20.00    -0.028 C 
HETATM    3  C4  UNL     1     -35.371   5.931   5.597  1.00 20.00     0.039 C 
HETATM    4  C5  UNL     1     -34.032   4.095   4.871  1.00 20.00     0.014 C 
HETATM    5  C6  UNL     1     -34.934   5.483   3.151  1.00 20.00     0.019 C 
HETATM    6  C7  UNL     1     -33.156   5.347   4.770  1.00 20.00     0.027 C 
HETATM    7  C8  UNL     1     -33.434   5.785   3.320  1.00 20.00     0.081 C 
HETATM    8  C9  UNL     1     -35.318   4.844   4.505  1.00 20.00    -0.009 C 
HETATM    9  C10 UNL     1     -34.152   7.955   7.541  1.00 20.00     0.036 C 
ENDROOT
BRANCH   7  10
HETATM   10  C3  UNL     1     -33.085   7.216   3.045  1.00 20.00     0.223 C 
HETATM   11  O11 UNL     1     -33.589   8.136   3.683  1.00 20.00    -0.279 OA
HETATM   12 CL12 UNL     1     -31.927   7.372   1.760  1.00 20.00    -0.043 Cl
ENDBRANCH   7  10
TORSDOF 1
