REMARK  2 active torsions:
REMARK  status: ('A' for Active; 'I' for Inactive)
REMARK    1  A    between atoms: C6_6  and  C7_7 
REMARK    2  A    between atoms: C6_6  and  N8_8 
ROOT
HETATM    1  C1  UNL     1     -34.136   6.137   2.885  1.00 20.00     0.283 C 
HETATM    2  C2  UNL     1     -35.221   5.890   3.928  1.00 20.00     0.105 C 
HETATM    3  C3  UNL     1     -32.938   6.899   4.764  1.00 20.00     0.346 C 
HETATM    4  N8  UNL     1     -33.315   7.242   3.392  1.00 20.00     0.098 N 
HETATM    5  S9  UNL     1     -34.360   6.050   5.512  1.00 20.00    -0.138 SA
ENDROOT
BRANCH   4   6
HETATM    6  C6  UNL     1     -32.151   7.490   2.552  1.00 20.00     0.277 C 
BRANCH   6   7
HETATM    7  C7  UNL     1     -32.501   8.356   1.336  1.00 20.00     0.006 C 
HETATM    8  C4  UNL     1     -33.055   9.724   1.737  1.00 20.00     0.011 C 
HETATM    9  C5  UNL     1     -31.315   8.515   0.384  1.00 20.00     0.011 C 
ENDBRANCH   6   7
ENDBRANCH   4   6
TORSDOF 2
