REMARK  1 active torsions:
REMARK  status: ('A' for Active; 'I' for Inactive)
REMARK    1  A    between atoms: C4_4  and  C7_7 
ROOT
HETATM    1  C1  UNL     1     -35.606   5.893   3.616  1.00 20.00    -0.024 C 
HETATM    2  C2  UNL     1     -34.832   6.949   3.917  1.00 20.00    -0.013 C 
HETATM    3  C3  UNL     1     -33.036   6.023   2.670  1.00 20.00     0.140 C 
HETATM    4  C5  UNL     1     -33.842   4.778   2.287  1.00 20.00     0.088 C 
HETATM    5  C6  UNL     1     -34.709   4.667   3.566  1.00 20.00     0.027 C 
HETATM    6  C7  UNL     1     -33.681   5.030   4.656  1.00 20.00     0.074 C 
HETATM    7  C8  UNL     1     -33.420   6.440   4.096  1.00 20.00     0.045 C 
HETATM    8  C9  UNL     1     -32.434   7.302   4.839  1.00 20.00     0.029 C 
HETATM    9  O10 UNL     1     -32.243   6.597   1.940  1.00 20.00    -0.297 OA
ENDROOT
BRANCH   6  10
HETATM   10  C4  UNL     1     -34.227   4.944   6.054  1.00 20.00     0.237 C 
HETATM   11  O11 UNL     1     -35.360   4.552   6.314  1.00 20.00    -0.306 OA
ENDBRANCH   6  10
TORSDOF 1
