REMARK  0 active torsions:
REMARK  status: ('A' for Active; 'I' for Inactive)
ROOT
HETATM    1  C1  UNL     1     -34.106   6.231   6.161  1.00 20.00     0.185 C 
HETATM    2  C2  UNL     1     -33.912   4.918   5.408  1.00 20.00     0.087 C 
HETATM    3  C3  UNL     1     -34.106   5.389   3.988  1.00 20.00     0.340 C 
HETATM    4  C4  UNL     1     -33.372   6.697   4.012  1.00 20.00     0.420 C 
HETATM    5  C5  UNL     1     -34.856   3.814   5.842  1.00 20.00     0.019 C 
HETATM    6  O6  UNL     1     -33.624   7.280   5.293  1.00 20.00    -0.321 OA
HETATM    7  F7  UNL     1     -33.634   4.536   3.069  1.00 20.00    -0.196 F 
HETATM    8  F8  UNL     1     -35.417   5.605   3.732  1.00 20.00    -0.196 F 
HETATM    9  F9  UNL     1     -32.036   6.507   3.907  1.00 20.00    -0.169 F 
HETATM   10  F10 UNL     1     -33.756   7.530   3.027  1.00 20.00    -0.169 F 
ENDROOT
TORSDOF 0
