REMARK  2 active torsions:
REMARK  status: ('A' for Active; 'I' for Inactive)
REMARK    1  A    between atoms: C1_1  and  C7_7 
REMARK    2  A    between atoms: C4_4  and  C7_7 
ROOT
HETATM    1  C6  UNL     1     -35.427   5.047   3.689  1.00 20.00     0.018 C 
HETATM    2  C7  UNL     1     -34.482   5.988   4.431  1.00 20.00     0.055 C 
ENDROOT
BRANCH   2   3
HETATM    3  C1  UNL     1     -34.471   5.685   5.926  1.00 20.00     0.127 C 
HETATM    4  C5  UNL     1     -35.314   4.525   6.393  1.00 20.00     0.091 C 
HETATM    5  O8  UNL     1     -33.832   6.362   6.732  1.00 20.00    -0.298 OA
ENDBRANCH   2   3
BRANCH   2   6
HETATM    6  C4  UNL     1     -33.069   5.891   3.870  1.00 20.00    -0.004 A 
HETATM    7  C2  UNL     1     -32.694   6.645   2.624  1.00 20.00     0.006 A 
HETATM    8  C3  UNL     1     -32.138   7.069   3.955  1.00 20.00     0.006 A 
ENDBRANCH   2   6
TORSDOF 2
