REMARK  0 active torsions:
REMARK  status: ('A' for Active; 'I' for Inactive)
ROOT
HETATM    1  C1  UNL     1     -32.111   8.400   1.328  1.00 20.00     0.015 C 
HETATM    2  C2  UNL     1     -32.519   7.558   2.081  1.00 20.00    -0.076 C 
HETATM    3  C3  UNL     1     -34.956   4.984   3.317  1.00 20.00     0.004 C 
HETATM    4  C4  UNL     1     -34.420   4.694   4.713  1.00 20.00     0.003 C 
HETATM    5  C5  UNL     1     -33.842   5.451   2.383  1.00 20.00     0.055 C 
HETATM    6  C6  UNL     1     -33.904   5.971   5.373  1.00 20.00     0.042 C 
HETATM    7  C7  UNL     1     -33.006   6.553   2.981  1.00 20.00     0.154 A 
HETATM    8  C8  UNL     1     -32.997   6.788   4.491  1.00 20.00     0.102 A 
HETATM    9  C9  UNL     1     -32.521   8.086   5.075  1.00 20.00     0.050 C 
HETATM   10  O10 UNL     1     -31.964   6.045   3.843  1.00 20.00    -0.350 OA
ENDROOT
TORSDOF 0
