REMARK  3 active torsions:
REMARK  status: ('A' for Active; 'I' for Inactive)
REMARK    1  A    between atoms: C8_8  and  C9_9 
REMARK    2  A    between atoms: C9_9  and  C10_10 
REMARK    3  A    between atoms: C10_10  and  O11_11 
ROOT
HETATM    1  C1  UNL     1     -32.149   8.363   1.381  1.00 20.00     0.017 C 
HETATM    2  C2  UNL     1     -32.660   7.530   2.078  1.00 20.00    -0.083 C 
HETATM    3  C3  UNL     1     -33.092   6.609   4.239  1.00 20.00    -0.010 C 
HETATM    4  C4  UNL     1     -33.268   6.543   2.908  1.00 20.00    -0.009 C 
HETATM    5  C5  UNL     1     -33.691   5.630   5.209  1.00 20.00     0.033 C 
HETATM    6  C6  UNL     1     -34.075   5.445   2.262  1.00 20.00     0.048 C 
HETATM    7  C7  UNL     1     -34.386   4.277   3.204  1.00 20.00     0.010 C 
HETATM    8  C8  UNL     1     -34.794   4.743   4.607  1.00 20.00    -0.009 C 
ENDROOT
BRANCH   8   9
HETATM    9  C9  UNL     1     -36.148   5.461   4.594  1.00 20.00     0.031 C 
BRANCH   9  10
HETATM   10  C10 UNL     1     -37.246   4.570   4.044  1.00 20.00     0.164 C 
BRANCH  10  11
HETATM   11  O11 UNL     1     -37.357   3.423   4.876  1.00 20.00    -0.401 OA
HETATM   12  H25 UNL     1     -38.064   2.872   4.502  1.00 20.00     0.209 HD
ENDBRANCH  10  11
ENDBRANCH   9  10
ENDBRANCH   8   9
TORSDOF 3
