REMARK  0 active torsions:
REMARK  status: ('A' for Active; 'I' for Inactive)
ROOT
HETATM    1  C1  UNL     1     -33.210   5.623   6.450  1.00 20.00     0.012 A 
HETATM    2  C2  UNL     1     -33.928   4.831   2.701  1.00 20.00     0.006 A 
HETATM    3  C3  UNL     1     -35.211   4.405   5.909  1.00 20.00     0.101 C 
HETATM    4  C4  UNL     1     -34.542   5.574   6.539  1.00 20.00     0.016 A 
HETATM    5  C5  UNL     1     -34.594   5.073   3.842  1.00 20.00     0.035 A 
HETATM    6  C6  UNL     1     -31.957   6.442   3.064  1.00 20.00     0.015 A 
HETATM    7  C7  UNL     1     -33.935   6.633   5.740  1.00 20.00     0.017 A 
HETATM    8  C8  UNL     1     -33.126   5.979   2.241  1.00 20.00     0.015 A 
HETATM    9  C9  UNL     1     -34.328   6.517   4.292  1.00 20.00     0.048 A 
HETATM   10  C10 UNL     1     -33.313   7.056   3.299  1.00 20.00     0.004 A 
HETATM   11  N11 UNL     1     -35.258   4.167   4.630  1.00 20.00    -0.269 NA
ENDROOT
TORSDOF 0
