REMARK  1 active torsions:
REMARK  status: ('A' for Active; 'I' for Inactive)
REMARK    1  A    between atoms: C3_3  and  N6_6 
ROOT
HETATM    1  C1  UNL     1     -34.024   6.249   4.687  1.00 20.00     0.216 C 
HETATM    2  C4  UNL     1     -34.263   4.971   2.786  1.00 20.00     0.158 C 
HETATM    3  C5  UNL     1     -33.308   6.115   2.532  1.00 20.00     0.198 C 
HETATM    4  N6  UNL     1     -34.527   5.064   4.191  1.00 20.00    -0.327 N 
HETATM    5  O7  UNL     1     -33.371   6.941   3.706  1.00 20.00    -0.325 OA
HETATM    6  S8  UNL     1     -34.093   6.929   6.199  1.00 20.00    -0.033 SA
ENDROOT
BRANCH   4   7
HETATM    7  C3  UNL     1     -35.230   4.105   4.861  1.00 20.00     0.083 C 
HETATM    8  C2  UNL     1     -35.065   3.861   6.162  1.00 20.00     0.030 C 
ENDBRANCH   4   7
TORSDOF 1
