REMARK  3 active torsions:
REMARK  status: ('A' for Active; 'I' for Inactive)
REMARK    1  A    between atoms: C1_1  and  C3_3 
REMARK    2  A    between atoms: C2_2  and  N8_8 
REMARK    3  A    between atoms: C4_4  and  C5_5 
ROOT
HETATM    1  C1  UNL     1     -32.896   7.006   3.805  1.00 20.00    -0.056 C 
HETATM    2  C2  UNL     1     -32.586   7.693   2.871  1.00 20.00     0.012 C 
ENDROOT
BRANCH   1   3
HETATM    3  C3  UNL     1     -33.259   6.194   4.914  1.00 20.00     0.069 C 
HETATM    4  C4  UNL     1     -34.368   5.448   4.895  1.00 20.00     0.050 C 
BRANCH   4   5
HETATM    5  C5  UNL     1     -35.227   5.476   3.695  1.00 20.00     0.259 C 
HETATM    6  O9  UNL     1     -34.811   5.139   2.593  1.00 20.00    -0.302 OA
ENDBRANCH   4   5
ENDBRANCH   1   3
BRANCH   2   7
HETATM    7  N8  UNL     1     -32.214   8.516   1.753  1.00 20.00    -0.350 N 
HETATM    8  C6  UNL     1     -32.850   9.819   1.622  1.00 20.00     0.159 C 
HETATM    9  C7  UNL     1     -31.775   7.855   0.533  1.00 20.00     0.159 C 
ENDBRANCH   2   7
TORSDOF 3
