REMARK  1 active torsions:
REMARK  status: ('A' for Active; 'I' for Inactive)
REMARK    1  A    between atoms: C1_1  and  C3_3 
ROOT
HETATM    1  C1  UNL     1     -33.501   6.977   4.455  1.00 20.00    -0.010 C 
HETATM    2  C2  UNL     1     -34.319   5.993   4.859  1.00 20.00    -0.066 C 
HETATM    3  C4  UNL     1     -33.021   8.034   5.406  1.00 20.00     0.042 C 
HETATM    4  C5  UNL     1     -34.654   4.715   4.136  1.00 20.00     0.035 C 
HETATM    5  C6  UNL     1     -32.933   7.486   6.834  1.00 20.00     0.005 C 
HETATM    6  C7  UNL     1     -35.089   3.765   5.258  1.00 20.00     0.005 C 
HETATM    7  C8  UNL     1     -34.263   6.884   7.284  1.00 20.00     0.009 C 
HETATM    8  C9  UNL     1     -34.655   4.440   6.559  1.00 20.00     0.009 C 
HETATM    9  C10 UNL     1     -34.871   5.919   6.262  1.00 20.00     0.015 C 
ENDROOT
BRANCH   1  10
HETATM   10  C3  UNL     1     -32.965   6.989   3.090  1.00 20.00     0.152 C 
HETATM   11  C11 UNL     1     -32.052   8.122   2.699  1.00 20.00     0.096 C 
HETATM   12  O12 UNL     1     -33.265   6.099   2.292  1.00 20.00    -0.293 OA
ENDBRANCH   1  10
TORSDOF 1
