REMARK  2 active torsions:
REMARK  status: ('A' for Active; 'I' for Inactive)
REMARK    1  A    between atoms: C3_3  and  C5_5 
REMARK    2  A    between atoms: C3_3  and  O8_8 
ROOT
HETATM    1  C1  UNL     1     -33.949   5.818   6.100  1.00 20.00    -0.005 C 
HETATM    2  C2  UNL     1     -34.119   4.609   6.642  1.00 20.00     0.042 C 
HETATM    3  C4  UNL     1     -35.777   4.970   4.704  1.00 20.00     0.097 C 
HETATM    4  C5  UNL     1     -34.739   6.085   4.858  1.00 20.00     0.118 C 
HETATM    5  S9  UNL     1     -35.230   3.600   5.785  1.00 20.00    -0.141 SA
ENDROOT
BRANCH   4   6
HETATM    6  C3  UNL     1     -33.771   6.102   3.714  1.00 20.00     0.267 C 
HETATM    7  O7  UNL     1     -33.828   5.342   2.757  1.00 20.00    -0.265 OA
BRANCH   6   8
HETATM    8  O8  UNL     1     -32.843   7.080   3.917  1.00 20.00    -0.326 OA
HETATM    9  C6  UNL     1     -31.850   7.207   2.894  1.00 20.00     0.213 C 
ENDBRANCH   6   8
ENDBRANCH   4   6
TORSDOF 2
