REMARK  1 active torsions:
REMARK  status: ('A' for Active; 'I' for Inactive)
REMARK    1  A    between atoms: C1_1  and  C7_7 
ROOT
HETATM    1  C2  UNL     1     -34.604   3.578   4.954  1.00 20.00     0.004 C 
HETATM    2  C3  UNL     1     -35.444   4.691   5.581  1.00 20.00     0.037 C 
HETATM    3  C4  UNL     1     -33.295   4.065   4.332  1.00 20.00     0.016 C 
HETATM    4  C5  UNL     1     -34.009   6.510   4.560  1.00 20.00     0.053 C 
HETATM    5  C6  UNL     1     -34.644   5.957   5.835  1.00 20.00     0.171 C 
HETATM    6  C7  UNL     1     -33.421   5.424   3.624  1.00 20.00     0.012 C 
HETATM    7  C8  UNL     1     -34.265   5.295   2.346  1.00 20.00     0.023 C 
HETATM    8  F10 UNL     1     -33.653   5.669   6.727  1.00 20.00    -0.249 F 
ENDROOT
BRANCH   6   9
HETATM    9  C1  UNL     1     -32.045   5.855   3.181  1.00 20.00     0.240 C 
HETATM   10  O9  UNL     1     -31.824   6.905   2.586  1.00 20.00    -0.306 OA
ENDBRANCH   6   9
TORSDOF 1
