REMARK  1 active torsions:
REMARK  status: ('A' for Active; 'I' for Inactive)
REMARK    1  A    between atoms: C1_1  and  C4_4 
ROOT
HETATM    1  C2  UNL     1     -34.279   6.818   4.996  1.00 20.00     0.037 C 
HETATM    2  C3  UNL     1     -33.577   5.368   3.595  1.00 20.00     0.037 C 
HETATM    3  C4  UNL     1     -33.724   6.910   3.552  1.00 20.00     0.058 C 
HETATM    4  C5  UNL     1     -34.637   5.330   4.730  1.00 20.00     0.035 C 
HETATM    5  C7  UNL     1     -36.068   5.132   4.218  1.00 20.00     0.032 C 
HETATM    6 CL9  UNL     1     -34.300   4.193   6.076  1.00 20.00    -0.120 Cl
ENDROOT
BRANCH   3   7
HETATM    7  C1  UNL     1     -32.453   7.732   3.322  1.00 20.00     0.127 C 
HETATM    8  C6  UNL     1     -32.500   8.757   2.221  1.00 20.00     0.091 C 
HETATM    9  O8  UNL     1     -31.443   7.564   4.004  1.00 20.00    -0.298 OA
ENDBRANCH   3   7
TORSDOF 1
