REMARK  3 active torsions:
REMARK  status: ('A' for Active; 'I' for Inactive)
REMARK    1  A    between atoms: C2_2  and  C6_6 
REMARK    2  A    between atoms: C3_3  and  C7_7 
REMARK    3  A    between atoms: C6_6  and  C7_7 
ROOT
HETATM    1  C7  UNL     1     -33.515   5.650   3.710  1.00 20.00     0.242 C 
HETATM    2  F9  UNL     1     -34.147   5.308   2.549  1.00 20.00    -0.241 F 
ENDROOT
BRANCH   1   3
HETATM    3  C3  UNL     1     -34.458   5.510   4.890  1.00 20.00     0.157 C 
HETATM    4  C5  UNL     1     -33.894   5.754   6.265  1.00 20.00     0.094 C 
HETATM    5  O8  UNL     1     -35.639   5.202   4.731  1.00 20.00    -0.295 OA
ENDBRANCH   1   3
BRANCH   1   6
HETATM    6  C6  UNL     1     -32.936   7.053   3.547  1.00 20.00     0.072 C 
BRANCH   6   7
HETATM    7  C2  UNL     1     -32.017   7.170   2.362  1.00 20.00    -0.028 C 
HETATM    8  C1  UNL     1     -31.857   8.295   1.651  1.00 20.00    -0.035 C 
HETATM    9  C4  UNL     1     -32.570   9.573   1.944  1.00 20.00     0.036 C 
ENDBRANCH   6   7
ENDBRANCH   1   6
TORSDOF 3
