REMARK  3 active torsions:
REMARK  status: ('A' for Active; 'I' for Inactive)
REMARK    1  A    between atoms: C8_8  and  C9_9 
REMARK    2  A    between atoms: C8_8  and  O11_11 
REMARK    3  A    between atoms: N10_10  and  O11_11 
ROOT
HETATM    1  C1  UNL     1     -33.968   5.973   5.464  1.00 20.00     0.107 A 
HETATM    2  C2  UNL     1     -34.807   5.901   4.195  1.00 20.00     0.049 A 
HETATM    3  C3  UNL     1     -34.458   6.616   6.715  1.00 20.00     0.031 C 
HETATM    4  C4  UNL     1     -36.160   6.564   4.143  1.00 20.00     0.036 C 
HETATM    5  C5  UNL     1     -34.714   4.643   3.370  1.00 20.00     0.036 C 
HETATM    6  N10 UNL     1     -33.653   6.812   4.315  1.00 20.00    -0.180 NA
ENDROOT
BRANCH   6   7
HETATM    7  O11 UNL     1     -32.497   6.248   3.642  1.00 20.00    -0.302 OA
BRANCH   7   8
HETATM    8  C8  UNL     1     -32.479   6.758   2.316  1.00 20.00     0.197 C 
BRANCH   8   9
HETATM    9  C9  UNL     1     -32.379   8.286   2.346  1.00 20.00     0.003 C 
HETATM   10  C6  UNL     1     -31.103   8.747   3.055  1.00 20.00     0.011 C 
HETATM   11  C7  UNL     1     -32.432   8.851   0.928  1.00 20.00     0.011 C 
ENDBRANCH   8   9
ENDBRANCH   7   8
ENDBRANCH   6   7
TORSDOF 3
