REMARK  0 active torsions:
REMARK  status: ('A' for Active; 'I' for Inactive)
ROOT
HETATM    1  C1  UNL     1     -32.431   6.920   2.706  1.00 20.00     0.089 C 
HETATM    2  C2  UNL     1     -33.745   5.996   4.501  1.00 20.00     0.017 C 
HETATM    3  C3  UNL     1     -33.438   6.052   3.199  1.00 20.00     0.118 C 
HETATM    4  C4  UNL     1     -33.048   6.844   5.537  1.00 20.00     0.059 C 
HETATM    5  C5  UNL     1     -34.021   6.796   6.718  1.00 20.00     0.026 C 
HETATM    6  C6  UNL     1     -34.736   5.451   6.577  1.00 20.00     0.122 C 
HETATM    7  C7  UNL     1     -35.488   4.163   4.558  1.00 20.00     0.149 C 
HETATM    8  N8  UNL     1     -31.608   7.628   2.297  1.00 20.00    -0.192 NA
HETATM    9  N9  UNL     1     -34.699   5.224   5.140  1.00 20.00    -0.388 N 
ENDROOT
TORSDOF 0
