REMARK  1 active torsions:
REMARK  status: ('A' for Active; 'I' for Inactive)
REMARK    1  A    between atoms: C3_3  and  C8_8 
ROOT
HETATM    1  C1  UNL     1     -34.710   4.456   4.562  1.00 20.00    -0.025 C 
HETATM    2  C2  UNL     1     -33.880   4.295   3.520  1.00 20.00    -0.024 C 
HETATM    3  C4  UNL     1     -35.300   6.023   2.981  1.00 20.00     0.018 C 
HETATM    4  C5  UNL     1     -35.231   5.872   4.504  1.00 20.00     0.013 C 
HETATM    5  C6  UNL     1     -33.833   5.611   2.777  1.00 20.00     0.024 C 
HETATM    6  C7  UNL     1     -34.092   6.879   4.845  1.00 20.00     0.005 C 
HETATM    7  C8  UNL     1     -33.082   6.667   3.649  1.00 20.00     0.027 C 
HETATM    8  C10 UNL     1     -33.537   6.721   6.256  1.00 20.00     0.012 C 
HETATM    9  C11 UNL     1     -31.663   6.238   4.034  1.00 20.00     0.024 C 
ENDROOT
BRANCH   7  10
HETATM   10  C3  UNL     1     -32.943   7.935   2.838  1.00 20.00     0.132 C 
HETATM   11  C9  UNL     1     -32.184   7.830   1.543  1.00 20.00     0.091 C 
HETATM   12  O12 UNL     1     -33.428   9.000   3.217  1.00 20.00    -0.298 OA
ENDBRANCH   7  10
TORSDOF 1
