REMARK  2 active torsions:
REMARK  status: ('A' for Active; 'I' for Inactive)
REMARK    1  A    between atoms: C3_3  and  C6_6 
REMARK    2  A    between atoms: C3_3  and  O10_10 
ROOT
HETATM    1  C1  UNL     1     -34.850   5.533   6.606  1.00 20.00    -0.002 C 
HETATM    2  C2  UNL     1     -35.188   4.270   6.317  1.00 20.00     0.130 C 
HETATM    3  C4  UNL     1     -34.200   6.423   5.595  1.00 20.00     0.046 C 
HETATM    4  C5  UNL     1     -34.749   4.554   4.020  1.00 20.00     0.189 C 
HETATM    5  C6  UNL     1     -33.710   5.608   4.397  1.00 20.00     0.113 C 
HETATM    6  O9  UNL     1     -35.042   3.657   5.100  1.00 20.00    -0.362 OA
ENDROOT
BRANCH   5   7
HETATM    7  C3  UNL     1     -33.440   6.501   3.227  1.00 20.00     0.265 C 
HETATM    8  O8  UNL     1     -33.996   6.396   2.143  1.00 20.00    -0.265 OA
BRANCH   7   9
HETATM    9  O10 UNL     1     -32.497   7.425   3.567  1.00 20.00    -0.326 OA
HETATM   10  C7  UNL     1     -32.141   8.349   2.534  1.00 20.00     0.213 C 
ENDBRANCH   7   9
ENDBRANCH   5   7
TORSDOF 2
