REMARK  2 active torsions:
REMARK  status: ('A' for Active; 'I' for Inactive)
REMARK    1  A    between atoms: C1_1  and  C5_5 
REMARK    2  A    between atoms: C5_5  and  C6_6 
ROOT
HETATM    1  C2  UNL     1     -31.828   6.451   3.084  1.00 20.00     0.003 C 
HETATM    2  C3  UNL     1     -33.002   7.165   3.775  1.00 20.00     0.029 C 
HETATM    3  C4  UNL     1     -32.029   5.280   4.060  1.00 20.00     0.029 C 
HETATM    4  C5  UNL     1     -33.489   5.778   4.301  1.00 20.00     0.149 C 
ENDROOT
BRANCH   4   5
HETATM    5  C1  UNL     1     -33.960   5.758   5.782  1.00 20.00     0.316 C 
HETATM    6  O7  UNL     1     -34.374   4.772   6.373  1.00 20.00    -0.259 OA
HETATM    7  F8  UNL     1     -33.870   6.899   6.478  1.00 20.00    -0.163 F 
ENDBRANCH   4   5
BRANCH   4   8
HETATM    8  C6  UNL     1     -34.520   5.108   3.389  1.00 20.00     0.404 C 
HETATM    9  F9  UNL     1     -35.690   5.756   3.472  1.00 20.00    -0.170 F 
HETATM   10  F10 UNL     1     -34.092   5.137   2.120  1.00 20.00    -0.170 F 
HETATM   11  F11 UNL     1     -34.698   3.833   3.762  1.00 20.00    -0.170 F 
ENDBRANCH   4   8
TORSDOF 2
