REMARK  1 active torsions:
REMARK  status: ('A' for Active; 'I' for Inactive)
REMARK    1  A    between atoms: C2_2  and  C5_5 
ROOT
HETATM    1  C1  UNL     1     -32.989   5.887   4.293  1.00 20.00     0.270 A 
HETATM    2  C2  UNL     1     -34.468   5.608   4.210  1.00 20.00     0.181 A 
HETATM    3  O6  UNL     1     -33.959   6.922   4.488  1.00 20.00    -0.336 OA
HETATM    4 CL7  UNL     1     -31.963   5.960   2.886  1.00 20.00    -0.091 Cl
HETATM    5 CL8  UNL     1     -35.242   5.358   2.647  1.00 20.00    -0.084 Cl
ENDROOT
BRANCH   2   6
HETATM    6  C5  UNL     1     -35.174   4.966   5.402  1.00 20.00     0.032 C 
HETATM    7  C3  UNL     1     -35.033   3.446   5.355  1.00 20.00     0.014 C 
HETATM    8  C4  UNL     1     -34.620   5.516   6.714  1.00 20.00     0.014 C 
ENDBRANCH   2   6
TORSDOF 1
