REMARK  1 active torsions:
REMARK  status: ('A' for Active; 'I' for Inactive)
REMARK    1  A    between atoms: C3_3  and  C6_6 
ROOT
HETATM    1  C1  UNL     1     -32.338   8.008   2.449  1.00 20.00    -0.154 C 
HETATM    2  C5  UNL     1     -32.037   8.192   1.199  1.00 20.00     0.096 C 
HETATM    3  C6  UNL     1     -32.638   7.828   3.700  1.00 20.00     0.061 C 
ENDROOT
BRANCH   3   4
HETATM    4  C3  UNL     1     -33.310   6.651   4.162  1.00 20.00    -0.010 A 
HETATM    5  C2  UNL     1     -33.665   6.361   5.415  1.00 20.00     0.023 A 
HETATM    6  C4  UNL     1     -34.277   5.023   5.373  1.00 20.00     0.290 A 
HETATM    7  C8  UNL     1     -33.523   7.112   6.686  1.00 20.00     0.055 C 
HETATM    8  O10 UNL     1     -34.732   4.422   6.332  1.00 20.00    -0.260 OA
HETATM    9  O11 UNL     1     -34.246   4.557   4.091  1.00 20.00    -0.308 OA
HETATM   10  C7  UNL     1     -33.667   5.549   3.230  1.00 20.00     0.162 A 
HETATM   11  C9  UNL     1     -34.698   5.926   2.174  1.00 20.00     0.045 C 
ENDBRANCH   3   4
TORSDOF 1
