REMARK  1 active torsions:
REMARK  status: ('A' for Active; 'I' for Inactive)
REMARK    1  A    between atoms: C3_3  and  C7_7 
ROOT
HETATM    1  C1  UNL     1     -34.253   7.396   2.485  1.00 20.00    -0.019 C 
HETATM    2  C2  UNL     1     -32.951   7.696   2.338  1.00 20.00    -0.087 C 
HETATM    3  C4  UNL     1     -31.908   7.226   3.318  1.00 20.00     0.034 C 
HETATM    4  C5  UNL     1     -32.503   6.732   4.637  1.00 20.00     0.017 C 
HETATM    5  C6  UNL     1     -34.806   6.536   3.597  1.00 20.00     0.015 C 
HETATM    6  C7  UNL     1     -33.699   5.812   4.392  1.00 20.00     0.062 C 
HETATM    7  C8  UNL     1     -32.453   8.523   1.189  1.00 20.00     0.043 C 
HETATM    8  C10 UNL     1     -35.803   5.523   3.021  1.00 20.00     0.015 C 
ENDROOT
BRANCH   6   9
HETATM    9  C3  UNL     1     -34.233   5.352   5.716  1.00 20.00     0.127 C 
HETATM   10  C9  UNL     1     -34.189   3.872   5.987  1.00 20.00     0.091 C 
HETATM   11  O11 UNL     1     -34.684   6.145   6.542  1.00 20.00    -0.298 OA
ENDBRANCH   6   9
TORSDOF 1
