REMARK  1 active torsions:
REMARK  status: ('A' for Active; 'I' for Inactive)
REMARK    1  A    between atoms: C2_2  and  C3_3 
ROOT
HETATM    1  C1  UNL     1     -33.420   7.756   3.980  1.00 20.00    -0.007 C 
HETATM    2  C2  UNL     1     -32.565   7.567   2.971  1.00 20.00    -0.012 C 
HETATM    3  C4  UNL     1     -32.270   5.717   4.406  1.00 20.00     0.022 C 
HETATM    4  C5  UNL     1     -31.886   6.238   3.006  1.00 20.00     0.019 C 
HETATM    5  C6  UNL     1     -33.474   6.562   4.894  1.00 20.00    -0.029 C 
HETATM    6  C8  UNL     1     -32.349   5.309   1.889  1.00 20.00     0.015 C 
HETATM    7  C9  UNL     1     -34.800   5.813   4.723  1.00 20.00     0.019 C 
HETATM    8  C10 UNL     1     -33.295   6.976   6.358  1.00 20.00     0.019 C 
ENDROOT
BRANCH   2   9
HETATM    9  C3  UNL     1     -32.323   8.577   1.955  1.00 20.00     0.151 C 
HETATM   10  C7  UNL     1     -31.334   8.267   0.852  1.00 20.00     0.096 C 
HETATM   11  O11 UNL     1     -32.903   9.672   1.990  1.00 20.00    -0.293 OA
ENDBRANCH   2   9
TORSDOF 1
