REMARK  1 active torsions:
REMARK  status: ('A' for Active; 'I' for Inactive)
REMARK    1  A    between atoms: C5_5  and  C6_6 
ROOT
HETATM    1  C1  UNL     1     -32.651   9.006   2.184  1.00 20.00    -0.003 A 
HETATM    2  C2  UNL     1     -31.706   8.082   1.597  1.00 20.00    -0.003 A 
HETATM    3  C3  UNL     1     -33.445   8.316   3.024  1.00 20.00    -0.012 A 
HETATM    4  C4  UNL     1     -31.955   6.858   2.098  1.00 20.00    -0.012 A 
HETATM    5  C6  UNL     1     -33.075   6.053   4.296  1.00 20.00     0.073 A 
HETATM    6  C7  UNL     1     -33.086   6.885   3.046  1.00 20.00     0.013 A 
HETATM    7  C8  UNL     1     -34.090   5.763   3.190  1.00 20.00    -0.021 A 
HETATM    8  C9  UNL     1     -33.899   4.489   2.399  1.00 20.00     0.017 C 
HETATM    9  C10 UNL     1     -35.549   6.097   3.404  1.00 20.00     0.017 C 
ENDROOT
BRANCH   5  10
HETATM   10  C5  UNL     1     -33.506   6.608   5.587  1.00 20.00     0.237 C 
HETATM   11  O11 UNL     1     -33.938   5.921   6.507  1.00 20.00    -0.306 OA
ENDBRANCH   5  10
TORSDOF 1
