REMARK  3 active torsions:
REMARK  status: ('A' for Active; 'I' for Inactive)
REMARK    1  A    between atoms: C1_1  and  C2_2 
REMARK    2  A    between atoms: C1_1  and  O10_10 
REMARK    3  A    between atoms: C7_7  and  O10_10 
ROOT
HETATM    1  C1  UNL     1     -33.127   6.416   4.716  1.00 20.00     0.291 C 
HETATM    2  O8  UNL     1     -33.074   7.025   5.776  1.00 20.00    -0.262 OA
ENDROOT
BRANCH   1   3
HETATM    3  C2  UNL     1     -34.338   5.782   4.196  1.00 20.00     0.250 A 
HETATM    4  C3  UNL     1     -34.998   4.628   4.906  1.00 20.00     0.157 A 
HETATM    5  C4  UNL     1     -34.486   4.069   6.185  1.00 20.00     0.042 C 
HETATM    6  O9  UNL     1     -34.140   4.420   3.780  1.00 20.00    -0.365 OA
ENDBRANCH   1   3
BRANCH   1   7
HETATM    7  O10 UNL     1     -32.098   6.218   3.844  1.00 20.00    -0.315 OA
BRANCH   7   8
HETATM    8  C7  UNL     1     -31.508   7.408   3.310  1.00 20.00     0.123 C 
HETATM    9  C5  UNL     1     -30.032   7.156   3.039  1.00 20.00     0.040 C 
HETATM   10  C6  UNL     1     -32.254   7.814   2.048  1.00 20.00     0.040 C 
ENDBRANCH   7   8
ENDBRANCH   1   7
TORSDOF 3
