REMARK  2 active torsions:
REMARK  status: ('A' for Active; 'I' for Inactive)
REMARK    1  A    between atoms: C3_3  and  C7_7 
REMARK    2  A    between atoms: C8_8  and  C10_10 
ROOT
HETATM    1  C1  UNL     1     -30.986   7.181   3.554  1.00 20.00     0.012 C 
HETATM    2  C2  UNL     1     -31.960   6.479   3.569  1.00 20.00    -0.117 C 
HETATM    3  C10 UNL     1     -33.150   5.621   3.581  1.00 20.00     0.098 C 
ENDROOT
BRANCH   3   4
HETATM    4  C8  UNL     1     -33.688   5.444   4.993  1.00 20.00     0.008 C 
HETATM    5  C6  UNL     1     -34.094   6.760   5.651  1.00 20.00     0.006 C 
HETATM    6  C4  UNL     1     -34.916   6.314   6.853  1.00 20.00     0.001 C 
HETATM    7  C5  UNL     1     -35.561   4.982   6.455  1.00 20.00     0.013 C 
HETATM    8  C7  UNL     1     -34.944   4.583   5.112  1.00 20.00     0.060 C 
BRANCH   8   9
HETATM    9  C3  UNL     1     -35.992   4.861   4.044  1.00 20.00     0.127 C 
HETATM   10  C9  UNL     1     -37.303   4.135   4.177  1.00 20.00     0.091 C 
HETATM   11  O11 UNL     1     -35.778   5.643   3.119  1.00 20.00    -0.298 OA
ENDBRANCH   8   9
ENDBRANCH   3   4
TORSDOF 2
