REMARK  1 active torsions:
REMARK  status: ('A' for Active; 'I' for Inactive)
REMARK    1  A    between atoms: C2_2  and  C4_4 
ROOT
HETATM    1  C1  UNL     1     -34.423   4.536   6.080  1.00 20.00     0.065 C 
HETATM    2  C3  UNL     1     -33.804   4.955   4.855  1.00 20.00     0.113 A 
HETATM    3  C4  UNL     1     -33.709   6.436   4.561  1.00 20.00     0.082 A 
HETATM    4  C5  UNL     1     -34.631   5.559   3.733  1.00 20.00    -0.019 A 
HETATM    5  C7  UNL     1     -34.243   5.188   2.322  1.00 20.00     0.017 C 
HETATM    6  C8  UNL     1     -36.116   5.766   3.907  1.00 20.00     0.017 C 
HETATM    7  N9  UNL     1     -34.923   4.197   7.070  1.00 20.00    -0.197 NA
ENDROOT
BRANCH   3   8
HETATM    8  C2  UNL     1     -32.468   6.976   3.990  1.00 20.00     0.129 C 
HETATM    9  C6  UNL     1     -32.049   8.345   4.453  1.00 20.00     0.091 C 
HETATM   10  O10 UNL     1     -31.803   6.340   3.173  1.00 20.00    -0.298 OA
ENDBRANCH   3   8
TORSDOF 1
