REMARK  3 active torsions:
REMARK  status: ('A' for Active; 'I' for Inactive)
REMARK    1  A    between atoms: C1_1  and  C4_4 
REMARK    2  A    between atoms: C3_3  and  C10_10 
REMARK    3  A    between atoms: C5_5  and  C10_10 
ROOT
HETATM    1  C1  UNL     1     -32.118   8.270   2.718  1.00 20.00    -0.101 C 
HETATM    2  C2  UNL     1     -32.144   9.038   1.795  1.00 20.00    -0.111 C 
HETATM    3  C7  UNL     1     -32.175   9.972   0.671  1.00 20.00     0.112 C 
ENDROOT
BRANCH   1   4
HETATM    4  C4  UNL     1     -32.087   7.353   3.820  1.00 20.00     0.078 A 
HETATM    5  C5  UNL     1     -32.975   6.128   3.833  1.00 20.00     0.017 A 
HETATM    6  C6  UNL     1     -33.253   7.269   4.798  1.00 20.00    -0.028 A 
HETATM    7  C8  UNL     1     -34.475   8.136   4.611  1.00 20.00     0.016 C 
HETATM    8  C9  UNL     1     -32.917   7.032   6.251  1.00 20.00     0.016 C 
BRANCH   5   9
HETATM    9  C10 UNL     1     -33.892   5.778   2.710  1.00 20.00     0.076 C 
BRANCH   9  10
HETATM   10  C3  UNL     1     -35.044   4.880   3.123  1.00 20.00     0.231 C 
HETATM   11  O11 UNL     1     -35.247   4.516   4.277  1.00 20.00    -0.307 OA
ENDBRANCH   9  10
ENDBRANCH   5   9
ENDBRANCH   1   4
TORSDOF 3
