REMARK  1 active torsions:
REMARK  status: ('A' for Active; 'I' for Inactive)
REMARK    1  A    between atoms: C4_4  and  O11_11 
ROOT
HETATM    1  C1  UNL     1     -34.181   5.454   6.631  1.00 20.00     0.034 C 
HETATM    2  C2  UNL     1     -33.128   6.132   6.130  1.00 20.00     0.003 C 
HETATM    3  C3  UNL     1     -35.199   5.116   4.432  1.00 20.00     0.017 C 
HETATM    4  C4  UNL     1     -35.119   4.776   5.735  1.00 20.00     0.062 C 
HETATM    5  C5  UNL     1     -32.660   7.260   2.822  1.00 20.00     0.004 C 
HETATM    6  C6  UNL     1     -33.848   6.367   2.525  1.00 20.00     0.065 C 
HETATM    7  C7  UNL     1     -34.312   6.224   3.956  1.00 20.00     0.045 C 
HETATM    8  C8  UNL     1     -32.946   6.117   4.644  1.00 20.00     0.139 C 
HETATM    9  C9  UNL     1     -32.106   8.160   1.767  1.00 20.00     0.065 C 
HETATM   10  N10 UNL     1     -32.164   7.208   4.033  1.00 20.00    -0.289 NA
ENDROOT
BRANCH   4  11
HETATM   11  O11 UNL     1     -35.918   3.831   6.332  1.00 20.00    -0.361 OA
HETATM   12  H22 UNL     1     -36.506   3.432   5.679  1.00 20.00     0.217 HD
ENDBRANCH   4  11
TORSDOF 1
