REMARK  1 active torsions:
REMARK  status: ('A' for Active; 'I' for Inactive)
REMARK    1  A    between atoms: C1_1  and  C7_7 
ROOT
HETATM    1  C2  UNL     1     -34.866   5.010   3.219  1.00 20.00     0.004 C 
HETATM    2  C3  UNL     1     -35.049   5.198   4.720  1.00 20.00     0.037 C 
HETATM    3  C4  UNL     1     -34.196   6.226   2.576  1.00 20.00     0.016 C 
HETATM    4  C5  UNL     1     -33.068   6.760   4.779  1.00 20.00     0.053 C 
HETATM    5  C6  UNL     1     -33.735   5.541   5.406  1.00 20.00     0.171 C 
HETATM    6  C7  UNL     1     -32.872   6.624   3.258  1.00 20.00     0.012 C 
HETATM    7  C8  UNL     1     -31.751   5.630   2.926  1.00 20.00     0.023 C 
HETATM    8  F10 UNL     1     -33.990   5.815   6.715  1.00 20.00    -0.249 F 
ENDROOT
BRANCH   6   9
HETATM    9  C1  UNL     1     -32.442   7.962   2.713  1.00 20.00     0.240 C 
HETATM   10  O9  UNL     1     -32.210   8.166   1.526  1.00 20.00    -0.306 OA
ENDBRANCH   6   9
TORSDOF 1
