REMARK  0 active torsions:
REMARK  status: ('A' for Active; 'I' for Inactive)
ROOT
HETATM    1  C1  UNL     1     -33.645   6.599   5.071  1.00 20.00     0.036 C 
HETATM    2  C2  UNL     1     -33.378   5.759   2.487  1.00 20.00     0.297 C 
HETATM    3  C3  UNL     1     -34.862   5.926   4.442  1.00 20.00     0.263 C 
HETATM    4  C4  UNL     1     -33.074   7.198   2.911  1.00 20.00     0.132 C 
HETATM    5  C5  UNL     1     -33.455   6.591   6.565  1.00 20.00     0.067 C 
HETATM    6  C6  UNL     1     -35.666   5.043   5.391  1.00 20.00     0.049 C 
HETATM    7  C7  UNL     1     -31.866   7.747   2.160  1.00 20.00     0.036 C 
HETATM    8  N8  UNL     1     -32.775   7.229   4.349  1.00 20.00    -0.290 NA
HETATM    9  N9  UNL     1     -34.403   5.114   3.310  1.00 20.00     0.095 N 
HETATM   10  H23 UNL     1     -35.213   4.869   2.718  1.00 20.00     0.316 HD
ENDROOT
TORSDOF 0
