REMARK  3 active torsions:
REMARK  status: ('A' for Active; 'I' for Inactive)
REMARK    1  A    between atoms: C1_1  and  C7_7 
REMARK    2  A    between atoms: C1_1  and  N8_8 
REMARK    3  A    between atoms: C6_6  and  N8_8 
ROOT
HETATM    1  C1  UNL     1     -32.486   7.262   2.884  1.00 20.00     0.078 C 
HETATM    2  S9  UNL     1     -31.249   7.647   3.982  1.00 20.00    -0.065 SA
ENDROOT
BRANCH   1   3
HETATM    3  C7  UNL     1     -32.622   8.087   1.575  1.00 20.00     0.039 C 
HETATM    4  C3  UNL     1     -32.860   9.566   1.890  1.00 20.00     0.017 C 
HETATM    5  C4  UNL     1     -31.448   7.928   0.603  1.00 20.00     0.017 C 
ENDBRANCH   1   3
BRANCH   1   6
HETATM    6  N8  UNL     1     -33.445   6.256   3.103  1.00 20.00    -0.380 N 
HETATM    7  C5  UNL     1     -33.647   5.127   2.196  1.00 20.00     0.150 C 
BRANCH   6   8
HETATM    8  C6  UNL     1     -34.346   6.252   4.259  1.00 20.00     0.118 C 
HETATM    9  C2  UNL     1     -34.177   5.012   5.069  1.00 20.00     0.026 C 
ENDBRANCH   6   8
ENDBRANCH   1   6
TORSDOF 3
