REMARK  2 active torsions:
REMARK  status: ('A' for Active; 'I' for Inactive)
REMARK    1  A    between atoms: C1_1  and  C4_4 
REMARK    2  A    between atoms: C2_2  and  C5_5 
ROOT
HETATM    1  C5  UNL     1     -34.298   5.576   3.084  1.00 20.00     0.235 A 
HETATM    2  C6  UNL     1     -34.422   5.414   4.582  1.00 20.00     0.092 A 
HETATM    3  C8  UNL     1     -33.900   6.444   5.537  1.00 20.00     0.049 C 
HETATM    4  C9  UNL     1     -34.620   4.036   5.134  1.00 20.00     0.049 C 
HETATM    5  O10 UNL     1     -35.515   5.876   3.778  1.00 20.00    -0.357 OA
ENDROOT
BRANCH   1   6
HETATM    6  C2  UNL     1     -33.686   6.745   2.507  1.00 20.00    -0.066 C 
HETATM    7  C1  UNL     1     -33.175   7.720   2.026  1.00 20.00    -0.070 C 
BRANCH   7   8
HETATM    8  C4  UNL     1     -32.563   8.875   1.452  1.00 20.00    -0.018 C 
HETATM    9  C3  UNL     1     -33.146  10.072   1.605  1.00 20.00     0.028 C 
HETATM   10  C7  UNL     1     -31.279   8.713   0.692  1.00 20.00     0.057 C 
ENDBRANCH   7   8
ENDBRANCH   1   6
TORSDOF 2
