REMARK  0 active torsions:
REMARK  status: ('A' for Active; 'I' for Inactive)
ROOT
HETATM    1  C1  UNL     1     -32.538   8.875   1.985  1.00 20.00     0.015 C 
HETATM    2  C2  UNL     1     -32.667   7.725   2.306  1.00 20.00    -0.075 C 
HETATM    3  C3  UNL     1     -34.254   6.304   6.249  1.00 20.00     0.001 C 
HETATM    4  C4  UNL     1     -35.154   5.661   5.170  1.00 20.00     0.005 C 
HETATM    5  C5  UNL     1     -32.995   6.806   5.504  1.00 20.00     0.009 C 
HETATM    6  C6  UNL     1     -34.241   5.678   2.483  1.00 20.00     0.060 C 
HETATM    7  C7  UNL     1     -34.578   6.234   3.894  1.00 20.00    -0.003 C 
HETATM    8  C8  UNL     1     -33.062   6.030   4.202  1.00 20.00     0.040 C 
HETATM    9  C9  UNL     1     -32.823   6.344   2.692  1.00 20.00     0.162 C 
HETATM   10  O10 UNL     1     -31.791   5.570   2.137  1.00 20.00    -0.214 OA
ENDROOT
TORSDOF 0
