REMARK  3 active torsions:
REMARK  status: ('A' for Active; 'I' for Inactive)
REMARK    1  A    between atoms: C1_1  and  C7_7 
REMARK    2  A    between atoms: C2_2  and  C8_8 
REMARK    3  A    between atoms: C4_4  and  C9_9 
ROOT
HETATM    1  C8  UNL     1     -34.801   4.844   3.211  1.00 20.00     0.233 A 
HETATM    2  C9  UNL     1     -35.091   4.560   4.649  1.00 20.00     0.186 A 
HETATM    3  O10 UNL     1     -35.969   5.357   3.840  1.00 20.00    -0.358 OA
ENDROOT
BRANCH   1   4
HETATM    4  C2  UNL     1     -33.887   5.919   2.827  1.00 20.00    -0.071 C 
HETATM    5  C1  UNL     1     -33.137   6.802   2.512  1.00 20.00    -0.099 C 
BRANCH   5   6
HETATM    6  C7  UNL     1     -32.224   7.878   2.128  1.00 20.00     0.065 A 
HETATM    7  C5  UNL     1     -32.735   9.278   2.183  1.00 20.00     0.018 A 
HETATM    8  C6  UNL     1     -32.504   8.611   0.860  1.00 20.00     0.018 A 
ENDBRANCH   5   6
ENDBRANCH   1   4
BRANCH   2   9
HETATM    9  C4  UNL     1     -34.278   5.127   5.715  1.00 20.00    -0.002 C 
HETATM   10  C3  UNL     1     -34.214   6.433   5.994  1.00 20.00     0.009 C 
ENDBRANCH   2   9
TORSDOF 3
