REMARK  1 active torsions:
REMARK  status: ('A' for Active; 'I' for Inactive)
REMARK    1  A    between atoms: C4_4  and  C10_10 
ROOT
HETATM    1  C1  UNL     1     -32.629   4.899   3.431  1.00 20.00     0.174 C 
HETATM    2  C2  UNL     1     -33.133   5.250   4.786  1.00 20.00     0.025 A 
HETATM    3  C3  UNL     1     -33.715   6.609   4.686  1.00 20.00     0.030 A 
HETATM    4  C4  UNL     1     -33.553   7.045   3.264  1.00 20.00     0.130 C 
HETATM    5  C5  UNL     1     -34.600   5.452   5.119  1.00 20.00    -0.035 A 
HETATM    6  C6  UNL     1     -35.671   4.925   4.200  1.00 20.00     0.016 C 
HETATM    7  C7  UNL     1     -34.984   5.393   6.577  1.00 20.00     0.016 C 
HETATM    8  O11 UNL     1     -33.133   5.886   2.513  1.00 20.00    -0.385 OA
ENDROOT
BRANCH   4   9
HETATM    9  C10 UNL     1     -32.496   8.128   3.106  1.00 20.00     0.007 C 
HETATM   10  C8  UNL     1     -31.140   7.642   3.619  1.00 20.00     0.012 C 
HETATM   11  C9  UNL     1     -32.386   8.570   1.647  1.00 20.00     0.012 C 
ENDBRANCH   4   9
TORSDOF 1
