REMARK  1 active torsions:
REMARK  status: ('A' for Active; 'I' for Inactive)
REMARK    1  A    between atoms: C3_3  and  C7_7 
ROOT
HETATM    1  C1  UNL     1     -32.457   5.235   2.713  1.00 20.00    -0.020 C 
HETATM    2  C2  UNL     1     -31.315   5.799   3.143  1.00 20.00    -0.086 C 
HETATM    3  C4  UNL     1     -31.253   7.228   3.627  1.00 20.00     0.045 C 
HETATM    4  C5  UNL     1     -33.786   7.236   3.522  1.00 20.00     0.020 C 
HETATM    5  C6  UNL     1     -33.789   5.939   2.692  1.00 20.00     0.005 C 
HETATM    6  C7  UNL     1     -32.510   8.055   3.333  1.00 20.00     0.059 C 
HETATM    7  C8  UNL     1     -30.020   5.042   3.165  1.00 20.00     0.043 C 
HETATM    8  C10 UNL     1     -34.901   5.010   3.180  1.00 20.00     0.014 C 
ENDROOT
BRANCH   6   9
HETATM    9  C3  UNL     1     -32.465   8.634   1.948  1.00 20.00     0.127 C 
HETATM   10  C9  UNL     1     -31.754   7.823   0.898  1.00 20.00     0.091 C 
HETATM   11  O11 UNL     1     -32.984   9.717   1.684  1.00 20.00    -0.298 OA
ENDBRANCH   6   9
TORSDOF 1
