REMARK  1 active torsions:
REMARK  status: ('A' for Active; 'I' for Inactive)
REMARK    1  A    between atoms: C1_1  and  C4_4 
ROOT
HETATM    1  C1  UNL     1     -32.789   7.130   2.495  1.00 20.00    -0.047 C 
HETATM    2  C2  UNL     1     -32.471   8.123   1.899  1.00 20.00    -0.106 C 
HETATM    3  C6  UNL     1     -32.085   9.332   1.173  1.00 20.00     0.112 C 
ENDROOT
BRANCH   1   4
HETATM    4  C4  UNL     1     -33.175   5.919   3.222  1.00 20.00     0.343 C 
HETATM    5  O8  UNL     1     -34.458   5.458   2.772  1.00 20.00    -0.348 OA
HETATM    6  C3  UNL     1     -35.346   5.734   3.856  1.00 20.00     0.203 C 
HETATM    7  C5  UNL     1     -34.466   5.644   5.080  1.00 20.00     0.145 C 
HETATM    8  C7  UNL     1     -34.250   4.213   5.557  1.00 20.00     0.042 C 
HETATM    9  O9  UNL     1     -33.220   6.186   4.631  1.00 20.00    -0.343 OA
ENDBRANCH   1   4
TORSDOF 1
