REMARK  1 active torsions:
REMARK  status: ('A' for Active; 'I' for Inactive)
REMARK    1  A    between atoms: C9_9  and  O10_10 
ROOT
HETATM    1  C1  UNL     1     -32.724   8.049   2.595  1.00 20.00     0.012 C 
HETATM    2  C2  UNL     1     -33.077   6.947   2.917  1.00 20.00    -0.112 C 
HETATM    3  C3  UNL     1     -34.963   3.610   4.897  1.00 20.00     0.007 C 
HETATM    4  C4  UNL     1     -33.456   3.838   5.088  1.00 20.00     0.009 C 
HETATM    5  C5  UNL     1     -35.037   5.412   3.154  1.00 20.00     0.024 C 
HETATM    6  C6  UNL     1     -33.510   5.598   3.312  1.00 20.00     0.071 C 
HETATM    7  C7  UNL     1     -35.489   5.024   4.576  1.00 20.00     0.016 C 
HETATM    8  C8  UNL     1     -33.301   5.350   4.825  1.00 20.00     0.030 C 
HETATM    9  C9  UNL     1     -34.591   5.920   5.430  1.00 20.00     0.127 C 
ENDROOT
BRANCH   9  10
HETATM   10  O10 UNL     1     -34.724   5.674   6.814  1.00 20.00    -0.395 OA
HETATM   11  H22 UNL     1     -34.121   6.284   7.275  1.00 20.00     0.210 HD
ENDBRANCH   9  10
TORSDOF 1
