REMARK  3 active torsions:
REMARK  status: ('A' for Active; 'I' for Inactive)
REMARK    1  A    between atoms: C3_3  and  C8_8 
REMARK    2  A    between atoms: C6_6  and  C9_9 
REMARK    3  A    between atoms: C7_7  and  C10_10 
ROOT
HETATM    1  C5  UNL     1     -34.560   5.378   2.793  1.00 20.00     0.019 C 
HETATM    2  C8  UNL     1     -34.075   6.882   3.067  1.00 20.00     0.078 C 
HETATM    3  C9  UNL     1     -34.096   5.119   4.258  1.00 20.00    -0.001 C 
HETATM    4  C10 UNL     1     -34.646   6.600   4.486  1.00 20.00     0.010 C 
ENDROOT
BRANCH   2   5
HETATM    5  C3  UNL     1     -32.588   7.225   2.915  1.00 20.00     0.223 C 
HETATM    6  O11 UNL     1     -31.713   6.553   3.454  1.00 20.00    -0.279 OA
HETATM    7 CL12 UNL     1     -32.338   8.628   1.922  1.00 20.00    -0.043 Cl
ENDBRANCH   2   5
BRANCH   4   8
HETATM    8  C7  UNL     1     -34.592   6.729   6.007  1.00 20.00     0.014 C 
HETATM    9  C2  UNL     1     -33.266   6.303   6.578  1.00 20.00    -0.025 C 
HETATM   10  C1  UNL     1     -33.179   4.967   6.456  1.00 20.00    -0.025 C 
HETATM   11  C6  UNL     1     -34.392   4.515   5.650  1.00 20.00     0.013 C 
HETATM   12  C4  UNL     1     -35.404   5.445   6.323  1.00 20.00     0.017 C 
ENDBRANCH   4   8
TORSDOF 3
