REMARK  1 active torsions:
REMARK  status: ('A' for Active; 'I' for Inactive)
REMARK    1  A    between atoms: C3_3  and  C7_7 
ROOT
HETATM    1  C1  UNL     1     -34.207   6.458   5.149  1.00 20.00    -0.070 C 
HETATM    2  C2  UNL     1     -33.645   7.286   6.035  1.00 20.00     0.015 C 
HETATM    3  C4  UNL     1     -34.242   3.995   5.144  1.00 20.00     0.009 C 
HETATM    4  C5  UNL     1     -34.200   4.016   3.604  1.00 20.00     0.006 C 
HETATM    5  C6  UNL     1     -36.060   5.297   4.323  1.00 20.00     0.014 C 
HETATM    6  C7  UNL     1     -34.179   6.580   3.647  1.00 20.00     0.119 C 
HETATM    7  C8  UNL     1     -35.061   5.251   5.481  1.00 20.00     0.015 C 
HETATM    8  C9  UNL     1     -34.964   5.312   3.249  1.00 20.00     0.004 C 
ENDROOT
BRANCH   6   9
HETATM    9  C3  UNL     1     -32.778   6.617   3.093  1.00 20.00     0.181 C 
HETATM   10  O10 UNL     1     -32.050   5.633   3.401  1.00 20.00    -0.647 OA
HETATM   11  O11 UNL     1     -32.513   7.633   2.391  1.00 20.00    -0.647 OA
ENDBRANCH   6   9
TORSDOF 1
