REMARK  2 active torsions:
REMARK  status: ('A' for Active; 'I' for Inactive)
REMARK    1  A    between atoms: C2_2  and  C7_7 
REMARK    2  A    between atoms: C6_6  and  C7_7 
ROOT
HETATM    1  C1  UNL     1     -33.903   6.603   5.076  1.00 20.00     0.064 C 
HETATM    2  C4  UNL     1     -35.244   5.252   3.517  1.00 20.00     0.026 C 
HETATM    3  C6  UNL     1     -34.195   6.359   3.647  1.00 20.00     0.099 C 
HETATM    4  N8  UNL     1     -33.675   6.797   6.197  1.00 20.00    -0.197 NA
ENDROOT
BRANCH   3   5
HETATM    5  C7  UNL     1     -32.890   6.080   2.866  1.00 20.00     0.068 C 
HETATM    6  C5  UNL     1     -32.123   4.844   3.346  1.00 20.00     0.019 C 
BRANCH   5   7
HETATM    7  C2  UNL     1     -31.977   7.309   2.887  1.00 20.00     0.128 C 
HETATM    8  C3  UNL     1     -31.654   7.943   1.556  1.00 20.00     0.091 C 
HETATM    9  O9  UNL     1     -31.501   7.759   3.929  1.00 20.00    -0.298 OA
ENDBRANCH   5   7
ENDBRANCH   3   5
TORSDOF 2
