REMARK  1 active torsions:
REMARK  status: ('A' for Active; 'I' for Inactive)
REMARK    1  A    between atoms: C3_3  and  C4_4 
ROOT
HETATM    1  C1  UNL     1     -34.758   5.080   4.467  1.00 20.00     0.142 A 
HETATM    2  C2  UNL     1     -33.451   6.446   5.772  1.00 20.00     0.087 A 
HETATM    3  C3  UNL     1     -33.681   6.011   4.484  1.00 20.00     0.052 A 
HETATM    4  N5  UNL     1     -35.336   4.795   5.632  1.00 20.00    -0.223 NA
HETATM    5  S7  UNL     1     -34.569   5.674   6.815  1.00 20.00    -0.000 SA
ENDROOT
BRANCH   3   6
HETATM    6  C4  UNL     1     -32.921   6.460   3.351  1.00 20.00     0.254 C 
HETATM    7  O6  UNL     1     -31.885   5.835   3.007  1.00 20.00    -0.274 OA
HETATM    8 CL8  UNL     1     -33.404   7.890   2.404  1.00 20.00    -0.038 Cl
ENDBRANCH   3   6
TORSDOF 1
