REMARK  3 active torsions:
REMARK  status: ('A' for Active; 'I' for Inactive)
REMARK    1  A    between atoms: C1_1  and  C7_7 
REMARK    2  A    between atoms: C7_7  and  O10_10 
REMARK    3  A    between atoms: C8_8  and  N9_9 
ROOT
HETATM    1  C1  UNL     1     -34.360   5.673   4.424  1.00 20.00     0.032 C 
HETATM    2  C2  UNL     1     -35.106   5.226   3.186  1.00 20.00     0.068 C 
HETATM    3  N9  UNL     1     -33.295   6.403   4.408  1.00 20.00    -0.287 NA
ENDROOT
BRANCH   1   4
HETATM    4  C7  UNL     1     -34.914   5.277   5.786  1.00 20.00     0.161 C 
HETATM    5  C3  UNL     1     -34.330   3.954   6.252  1.00 20.00     0.045 C 
BRANCH   4   6
HETATM    6  O10 UNL     1     -34.603   6.286   6.729  1.00 20.00    -0.390 OA
HETATM    7  H27 UNL     1     -34.970   6.001   7.584  1.00 20.00     0.210 HD
ENDBRANCH   4   6
ENDBRANCH   1   4
BRANCH   3   8
HETATM    8  C8  UNL     1     -32.759   6.827   3.124  1.00 20.00     0.043 C 
HETATM    9  C4  UNL     1     -33.827   7.652   2.405  1.00 20.00     0.039 C 
HETATM   10  C5  UNL     1     -31.516   7.674   3.392  1.00 20.00     0.039 C 
HETATM   11  C6  UNL     1     -32.398   5.582   2.315  1.00 20.00     0.039 C 
ENDBRANCH   3   8
TORSDOF 3
