REMARK  3 active torsions:
REMARK  status: ('A' for Active; 'I' for Inactive)
REMARK    1  A    between atoms: C3_3  and  C7_7 
REMARK    2  A    between atoms: C4_4  and  C6_6 
REMARK    3  A    between atoms: C4_4  and  O11_11 
ROOT
HETATM    1  C1  UNL     1     -32.149   7.645   1.980  1.00 20.00     0.074 C 
HETATM    2  C5  UNL     1     -32.412   5.227   2.610  1.00 20.00     0.046 A 
HETATM    3  C6  UNL     1     -33.767   5.863   2.710  1.00 20.00     0.114 A 
HETATM    4  C7  UNL     1     -32.516   6.691   3.003  1.00 20.00     0.079 A 
HETATM    5  N9  UNL     1     -31.855   8.410   1.159  1.00 20.00    -0.196 NA
ENDROOT
BRANCH   4   6
HETATM    6  C3  UNL     1     -32.215   6.990   4.413  1.00 20.00    -0.012 C 
HETATM    7  C2  UNL     1     -32.691   8.053   5.071  1.00 20.00     0.008 C 
ENDBRANCH   4   6
BRANCH   3   8
HETATM    8  C4  UNL     1     -34.679   5.447   3.786  1.00 20.00     0.264 C 
HETATM    9  O10 UNL     1     -35.888   5.319   3.649  1.00 20.00    -0.265 OA
BRANCH   8  10
HETATM   10  O11 UNL     1     -33.967   5.237   4.931  1.00 20.00    -0.326 OA
HETATM   11  C8  UNL     1     -34.736   4.826   6.066  1.00 20.00     0.213 C 
ENDBRANCH   8  10
ENDBRANCH   3   8
TORSDOF 3
