REMARK  1 active torsions:
REMARK  status: ('A' for Active; 'I' for Inactive)
REMARK    1  A    between atoms: C3_3  and  C7_7 
ROOT
HETATM    1  C1  UNL     1     -35.466   5.463   3.123  1.00 20.00    -0.029 C 
HETATM    2  C2  UNL     1     -35.304   4.434   3.966  1.00 20.00    -0.026 C 
HETATM    3  C4  UNL     1     -34.890   6.828   3.362  1.00 20.00     0.039 C 
HETATM    4  C5  UNL     1     -34.276   5.999   5.675  1.00 20.00     0.020 C 
HETATM    5  C6  UNL     1     -34.553   4.537   5.267  1.00 20.00     0.004 C 
HETATM    6  C7  UNL     1     -33.850   6.870   4.490  1.00 20.00     0.059 C 
HETATM    7  C9  UNL     1     -35.304   3.816   6.387  1.00 20.00     0.014 C 
ENDROOT
BRANCH   6   8
HETATM    8  C3  UNL     1     -32.492   6.460   3.990  1.00 20.00     0.127 C 
HETATM    9  C8  UNL     1     -31.401   7.494   4.071  1.00 20.00     0.091 C 
HETATM   10  O10 UNL     1     -32.282   5.335   3.539  1.00 20.00    -0.298 OA
ENDBRANCH   6   8
TORSDOF 1
