REMARK  3 active torsions:
REMARK  status: ('A' for Active; 'I' for Inactive)
REMARK    1  A    between atoms: C1_1  and  C2_2 
REMARK    2  A    between atoms: C4_4  and  C8_8 
REMARK    3  A    between atoms: C8_8  and  N9_9 
ROOT
HETATM    1  C1  UNL     1     -32.658   8.951   1.277  1.00 20.00    -0.015 C 
HETATM    2  C3  UNL     1     -32.585   9.822   0.454  1.00 20.00    -0.097 C 
HETATM    3  C5  UNL     1     -32.496  10.884  -0.547  1.00 20.00     0.113 C 
ENDROOT
BRANCH   1   4
HETATM    4  C2  UNL     1     -32.742   7.956   2.217  1.00 20.00    -0.013 C 
HETATM    5  C4  UNL     1     -32.815   7.085   3.041  1.00 20.00    -0.062 C 
BRANCH   5   6
HETATM    6  C8  UNL     1     -32.900   6.019   4.044  1.00 20.00     0.365 C 
BRANCH   6   7
HETATM    7  N9  UNL     1     -34.113   6.148   4.840  1.00 20.00     0.090 N 
HETATM    8  C6  UNL     1     -33.983   5.418   6.102  1.00 20.00     0.310 C 
HETATM    9  C7  UNL     1     -35.275   5.663   4.092  1.00 20.00     0.310 C 
ENDBRANCH   6   7
ENDBRANCH   5   6
ENDBRANCH   1   4
TORSDOF 3
