REMARK  1 active torsions:
REMARK  status: ('A' for Active; 'I' for Inactive)
REMARK    1  A    between atoms: C1_1  and  C2_2 
ROOT
HETATM    1  C2  UNL     1     -33.390   6.141   4.464  1.00 20.00     0.100 A 
HETATM    2  C3  UNL     1     -34.061   7.048   5.462  1.00 20.00     0.104 A 
HETATM    3  C4  UNL     1     -34.437   5.585   5.417  1.00 20.00    -0.017 A 
HETATM    4  C5  UNL     1     -33.957   4.640   6.491  1.00 20.00     0.017 C 
HETATM    5  C6  UNL     1     -35.817   5.253   4.904  1.00 20.00     0.017 C 
HETATM    6 CL9  UNL     1     -33.126   7.726   6.769  1.00 20.00    -0.123 Cl
ENDROOT
BRANCH   1   7
HETATM    7  C1  UNL     1     -33.685   6.302   3.034  1.00 20.00     0.225 C 
HETATM    8  O7  UNL     1     -34.068   5.362   2.345  1.00 20.00    -0.279 OA
HETATM    9 CL8  UNL     1     -33.426   7.933   2.493  1.00 20.00    -0.043 Cl
ENDBRANCH   1   7
TORSDOF 1
