REMARK  1 active torsions:
REMARK  status: ('A' for Active; 'I' for Inactive)
REMARK    1  A    between atoms: C5_5  and  C9_9 
ROOT
HETATM    1  C1  UNL     1     -36.106   5.114   4.218  1.00 20.00    -0.029 C 
HETATM    2  C2  UNL     1     -35.260   4.144   4.616  1.00 20.00    -0.021 C 
HETATM    3  C3  UNL     1     -34.036   5.143   6.509  1.00 20.00    -0.021 C 
HETATM    4  C4  UNL     1     -34.295   6.453   6.363  1.00 20.00    -0.024 C 
HETATM    5  C6  UNL     1     -35.723   6.584   4.291  1.00 20.00     0.036 C 
HETATM    6  C7  UNL     1     -33.886   4.508   5.145  1.00 20.00     0.045 C 
HETATM    7  C8  UNL     1     -34.309   6.810   4.890  1.00 20.00     0.026 C 
HETATM    8  C9  UNL     1     -33.341   5.731   4.386  1.00 20.00     0.106 C 
ENDROOT
BRANCH   8   9
HETATM    9  C5  UNL     1     -33.235   5.588   2.878  1.00 20.00     0.178 C 
HETATM   10  O10 UNL     1     -34.318   5.324   2.284  1.00 20.00    -0.648 OA
HETATM   11  O11 UNL     1     -32.074   5.752   2.411  1.00 20.00    -0.648 OA
ENDBRANCH   8   9
TORSDOF 1
