REMARK  1 active torsions:
REMARK  status: ('A' for Active; 'I' for Inactive)
REMARK    1  A    between atoms: C3_3  and  C7_7 
ROOT
HETATM    1  C1  UNL     1     -32.136   7.985   1.884  1.00 20.00     0.006 C 
HETATM    2  C2  UNL     1     -32.840   8.764   2.717  1.00 20.00     0.007 C 
HETATM    3  C4  UNL     1     -33.247   5.920   2.690  1.00 20.00     0.054 C 
HETATM    4  C5  UNL     1     -31.909   6.681   2.605  1.00 20.00     0.244 C 
HETATM    5  C6  UNL     1     -33.071   7.953   3.967  1.00 20.00     0.255 C 
HETATM    6  C7  UNL     1     -34.080   6.837   3.630  1.00 20.00     0.094 C 
HETATM    7  N9  UNL     1     -31.833   7.128   4.018  1.00 20.00     0.100 N 
HETATM    8  H21 UNL     1     -31.931   6.341   4.658  1.00 20.00     0.317 HD
ENDROOT
BRANCH   6   9
HETATM    9  C3  UNL     1     -34.570   6.102   4.842  1.00 20.00     0.129 C 
HETATM   10  C8  UNL     1     -34.096   6.608   6.177  1.00 20.00     0.091 C 
HETATM   11  O10 UNL     1     -35.324   5.135   4.749  1.00 20.00    -0.298 OA
ENDBRANCH   6   9
TORSDOF 1
