REMARK  1 active torsions:
REMARK  status: ('A' for Active; 'I' for Inactive)
REMARK    1  A    between atoms: C8_8  and  N10_10 
ROOT
HETATM    1  C1  UNL     1     -32.578   7.416   2.631  1.00 20.00     0.089 C 
HETATM    2  C8  UNL     1     -32.758   7.209   4.067  1.00 20.00     0.396 C 
HETATM    3  N9  UNL     1     -32.435   7.584   1.492  1.00 20.00    -0.195 NA
ENDROOT
BRANCH   2   4
HETATM    4  N10 UNL     1     -33.197   5.846   4.345  1.00 20.00     0.110 N 
HETATM    5  C5  UNL     1     -34.200   5.361   3.342  1.00 20.00     0.283 C 
HETATM    6  C6  UNL     1     -35.376   4.901   4.228  1.00 20.00     0.038 C 
HETATM    7  C2  UNL     1     -34.908   3.744   5.082  1.00 20.00    -0.022 C 
HETATM    8  C4  UNL     1     -35.359   6.001   5.283  1.00 20.00     0.050 C 
HETATM    9  C3  UNL     1     -34.013   4.245   5.948  1.00 20.00     0.005 C 
HETATM   10  C7  UNL     1     -33.902   5.726   5.651  1.00 20.00     0.247 C 
ENDBRANCH   2   4
TORSDOF 1
