REMARK  2 active torsions:
REMARK  status: ('A' for Active; 'I' for Inactive)
REMARK    1  A    between atoms: C2_2  and  C5_5 
REMARK    2  A    between atoms: C4_4  and  C8_8 
ROOT
HETATM    1  C1  UNL     1     -33.939   6.635   6.122  1.00 20.00    -0.015 C 
HETATM    2  C2  UNL     1     -33.516   6.082   4.981  1.00 20.00    -0.009 C 
HETATM    3  C6  UNL     1     -34.938   5.758   6.801  1.00 20.00     0.028 C 
HETATM    4  C7  UNL     1     -34.776   4.424   6.064  1.00 20.00     0.017 C 
HETATM    5  C8  UNL     1     -34.143   4.755   4.702  1.00 20.00     0.044 C 
ENDROOT
BRANCH   2   6
HETATM    6  C5  UNL     1     -32.531   6.718   4.121  1.00 20.00     0.152 C 
HETATM    7  C9  UNL     1     -31.621   5.836   3.294  1.00 20.00     0.096 C 
HETATM    8  O10 UNL     1     -32.431   7.951   4.067  1.00 20.00    -0.293 OA
ENDBRANCH   2   6
BRANCH   5   9
HETATM    9  C4  UNL     1     -35.160   4.816   3.607  1.00 20.00    -0.027 C 
HETATM   10  C3  UNL     1     -35.841   5.919   3.279  1.00 20.00     0.007 C 
ENDBRANCH   5   9
TORSDOF 2
