REMARK  0 active torsions:
REMARK  status: ('A' for Active; 'I' for Inactive)
ROOT
HETATM    1  C1  UNL     1     -34.500   5.373   5.393  1.00 20.00     0.223 A 
HETATM    2  C2  UNL     1     -35.789   5.425   3.398  1.00 20.00     0.128 A 
HETATM    3  C3  UNL     1     -33.839   6.357   4.499  1.00 20.00     0.092 A 
HETATM    4  C4  UNL     1     -34.646   6.379   3.221  1.00 20.00     0.026 A 
HETATM    5  C5  UNL     1     -33.183   5.971   3.190  1.00 20.00    -0.029 A 
HETATM    6  C6  UNL     1     -32.212   6.959   2.593  1.00 20.00     0.016 C 
HETATM    7  C7  UNL     1     -32.802   4.535   2.932  1.00 20.00     0.016 C 
HETATM    8  N8  UNL     1     -35.616   4.890   4.733  1.00 20.00    -0.360 N 
HETATM    9  O9  UNL     1     -34.087   5.091   6.505  1.00 20.00    -0.273 OA
HETATM   10  H20 UNL     1     -36.244   4.203   5.139  1.00 20.00     0.162 HD
ENDROOT
TORSDOF 0
