REMARK  1 active torsions:
REMARK  status: ('A' for Active; 'I' for Inactive)
REMARK    1  A    between atoms: C1_1  and  C8_8 
ROOT
HETATM    1  C2  UNL     1     -35.287   3.898   4.699  1.00 20.00     0.005 C 
HETATM    2  C3  UNL     1     -33.854   3.802   5.245  1.00 20.00     0.006 C 
HETATM    3  C4  UNL     1     -34.638   5.998   5.613  1.00 20.00     0.010 C 
HETATM    4  C5  UNL     1     -34.672   5.839   3.230  1.00 20.00     0.023 C 
HETATM    5  C6  UNL     1     -35.473   5.411   4.478  1.00 20.00    -0.013 C 
HETATM    6  C7  UNL     1     -33.364   5.259   5.178  1.00 20.00     0.003 C 
HETATM    7  C8  UNL     1     -33.203   5.736   3.707  1.00 20.00     0.036 C 
HETATM    8  C9  UNL     1     -32.362   4.822   2.816  1.00 20.00     0.025 C 
ENDROOT
BRANCH   7   9
HETATM    9  C1  UNL     1     -32.534   7.090   3.711  1.00 20.00     0.227 C 
HETATM   10  O10 UNL     1     -32.074   7.580   4.738  1.00 20.00    -0.279 OA
HETATM   11 CL11 UNL     1     -32.512   7.813   2.131  1.00 20.00    -0.043 Cl
ENDBRANCH   7   9
TORSDOF 1
