REMARK  2 active torsions:
REMARK  status: ('A' for Active; 'I' for Inactive)
REMARK    1  A    between atoms: C1_1  and  C6_6 
REMARK    2  A    between atoms: C1_1  and  O10_10 
ROOT
HETATM    1  C2  UNL     1     -35.552   4.664   5.273  1.00 20.00     0.006 C 
HETATM    2  C3  UNL     1     -34.306   4.178   6.026  1.00 20.00     0.036 C 
HETATM    3  C4  UNL     1     -35.017   5.250   3.957  1.00 20.00     0.052 C 
HETATM    4  C5  UNL     1     -33.201   5.067   5.546  1.00 20.00     0.168 A 
HETATM    5  C6  UNL     1     -33.624   5.714   4.274  1.00 20.00     0.174 A 
HETATM    6  O9  UNL     1     -33.496   6.465   5.496  1.00 20.00    -0.358 OA
ENDROOT
BRANCH   5   7
HETATM    7  C1  UNL     1     -32.658   6.096   3.250  1.00 20.00     0.296 C 
HETATM    8  O8  UNL     1     -31.875   5.318   2.722  1.00 20.00    -0.262 OA
BRANCH   7   9
HETATM    9  O10 UNL     1     -32.773   7.429   2.989  1.00 20.00    -0.324 OA
HETATM   10  C7  UNL     1     -31.878   7.942   1.997  1.00 20.00     0.213 C 
ENDBRANCH   7   9
ENDBRANCH   5   7
TORSDOF 2
