REMARK  1 active torsions:
REMARK  status: ('A' for Active; 'I' for Inactive)
REMARK    1  A    between atoms: C1_1  and  C3_3 
ROOT
HETATM    1  C1  UNL     1     -33.454   6.147   4.988  1.00 20.00    -0.007 C 
HETATM    2  C2  UNL     1     -34.043   5.218   4.221  1.00 20.00    -0.016 C 
HETATM    3  C4  UNL     1     -32.603   7.151   4.270  1.00 20.00     0.058 C 
HETATM    4  C5  UNL     1     -33.006   7.113   2.792  1.00 20.00     0.052 C 
HETATM    5  C6  UNL     1     -34.925   4.082   4.621  1.00 20.00     0.056 C 
HETATM    6  C7  UNL     1     -31.853   7.420   1.852  1.00 20.00     0.022 C 
HETATM    7  S9  UNL     1     -33.666   5.428   2.524  1.00 20.00    -0.129 SA
ENDROOT
BRANCH   1   8
HETATM    8  C3  UNL     1     -33.579   6.230   6.442  1.00 20.00     0.266 C 
HETATM    9  O8  UNL     1     -33.022   7.097   7.107  1.00 20.00    -0.302 OA
ENDBRANCH   1   8
TORSDOF 1
