REMARK  1 active torsions:
REMARK  status: ('A' for Active; 'I' for Inactive)
REMARK    1  A    between atoms: C3_3  and  C7_7 
ROOT
HETATM    1  C1  UNL     1     -34.268   5.557   5.639  1.00 20.00     0.218 C 
HETATM    2  C4  UNL     1     -35.172   4.799   4.691  1.00 20.00     0.103 C 
HETATM    3  C5  UNL     1     -34.389   4.360   3.460  1.00 20.00     0.012 C 
HETATM    4  C6  UNL     1     -33.676   5.521   2.756  1.00 20.00     0.029 C 
HETATM    5  C7  UNL     1     -33.628   6.794   3.599  1.00 20.00     0.106 C 
HETATM    6  N8  UNL     1     -33.470   6.494   5.008  1.00 20.00    -0.353 N 
HETATM    7  O9  UNL     1     -34.275   5.364   6.852  1.00 20.00    -0.274 OA
HETATM    8  H20 UNL     1     -32.783   6.965   5.529  1.00 20.00     0.163 HD
ENDROOT
BRANCH   5   9
HETATM    9  C3  UNL     1     -32.491   7.641   3.070  1.00 20.00    -0.012 C 
HETATM   10  C2  UNL     1     -32.394   8.056   1.802  1.00 20.00     0.009 C 
ENDBRANCH   5   9
TORSDOF 1
