REMARK  1 active torsions:
REMARK  status: ('A' for Active; 'I' for Inactive)
REMARK    1  A    between atoms: C1_1  and  C3_3 
ROOT
HETATM    1  C1  UNL     1     -33.666   6.083   4.903  1.00 20.00     0.163 C 
HETATM    2  C2  UNL     1     -32.866   6.311   3.847  1.00 20.00    -0.045 C 
HETATM    3  C4  UNL     1     -31.801   7.369   3.764  1.00 20.00     0.046 C 
HETATM    4  C5  UNL     1     -32.976   5.459   2.608  1.00 20.00     0.046 C 
HETATM    5  F8  UNL     1     -33.552   6.851   6.010  1.00 20.00    -0.202 F 
ENDROOT
BRANCH   1   6
HETATM    6  C3  UNL     1     -34.727   5.047   5.017  1.00 20.00     0.183 C 
HETATM    7  C6  UNL     1     -35.849   5.118   4.016  1.00 20.00     0.099 C 
HETATM    8  O7  UNL     1     -34.725   4.201   5.907  1.00 20.00    -0.290 OA
ENDBRANCH   1   6
TORSDOF 1
