REMARK  1 active torsions:
REMARK  status: ('A' for Active; 'I' for Inactive)
REMARK    1  A    between atoms: C1_1  and  C4_4 
ROOT
HETATM    1  C1  UNL     1     -32.266   7.438   2.243  1.00 20.00    -0.049 C 
HETATM    2  C2  UNL     1     -32.403   8.303   1.423  1.00 20.00     0.008 C 
HETATM    3 CL8  UNL     1     -32.602   9.567   0.223  1.00 20.00    -0.023 Cl
ENDROOT
BRANCH   1   4
HETATM    4  C4  UNL     1     -32.103   6.405   3.223  1.00 20.00     0.147 A 
HETATM    5  C3  UNL     1     -33.307   5.834   3.944  1.00 20.00     0.166 A 
HETATM    6  C5  UNL     1     -34.704   6.280   3.688  1.00 20.00     0.044 C 
HETATM    7  O7  UNL     1     -32.470   6.825   4.548  1.00 20.00    -0.356 OA
HETATM    8  C6  UNL     1     -30.836   5.613   3.179  1.00 20.00     0.063 C 
ENDBRANCH   1   4
TORSDOF 1
