REMARK  1 active torsions:
REMARK  status: ('A' for Active; 'I' for Inactive)
REMARK    1  A    between atoms: C1_1  and  C4_4 
ROOT
HETATM    1  C2  UNL     1     -34.746   4.494   3.444  1.00 20.00     0.041 A 
HETATM    2  C3  UNL     1     -35.632   5.701   3.504  1.00 20.00     0.100 A 
HETATM    3  C4  UNL     1     -34.435   5.607   4.427  1.00 20.00     0.050 A 
HETATM    4  C5  UNL     1     -33.259   6.495   4.108  1.00 20.00     0.026 C 
HETATM    5 CL8  UNL     1     -37.266   5.531   4.095  1.00 20.00    -0.124 Cl
ENDROOT
BRANCH   3   6
HETATM    6  C1  UNL     1     -34.661   5.310   5.861  1.00 20.00     0.228 C 
HETATM    7  O6  UNL     1     -34.440   6.143   6.735  1.00 20.00    -0.279 OA
HETATM    8 CL7  UNL     1     -35.254   3.696   6.109  1.00 20.00    -0.043 Cl
ENDBRANCH   3   6
TORSDOF 1
