REMARK  2 active torsions:
REMARK  status: ('A' for Active; 'I' for Inactive)
REMARK    1  A    between atoms: C4_4  and  C5_5 
REMARK    2  A    between atoms: C9_9  and  C11_11 
ROOT
HETATM    1  C1  UNL     1     -32.683   9.308  -0.005  1.00 20.00     0.012 C 
HETATM    2  C2  UNL     1     -32.805   9.147   1.178  1.00 20.00    -0.117 C 
HETATM    3  C11 UNL     1     -32.962   8.955   2.622  1.00 20.00     0.098 C 
ENDROOT
BRANCH   3   4
HETATM    4  C9  UNL     1     -31.816   8.115   3.194  1.00 20.00     0.000 C 
HETATM    5  C6  UNL     1     -31.948   7.945   4.720  1.00 20.00     0.033 C 
HETATM    6  C3  UNL     1     -32.883   6.843   5.134  1.00 20.00    -0.016 C 
HETATM    7  C4  UNL     1     -33.322   5.908   4.279  1.00 20.00    -0.016 C 
HETATM    8  C7  UNL     1     -32.919   5.838   2.837  1.00 20.00     0.042 C 
HETATM    9  C8  UNL     1     -31.725   6.742   2.511  1.00 20.00     0.010 C 
BRANCH   7  10
HETATM   10  C5  UNL     1     -34.236   4.888   4.797  1.00 20.00     0.151 C 
HETATM   11  C10 UNL     1     -34.112   4.494   6.247  1.00 20.00     0.096 C 
HETATM   12  O12 UNL     1     -35.076   4.365   4.061  1.00 20.00    -0.293 OA
ENDBRANCH   7  10
ENDBRANCH   3   4
TORSDOF 2
