REMARK  0 active torsions:
REMARK  status: ('A' for Active; 'I' for Inactive)
ROOT
HETATM    1  C1  UNL     1     -32.198   8.330   1.136  1.00 20.00     0.012 C 
HETATM    2  C2  UNL     1     -32.511   7.523   1.968  1.00 20.00    -0.112 C 
HETATM    3  C3  UNL     1     -34.637   4.823   3.590  1.00 20.00    -0.015 C 
HETATM    4  C4  UNL     1     -34.451   5.020   4.904  1.00 20.00    -0.020 C 
HETATM    5  C5  UNL     1     -33.685   6.223   5.351  1.00 20.00     0.156 C 
HETATM    6  C6  UNL     1     -34.077   5.692   2.504  1.00 20.00     0.045 C 
HETATM    7  C7  UNL     1     -33.237   7.224   4.306  1.00 20.00     0.101 C 
HETATM    8  C8  UNL     1     -32.895   6.534   2.988  1.00 20.00     0.075 C 
HETATM    9  C9  UNL     1     -34.998   4.111   5.959  1.00 20.00     0.052 C 
HETATM   10  O10 UNL     1     -33.480   6.425   6.547  1.00 20.00    -0.293 OA
ENDROOT
TORSDOF 0
