REMARK  1 active torsions:
REMARK  status: ('A' for Active; 'I' for Inactive)
REMARK    1  A    between atoms: C1_1  and  C9_9 
ROOT
HETATM    1  C2  UNL     1     -35.831   4.937   4.161  1.00 20.00     0.002 C 
HETATM    2  C3  UNL     1     -35.220   4.242   5.383  1.00 20.00     0.005 C 
HETATM    3  C4  UNL     1     -34.517   6.477   6.389  1.00 20.00     0.006 C 
HETATM    4  C5  UNL     1     -34.779   5.616   3.276  1.00 20.00     0.018 C 
HETATM    5  C6  UNL     1     -34.277   7.308   5.118  1.00 20.00     0.019 C 
HETATM    6  C7  UNL     1     -32.989   5.297   4.993  1.00 20.00     0.023 C 
HETATM    7  C8  UNL     1     -34.080   5.049   6.031  1.00 20.00    -0.013 C 
HETATM    8  C9  UNL     1     -33.684   6.322   4.095  1.00 20.00     0.036 C 
ENDROOT
BRANCH   8   9
HETATM    9  C1  UNL     1     -32.709   6.996   3.178  1.00 20.00     0.227 C 
HETATM   10  O10 UNL     1     -31.517   6.702   3.175  1.00 20.00    -0.279 OA
HETATM   11 CL11 UNL     1     -33.473   8.189   2.174  1.00 20.00    -0.043 Cl
ENDBRANCH   8   9
TORSDOF 1
