REMARK  1 active torsions:
REMARK  status: ('A' for Active; 'I' for Inactive)
REMARK    1  A    between atoms: C2_2  and  C3_3 
ROOT
HETATM    1  C1  UNL     1     -33.609   6.802   5.698  1.00 20.00    -0.015 C 
HETATM    2  C2  UNL     1     -33.618   6.383   4.430  1.00 20.00    -0.012 C 
HETATM    3  C4  UNL     1     -34.410   5.887   6.567  1.00 20.00     0.032 C 
HETATM    4  C5  UNL     1     -34.422   5.134   4.228  1.00 20.00     0.022 C 
HETATM    5  C6  UNL     1     -34.537   4.631   5.688  1.00 20.00    -0.007 C 
HETATM    6  C8  UNL     1     -35.748   5.432   3.534  1.00 20.00     0.015 C 
HETATM    7  C9  UNL     1     -35.767   3.800   6.024  1.00 20.00     0.011 C 
ENDROOT
BRANCH   2   8
HETATM    8  C3  UNL     1     -32.909   7.076   3.368  1.00 20.00     0.151 C 
HETATM    9  C7  UNL     1     -31.408   7.229   3.485  1.00 20.00     0.096 C 
HETATM   10  O10 UNL     1     -33.514   7.538   2.390  1.00 20.00    -0.293 OA
ENDBRANCH   2   8
TORSDOF 1
