REMARK  0 active torsions:
REMARK  status: ('A' for Active; 'I' for Inactive)
ROOT
HETATM    1  C1  UNL     1     -35.026   4.725   4.163  1.00 20.00     0.057 C 
HETATM    2  C2  UNL     1     -32.769   6.911   2.218  1.00 20.00    -0.019 C 
HETATM    3  C3  UNL     1     -33.582   6.383   3.141  1.00 20.00    -0.051 C 
HETATM    4  C4  UNL     1     -34.470   5.244   3.054  1.00 20.00    -0.052 C 
HETATM    5  C5  UNL     1     -34.681   5.242   5.519  1.00 20.00     0.150 C 
HETATM    6  C6  UNL     1     -32.023   8.091   2.754  1.00 20.00     0.028 C 
HETATM    7  C7  UNL     1     -33.559   6.255   5.640  1.00 20.00     0.092 C 
HETATM    8  C8  UNL     1     -32.233   7.962   4.265  1.00 20.00     0.013 C 
HETATM    9  C9  UNL     1     -33.530   7.165   4.422  1.00 20.00     0.026 C 
HETATM   10  C10 UNL     1     -34.773   4.676   1.697  1.00 20.00     0.049 C 
HETATM   11  O11 UNL     1     -35.256   4.790   6.508  1.00 20.00    -0.293 OA
ENDROOT
TORSDOF 0
