REMARK  2 active torsions:
REMARK  status: ('A' for Active; 'I' for Inactive)
REMARK    1  A    between atoms: C3_3  and  C4_4 
REMARK    2  A    between atoms: C3_3  and  O10_10 
ROOT
HETATM    1  C1  UNL     1     -33.457   5.364   4.772  1.00 20.00    -0.065 A 
HETATM    2  C2  UNL     1     -33.621   4.062   4.860  1.00 20.00    -0.027 C 
HETATM    3  C4  UNL     1     -32.654   6.416   4.277  1.00 20.00     0.122 A 
HETATM    4  C5  UNL     1     -33.967   6.632   5.115  1.00 20.00     0.029 A 
HETATM    5  C6  UNL     1     -34.762   3.388   5.572  1.00 20.00     0.036 C 
HETATM    6  C7  UNL     1     -33.889   7.146   6.508  1.00 20.00     0.016 C 
ENDROOT
BRANCH   3   7
HETATM    7  C3  UNL     1     -32.694   6.617   2.829  1.00 20.00     0.267 C 
HETATM    8  O9  UNL     1     -33.003   5.749   2.024  1.00 20.00    -0.265 OA
BRANCH   7   9
HETATM    9  O10 UNL     1     -32.338   7.901   2.537  1.00 20.00    -0.326 OA
HETATM   10  C8  UNL     1     -32.334   8.237   1.146  1.00 20.00     0.213 C 
ENDBRANCH   7   9
ENDBRANCH   3   7
TORSDOF 2
