REMARK  0 active torsions:
REMARK  status: ('A' for Active; 'I' for Inactive)
ROOT
HETATM    1  C1  UNL     1     -34.234   5.194   2.563  1.00 20.00     0.012 C 
HETATM    2  C2  UNL     1     -35.115   5.351   3.806  1.00 20.00     0.077 C 
HETATM    3  C3  UNL     1     -32.943   6.036   2.572  1.00 20.00     0.082 C 
HETATM    4  C4  UNL     1     -33.057   6.194   5.050  1.00 20.00     0.264 A 
HETATM    5  C5  UNL     1     -34.287   5.335   5.047  1.00 20.00     0.237 A 
HETATM    6  C6  UNL     1     -32.787   6.937   3.790  1.00 20.00     0.274 C 
HETATM    7  O7  UNL     1     -34.236   6.571   5.768  1.00 20.00    -0.332 OA
HETATM    8  F8  UNL     1     -34.242   4.166   5.790  1.00 20.00    -0.209 F 
HETATM    9  F9  UNL     1     -33.630   7.997   3.677  1.00 20.00    -0.203 F 
HETATM   10  F10 UNL     1     -31.531   7.449   3.818  1.00 20.00    -0.203 F 
ENDROOT
TORSDOF 0
