REMARK  0 active torsions:
REMARK  status: ('A' for Active; 'I' for Inactive)
ROOT
HETATM    1  C1  UNL     1     -31.645   6.953   3.582  1.00 20.00    -0.014 C 
HETATM    2  C2  UNL     1     -32.079   5.710   3.312  1.00 20.00    -0.004 C 
HETATM    3  C3  UNL     1     -34.039   6.225   5.617  1.00 20.00     0.203 A 
HETATM    4  C4  UNL     1     -32.694   7.809   4.237  1.00 20.00     0.126 C 
HETATM    5  C5  UNL     1     -33.875   4.823   4.997  1.00 20.00     0.126 A 
HETATM    6  C6  UNL     1     -33.512   5.560   3.689  1.00 20.00     0.042 A 
HETATM    7  C7  UNL     1     -34.463   5.401   2.518  1.00 20.00     0.038 C 
HETATM    8  N8  UNL     1     -33.754   6.830   4.422  1.00 20.00    -0.237 NA
HETATM    9  O9  UNL     1     -34.217   6.663   6.732  1.00 20.00    -0.280 OA
ENDROOT
TORSDOF 0
