REMARK  1 active torsions:
REMARK  status: ('A' for Active; 'I' for Inactive)
REMARK    1  A    between atoms: C5_5  and  C7_7 
ROOT
HETATM    1  C1  UNL     1     -34.437   4.966   6.335  1.00 20.00    -0.003 A 
HETATM    2  C2  UNL     1     -34.430   6.409   6.467  1.00 20.00    -0.003 A 
HETATM    3  C3  UNL     1     -34.112   4.661   5.065  1.00 20.00    -0.012 A 
HETATM    4  C4  UNL     1     -34.100   6.937   5.274  1.00 20.00    -0.012 A 
HETATM    5  C6  UNL     1     -34.295   6.015   2.857  1.00 20.00     0.032 A 
HETATM    6  C7  UNL     1     -32.824   5.944   3.207  1.00 20.00     0.072 A 
HETATM    7  C8  UNL     1     -33.866   5.880   4.280  1.00 20.00     0.006 A 
ENDROOT
BRANCH   6   8
HETATM    8  C5  UNL     1     -31.990   7.141   3.031  1.00 20.00     0.128 C 
HETATM    9  C9  UNL     1     -32.041   7.809   1.684  1.00 20.00     0.091 C 
HETATM   10  O10 UNL     1     -31.288   7.576   3.942  1.00 20.00    -0.298 OA
ENDBRANCH   6   8
TORSDOF 1
