REMARK  1 active torsions:
REMARK  status: ('A' for Active; 'I' for Inactive)
REMARK    1  A    between atoms: C2_2  and  C3_3 
ROOT
HETATM    1  C1  UNL     1     -33.342   5.622   2.672  1.00 20.00    -0.010 A 
HETATM    2  C2  UNL     1     -33.447   5.903   3.980  1.00 20.00    -0.016 A 
HETATM    3  C4  UNL     1     -32.414   6.916   4.385  1.00 20.00     0.048 A 
HETATM    4  C5  UNL     1     -32.242   6.345   2.008  1.00 20.00     0.022 A 
HETATM    5  C6  UNL     1     -31.628   7.195   3.116  1.00 20.00     0.007 A 
HETATM    6  C7  UNL     1     -32.203   7.853   1.872  1.00 20.00    -0.036 A 
HETATM    7  C9  UNL     1     -31.211   8.418   0.882  1.00 20.00     0.016 C 
HETATM    8  C10 UNL     1     -33.472   8.663   1.957  1.00 20.00     0.016 C 
ENDROOT
BRANCH   2   9
HETATM    9  C3  UNL     1     -34.437   5.329   4.870  1.00 20.00     0.151 C 
HETATM   10  C8  UNL     1     -34.081   5.152   6.332  1.00 20.00     0.096 C 
HETATM   11  O11 UNL     1     -35.552   4.979   4.452  1.00 20.00    -0.293 OA
ENDBRANCH   2   9
TORSDOF 1
