REMARK  1 active torsions:
REMARK  status: ('A' for Active; 'I' for Inactive)
REMARK    1  A    between atoms: C1_1  and  C4_4 
ROOT
HETATM    1  C1  UNL     1     -33.220   6.315   3.902  1.00 20.00    -0.068 C 
HETATM    2  C2  UNL     1     -32.888   7.115   3.070  1.00 20.00    -0.108 C 
HETATM    3  C6  UNL     1     -32.484   8.090   2.058  1.00 20.00     0.112 C 
ENDROOT
BRANCH   1   4
HETATM    4  C4  UNL     1     -33.621   5.349   4.908  1.00 20.00     0.129 C 
HETATM    5  C5  UNL     1     -35.103   4.824   4.814  1.00 20.00     0.016 C 
HETATM    6  C3  UNL     1     -35.169   5.271   6.291  1.00 20.00     0.182 C 
HETATM    7  C8  UNL     1     -35.303   3.326   4.602  1.00 20.00     0.021 C 
HETATM    8  C9  UNL     1     -36.069   5.625   3.932  1.00 20.00     0.021 C 
HETATM    9  O10 UNL     1     -33.951   6.047   6.146  1.00 20.00    -0.366 OA
HETATM   10  C7  UNL     1     -32.498   4.348   5.170  1.00 20.00     0.061 C 
ENDBRANCH   1   4
TORSDOF 1
