REMARK  0 active torsions:
REMARK  status: ('A' for Active; 'I' for Inactive)
ROOT
HETATM    1  C1  UNL     1     -34.059   5.399   2.437  1.00 20.00     0.011 C 
HETATM    2  C2  UNL     1     -35.047   3.728   4.176  1.00 20.00     0.011 C 
HETATM    3  C3  UNL     1     -33.099   6.167   2.992  1.00 20.00     0.007 C 
HETATM    4  C4  UNL     1     -35.007   3.928   5.509  1.00 20.00     0.007 C 
HETATM    5  C5  UNL     1     -33.114   6.942   5.669  1.00 20.00     0.042 C 
HETATM    6  C6  UNL     1     -33.953   6.095   6.678  1.00 20.00     0.042 C 
HETATM    7  C7  UNL     1     -35.125   5.043   3.450  1.00 20.00     0.270 C 
HETATM    8  C8  UNL     1     -33.312   6.090   4.451  1.00 20.00     0.247 C 
HETATM    9  C9  UNL     1     -35.056   5.400   5.835  1.00 20.00     0.247 C 
HETATM   10  N10 UNL     1     -34.808   6.010   4.523  1.00 20.00     0.116 N 
ENDROOT
TORSDOF 0
