REMARK  1 active torsions:
REMARK  status: ('A' for Active; 'I' for Inactive)
REMARK    1  A    between atoms: C5_5  and  C9_9 
ROOT
HETATM    1  C1  UNL     1     -31.793   6.627   3.468  1.00 20.00    -0.021 C 
HETATM    2  C2  UNL     1     -32.061   5.311   3.430  1.00 20.00    -0.024 C 
HETATM    3  C3  UNL     1     -34.146   7.164   3.961  1.00 20.00    -0.065 C 
HETATM    4  C4  UNL     1     -34.733   8.148   4.651  1.00 20.00     0.016 C 
HETATM    5  C6  UNL     1     -33.456   6.317   1.903  1.00 20.00     0.023 C 
HETATM    6  C7  UNL     1     -33.018   7.344   2.953  1.00 20.00     0.038 C 
HETATM    7  C8  UNL     1     -33.481   5.152   2.907  1.00 20.00     0.028 C 
HETATM    8  C9  UNL     1     -34.508   5.672   3.966  1.00 20.00     0.046 C 
HETATM    9  C11 UNL     1     -35.958   5.403   3.556  1.00 20.00     0.029 C 
ENDROOT
BRANCH   8  10
HETATM   10  C5  UNL     1     -34.264   5.070   5.327  1.00 20.00     0.136 C 
HETATM   11  C10 UNL     1     -33.737   5.994   6.391  1.00 20.00     0.092 C 
HETATM   12  O12 UNL     1     -34.487   3.882   5.557  1.00 20.00    -0.297 OA
ENDBRANCH   8  10
TORSDOF 1
