REMARK  1 active torsions:
REMARK  status: ('A' for Active; 'I' for Inactive)
REMARK    1  A    between atoms: C1_1  and  C6_6 
ROOT
HETATM    1  C2  UNL     1     -33.830   6.243   5.436  1.00 20.00     0.010 C 
HETATM    2  C3  UNL     1     -35.312   4.250   4.967  1.00 20.00     0.010 C 
HETATM    3  C4  UNL     1     -33.293   4.380   3.821  1.00 20.00     0.010 C 
HETATM    4  C5  UNL     1     -35.959   6.471   4.113  1.00 20.00     0.010 C 
HETATM    5  C6  UNL     1     -33.977   6.626   2.917  1.00 20.00     0.081 C 
HETATM    6  C7  UNL     1     -33.870   4.704   5.199  1.00 20.00    -0.013 C 
HETATM    7  C8  UNL     1     -34.541   7.024   4.286  1.00 20.00    -0.001 C 
HETATM    8  C9  UNL     1     -35.654   5.025   3.686  1.00 20.00    -0.009 C 
HETATM    9  C10 UNL     1     -34.284   5.120   2.907  1.00 20.00     0.003 C 
ENDROOT
BRANCH   5  10
HETATM   10  C1  UNL     1     -32.545   7.009   2.709  1.00 20.00     0.223 C 
HETATM   11  O11 UNL     1     -31.655   6.608   3.453  1.00 20.00    -0.279 OA
HETATM   12 CL12 UNL     1     -32.339   8.049   1.332  1.00 20.00    -0.043 Cl
ENDBRANCH   5  10
TORSDOF 1
