REMARK  2 active torsions:
REMARK  status: ('A' for Active; 'I' for Inactive)
REMARK    1  A    between atoms: C3_3  and  C9_9 
REMARK    2  A    between atoms: C9_9  and  N10_10 
ROOT
HETATM    1  C1  UNL     1     -33.245   6.250   4.117  1.00 20.00     0.040 C 
HETATM    2  C4  UNL     1     -33.455   4.997   3.301  1.00 20.00     0.057 C 
HETATM    3  C5  UNL     1     -34.851   4.445   3.570  1.00 20.00     0.006 C 
HETATM    4  C6  UNL     1     -35.118   4.278   5.067  1.00 20.00     0.004 C 
HETATM    5  C7  UNL     1     -34.916   5.593   5.819  1.00 20.00     0.043 C 
HETATM    6  C8  UNL     1     -33.522   6.164   5.596  1.00 20.00     0.217 C 
HETATM    7  N10 UNL     1     -32.815   7.350   3.592  1.00 20.00    -0.292 NA
HETATM    8  F11 UNL     1     -33.453   7.384   6.195  1.00 20.00    -0.243 F 
ENDROOT
BRANCH   7   9
HETATM    9  C9  UNL     1     -32.555   7.272   2.163  1.00 20.00     0.175 C 
BRANCH   9  10
HETATM   10  C3  UNL     1     -31.997   8.573   1.684  1.00 20.00    -0.015 C 
HETATM   11  C2  UNL     1     -32.562   9.322   0.730  1.00 20.00     0.008 C 
ENDBRANCH   9  10
ENDBRANCH   7   9
TORSDOF 2
