REMARK  2 active torsions:
REMARK  status: ('A' for Active; 'I' for Inactive)
REMARK    1  A    between atoms: C3_3  and  C4_4 
REMARK    2  A    between atoms: C3_3  and  O10_10 
ROOT
HETATM    1  C1  UNL     1     -34.067   6.078   5.658  1.00 20.00    -0.066 A 
HETATM    2  C2  UNL     1     -34.090   7.003   6.594  1.00 20.00     0.016 C 
HETATM    3  C4  UNL     1     -33.310   5.466   4.635  1.00 20.00     0.126 A 
HETATM    4  C5  UNL     1     -34.789   5.037   5.023  1.00 20.00    -0.008 A 
HETATM    5  C6  UNL     1     -35.933   5.404   4.117  1.00 20.00     0.021 C 
HETATM    6  C7  UNL     1     -34.962   3.732   5.751  1.00 20.00     0.021 C 
ENDROOT
BRANCH   3   7
HETATM    7  C3  UNL     1     -33.060   6.284   3.447  1.00 20.00     0.267 C 
HETATM    8  O9  UNL     1     -33.718   6.216   2.418  1.00 20.00    -0.264 OA
BRANCH   7   9
HETATM    9  O10 UNL     1     -32.000   7.111   3.677  1.00 20.00    -0.326 OA
HETATM   10  C8  UNL     1     -31.645   7.971   2.590  1.00 20.00     0.213 C 
ENDBRANCH   7   9
ENDBRANCH   3   7
TORSDOF 2
