REMARK  0 active torsions:
REMARK  status: ('A' for Active; 'I' for Inactive)
ROOT
HETATM    1  C1  UNL     1     -32.687   7.295   3.064  1.00 20.00     0.066 C 
HETATM    2  C2  UNL     1     -34.334   4.207   5.764  1.00 20.00     0.031 C 
HETATM    3  C3  UNL     1     -34.787   4.407   4.315  1.00 20.00     0.009 C 
HETATM    4  C4  UNL     1     -34.676   5.414   6.648  1.00 20.00     0.272 C 
HETATM    5  C5  UNL     1     -33.100   6.881   5.483  1.00 20.00     0.292 C 
HETATM    6  C6  UNL     1     -35.312   6.793   4.788  1.00 20.00     0.278 C 
HETATM    7  C7  UNL     1     -33.101   6.292   4.060  1.00 20.00     0.127 C 
HETATM    8  C8  UNL     1     -34.563   5.857   3.845  1.00 20.00     0.033 C 
HETATM    9  N9  UNL     1     -32.361   8.086   2.280  1.00 20.00    -0.197 NA
HETATM   10  N10 UNL     1     -34.479   6.729   6.003  1.00 20.00     0.090 N 
ENDROOT
TORSDOF 0
