REMARK  2 active torsions:
REMARK  status: ('A' for Active; 'I' for Inactive)
REMARK    1  A    between atoms: C3_3  and  C5_5 
REMARK    2  A    between atoms: C3_3  and  O11_11 
ROOT
HETATM    1  C1  UNL     1     -30.882   4.250   3.092  1.00 20.00     0.012 C 
HETATM    2  C2  UNL     1     -31.708   5.002   2.655  1.00 20.00    -0.111 C 
HETATM    3  C4  UNL     1     -32.697   5.902   2.132  1.00 20.00     0.087 A 
HETATM    4  C5  UNL     1     -33.807   6.421   3.016  1.00 20.00     0.111 A 
HETATM    5  C6  UNL     1     -32.712   7.363   2.547  1.00 20.00    -0.019 A 
HETATM    6  C7  UNL     1     -33.079   8.376   1.490  1.00 20.00     0.017 C 
HETATM    7  C8  UNL     1     -31.695   7.881   3.537  1.00 20.00     0.017 C 
ENDROOT
BRANCH   4   8
HETATM    8  C3  UNL     1     -33.913   6.022   4.427  1.00 20.00     0.264 C 
HETATM    9  O10 UNL     1     -33.482   6.685   5.361  1.00 20.00    -0.265 OA
BRANCH   8  10
HETATM   10  O11 UNL     1     -34.554   4.822   4.515  1.00 20.00    -0.326 OA
HETATM   11  C9  UNL     1     -34.726   4.312   5.841  1.00 20.00     0.213 C 
ENDBRANCH   8  10
ENDBRANCH   4   8
TORSDOF 2
