REMARK  0 active torsions:
REMARK  status: ('A' for Active; 'I' for Inactive)
ROOT
HETATM    1  C1  UNL     1     -34.529   5.419   6.552  1.00 20.00     0.057 C 
HETATM    2  C2  UNL     1     -32.682   6.997   3.767  1.00 20.00    -0.019 C 
HETATM    3  C3  UNL     1     -33.573   6.347   4.527  1.00 20.00    -0.051 C 
HETATM    4  C4  UNL     1     -33.723   6.322   5.965  1.00 20.00    -0.052 C 
HETATM    5  C5  UNL     1     -35.223   4.365   5.757  1.00 20.00     0.150 C 
HETATM    6  C6  UNL     1     -32.899   6.723   2.313  1.00 20.00     0.028 C 
HETATM    7  C7  UNL     1     -34.868   4.219   4.290  1.00 20.00     0.092 C 
HETATM    8  C8  UNL     1     -33.826   5.505   2.334  1.00 20.00     0.013 C 
HETATM    9  C9  UNL     1     -34.547   5.576   3.683  1.00 20.00     0.026 C 
HETATM   10  C10 UNL     1     -32.978   7.340   6.779  1.00 20.00     0.049 C 
HETATM   11  O11 UNL     1     -36.005   3.596   6.313  1.00 20.00    -0.293 OA
ENDROOT
TORSDOF 0
