REMARK  1 active torsions:
REMARK  status: ('A' for Active; 'I' for Inactive)
REMARK    1  A    between atoms: C1_1  and  C6_6 
ROOT
HETATM    1  C2  UNL     1     -34.784   5.529   6.249  1.00 20.00     0.002 C 
HETATM    2  C3  UNL     1     -33.615   6.074   5.431  1.00 20.00     0.013 C 
HETATM    3  C4  UNL     1     -35.026   4.047   5.969  1.00 20.00     0.020 C 
HETATM    4  C5  UNL     1     -34.041   4.323   3.656  1.00 20.00     0.033 C 
HETATM    5  C6  UNL     1     -33.802   5.809   3.936  1.00 20.00     0.073 C 
HETATM    6  C7  UNL     1     -35.218   3.791   4.474  1.00 20.00     0.083 C 
HETATM    7 CL10 UNL     1     -35.421   2.041   4.179  1.00 20.00    -0.125 Cl
ENDROOT
BRANCH   5   8
HETATM    8  C1  UNL     1     -32.588   6.279   3.196  1.00 20.00     0.223 C 
HETATM    9  O8  UNL     1     -31.893   7.200   3.615  1.00 20.00    -0.279 OA
HETATM   10 CL9  UNL     1     -32.324   5.378   1.734  1.00 20.00    -0.043 Cl
ENDBRANCH   5   8
TORSDOF 1
