REMARK  1 active torsions:
REMARK  status: ('A' for Active; 'I' for Inactive)
REMARK    1  A    between atoms: C2_2  and  C3_3 
ROOT
HETATM    1  C1  UNL     1     -32.943   5.696   3.708  1.00 20.00    -0.007 C 
HETATM    2  C2  UNL     1     -33.717   5.664   4.795  1.00 20.00    -0.012 C 
HETATM    3  C4  UNL     1     -33.213   7.942   4.445  1.00 20.00     0.022 C 
HETATM    4  C5  UNL     1     -33.842   6.985   5.478  1.00 20.00     0.019 C 
HETATM    5  C6  UNL     1     -32.393   7.073   3.457  1.00 20.00    -0.029 C 
HETATM    6  C8  UNL     1     -33.126   7.024   6.824  1.00 20.00     0.015 C 
HETATM    7  C9  UNL     1     -32.635   7.513   2.010  1.00 20.00     0.019 C 
HETATM    8  C10 UNL     1     -30.894   7.120   3.771  1.00 20.00     0.019 C 
ENDROOT
BRANCH   2   9
HETATM    9  C3  UNL     1     -34.378   4.450   5.246  1.00 20.00     0.151 C 
HETATM   10  C7  UNL     1     -34.778   3.420   4.212  1.00 20.00     0.096 C 
HETATM   11  O11 UNL     1     -34.619   4.261   6.447  1.00 20.00    -0.293 OA
ENDBRANCH   2   9
TORSDOF 1
