REMARK  2 active torsions:
REMARK  status: ('A' for Active; 'I' for Inactive)
REMARK    1  A    between atoms: C1_1  and  C10_10 
REMARK    2  A    between atoms: C1_1  and  C11_11 
ROOT
HETATM    1  C2  UNL     1     -35.267   4.045   4.593  1.00 20.00     0.009 C 
HETATM    2  C3  UNL     1     -34.319   5.750   6.193  1.00 20.00     0.010 C 
HETATM    3  C4  UNL     1     -35.651   6.516   4.256  1.00 20.00     0.010 C 
HETATM    4  C5  UNL     1     -32.829   4.686   4.750  1.00 20.00     0.022 C 
HETATM    5  C6  UNL     1     -34.163   5.454   2.812  1.00 20.00     0.022 C 
HETATM    6  C7  UNL     1     -34.091   4.376   5.560  1.00 20.00    -0.013 C 
HETATM    7  C8  UNL     1     -35.479   5.175   3.542  1.00 20.00    -0.013 C 
HETATM    8  C9  UNL     1     -34.286   6.652   4.949  1.00 20.00     0.002 C 
HETATM    9  C10 UNL     1     -33.286   5.929   3.979  1.00 20.00     0.026 C 
ENDROOT
BRANCH   9  10
HETATM   10  C1  UNL     1     -32.157   6.797   3.529  1.00 20.00     0.149 C 
HETATM   11  O12 UNL     1     -31.386   7.296   4.347  1.00 20.00    -0.296 OA
BRANCH  10  12
HETATM   12  C11 UNL     1     -32.044   7.006   2.036  1.00 20.00     0.193 C 
HETATM   13 CL13 UNL     1     -32.988   8.414   1.528  1.00 20.00    -0.123 Cl
ENDBRANCH  10  12
ENDBRANCH   9  10
TORSDOF 2
