REMARK  0 active torsions:
REMARK  status: ('A' for Active; 'I' for Inactive)
ROOT
HETATM    1  C1  UNL     1     -31.867   7.440   2.922  1.00 20.00     0.004 A 
HETATM    2  C2  UNL     1     -32.676   6.442   2.528  1.00 20.00     0.031 A 
HETATM    3  C3  UNL     1     -31.840   7.858   4.307  1.00 20.00     0.017 A 
HETATM    4  C4  UNL     1     -35.116   4.770   6.432  1.00 20.00     0.044 A 
HETATM    5  C5  UNL     1     -34.368   4.763   3.085  1.00 20.00     0.146 A 
HETATM    6  C6  UNL     1     -32.632   7.228   5.189  1.00 20.00     0.093 A 
HETATM    7  C7  UNL     1     -33.542   5.756   3.489  1.00 20.00     0.053 A 
HETATM    8  C8  UNL     1     -34.276   5.616   5.835  1.00 20.00     0.136 A 
HETATM    9  C9  UNL     1     -35.050   4.523   5.101  1.00 20.00     0.069 A 
HETATM   10  N10 UNL     1     -35.194   4.080   3.953  1.00 20.00    -0.260 NA
HETATM   11  N11 UNL     1     -33.492   6.178   4.857  1.00 20.00    -0.333 N 
ENDROOT
TORSDOF 0
