REMARK  1 active torsions:
REMARK  status: ('A' for Active; 'I' for Inactive)
REMARK    1  A    between atoms: C1_1  and  C5_5 
ROOT
HETATM    1  C2  UNL     1     -32.345   6.571   4.199  1.00 20.00     0.026 C 
HETATM    2  C3  UNL     1     -34.110   7.372   3.325  1.00 20.00     0.026 C 
HETATM    3  C4  UNL     1     -33.278   5.564   2.575  1.00 20.00     0.026 C 
HETATM    4  C5  UNL     1     -33.770   6.009   3.975  1.00 20.00     0.022 C 
HETATM    5  C6  UNL     1     -32.687   7.026   2.721  1.00 20.00    -0.041 C 
HETATM    6  C8  UNL     1     -31.863   7.800   1.768  1.00 20.00     0.015 C 
ENDROOT
BRANCH   4   7
HETATM    7  C1  UNL     1     -34.599   5.233   4.936  1.00 20.00     0.131 C 
HETATM    8  C7  UNL     1     -35.011   3.849   4.511  1.00 20.00     0.091 C 
HETATM    9  O9  UNL     1     -34.930   5.699   6.025  1.00 20.00    -0.298 OA
ENDBRANCH   4   7
TORSDOF 1
