REMARK  1 active torsions:
REMARK  status: ('A' for Active; 'I' for Inactive)
REMARK    1  A    between atoms: C2_2  and  C3_3 
ROOT
HETATM    1  C1  UNL     1     -33.388   6.768   5.128  1.00 20.00    -0.009 C 
HETATM    2  C2  UNL     1     -33.044   5.867   4.159  1.00 20.00    -0.007 C 
HETATM    3  C4  UNL     1     -35.230   3.742   6.301  1.00 20.00     0.002 C 
HETATM    4  C5  UNL     1     -35.135   5.246   6.680  1.00 20.00     0.009 C 
HETATM    5  C6  UNL     1     -34.323   3.576   5.042  1.00 20.00     0.015 C 
HETATM    6  C7  UNL     1     -33.873   5.607   5.952  1.00 20.00     0.021 C 
HETATM    7  C8  UNL     1     -34.237   5.005   4.530  1.00 20.00    -0.007 C 
HETATM    8  C10 UNL     1     -35.481   5.364   3.691  1.00 20.00     0.021 C 
ENDROOT
BRANCH   2   9
HETATM    9  C3  UNL     1     -32.234   6.094   2.972  1.00 20.00     0.152 C 
HETATM   10  C9  UNL     1     -31.987   4.932   2.036  1.00 20.00     0.096 C 
HETATM   11  O11 UNL     1     -31.750   7.209   2.734  1.00 20.00    -0.293 OA
ENDBRANCH   2   9
TORSDOF 1
