REMARK  3 active torsions:
REMARK  status: ('A' for Active; 'I' for Inactive)
REMARK    1  A    between atoms: C1_1  and  C2_2 
REMARK    2  A    between atoms: C4_4  and  C9_9 
REMARK    3  A    between atoms: C5_5  and  C9_9 
ROOT
HETATM    1  C2  UNL     1     -32.922   7.122   2.554  1.00 20.00    -0.004 C 
HETATM    2  C4  UNL     1     -33.468   6.846   3.749  1.00 20.00    -0.015 C 
ENDROOT
BRANCH   2   3
HETATM    3  C9  UNL     1     -33.703   5.446   4.251  1.00 20.00     0.073 C 
HETATM    4  C8  UNL     1     -34.648   4.679   3.333  1.00 20.00     0.022 C 
BRANCH   3   5
HETATM    5  C5  UNL     1     -34.288   5.509   5.660  1.00 20.00     0.130 C 
HETATM    6  C7  UNL     1     -33.903   6.704   6.496  1.00 20.00     0.091 C 
HETATM    7  O10 UNL     1     -35.006   4.623   6.124  1.00 20.00    -0.298 OA
ENDBRANCH   3   5
ENDBRANCH   2   3
BRANCH   1   8
HETATM    8  C1  UNL     1     -32.699   8.469   2.080  1.00 20.00    -0.005 C 
HETATM    9  C3  UNL     1     -32.154   8.745   0.886  1.00 20.00    -0.031 C 
HETATM   10  C6  UNL     1     -31.917  10.131   0.384  1.00 20.00     0.036 C 
ENDBRANCH   1   8
TORSDOF 3
