REMARK  1 active torsions:
REMARK  status: ('A' for Active; 'I' for Inactive)
REMARK    1  A    between atoms: C3_3  and  C8_8 
ROOT
HETATM    1  C1  UNL     1     -35.086   6.210   3.104  1.00 20.00    -0.024 C 
HETATM    2  C2  UNL     1     -35.194   6.641   4.371  1.00 20.00    -0.021 C 
HETATM    3  C4  UNL     1     -34.250   4.009   3.802  1.00 20.00     0.010 C 
HETATM    4  C5  UNL     1     -34.351   4.498   5.267  1.00 20.00     0.014 C 
HETATM    5  C6  UNL     1     -32.770   6.382   4.769  1.00 20.00     0.026 C 
HETATM    6  C7  UNL     1     -33.972   5.208   2.868  1.00 20.00     0.019 C 
HETATM    7  C8  UNL     1     -32.633   5.843   3.321  1.00 20.00     0.063 C 
HETATM    8  C9  UNL     1     -34.179   6.042   5.332  1.00 20.00    -0.026 C 
HETATM    9  C11 UNL     1     -34.351   6.562   6.756  1.00 20.00     0.019 C 
ENDROOT
BRANCH   7  10
HETATM   10  C3  UNL     1     -32.189   6.933   2.389  1.00 20.00     0.128 C 
HETATM   11  C10 UNL     1     -31.967   6.547   0.952  1.00 20.00     0.091 C 
HETATM   12  O12 UNL     1     -32.017   8.086   2.782  1.00 20.00    -0.298 OA
ENDBRANCH   7  10
TORSDOF 1
