REMARK  0 active torsions:
REMARK  status: ('A' for Active; 'I' for Inactive)
ROOT
HETATM    1  C1  UNL     1     -34.423   4.664   5.165  1.00 20.00     0.251 C 
HETATM    2  C2  UNL     1     -33.621   5.944   5.308  1.00 20.00     0.251 C 
HETATM    3  C3  UNL     1     -35.014   4.686   3.767  1.00 20.00     0.271 C 
HETATM    4  C4  UNL     1     -32.683   5.960   4.116  1.00 20.00     0.271 C 
HETATM    5  F5  UNL     1     -35.409   4.621   6.090  1.00 20.00    -0.242 F 
HETATM    6  F6  UNL     1     -34.468   7.008   5.223  1.00 20.00    -0.242 F 
HETATM    7  F7  UNL     1     -36.056   5.559   3.734  1.00 20.00    -0.235 F 
HETATM    8  F8  UNL     1     -32.232   7.216   3.890  1.00 20.00    -0.235 F 
HETATM    9  S9  UNL     1     -33.672   5.340   2.729  1.00 20.00    -0.089 SA
ENDROOT
TORSDOF 0
