REMARK  0 active torsions:
REMARK  status: ('A' for Active; 'I' for Inactive)
ROOT
HETATM    1  C1  UNL     1     -36.197   5.851   3.128  1.00 20.00     0.015 C 
HETATM    2  C2  UNL     1     -35.223   5.818   3.828  1.00 20.00    -0.073 C 
HETATM    3  C3  UNL     1     -33.667   4.329   5.037  1.00 20.00     0.225 C 
HETATM    4  C4  UNL     1     -34.953   5.202   6.722  1.00 20.00     0.442 C 
HETATM    5  C5  UNL     1     -34.018   5.778   4.694  1.00 20.00     0.240 C 
HETATM    6  C6  UNL     1     -32.875   6.457   3.926  1.00 20.00     0.066 C 
HETATM    7  C7  UNL     1     -33.222   6.874   6.766  1.00 20.00     0.315 C 
HETATM    8  N8  UNL     1     -34.360   6.347   6.014  1.00 20.00     0.130 N 
HETATM    9  O9  UNL     1     -34.499   3.971   6.149  1.00 20.00    -0.359 OA
ENDROOT
TORSDOF 0
