REMARK  3 active torsions:
REMARK  status: ('A' for Active; 'I' for Inactive)
REMARK    1  A    between atoms: C1_1  and  C8_8 
REMARK    2  A    between atoms: C8_8  and  C9_9 
REMARK    3  A    between atoms: C9_9  and  C10_10 
ROOT
HETATM    1  C8  UNL     1     -32.573   7.301   3.589  1.00 20.00     0.055 C 
ENDROOT
BRANCH   1   2
HETATM    2  C1  UNL     1     -32.476   8.291   2.475  1.00 20.00     0.006 C 
HETATM    3  C2  UNL     1     -33.250   9.570   2.522  1.00 20.00     0.056 C 
HETATM    4  C3  UNL     1     -32.491  10.349   1.475  1.00 20.00     0.027 C 
HETATM    5  C4  UNL     1     -31.976   9.257   0.554  1.00 20.00     0.149 C 
HETATM    6  N11 UNL     1     -31.757   8.076   1.414  1.00 20.00    -0.298 NA
ENDBRANCH   1   2
BRANCH   1   7
HETATM    7  C9  UNL     1     -33.734   6.328   3.361  1.00 20.00     0.014 C 
BRANCH   7   8
HETATM    8  C10 UNL     1     -33.973   5.290   4.490  1.00 20.00    -0.051 C 
HETATM    9  C5  UNL     1     -32.759   4.361   4.658  1.00 20.00     0.014 C 
HETATM   10  C6  UNL     1     -35.225   4.442   4.211  1.00 20.00     0.014 C 
HETATM   11  C7  UNL     1     -34.187   6.057   5.810  1.00 20.00     0.014 C 
ENDBRANCH   7   8
ENDBRANCH   1   7
TORSDOF 3
