REMARK  1 active torsions:
REMARK  status: ('A' for Active; 'I' for Inactive)
REMARK    1  A    between atoms: C10_10  and  O13_13 
ROOT
HETATM    1  C1  UNL     1     -34.890   4.782   5.949  1.00 20.00     0.099 C 
HETATM    2  C2  UNL     1     -34.528   5.403   3.607  1.00 20.00     0.023 A 
HETATM    3  C3  UNL     1     -33.811   6.078   2.617  1.00 20.00     0.012 A 
HETATM    4  C4  UNL     1     -33.036   6.250   5.331  1.00 20.00     0.030 A 
HETATM    5  C5  UNL     1     -34.144   5.488   4.954  1.00 20.00     0.045 A 
HETATM    6  C6  UNL     1     -32.721   6.842   3.000  1.00 20.00    -0.023 A 
HETATM    7  C7  UNL     1     -32.338   6.926   4.345  1.00 20.00    -0.048 A 
HETATM    8  C8  UNL     1     -31.109   7.767   4.500  1.00 20.00     0.042 C 
HETATM    9  C9  UNL     1     -31.112   8.539   3.174  1.00 20.00     0.041 C 
HETATM   10  C10 UNL     1     -31.775   7.620   2.135  1.00 20.00     0.154 C 
HETATM   11  N12 UNL     1     -35.496   4.209   6.756  1.00 20.00    -0.191 NA
ENDROOT
BRANCH  10  12
HETATM   12  O13 UNL     1     -32.452   8.373   1.150  1.00 20.00    -0.386 OA
HETATM   13  C11 UNL     1     -31.591   8.732   0.073  1.00 20.00     0.202 C 
ENDBRANCH  10  12
TORSDOF 1
