REMARK  1 active torsions:
REMARK  status: ('A' for Active; 'I' for Inactive)
REMARK    1  A    between atoms: C3_3  and  C6_6 
ROOT
HETATM    1  C1  UNL     1     -34.198   5.910   3.067  1.00 20.00     0.005 C 
HETATM    2  C2  UNL     1     -33.068   5.780   3.782  1.00 20.00     0.040 C 
HETATM    3  C4  UNL     1     -35.494   5.304   3.495  1.00 20.00     0.033 C 
HETATM    4  C5  UNL     1     -35.282   4.285   4.610  1.00 20.00     0.049 C 
HETATM    5  C6  UNL     1     -34.231   4.767   5.617  1.00 20.00     0.116 C 
HETATM    6  C7  UNL     1     -31.762   6.354   3.331  1.00 20.00     0.076 C 
HETATM    7  C8  UNL     1     -33.924   3.662   6.629  1.00 20.00     0.054 C 
HETATM    8  O10 UNL     1     -32.993   5.122   4.994  1.00 20.00    -0.338 OA
ENDROOT
BRANCH   5   9
HETATM    9  C3  UNL     1     -34.718   5.961   6.398  1.00 20.00     0.269 C 
HETATM   10  O9  UNL     1     -34.153   7.050   6.390  1.00 20.00    -0.304 OA
ENDBRANCH   5   9
TORSDOF 1
