REMARK  1 active torsions:
REMARK  status: ('A' for Active; 'I' for Inactive)
REMARK    1  A    between atoms: C1_1  and  C3_3 
ROOT
HETATM    1  C2  UNL     1     -33.777   5.976   5.739  1.00 20.00     0.080 C 
HETATM    2  C3  UNL     1     -34.154   6.713   4.434  1.00 20.00     0.310 C 
HETATM    3  C4  UNL     1     -34.983   5.064   5.416  1.00 20.00     0.222 C 
HETATM    4  C5  UNL     1     -34.783   3.578   5.639  1.00 20.00     0.043 C 
HETATM    5  C6  UNL     1     -36.096   5.726   3.366  1.00 20.00     0.311 C 
HETATM    6  N7  UNL     1     -34.806   5.449   3.989  1.00 20.00     0.101 N 
ENDROOT
BRANCH   2   7
HETATM    7  C1  UNL     1     -33.038   7.116   3.467  1.00 20.00     0.252 C 
HETATM    8  O8  UNL     1     -32.163   6.325   3.126  1.00 20.00    -0.277 OA
HETATM    9 CL9  UNL     1     -33.185   8.768   2.949  1.00 20.00    -0.042 Cl
ENDBRANCH   2   7
TORSDOF 1
