REMARK  2 active torsions:
REMARK  status: ('A' for Active; 'I' for Inactive)
REMARK    1  A    between atoms: C2_2  and  C8_8 
REMARK    2  A    between atoms: C8_8  and  N9_9 
ROOT
HETATM    1  C1  UNL     1     -32.330   7.928   1.827  1.00 20.00    -0.109 C 
HETATM    2  C2  UNL     1     -32.618   6.944   2.453  1.00 20.00    -0.077 C 
HETATM    3  C7  UNL     1     -31.980   9.125   1.064  1.00 20.00     0.112 C 
ENDROOT
BRANCH   2   4
HETATM    4  C8  UNL     1     -32.962   5.741   3.217  1.00 20.00     0.365 C 
BRANCH   4   5
HETATM    5  N9  UNL     1     -34.346   5.795   3.680  1.00 20.00     0.103 N 
HETATM    6  C3  UNL     1     -34.870   4.466   4.022  1.00 20.00     0.299 C 
HETATM    7  C5  UNL     1     -34.346   3.943   5.358  1.00 20.00     0.198 C 
HETATM    8  O10 UNL     1     -34.618   4.880   6.400  1.00 20.00    -0.388 OA
HETATM    9  C6  UNL     1     -34.001   6.140   6.131  1.00 20.00     0.198 C 
HETATM   10  C4  UNL     1     -34.517   6.714   4.814  1.00 20.00     0.299 C 
ENDBRANCH   4   5
ENDBRANCH   2   4
TORSDOF 2
