REMARK  1 active torsions:
REMARK  status: ('A' for Active; 'I' for Inactive)
REMARK    1  A    between atoms: C2_2  and  C4_4 
ROOT
HETATM    1  C1  UNL     1     -33.522   6.918   5.920  1.00 20.00     0.318 A 
HETATM    2  C2  UNL     1     -34.179   6.539   4.614  1.00 20.00     0.357 A 
HETATM    3  C3  UNL     1     -35.201   5.217   6.382  1.00 20.00     0.310 C 
HETATM    4  N5  UNL     1     -33.975   5.553   5.668  1.00 20.00     0.102 N 
ENDROOT
BRANCH   2   5
HETATM    5  C4  UNL     1     -33.370   6.438   3.370  1.00 20.00     0.419 C 
HETATM    6  F6  UNL     1     -33.257   7.638   2.749  1.00 20.00    -0.169 F 
HETATM    7  F7  UNL     1     -32.114   5.997   3.626  1.00 20.00    -0.169 F 
HETATM    8  F8  UNL     1     -33.925   5.577   2.482  1.00 20.00    -0.169 F 
ENDBRANCH   2   5
TORSDOF 1
