REMARK  2 active torsions:
REMARK  status: ('A' for Active; 'I' for Inactive)
REMARK    1  A    between atoms: C4_4  and  C6_6 
REMARK    2  A    between atoms: C7_7  and  O10_10 
ROOT
HETATM    1  C1  UNL     1     -32.337   7.856   2.661  1.00 20.00     0.218 C 
HETATM    2  C4  UNL     1     -32.236   7.100   3.714  1.00 20.00     0.043 C 
HETATM    3  O9  UNL     1     -32.428   8.540   1.709  1.00 20.00    -0.284 OA
ENDROOT
BRANCH   2   4
HETATM    4  C6  UNL     1     -32.872   5.755   3.865  1.00 20.00     0.064 C 
HETATM    5  C3  UNL     1     -33.044   5.067   2.543  1.00 20.00    -0.020 C 
HETATM    6  C2  UNL     1     -34.324   5.002   2.167  1.00 20.00    -0.027 C 
HETATM    7  C5  UNL     1     -35.232   5.644   3.162  1.00 20.00     0.059 C 
HETATM    8  C7  UNL     1     -34.322   5.833   4.381  1.00 20.00     0.135 C 
BRANCH   8   9
HETATM    9  O10 UNL     1     -34.559   4.762   5.297  1.00 20.00    -0.389 OA
HETATM   10  C8  UNL     1     -34.119   5.096   6.603  1.00 20.00     0.202 C 
ENDBRANCH   8   9
ENDBRANCH   2   4
TORSDOF 2
