REMARK  2 active torsions:
REMARK  status: ('A' for Active; 'I' for Inactive)
REMARK    1  A    between atoms: C2_2  and  C5_5 
REMARK    2  A    between atoms: C3_3  and  C6_6 
REMARK       I    between atoms: C3_3  and  N9_9 
ROOT
HETATM    1  C4  UNL     1     -31.815   7.526   4.250  1.00 20.00     0.024 A 
HETATM    2  C5  UNL     1     -31.616   7.233   2.788  1.00 20.00     0.021 A 
HETATM    3  C6  UNL     1     -32.085   6.167   3.716  1.00 20.00     0.086 A 
ENDROOT
BRANCH   3   4
HETATM    4  C3  UNL     1     -33.518   5.699   3.667  1.00 20.00     0.224 C 
HETATM    5  N9  UNL     1     -34.243   5.777   4.857  1.00 20.00    -0.360 N 
HETATM    6  C7  UNL     1     -35.636   5.358   4.950  1.00 20.00     0.152 C 
HETATM    7  C8  UNL     1     -33.659   6.284   6.096  1.00 20.00     0.152 C 
HETATM    8  O10 UNL     1     -33.977   5.276   2.603  1.00 20.00    -0.273 OA
ENDBRANCH   3   4
BRANCH   2   9
HETATM    9  C2  UNL     1     -32.504   7.858   1.819  1.00 20.00    -0.031 C 
HETATM   10  C1  UNL     1     -32.724   9.175   1.747  1.00 20.00     0.007 C 
ENDBRANCH   2   9
TORSDOF 2
