REMARK  1 active torsions:
REMARK  status: ('A' for Active; 'I' for Inactive)
REMARK    1  A    between atoms: C1_1  and  C8_8 
REMARK       I    between atoms: C1_1  and  N9_9 
ROOT
HETATM    1  C1  UNL     1     -33.733   6.253   5.179  1.00 20.00     0.237 C 
HETATM    2  C2  UNL     1     -32.390   8.627   1.835  1.00 20.00     0.013 A 
HETATM    3  C3  UNL     1     -32.585   6.254   2.913  1.00 20.00     0.130 A 
HETATM    4  C4  UNL     1     -32.354   8.168   4.407  1.00 20.00     0.130 A 
HETATM    5  C5  UNL     1     -31.782   7.305   2.219  1.00 20.00     0.010 A 
HETATM    6  C6  UNL     1     -31.642   8.474   3.132  1.00 20.00     0.010 A 
HETATM    7  N9  UNL     1     -32.944   6.845   4.206  1.00 20.00    -0.350 N 
HETATM    8  O10 UNL     1     -34.013   6.784   6.255  1.00 20.00    -0.272 OA
ENDROOT
BRANCH   1   9
HETATM    9  C8  UNL     1     -34.257   4.879   4.845  1.00 20.00     0.170 C 
HETATM   10  C7  UNL     1     -34.503   4.086   6.107  1.00 20.00     0.036 C 
HETATM   11 CL11 UNL     1     -35.761   5.131   3.944  1.00 20.00    -0.115 Cl
ENDBRANCH   1   9
TORSDOF 1
