REMARK  4 active torsions:
REMARK  status: ('A' for Active; 'I' for Inactive)
REMARK    1  A    between atoms: C1_1  and  C7_7 
REMARK    2  A    between atoms: C2_2  and  C9_9 
REMARK    3  A    between atoms: C4_4  and  C9_9 
REMARK    4  A    between atoms: C9_9  and  O10_10 
ROOT
HETATM    1  C1  UNL     1     -33.495   7.210   2.750  1.00 20.00    -0.094 C 
HETATM    2  C2  UNL     1     -34.074   6.291   3.261  1.00 20.00    -0.070 C 
ENDROOT
BRANCH   2   3
HETATM    3  C9  UNL     1     -34.784   5.163   3.879  1.00 20.00     0.219 C 
BRANCH   3   4
HETATM    4  C4  UNL     1     -34.384   5.034   5.317  1.00 20.00     0.007 C 
HETATM    5  C3  UNL     1     -33.846   3.929   5.845  1.00 20.00     0.010 C 
ENDBRANCH   3   4
BRANCH   3   6
HETATM    6  O10 UNL     1     -36.190   5.387   3.830  1.00 20.00    -0.380 OA
HETATM    7  H22 UNL     1     -36.356   6.207   4.322  1.00 20.00     0.211 HD
ENDBRANCH   3   6
ENDBRANCH   2   3
BRANCH   1   8
HETATM    8  C7  UNL     1     -32.800   8.314   2.138  1.00 20.00     0.020 A 
HETATM    9  C5  UNL     1     -31.409   8.623   2.643  1.00 20.00     0.024 A 
HETATM   10  C6  UNL     1     -31.588   7.987   1.296  1.00 20.00     0.024 A 
HETATM   11  C8  UNL     1     -33.669   9.463   1.711  1.00 20.00     0.029 C 
ENDBRANCH   1   8
TORSDOF 4
