REMARK  0 active torsions:
REMARK  status: ('A' for Active; 'I' for Inactive)
ROOT
HETATM    1  C1  UNL     1     -31.724   7.561   2.444  1.00 20.00     0.015 C 
HETATM    2  C2  UNL     1     -32.690   7.135   3.015  1.00 20.00    -0.076 C 
HETATM    3  C3  UNL     1     -34.449   5.425   2.932  1.00 20.00     0.057 C 
HETATM    4  C4  UNL     1     -35.199   4.624   3.982  1.00 20.00     0.044 C 
HETATM    5  C5  UNL     1     -33.878   6.610   3.717  1.00 20.00     0.218 C 
HETATM    6  C6  UNL     1     -34.393   4.832   5.278  1.00 20.00     0.154 C 
HETATM    7  C7  UNL     1     -34.921   7.733   3.856  1.00 20.00     0.064 C 
HETATM    8  C8  UNL     1     -35.355   5.005   6.464  1.00 20.00     0.049 C 
HETATM    9  C9  UNL     1     -33.496   3.609   5.539  1.00 20.00     0.049 C 
HETATM   10  C10 UNL     1     -33.180   6.860   6.094  1.00 20.00     0.313 C 
HETATM   11  N11 UNL     1     -33.497   5.973   4.988  1.00 20.00     0.114 N 
ENDROOT
TORSDOF 0
