REMARK  1 active torsions:
REMARK  status: ('A' for Active; 'I' for Inactive)
REMARK    1  A    between atoms: C1_1  and  C3_3 
ROOT
HETATM    1  C2  UNL     1     -35.760   5.402   4.132  1.00 20.00     0.103 A 
HETATM    2  C3  UNL     1     -34.435   5.068   4.773  1.00 20.00     0.073 A 
HETATM    3  C5  UNL     1     -34.359   3.813   5.601  1.00 20.00     0.036 C 
HETATM    4  S7  UNL     1     -34.556   4.826   3.048  1.00 20.00    -0.149 SA
ENDROOT
BRANCH   2   5
HETATM    5  C1  UNL     1     -33.561   6.196   5.156  1.00 20.00     0.142 C 
HETATM    6  C4  UNL     1     -32.583   6.678   4.119  1.00 20.00     0.092 C 
HETATM    7  O6  UNL     1     -33.632   6.718   6.268  1.00 20.00    -0.297 OA
ENDBRANCH   2   5
TORSDOF 1
