REMARK  1 active torsions:
REMARK  status: ('A' for Active; 'I' for Inactive)
REMARK    1  A    between atoms: C1_1  and  C5_5 
ROOT
HETATM    1  C1  UNL     1     -34.773   5.352   4.331  1.00 20.00    -0.068 C 
HETATM    2  C2  UNL     1     -35.896   5.093   3.992  1.00 20.00    -0.108 C 
HETATM    3  C6  UNL     1     -37.263   4.779   3.579  1.00 20.00     0.112 C 
ENDROOT
BRANCH   1   4
HETATM    4  C5  UNL     1     -33.418   5.664   4.741  1.00 20.00     0.126 C 
HETATM    5  C3  UNL     1     -33.105   7.187   4.825  1.00 20.00     0.057 C 
HETATM    6  C4  UNL     1     -31.948   6.844   3.864  1.00 20.00     0.127 C 
HETATM    7  C7  UNL     1     -32.719   7.812   6.151  1.00 20.00     0.016 C 
HETATM    8  C8  UNL     1     -31.847   7.663   2.594  1.00 20.00     0.040 C 
HETATM    9  O10 UNL     1     -32.524   5.536   3.597  1.00 20.00    -0.362 OA
HETATM   10  C9  UNL     1     -32.947   4.756   5.870  1.00 20.00     0.061 C 
ENDBRANCH   1   4
TORSDOF 1
