REMARK  0 active torsions:
REMARK  status: ('A' for Active; 'I' for Inactive)
ROOT
HETATM    1  C1  UNL     1     -33.133   7.051   4.845  1.00 20.00     0.459 C 
HETATM    2  C2  UNL     1     -34.212   5.126   5.398  1.00 20.00     0.090 C 
HETATM    3  C3  UNL     1     -34.640   5.580   3.986  1.00 20.00     0.090 C 
HETATM    4  C4  UNL     1     -33.934   3.631   5.539  1.00 20.00     0.049 C 
HETATM    5  C5  UNL     1     -35.173   5.565   6.516  1.00 20.00     0.049 C 
HETATM    6  C6  UNL     1     -33.861   4.902   2.845  1.00 20.00     0.049 C 
HETATM    7  C7  UNL     1     -36.137   5.469   3.699  1.00 20.00     0.049 C 
HETATM    8  O8  UNL     1     -32.981   5.846   5.596  1.00 20.00    -0.322 OA
HETATM    9  O9  UNL     1     -34.273   6.972   3.987  1.00 20.00    -0.322 OA
HETATM   10  F10 UNL     1     -32.032   7.197   4.065  1.00 20.00    -0.189 F 
ENDROOT
TORSDOF 0
