REMARK  1 active torsions:
REMARK  status: ('A' for Active; 'I' for Inactive)
REMARK    1  A    between atoms: C1_1  and  C7_7 
ROOT
HETATM    1  C2  UNL     1     -35.688   4.040   4.904  1.00 20.00     0.001 C 
HETATM    2  C3  UNL     1     -34.223   7.792   5.137  1.00 20.00     0.014 C 
HETATM    3  C4  UNL     1     -35.206   4.827   6.110  1.00 20.00     0.005 C 
HETATM    4  C5  UNL     1     -35.393   4.985   3.751  1.00 20.00     0.006 C 
HETATM    5  C6  UNL     1     -33.632   6.851   6.181  1.00 20.00     0.006 C 
HETATM    6  C7  UNL     1     -33.948   7.103   3.803  1.00 20.00     0.076 C 
HETATM    7  C8  UNL     1     -33.894   5.452   5.633  1.00 20.00    -0.010 C 
HETATM    8  C9  UNL     1     -34.033   5.603   4.101  1.00 20.00     0.002 C 
ENDROOT
BRANCH   6   9
HETATM    9  C1  UNL     1     -32.583   7.459   3.291  1.00 20.00     0.223 C 
HETATM   10  O10 UNL     1     -31.590   6.806   3.597  1.00 20.00    -0.279 OA
HETATM   11 CL11 UNL     1     -32.616   8.856   2.259  1.00 20.00    -0.043 Cl
ENDBRANCH   6   9
TORSDOF 1
