REMARK  0 active torsions:
REMARK  status: ('A' for Active; 'I' for Inactive)
ROOT
HETATM    1  C1  UNL     1     -33.682   6.297   3.658  1.00 20.00     0.007 C 
HETATM    2  C2  UNL     1     -34.251   6.070   5.877  1.00 20.00     0.226 C 
HETATM    3  C3  UNL     1     -32.962   6.710   2.611  1.00 20.00     0.038 C 
HETATM    4  C4  UNL     1     -34.856   5.357   3.637  1.00 20.00     0.043 C 
HETATM    5  C5  UNL     1     -35.087   5.040   5.135  1.00 20.00     0.083 C 
HETATM    6  C6  UNL     1     -36.089   6.017   3.018  1.00 20.00     0.017 C 
HETATM    7  C7  UNL     1     -34.606   3.641   5.506  1.00 20.00     0.020 C 
HETATM    8  N8  UNL     1     -33.442   6.692   4.942  1.00 20.00    -0.331 N 
HETATM    9  O9  UNL     1     -34.266   6.260   7.083  1.00 20.00    -0.273 OA
HETATM   10  H20 UNL     1     -32.734   7.378   5.181  1.00 20.00     0.168 HD
ENDROOT
TORSDOF 0
