REMARK  1 active torsions:
REMARK  status: ('A' for Active; 'I' for Inactive)
REMARK    1  A    between atoms: C1_1  and  C4_4 
ROOT
HETATM    1  C2  UNL     1     -34.843   4.801   3.455  1.00 20.00     0.016 C 
HETATM    2  C3  UNL     1     -33.979   5.131   2.223  1.00 20.00     0.022 C 
HETATM    3  C4  UNL     1     -34.189   6.023   4.155  1.00 20.00     0.090 C 
HETATM    4  C5  UNL     1     -32.983   5.802   3.196  1.00 20.00     0.094 C 
HETATM    5 CL8  UNL     1     -32.065   7.225   2.628  1.00 20.00    -0.124 Cl
ENDROOT
BRANCH   3   6
HETATM    6  C1  UNL     1     -33.926   5.923   5.660  1.00 20.00     0.224 C 
HETATM    7  O6  UNL     1     -33.275   6.774   6.259  1.00 20.00    -0.279 OA
HETATM    8 CL7  UNL     1     -34.646   4.504   6.358  1.00 20.00    -0.043 Cl
ENDBRANCH   3   6
TORSDOF 1
