REMARK  1 active torsions:
REMARK  status: ('A' for Active; 'I' for Inactive)
REMARK    1  A    between atoms: C2_2  and  C6_6 
ROOT
HETATM    1  C1  UNL     1     -34.050   5.569   3.455  1.00 20.00     0.139 C 
HETATM    2  C3  UNL     1     -34.621   4.605   4.475  1.00 20.00     0.089 C 
HETATM    3  C4  UNL     1     -35.414   5.323   5.553  1.00 20.00     0.081 C 
HETATM    4  C5  UNL     1     -33.131   6.926   5.353  1.00 20.00     0.093 C 
HETATM    5  C6  UNL     1     -33.686   6.967   3.933  1.00 20.00     0.133 C 
HETATM    6  O8  UNL     1     -33.882   5.217   2.286  1.00 20.00    -0.297 OA
HETATM    7  S10 UNL     1     -34.373   6.406   6.583  1.00 20.00    -0.168 SA
ENDROOT
BRANCH   5   8
HETATM    8  C2  UNL     1     -32.675   7.625   3.043  1.00 20.00     0.135 C 
HETATM    9  C7  UNL     1     -32.772   9.120   2.898  1.00 20.00     0.091 C 
HETATM   10  O9  UNL     1     -31.808   6.976   2.461  1.00 20.00    -0.298 OA
ENDBRANCH   5   8
TORSDOF 1
