REMARK  1 active torsions:
REMARK  status: ('A' for Active; 'I' for Inactive)
REMARK    1  A    between atoms: C8_8  and  C9_9 
ROOT
HETATM    1  C1  UNL     1     -32.227   7.015   2.586  1.00 20.00     0.218 C 
HETATM    2  C8  UNL     1     -32.742   6.219   3.477  1.00 20.00     0.044 C 
HETATM    3  O10 UNL     1     -31.761   7.734   1.781  1.00 20.00    -0.284 OA
ENDROOT
BRANCH   2   4
HETATM    4  C9  UNL     1     -34.171   6.255   3.937  1.00 20.00     0.057 C 
HETATM    5  C6  UNL     1     -34.907   5.005   3.530  1.00 20.00    -0.014 C 
HETATM    6  C4  UNL     1     -35.186   3.906   4.244  1.00 20.00    -0.003 C 
HETATM    7  C2  UNL     1     -34.780   3.608   5.592  1.00 20.00    -0.000 C 
HETATM    8  C3  UNL     1     -34.447   4.473   6.557  1.00 20.00    -0.000 C 
HETATM    9  C5  UNL     1     -34.415   5.911   6.479  1.00 20.00    -0.003 C 
HETATM   10  C7  UNL     1     -34.268   6.667   5.383  1.00 20.00    -0.014 C 
ENDBRANCH   2   4
TORSDOF 1
