REMARK  2 active torsions:
REMARK  status: ('A' for Active; 'I' for Inactive)
REMARK    1  A    between atoms: C1_1  and  C3_3 
REMARK    2  A    between atoms: C2_2  and  C7_7 
ROOT
HETATM    1  C4  UNL     1     -34.106   5.300   6.650  1.00 20.00     0.002 C 
HETATM    2  C5  UNL     1     -33.762   4.343   5.497  1.00 20.00     0.013 C 
HETATM    3  C6  UNL     1     -35.024   6.062   5.679  1.00 20.00     0.013 C 
HETATM    4  C7  UNL     1     -34.219   5.446   4.491  1.00 20.00    -0.026 C 
HETATM    5  C9  UNL     1     -35.079   4.941   3.299  1.00 20.00     0.019 C 
ENDROOT
BRANCH   4   6
HETATM    6  C2  UNL     1     -33.075   6.338   4.003  1.00 20.00    -0.014 C 
HETATM    7  C1  UNL     1     -33.245   7.346   3.138  1.00 20.00     0.046 C 
BRANCH   7   8
HETATM    8  C3  UNL     1     -32.089   8.177   2.702  1.00 20.00     0.145 C 
HETATM    9  C8  UNL     1     -32.159   8.768   1.319  1.00 20.00     0.096 C 
HETATM   10  O10 UNL     1     -31.111   8.366   3.423  1.00 20.00    -0.294 OA
ENDBRANCH   7   8
ENDBRANCH   4   6
TORSDOF 2
