REMARK  1 active torsions:
REMARK  status: ('A' for Active; 'I' for Inactive)
REMARK    1  A    between atoms: C3_3  and  N9_9 
ROOT
HETATM    1  C1  UNL     1     -33.001   7.362   3.032  1.00 20.00     0.096 C 
HETATM    2  C2  UNL     1     -33.936   6.341   3.363  1.00 20.00     0.040 A 
HETATM    3  C3  UNL     1     -34.306   5.786   4.539  1.00 20.00     0.005 A 
HETATM    4  C4  UNL     1     -34.863   5.503   2.524  1.00 20.00     0.057 A 
HETATM    5  C5  UNL     1     -35.298   4.850   3.842  1.00 20.00     0.057 A 
HETATM    6  N8  UNL     1     -32.239   8.195   2.763  1.00 20.00    -0.192 NA
ENDROOT
BRANCH   3   7
HETATM    7  N9  UNL     1     -34.034   5.883   5.825  1.00 20.00    -0.283 NA
HETATM    8  C6  UNL     1     -35.120   5.567   6.767  1.00 20.00     0.110 A 
HETATM    9  C7  UNL     1     -33.984   4.631   6.597  1.00 20.00     0.110 A 
ENDBRANCH   3   7
TORSDOF 1
