REMARK  2 active torsions:
REMARK  status: ('A' for Active; 'I' for Inactive)
REMARK    1  A    between atoms: C5_5  and  O9_9 
REMARK    2  A    between atoms: C8_8  and  O9_9 
ROOT
HETATM    1  C1  UNL     1     -35.247   4.637   3.869  1.00 20.00    -0.028 C 
HETATM    2  C2  UNL     1     -35.035   5.929   3.583  1.00 20.00     0.002 C 
HETATM    3  C3  UNL     1     -34.811   3.997   5.153  1.00 20.00     0.028 C 
HETATM    4  C4  UNL     1     -34.428   5.016   6.228  1.00 20.00     0.022 C 
HETATM    5  C5  UNL     1     -34.310   6.871   4.504  1.00 20.00     0.158 C 
HETATM    6  C6  UNL     1     -33.581   6.138   5.636  1.00 20.00     0.090 C 
HETATM    7 BR10 UNL     1     -33.144   7.415   7.062  1.00 20.00    -0.088 Br
ENDROOT
BRANCH   5   8
HETATM    8  O9  UNL     1     -33.340   7.598   3.747  1.00 20.00    -0.381 OA
BRANCH   8   9
HETATM    9  C8  UNL     1     -32.695   6.763   2.798  1.00 20.00     0.164 C 
HETATM   10  C7  UNL     1     -31.682   7.583   2.028  1.00 20.00     0.033 C 
ENDBRANCH   8   9
ENDBRANCH   5   8
TORSDOF 2
