REMARK  0 active torsions:
REMARK  status: ('A' for Active; 'I' for Inactive)
ROOT
HETATM    1  C1  UNL     1     -34.654   4.367   5.621  1.00 20.00    -0.013 C 
HETATM    2  C2  UNL     1     -34.361   5.418   6.418  1.00 20.00     0.004 C 
HETATM    3  C3  UNL     1     -33.027   6.218   3.953  1.00 20.00     0.341 C 
HETATM    4  C4  UNL     1     -34.758   4.535   4.108  1.00 20.00     0.127 C 
HETATM    5  C5  UNL     1     -35.085   6.906   4.586  1.00 20.00     0.137 C 
HETATM    6  C6  UNL     1     -34.193   6.801   5.802  1.00 20.00     0.169 C 
HETATM    7  N7  UNL     1     -34.396   5.920   3.789  1.00 20.00    -0.222 NA
HETATM    8  O8  UNL     1     -32.092   5.878   3.244  1.00 20.00    -0.245 OA
HETATM    9  O9  UNL     1     -32.889   6.876   5.168  1.00 20.00    -0.298 OA
ENDROOT
TORSDOF 0
