REMARK  1 active torsions:
REMARK  status: ('A' for Active; 'I' for Inactive)
REMARK    1  A    between atoms: C4_4  and  C7_7 
ROOT
HETATM    1  C1  UNL     1     -32.410   5.914   2.927  1.00 20.00     0.047 C 
HETATM    2  C2  UNL     1     -33.212   5.051   3.562  1.00 20.00    -0.006 C 
HETATM    3  C3  UNL     1     -32.651   7.373   3.028  1.00 20.00     0.149 C 
HETATM    4  C5  UNL     1     -33.852   7.861   3.811  1.00 20.00     0.088 C 
HETATM    5  C6  UNL     1     -34.214   6.915   4.968  1.00 20.00     0.007 C 
HETATM    6  C7  UNL     1     -34.364   5.458   4.449  1.00 20.00     0.031 C 
HETATM    7  C8  UNL     1     -33.180   7.076   6.099  1.00 20.00     0.012 C 
HETATM    8  C9  UNL     1     -35.675   5.277   3.665  1.00 20.00     0.027 C 
HETATM    9  O10 UNL     1     -31.911   8.154   2.431  1.00 20.00    -0.293 OA
ENDROOT
BRANCH   6  10
HETATM   10  C4  UNL     1     -34.390   4.485   5.603  1.00 20.00     0.244 C 
HETATM   11  O11 UNL     1     -35.213   4.537   6.512  1.00 20.00    -0.306 OA
ENDBRANCH   6  10
TORSDOF 1
