REMARK  1 active torsions:
REMARK  status: ('A' for Active; 'I' for Inactive)
REMARK    1  A    between atoms: C3_3  and  C5_5 
ROOT
HETATM    1  C1  UNL     1     -33.439   5.757   2.588  1.00 20.00     0.050 A 
HETATM    2  C2  UNL     1     -33.906   5.354   3.859  1.00 20.00    -0.026 A 
HETATM    3  C3  UNL     1     -32.654   6.871   2.806  1.00 20.00     0.113 A 
HETATM    4  C4  UNL     1     -33.366   6.249   4.754  1.00 20.00     0.060 A 
HETATM    5  C6  UNL     1     -34.771   4.227   4.292  1.00 20.00     0.041 C 
HETATM    6  C7  UNL     1     -33.560   6.293   6.219  1.00 20.00     0.066 C 
HETATM    7  C8  UNL     1     -35.282   4.451   5.732  1.00 20.00     0.005 C 
HETATM    8  C9  UNL     1     -34.174   4.956   6.683  1.00 20.00     0.007 C 
HETATM    9  O11 UNL     1     -32.606   7.181   4.133  1.00 20.00    -0.311 OA
ENDROOT
BRANCH   3  10
HETATM   10  C5  UNL     1     -31.928   7.699   1.906  1.00 20.00     0.295 C 
HETATM   11  O10 UNL     1     -31.887   7.527   0.667  1.00 20.00    -0.299 OA
ENDBRANCH   3  10
TORSDOF 1
