REMARK  0 active torsions:
REMARK  status: ('A' for Active; 'I' for Inactive)
ROOT
HETATM    1  C1  UNL     1     -34.467   5.617   5.525  1.00 20.00    -0.056 A 
HETATM    2  C2  UNL     1     -33.580   5.999   3.417  1.00 20.00     0.087 A 
HETATM    3  C3  UNL     1     -35.204   5.201   6.561  1.00 20.00     0.017 C 
HETATM    4  C4  UNL     1     -33.277   6.554   5.657  1.00 20.00     0.158 A 
HETATM    5  C5  UNL     1     -31.808   7.405   3.611  1.00 20.00     0.144 A 
HETATM    6  C6  UNL     1     -32.038   7.009   2.126  1.00 20.00     0.141 A 
HETATM    7  C7  UNL     1     -34.669   5.245   4.047  1.00 20.00     0.035 A 
HETATM    8  C8  UNL     1     -36.024   5.725   3.521  1.00 20.00     0.028 C 
HETATM    9  C9  UNL     1     -34.485   3.745   3.810  1.00 20.00     0.028 C 
HETATM   10  N10 UNL     1     -32.864   6.676   4.276  1.00 20.00    -0.365 N 
HETATM   11  N11 UNL     1     -33.211   6.108   2.163  1.00 20.00    -0.377 N 
HETATM   12  H26 UNL     1     -33.696   5.626   1.414  1.00 20.00     0.160 HD
ENDROOT
TORSDOF 0
