REMARK  0 active torsions:
REMARK  status: ('A' for Active; 'I' for Inactive)
ROOT
HETATM    1  C1  UNL     1     -34.053   5.623   3.460  1.00 20.00    -0.054 C 
HETATM    2  C2  UNL     1     -33.138   6.962   5.145  1.00 20.00     0.226 C 
HETATM    3  C3  UNL     1     -34.419   5.262   2.223  1.00 20.00     0.017 C 
HETATM    4  C4  UNL     1     -32.750   6.283   3.845  1.00 20.00     0.104 C 
HETATM    5  C5  UNL     1     -34.956   5.514   4.655  1.00 20.00     0.109 C 
HETATM    6  C6  UNL     1     -32.177   7.280   2.850  1.00 20.00     0.025 C 
HETATM    7  C7  UNL     1     -34.961   4.121   5.267  1.00 20.00     0.037 C 
HETATM    8  N8  UNL     1     -34.370   6.473   5.552  1.00 20.00    -0.352 N 
HETATM    9  O9  UNL     1     -32.456   7.784   5.742  1.00 20.00    -0.273 OA
HETATM   10  H20 UNL     1     -34.821   6.768   6.412  1.00 20.00     0.163 HD
ENDROOT
TORSDOF 0
