REMARK  2 active torsions:
REMARK  status: ('A' for Active; 'I' for Inactive)
REMARK    1  A    between atoms: C3_3  and  C5_5 
REMARK    2  A    between atoms: C5_5  and  C9_9 
ROOT
HETATM    1  C1  UNL     1     -32.520   5.637   2.820  1.00 20.00    -0.012 A 
HETATM    2  C2  UNL     1     -31.789   7.821   1.799  1.00 20.00    -0.020 A 
HETATM    3  C3  UNL     1     -33.654   6.224   3.228  1.00 20.00    -0.003 A 
HETATM    4  C4  UNL     1     -32.925   8.414   2.206  1.00 20.00    -0.083 A 
HETATM    5  C6  UNL     1     -31.461   6.378   2.057  1.00 20.00     0.055 A 
HETATM    6  C7  UNL     1     -33.989   7.664   2.974  1.00 20.00     0.075 A 
HETATM    7  C8  UNL     1     -33.210   9.860   1.925  1.00 20.00     0.043 C 
ENDROOT
BRANCH   3   8
HETATM    8  C5  UNL     1     -34.619   5.405   3.966  1.00 20.00     0.261 C 
HETATM    9  O10 UNL     1     -35.762   5.238   3.537  1.00 20.00    -0.283 OA
BRANCH   8  10
HETATM   10  C9  UNL     1     -34.155   4.788   5.254  1.00 20.00     0.455 C 
HETATM   11  F11 UNL     1     -32.866   5.099   5.541  1.00 20.00    -0.163 F 
HETATM   12  F12 UNL     1     -34.234   3.433   5.221  1.00 20.00    -0.163 F 
HETATM   13  F13 UNL     1     -34.903   5.201   6.309  1.00 20.00    -0.163 F 
ENDBRANCH   8  10
ENDBRANCH   3   8
TORSDOF 2
