REMARK  1 active torsions:
REMARK  status: ('A' for Active; 'I' for Inactive)
REMARK    1  A    between atoms: C1_1  and  C4_4 
ROOT
HETATM    1  C2  UNL     1     -34.067   6.727   4.570  1.00 20.00     0.038 C 
HETATM    2  C3  UNL     1     -33.209   5.011   3.633  1.00 20.00     0.038 C 
HETATM    3  C4  UNL     1     -33.385   6.488   3.200  1.00 20.00     0.076 C 
HETATM    4  C5  UNL     1     -34.367   5.205   4.651  1.00 20.00     0.035 C 
HETATM    5  C6  UNL     1     -35.741   4.826   4.086  1.00 20.00     0.032 C 
HETATM    6 CL9  UNL     1     -34.129   4.446   6.259  1.00 20.00    -0.120 Cl
ENDROOT
BRANCH   3   7
HETATM    7  C1  UNL     1     -32.117   7.284   2.880  1.00 20.00     0.223 C 
HETATM    8  O7  UNL     1     -31.171   7.331   3.661  1.00 20.00    -0.279 OA
HETATM    9 CL8  UNL     1     -32.209   8.068   1.332  1.00 20.00    -0.043 Cl
ENDBRANCH   3   7
TORSDOF 1
