REMARK  1 active torsions:
REMARK  status: ('A' for Active; 'I' for Inactive)
REMARK    1  A    between atoms: C2_2  and  C3_3 
ROOT
HETATM    1  C1  UNL     1     -34.140   6.338   3.365  1.00 20.00     0.050 C 
HETATM    2  C2  UNL     1     -33.765   7.155   2.376  1.00 20.00     0.082 C 
HETATM    3  C4  UNL     1     -33.510   6.276   4.717  1.00 20.00     0.071 C 
HETATM    4  C5  UNL     1     -35.304   4.773   4.477  1.00 20.00     0.179 C 
HETATM    5  C6  UNL     1     -34.648   5.670   5.513  1.00 20.00     0.012 C 
HETATM    6  C8  UNL     1     -34.203   4.934   6.763  1.00 20.00     0.012 C 
HETATM    7  O10 UNL     1     -35.230   5.486   3.232  1.00 20.00    -0.355 OA
ENDROOT
BRANCH   2   8
HETATM    8  C3  UNL     1     -32.639   8.108   2.563  1.00 20.00     0.147 C 
HETATM    9  C7  UNL     1     -32.702   9.393   1.781  1.00 20.00     0.096 C 
HETATM   10  O9  UNL     1     -31.709   7.878   3.334  1.00 20.00    -0.294 OA
ENDBRANCH   2   8
TORSDOF 1
