REMARK  1 active torsions:
REMARK  status: ('A' for Active; 'I' for Inactive)
REMARK    1  A    between atoms: C5_5  and  C10_10 
ROOT
HETATM    1  C1  UNL     1     -33.698   7.036   6.594  1.00 20.00     0.003 C 
HETATM    2  C2  UNL     1     -32.903   7.957   6.027  1.00 20.00    -0.025 C 
HETATM    3  C3  UNL     1     -35.167   5.063   6.159  1.00 20.00    -0.019 C 
HETATM    4  C4  UNL     1     -34.223   5.948   5.820  1.00 20.00    -0.057 C 
HETATM    5  C6  UNL     1     -32.542   7.951   4.562  1.00 20.00     0.039 C 
HETATM    6  C7  UNL     1     -35.468   4.139   5.023  1.00 20.00     0.028 C 
HETATM    7  C8  UNL     1     -34.838   4.862   3.826  1.00 20.00     0.014 C 
HETATM    8  C9  UNL     1     -33.714   5.716   4.424  1.00 20.00     0.029 C 
HETATM    9  C10 UNL     1     -33.455   7.045   3.710  1.00 20.00     0.059 C 
ENDROOT
BRANCH   9  10
HETATM   10  C5  UNL     1     -32.806   6.808   2.381  1.00 20.00     0.236 C 
HETATM   11  O11 UNL     1     -32.029   7.600   1.857  1.00 20.00    -0.306 OA
ENDBRANCH   9  10
TORSDOF 1
