REMARK  1 active torsions:
REMARK  status: ('A' for Active; 'I' for Inactive)
REMARK    1  A    between atoms: C2_2  and  C4_4 
ROOT
HETATM    1  C1  UNL     1     -34.310   5.099   5.332  1.00 20.00     0.131 C 
HETATM    2  C3  UNL     1     -34.637   5.504   3.224  1.00 20.00     0.191 C 
HETATM    3  C4  UNL     1     -33.834   6.631   3.840  1.00 20.00     0.219 C 
HETATM    4  C5  UNL     1     -34.258   4.522   6.698  1.00 20.00     0.099 C 
HETATM    5  N7  UNL     1     -34.752   4.489   4.281  1.00 20.00    -0.268 NA
HETATM    6  O9  UNL     1     -33.835   6.360   5.229  1.00 20.00    -0.323 OA
ENDROOT
BRANCH   3   7
HETATM    7  C2  UNL     1     -32.405   6.630   3.397  1.00 20.00     0.153 C 
HETATM    8  C6  UNL     1     -31.492   7.630   4.054  1.00 20.00     0.093 C 
HETATM    9  O8  UNL     1     -31.996   5.850   2.538  1.00 20.00    -0.295 OA
ENDBRANCH   3   7
TORSDOF 1
