REMARK  0 active torsions:
REMARK  status: ('A' for Active; 'I' for Inactive)
ROOT
HETATM    1  C1  UNL     1     -32.704   7.203   3.166  1.00 20.00     0.095 C 
HETATM    2  C2  UNL     1     -33.242   6.853   6.917  1.00 20.00     0.005 C 
HETATM    3  C3  UNL     1     -34.214   3.592   4.287  1.00 20.00     0.032 C 
HETATM    4  C4  UNL     1     -32.867   7.488   5.586  1.00 20.00     0.051 C 
HETATM    5  C5  UNL     1     -34.671   6.337   6.858  1.00 20.00     0.036 C 
HETATM    6  C6  UNL     1     -34.341   4.047   5.736  1.00 20.00     0.037 C 
HETATM    7  C7  UNL     1     -34.547   4.822   3.449  1.00 20.00     0.275 C 
HETATM    8  C8  UNL     1     -33.052   6.501   4.420  1.00 20.00     0.329 C 
HETATM    9  C9  UNL     1     -34.932   5.452   5.641  1.00 20.00     0.224 C 
HETATM   10  N10 UNL     1     -32.431   7.753   2.182  1.00 20.00    -0.195 NA
HETATM   11  N11 UNL     1     -34.436   5.984   4.354  1.00 20.00     0.111 N 
ENDROOT
TORSDOF 0
