REMARK  1 active torsions:
REMARK  status: ('A' for Active; 'I' for Inactive)
REMARK    1  A    between atoms: C1_1  and  C6_6 
ROOT
HETATM    1  C1  UNL     1     -32.935   7.652   2.833  1.00 20.00    -0.100 C 
HETATM    2  C2  UNL     1     -32.731   8.708   2.300  1.00 20.00    -0.111 C 
HETATM    3  C7  UNL     1     -32.483   9.994   1.650  1.00 20.00     0.112 C 
ENDROOT
BRANCH   1   4
HETATM    4  C6  UNL     1     -33.184   6.364   3.484  1.00 20.00     0.090 C 
HETATM    5  C4  UNL     1     -33.639   6.511   4.921  1.00 20.00     0.072 C 
HETATM    6  C3  UNL     1     -34.487   5.282   5.033  1.00 20.00     0.004 C 
HETATM    7  C8  UNL     1     -34.871   4.743   6.371  1.00 20.00     0.065 C 
HETATM    8  N9  UNL     1     -34.891   4.743   3.924  1.00 20.00    -0.297 NA
HETATM    9  C5  UNL     1     -34.339   5.597   2.851  1.00 20.00     0.166 C 
ENDBRANCH   1   4
TORSDOF 1
