REMARK  1 active torsions:
REMARK  status: ('A' for Active; 'I' for Inactive)
REMARK    1  A    between atoms: C3_3  and  C4_4 
ROOT
HETATM    1  C1  UNL     1     -34.195   4.889   2.555  1.00 20.00     0.061 C 
HETATM    2  C2  UNL     1     -33.108   5.578   2.196  1.00 20.00     0.087 C 
HETATM    3  C4  UNL     1     -34.835   5.518   3.750  1.00 20.00     0.376 C 
HETATM    4  C5  UNL     1     -32.918   6.738   3.112  1.00 20.00     0.463 C 
HETATM    5  C6  UNL     1     -34.089   7.442   5.169  1.00 20.00     0.324 C 
HETATM    6  N7  UNL     1     -34.176   6.828   3.862  1.00 20.00     0.211 N 
HETATM    7  F9  UNL     1     -36.170   5.692   3.569  1.00 20.00    -0.195 F 
HETATM    8  F10 UNL     1     -31.856   6.540   3.934  1.00 20.00    -0.169 F 
HETATM    9  F11 UNL     1     -32.695   7.892   2.435  1.00 20.00    -0.169 F 
ENDROOT
BRANCH   3  10
HETATM   10  C3  UNL     1     -34.550   4.628   4.917  1.00 20.00     0.312 C 
HETATM   11  O8  UNL     1     -34.938   4.861   6.056  1.00 20.00    -0.301 OA
ENDBRANCH   3  10
TORSDOF 1
