REMARK  2 active torsions:
REMARK  status: ('A' for Active; 'I' for Inactive)
REMARK    1  A    between atoms: C4_4  and  C10_10 
REMARK    2  A    between atoms: C5_5  and  C10_10 
ROOT
HETATM    1  C1  UNL     1     -35.054   3.636   4.681  1.00 20.00    -0.026 C 
HETATM    2  C2  UNL     1     -35.596   4.732   4.130  1.00 20.00    -0.024 C 
HETATM    3  C6  UNL     1     -35.339   5.178   6.377  1.00 20.00     0.018 C 
HETATM    4  C7  UNL     1     -33.113   4.893   5.571  1.00 20.00     0.030 C 
HETATM    5  C8  UNL     1     -34.369   4.071   5.954  1.00 20.00     0.010 C 
HETATM    6  C9  UNL     1     -35.251   5.904   5.026  1.00 20.00     0.028 C 
HETATM    7  C10 UNL     1     -33.724   6.184   4.931  1.00 20.00     0.044 C 
ENDROOT
BRANCH   7   8
HETATM    8  C4  UNL     1     -33.313   7.433   5.650  1.00 20.00    -0.019 C 
HETATM    9  C3  UNL     1     -32.996   7.479   6.948  1.00 20.00     0.008 C 
ENDBRANCH   7   8
BRANCH   7  10
HETATM   10  C5  UNL     1     -33.258   6.396   3.518  1.00 20.00     0.136 C 
HETATM   11  C11 UNL     1     -31.781   6.603   3.316  1.00 20.00     0.092 C 
HETATM   12  O12 UNL     1     -34.045   6.398   2.572  1.00 20.00    -0.297 OA
ENDBRANCH   7  10
TORSDOF 2
