REMARK  0 active torsions:
REMARK  status: ('A' for Active; 'I' for Inactive)
ROOT
HETATM    1  C1  UNL     1     -33.502   6.492   5.557  1.00 20.00     0.131 A 
HETATM    2  C2  UNL     1     -34.966   4.752   6.041  1.00 20.00     0.233 A 
HETATM    3  C3  UNL     1     -33.659   6.150   4.268  1.00 20.00     0.010 A 
HETATM    4  C4  UNL     1     -34.465   5.124   3.948  1.00 20.00     0.070 A 
HETATM    5  C5  UNL     1     -33.352   6.366   2.879  1.00 20.00     0.017 A 
HETATM    6  C6  UNL     1     -34.171   5.322   2.546  1.00 20.00     0.033 A 
HETATM    7  N7  UNL     1     -34.172   5.779   6.496  1.00 20.00    -0.253 NA
HETATM    8  N8  UNL     1     -35.166   4.358   4.759  1.00 20.00    -0.241 NA
ENDROOT
TORSDOF 0
