REMARK  2 active torsions:
REMARK  status: ('A' for Active; 'I' for Inactive)
REMARK    1  A    between atoms: C5_5  and  C8_8 
REMARK    2  A    between atoms: C8_8  and  N10_10 
ROOT
HETATM    1  C1  UNL     1     -34.904   5.881   6.734  1.00 20.00     0.135 A 
HETATM    2  C2  UNL     1     -34.326   6.577   5.699  1.00 20.00     0.112 A 
HETATM    3  C3  UNL     1     -34.468   4.426   5.243  1.00 20.00     0.210 A 
HETATM    4  N9  UNL     1     -34.990   4.542   6.444  1.00 20.00    -0.255 NA
HETATM    5  N10 UNL     1     -34.051   5.631   4.752  1.00 20.00    -0.338 N 
ENDROOT
BRANCH   5   6
HETATM    6  C8  UNL     1     -33.415   5.870   3.423  1.00 20.00     0.047 C 
HETATM    7  C6  UNL     1     -32.050   5.158   3.246  1.00 20.00     0.043 C 
HETATM    8  C7  UNL     1     -34.354   5.304   2.330  1.00 20.00     0.043 C 
BRANCH   6   9
HETATM    9  C5  UNL     1     -33.110   7.361   3.280  1.00 20.00    -0.007 C 
HETATM   10  C4  UNL     1     -31.921   7.932   3.051  1.00 20.00     0.009 C 
ENDBRANCH   6   9
ENDBRANCH   5   6
TORSDOF 2
