REMARK  1 active torsions:
REMARK  status: ('A' for Active; 'I' for Inactive)
REMARK    1  A    between atoms: C2_2  and  C3_3 
ROOT
HETATM    1  C1  UNL     1     -34.200   5.139   4.545  1.00 20.00    -0.043 C 
HETATM    2  C2  UNL     1     -33.810   5.709   3.404  1.00 20.00     0.055 C 
HETATM    3  C4  UNL     1     -35.128   3.989   4.862  1.00 20.00     0.040 C 
HETATM    4  C5  UNL     1     -35.167   4.610   6.272  1.00 20.00     0.046 C 
HETATM    5  C6  UNL     1     -33.864   5.404   6.002  1.00 20.00     0.199 C 
HETATM    6  F9  UNL     1     -33.863   6.679   6.458  1.00 20.00    -0.245 F 
ENDROOT
BRANCH   2   7
HETATM    7  C3  UNL     1     -32.861   6.856   3.410  1.00 20.00     0.145 C 
HETATM    8  C7  UNL     1     -32.482   7.430   2.070  1.00 20.00     0.096 C 
HETATM    9  O8  UNL     1     -32.422   7.335   4.453  1.00 20.00    -0.294 OA
ENDBRANCH   2   7
TORSDOF 1
