REMARK  1 active torsions:
REMARK  status: ('A' for Active; 'I' for Inactive)
REMARK    1  A    between atoms: C2_2  and  C3_3 
ROOT
HETATM    1  C1  UNL     1     -34.688   4.774   3.617  1.00 20.00    -0.015 C 
HETATM    2  C2  UNL     1     -34.357   5.829   4.382  1.00 20.00    -0.012 C 
HETATM    3  C4  UNL     1     -34.401   4.794   2.128  1.00 20.00     0.033 C 
HETATM    4  C5  UNL     1     -34.550   7.325   2.373  1.00 20.00     0.016 C 
HETATM    5  C6  UNL     1     -33.738   7.002   3.681  1.00 20.00     0.030 C 
HETATM    6  C7  UNL     1     -33.737   6.139   1.753  1.00 20.00    -0.002 C 
HETATM    7  C8  UNL     1     -32.544   6.605   2.700  1.00 20.00    -0.036 C 
HETATM    8  C10 UNL     1     -31.716   7.794   2.174  1.00 20.00     0.016 C 
HETATM    9  C11 UNL     1     -31.554   5.529   3.165  1.00 20.00     0.016 C 
ENDROOT
BRANCH   2  10
HETATM   10  C3  UNL     1     -34.612   5.810   5.818  1.00 20.00     0.151 C 
HETATM   11  C9  UNL     1     -33.688   6.595   6.720  1.00 20.00     0.096 C 
HETATM   12  O12 UNL     1     -35.556   5.163   6.286  1.00 20.00    -0.293 OA
ENDBRANCH   2  10
TORSDOF 1
