REMARK  2 active torsions:
REMARK  status: ('A' for Active; 'I' for Inactive)
REMARK    1  A    between atoms: C1_1  and  C8_8 
REMARK    2  A    between atoms: C3_3  and  C9_9 
ROOT
HETATM    1  C4  UNL     1     -32.741   6.881   4.612  1.00 20.00     0.009 C 
HETATM    2  C5  UNL     1     -33.246   5.398   2.609  1.00 20.00     0.009 C 
HETATM    3  C6  UNL     1     -34.214   6.831   5.022  1.00 20.00     0.012 C 
HETATM    4  C7  UNL     1     -34.717   5.334   3.029  1.00 20.00     0.012 C 
HETATM    5  C8  UNL     1     -32.510   6.627   3.128  1.00 20.00     0.008 C 
HETATM    6  C9  UNL     1     -34.947   5.596   4.512  1.00 20.00     0.047 C 
ENDROOT
BRANCH   5   7
HETATM    7  C1  UNL     1     -32.940   7.855   2.340  1.00 20.00    -0.026 C 
HETATM    8  C2  UNL     1     -32.105   8.593   1.595  1.00 20.00    -0.035 C 
HETATM    9  C10 UNL     1     -32.527   9.798   0.821  1.00 20.00     0.036 C 
ENDBRANCH   5   7
BRANCH   6  10
HETATM   10  C3  UNL     1     -34.509   4.392   5.330  1.00 20.00     0.235 C 
HETATM   11  O11 UNL     1     -35.042   4.061   6.384  1.00 20.00    -0.306 OA
ENDBRANCH   6  10
TORSDOF 2
