REMARK  1 active torsions:
REMARK  status: ('A' for Active; 'I' for Inactive)
REMARK    1  A    between atoms: C1_1  and  C4_4 
ROOT
HETATM    1  C2  UNL     1     -33.741   7.315   3.980  1.00 20.00     0.225 A 
HETATM    2  C3  UNL     1     -32.469   6.597   4.268  1.00 20.00     0.225 A 
HETATM    3  C4  UNL     1     -33.680   6.344   5.137  1.00 20.00     0.099 A 
HETATM    4  C5  UNL     1     -33.659   6.938   6.523  1.00 20.00     0.031 C 
HETATM    5  F7  UNL     1     -34.443   6.941   2.847  1.00 20.00    -0.245 F 
HETATM    6  F8  UNL     1     -32.078   5.608   3.383  1.00 20.00    -0.245 F 
ENDROOT
BRANCH   3   7
HETATM    7  C1  UNL     1     -34.374   5.044   4.973  1.00 20.00     0.233 C 
HETATM    8  O6  UNL     1     -34.977   4.761   3.942  1.00 20.00    -0.279 OA
HETATM    9 CL9  UNL     1     -34.218   4.036   6.379  1.00 20.00    -0.043 Cl
ENDBRANCH   3   7
TORSDOF 1
