REMARK  2 active torsions:
REMARK  status: ('A' for Active; 'I' for Inactive)
REMARK    1  A    between atoms: C3_3  and  C6_6 
REMARK    2  A    between atoms: C3_3  and  O10_10 
ROOT
HETATM    1  C1  UNL     1     -34.357   6.132   5.256  1.00 20.00    -0.010 C 
HETATM    2  C2  UNL     1     -34.508   4.803   5.228  1.00 20.00    -0.087 C 
HETATM    3  C4  UNL     1     -34.910   4.320   3.871  1.00 20.00     0.034 C 
HETATM    4  C5  UNL     1     -35.278   5.613   3.136  1.00 20.00     0.023 C 
HETATM    5  C6  UNL     1     -34.635   6.753   3.928  1.00 20.00     0.108 C 
HETATM    6  C7  UNL     1     -34.294   3.855   6.351  1.00 20.00     0.043 C 
ENDROOT
BRANCH   5   7
HETATM    7  C3  UNL     1     -33.331   7.187   3.337  1.00 20.00     0.266 C 
HETATM    8  O9  UNL     1     -32.251   7.075   3.901  1.00 20.00    -0.265 OA
BRANCH   7   9
HETATM    9  O10 UNL     1     -33.546   7.715   2.098  1.00 20.00    -0.326 OA
HETATM   10  C8  UNL     1     -32.376   8.175   1.414  1.00 20.00     0.213 C 
ENDBRANCH   7   9
ENDBRANCH   5   7
TORSDOF 2
