REMARK  1 active torsions:
REMARK  status: ('A' for Active; 'I' for Inactive)
REMARK    1  A    between atoms: C3_3  and  C6_6 
ROOT
HETATM    1  C1  UNL     1     -32.806   6.274   2.579  1.00 20.00    -0.030 C 
HETATM    2  C2  UNL     1     -32.921   7.099   3.629  1.00 20.00    -0.026 C 
HETATM    3  C4  UNL     1     -33.793   5.190   2.266  1.00 20.00     0.032 C 
HETATM    4  C5  UNL     1     -34.050   7.024   4.625  1.00 20.00     0.018 C 
HETATM    5  C6  UNL     1     -34.874   5.726   4.515  1.00 20.00     0.098 C 
HETATM    6  C7  UNL     1     -35.116   5.293   3.055  1.00 20.00    -0.000 C 
HETATM    7  C8  UNL     1     -33.541   7.269   6.049  1.00 20.00     0.015 C 
HETATM    8  C9  UNL     1     -36.093   6.247   2.355  1.00 20.00     0.011 C 
ENDROOT
BRANCH   5   9
HETATM    9  C3  UNL     1     -34.217   4.527   5.193  1.00 20.00     0.178 C 
HETATM   10  O10 UNL     1     -33.083   4.207   4.740  1.00 20.00    -0.648 OA
HETATM   11  O11 UNL     1     -34.894   4.007   6.123  1.00 20.00    -0.648 OA
ENDBRANCH   5   9
TORSDOF 1
