REMARK  1 active torsions:
REMARK  status: ('A' for Active; 'I' for Inactive)
REMARK    1  A    between atoms: C3_3  and  C4_4 
ROOT
HETATM    1  C1  UNL     1     -34.213   5.216   2.816  1.00 20.00     0.012 A 
HETATM    2  C2  UNL     1     -32.967   5.410   2.390  1.00 20.00     0.003 A 
HETATM    3  C4  UNL     1     -34.461   6.042   4.020  1.00 20.00     0.231 A 
HETATM    4  C5  UNL     1     -32.273   6.377   3.281  1.00 20.00     0.141 A 
HETATM    5  C6  UNL     1     -31.779   7.613   2.548  1.00 20.00     0.044 C 
HETATM    6  O8  UNL     1     -33.256   6.779   4.260  1.00 20.00    -0.364 OA
ENDROOT
BRANCH   3   7
HETATM    7  C3  UNL     1     -34.696   5.150   5.195  1.00 20.00     0.251 C 
HETATM    8  O7  UNL     1     -34.752   3.930   5.077  1.00 20.00    -0.277 OA
HETATM    9 CL9  UNL     1     -34.868   6.047   6.673  1.00 20.00    -0.041 Cl
ENDBRANCH   3   7
TORSDOF 1
