REMARK  1 active torsions:
REMARK  status: ('A' for Active; 'I' for Inactive)
REMARK    1  A    between atoms: C3_3  and  C7_7 
ROOT
HETATM    1  C1  UNL     1     -35.412   4.601   3.687  1.00 20.00    -0.030 C 
HETATM    2  C2  UNL     1     -34.554   4.998   2.734  1.00 20.00    -0.025 C 
HETATM    3  C4  UNL     1     -35.119   4.832   5.143  1.00 20.00     0.027 C 
HETATM    4  C5  UNL     1     -34.241   6.065   5.395  1.00 20.00     0.010 C 
HETATM    5  C6  UNL     1     -33.262   5.629   3.026  1.00 20.00     0.025 A 
HETATM    6  C7  UNL     1     -33.175   7.114   3.259  1.00 20.00     0.085 A 
HETATM    7  C8  UNL     1     -33.088   6.160   4.432  1.00 20.00     0.007 A 
ENDROOT
BRANCH   6   8
HETATM    8  C3  UNL     1     -31.965   7.834   2.842  1.00 20.00     0.224 C 
HETATM    9  O9  UNL     1     -31.044   8.054   3.622  1.00 20.00    -0.279 OA
HETATM   10 CL10 UNL     1     -32.028   8.304   1.170  1.00 20.00    -0.043 Cl
ENDBRANCH   6   8
TORSDOF 1
