REMARK  1 active torsions:
REMARK  status: ('A' for Active; 'I' for Inactive)
REMARK    1  A    between atoms: C6_6  and  N10_10 
ROOT
HETATM    1  C1  UNL     1     -32.555   8.109   2.256  1.00 20.00     0.064 C 
HETATM    2  C2  UNL     1     -33.495   5.813   2.363  1.00 20.00     0.021 C 
HETATM    3  C3  UNL     1     -34.103   5.280   3.659  1.00 20.00     0.037 C 
HETATM    4  C4  UNL     1     -32.350   6.743   4.317  1.00 20.00     0.055 C 
HETATM    5  C5  UNL     1     -32.347   6.750   2.782  1.00 20.00     0.095 C 
HETATM    6  C6  UNL     1     -33.783   6.362   4.684  1.00 20.00     0.223 C 
HETATM    7  N9  UNL     1     -32.718   9.181   1.841  1.00 20.00    -0.197 NA
ENDROOT
BRANCH   6   8
HETATM    8  N10 UNL     1     -33.911   5.907   6.058  1.00 20.00     0.084 N 
HETATM    9  C7  UNL     1     -35.279   5.456   6.333  1.00 20.00     0.309 C 
HETATM   10  C8  UNL     1     -33.535   6.970   6.996  1.00 20.00     0.309 C 
ENDBRANCH   6   8
TORSDOF 1
