REMARK  1 active torsions:
REMARK  status: ('A' for Active; 'I' for Inactive)
REMARK    1  A    between atoms: C1_1  and  C3_3 
ROOT
HETATM    1  C2  UNL     1     -34.703   4.754   3.443  1.00 20.00     0.030 A 
HETATM    2  C3  UNL     1     -34.789   5.940   4.366  1.00 20.00     0.070 A 
HETATM    3  C4  UNL     1     -34.082   6.061   3.040  1.00 20.00     0.070 A 
HETATM    4 BR7  UNL     1     -32.178   6.159   2.950  1.00 20.00    -0.090 Br
ENDROOT
BRANCH   2   5
HETATM    5  C1  UNL     1     -34.052   5.921   5.635  1.00 20.00     0.128 C 
HETATM    6  C5  UNL     1     -34.278   4.733   6.531  1.00 20.00     0.091 C 
HETATM    7  O6  UNL     1     -33.286   6.830   5.951  1.00 20.00    -0.298 OA
ENDBRANCH   2   5
TORSDOF 1
