REMARK  0 active torsions:
REMARK  status: ('A' for Active; 'I' for Inactive)
ROOT
HETATM    1  C1  UNL     1     -33.790   6.392   5.029  1.00 20.00     0.080 A 
HETATM    2  C2  UNL     1     -32.167   6.220   3.012  1.00 20.00     0.019 A 
HETATM    3  C3  UNL     1     -34.404   4.878   3.312  1.00 20.00     0.128 A 
HETATM    4  C4  UNL     1     -33.236   6.955   3.776  1.00 20.00     0.053 A 
HETATM    5  C5  UNL     1     -33.616   5.987   2.683  1.00 20.00     0.015 A 
HETATM    6  C6  UNL     1     -35.151   4.333   5.654  1.00 20.00     0.150 C 
HETATM    7  N7  UNL     1     -34.459   5.217   4.731  1.00 20.00    -0.379 N 
HETATM    8  S8  UNL     1     -33.525   7.191   6.452  1.00 20.00    -0.065 SA
ENDROOT
TORSDOF 0
