REMARK  1 active torsions:
REMARK  status: ('A' for Active; 'I' for Inactive)
REMARK    1  A    between atoms: C1_1  and  C8_8 
ROOT
HETATM    1  C2  UNL     1     -34.707   6.790   3.438  1.00 20.00     0.013 A 
HETATM    2  C3  UNL     1     -32.876   6.503   4.560  1.00 20.00     0.013 A 
HETATM    3  C4  UNL     1     -33.116   5.567   2.621  1.00 20.00     0.013 A 
HETATM    4  C5  UNL     1     -34.368   6.295   4.850  1.00 20.00     0.006 A 
HETATM    5  C6  UNL     1     -34.609   5.355   2.905  1.00 20.00     0.006 A 
HETATM    6  C7  UNL     1     -32.772   5.068   4.030  1.00 20.00     0.006 A 
HETATM    7  C8  UNL     1     -33.216   7.002   3.151  1.00 20.00     0.033 A 
HETATM    8  C9  UNL     1     -34.271   4.847   4.323  1.00 20.00    -0.031 A 
HETATM    9  C11 UNL     1     -34.859   3.648   4.975  1.00 20.00     0.016 C 
ENDROOT
BRANCH   7  10
HETATM   10  C1  UNL     1     -32.623   8.212   2.498  1.00 20.00     0.133 C 
HETATM   11  C10 UNL     1     -32.836   9.529   3.193  1.00 20.00     0.091 C 
HETATM   12  O12 UNL     1     -31.991   8.132   1.445  1.00 20.00    -0.297 OA
ENDBRANCH   7  10
TORSDOF 1
