REMARK  3 active torsions:
REMARK  status: ('A' for Active; 'I' for Inactive)
REMARK    1  A    between atoms: C2_2  and  C5_5 
REMARK    2  A    between atoms: C3_3  and  C6_6 
REMARK    3  A    between atoms: C3_3  and  O10_10 
ROOT
HETATM    1  C4  UNL     1     -36.002   5.787   3.629  1.00 20.00     0.025 A 
HETATM    2  C5  UNL     1     -35.388   4.489   4.074  1.00 20.00     0.028 A 
HETATM    3  C6  UNL     1     -34.785   5.256   2.923  1.00 20.00     0.094 A 
ENDROOT
BRANCH   3   4
HETATM    4  C3  UNL     1     -33.506   5.965   3.063  1.00 20.00     0.263 C 
HETATM    5  O9  UNL     1     -32.634   5.653   3.863  1.00 20.00    -0.265 OA
BRANCH   4   6
HETATM    6  O10 UNL     1     -33.458   6.999   2.177  1.00 20.00    -0.326 OA
HETATM    7  C8  UNL     1     -32.259   7.780   2.206  1.00 20.00     0.213 C 
ENDBRANCH   4   6
ENDBRANCH   3   4
BRANCH   2   8
HETATM    8  C2  UNL     1     -34.718   4.434   5.365  1.00 20.00    -0.088 C 
HETATM    9  C1  UNL     1     -33.778   3.517   5.638  1.00 20.00     0.014 C 
HETATM   10  C7  UNL     1     -35.137   5.464   6.372  1.00 20.00     0.043 C 
ENDBRANCH   2   8
TORSDOF 3
