REMARK  0 active torsions:
REMARK  status: ('A' for Active; 'I' for Inactive)
ROOT
HETATM    1  C1  UNL     1     -33.500   6.539   5.800  1.00 20.00     0.029 C 
HETATM    2  C2  UNL     1     -35.022   6.417   5.744  1.00 20.00     0.046 C 
HETATM    3  C3  UNL     1     -32.925   6.709   4.400  1.00 20.00     0.167 C 
HETATM    4  C4  UNL     1     -34.753   5.591   3.377  1.00 20.00     0.209 C 
HETATM    5  C5  UNL     1     -35.471   5.376   4.713  1.00 20.00     0.134 C 
HETATM    6  O6  UNL     1     -33.334   5.639   3.551  1.00 20.00    -0.388 OA
HETATM    7 CL7  UNL     1     -35.111   3.720   5.317  1.00 20.00    -0.099 Cl
HETATM    8 CL8  UNL     1     -37.242   5.495   4.469  1.00 20.00    -0.099 Cl
ENDROOT
TORSDOF 0
