REMARK  2 active torsions:
REMARK  status: ('A' for Active; 'I' for Inactive)
REMARK    1  A    between atoms: C1_1  and  C4_4 
REMARK    2  A    between atoms: C2_2  and  N10_10 
ROOT
HETATM    1  C5  UNL     1     -35.234   4.443   5.819  1.00 20.00     0.003 C 
HETATM    2  C6  UNL     1     -34.965   3.827   4.449  1.00 20.00     0.029 C 
HETATM    3  C7  UNL     1     -34.028   5.233   6.318  1.00 20.00     0.029 C 
HETATM    4  C8  UNL     1     -34.510   4.873   3.441  1.00 20.00     0.251 C 
HETATM    5  C9  UNL     1     -33.576   6.273   5.303  1.00 20.00     0.251 C 
HETATM    6  N10 UNL     1     -33.307   5.595   3.986  1.00 20.00    -0.006 N 
HETATM    7  H24 UNL     1     -32.558   4.903   4.131  1.00 20.00     0.297 HD
ENDROOT
BRANCH   6   8
HETATM    8  C2  UNL     1     -32.775   6.554   2.998  1.00 20.00     0.118 C 
HETATM    9  C1  UNL     1     -32.342   7.334   2.194  1.00 20.00    -0.049 C 
BRANCH   9  10
HETATM   10  C4  UNL     1     -31.826   8.252   1.242  1.00 20.00     0.056 C 
HETATM   11  C3  UNL     1     -32.388   9.447   1.037  1.00 20.00     0.021 C 
ENDBRANCH   9  10
ENDBRANCH   6   8
TORSDOF 2
