REMARK  2 active torsions:
REMARK  status: ('A' for Active; 'I' for Inactive)
REMARK    1  A    between atoms: C1_1  and  C6_6 
REMARK    2  A    between atoms: C7_7  and  C9_9 
ROOT
HETATM    1  C2  UNL     1     -33.532   6.084   2.476  1.00 20.00     0.012 C 
HETATM    2  C3  UNL     1     -32.039   7.360   4.063  1.00 20.00     0.012 C 
HETATM    3  C4  UNL     1     -34.344   5.560   3.659  1.00 20.00     0.005 C 
HETATM    4  C5  UNL     1     -32.848   6.837   5.248  1.00 20.00     0.005 C 
HETATM    5  C6  UNL     1     -32.891   7.429   2.801  1.00 20.00     0.047 C 
HETATM    6  C7  UNL     1     -33.497   5.481   4.937  1.00 20.00    -0.015 C 
ENDROOT
BRANCH   5   7
HETATM    7  C1  UNL     1     -31.976   7.792   1.647  1.00 20.00     0.235 C 
HETATM    8  O10 UNL     1     -32.115   8.803   0.966  1.00 20.00    -0.306 OA
ENDBRANCH   5   7
BRANCH   6   9
HETATM    9  C9  UNL     1     -34.342   5.004   6.116  1.00 20.00     0.000 C 
HETATM   10  C8  UNL     1     -34.952   3.667   5.852  1.00 20.00     0.005 C 
ENDBRANCH   6   9
TORSDOF 2
