REMARK  1 active torsions:
REMARK  status: ('A' for Active; 'I' for Inactive)
REMARK    1  A    between atoms: C3_3  and  C8_8 
ROOT
HETATM    1  C1  UNL     1     -35.140   4.381   6.424  1.00 20.00    -0.025 C 
HETATM    2  C2  UNL     1     -34.894   3.751   5.266  1.00 20.00    -0.022 C 
HETATM    3  C4  UNL     1     -32.891   4.666   5.967  1.00 20.00     0.021 C 
HETATM    4  C5  UNL     1     -34.302   6.543   5.560  1.00 20.00     0.063 C 
HETATM    5  C6  UNL     1     -34.062   5.424   6.602  1.00 20.00     0.012 C 
HETATM    6  C7  UNL     1     -33.657   4.382   4.668  1.00 20.00     0.059 C 
HETATM    7  C8  UNL     1     -34.025   5.815   4.215  1.00 20.00     0.202 C 
HETATM    8  F11 UNL     1     -35.152   5.789   3.457  1.00 20.00    -0.231 F 
ENDROOT
BRANCH   7   9
HETATM    9  C3  UNL     1     -32.906   6.438   3.439  1.00 20.00     0.338 C 
HETATM   10  O9  UNL     1     -31.951   7.020   3.930  1.00 20.00    -0.256 OA
HETATM   11  F10 UNL     1     -32.931   6.317   2.104  1.00 20.00    -0.161 F 
ENDBRANCH   7   9
TORSDOF 1
