REMARK  2 active torsions:
REMARK  status: ('A' for Active; 'I' for Inactive)
REMARK    1  A    between atoms: C1_1  and  C7_7 
REMARK    2  A    between atoms: C1_1  and  C9_9 
ROOT
HETATM    1  C2  UNL     1     -35.062   4.580   5.507  1.00 20.00     0.000 C 
HETATM    2  C3  UNL     1     -34.846   6.001   6.015  1.00 20.00     0.001 C 
HETATM    3  C4  UNL     1     -35.137   4.536   3.985  1.00 20.00     0.001 C 
HETATM    4  C5  UNL     1     -33.607   6.643   5.390  1.00 20.00     0.017 C 
HETATM    5  C6  UNL     1     -33.900   5.163   3.339  1.00 20.00     0.017 C 
HETATM    6  C7  UNL     1     -33.608   6.573   3.861  1.00 20.00     0.018 C 
HETATM    7  C8  UNL     1     -34.645   7.548   3.305  1.00 20.00     0.023 C 
ENDROOT
BRANCH   6   8
HETATM    8  C1  UNL     1     -32.299   7.113   3.284  1.00 20.00     0.148 C 
HETATM    9  O10 UNL     1     -31.412   7.529   4.027  1.00 20.00    -0.296 OA
BRANCH   8  10
HETATM   10  C9  UNL     1     -32.189   7.094   1.777  1.00 20.00     0.193 C 
HETATM   11 CL11 UNL     1     -31.969   8.733   1.145  1.00 20.00    -0.123 Cl
ENDBRANCH   8  10
ENDBRANCH   6   8
TORSDOF 2
