REMARK  1 active torsions:
REMARK  status: ('A' for Active; 'I' for Inactive)
REMARK    1  A    between atoms: C3_3  and  C8_8 
ROOT
HETATM    1  C1  UNL     1     -34.842   3.869   6.457  1.00 20.00    -0.025 C 
HETATM    2  C2  UNL     1     -33.605   4.319   6.714  1.00 20.00    -0.024 C 
HETATM    3  C4  UNL     1     -33.608   3.569   4.539  1.00 20.00     0.018 C 
HETATM    4  C5  UNL     1     -35.037   3.920   4.958  1.00 20.00     0.013 C 
HETATM    5  C6  UNL     1     -32.978   4.686   5.387  1.00 20.00     0.024 C 
HETATM    6  C7  UNL     1     -35.148   5.419   4.545  1.00 20.00     0.005 C 
HETATM    7  C8  UNL     1     -33.682   5.950   4.799  1.00 20.00     0.027 C 
HETATM    8  C10 UNL     1     -35.670   5.572   3.118  1.00 20.00     0.012 C 
HETATM    9  C11 UNL     1     -33.663   7.159   5.742  1.00 20.00     0.024 C 
ENDROOT
BRANCH   7  10
HETATM   10  C3  UNL     1     -32.969   6.381   3.539  1.00 20.00     0.132 C 
HETATM   11  C9  UNL     1     -31.515   6.745   3.675  1.00 20.00     0.091 C 
HETATM   12  O12 UNL     1     -33.547   6.429   2.454  1.00 20.00    -0.298 OA
ENDBRANCH   7  10
TORSDOF 1
