REMARK  3 active torsions:
REMARK  status: ('A' for Active; 'I' for Inactive)
REMARK    1  A    between atoms: C1_1  and  C7_7 
REMARK    2  A    between atoms: C2_2  and  C9_9 
REMARK    3  A    between atoms: C9_9  and  C10_10 
ROOT
HETATM    1  C3  UNL     1     -32.184   8.603   0.022  1.00 20.00     0.128 C 
HETATM    2  C4  UNL     1     -32.520   9.931   0.649  1.00 20.00     0.079 C 
HETATM    3  C5  UNL     1     -32.166   7.483   1.031  1.00 20.00     0.095 C 
HETATM    4  C6  UNL     1     -33.008   9.507   2.029  1.00 20.00     0.025 C 
HETATM    5  C7  UNL     1     -32.198   8.253   2.352  1.00 20.00     0.072 C 
HETATM    6  O11 UNL     1     -31.951   8.451  -1.171  1.00 20.00    -0.298 OA
ENDROOT
BRANCH   5   7
HETATM    7  C1  UNL     1     -32.793   7.468   3.437  1.00 20.00    -0.101 C 
HETATM    8  C2  UNL     1     -33.281   6.823   4.325  1.00 20.00    -0.106 C 
BRANCH   8   9
HETATM    9  C9  UNL     1     -33.876   6.037   5.414  1.00 20.00     0.093 C 
BRANCH   9  10
HETATM   10  C10 UNL     1     -34.644   4.820   4.898  1.00 20.00     0.007 C 
HETATM   11  C8  UNL     1     -35.262   3.989   6.015  1.00 20.00     0.006 C 
ENDBRANCH   9  10
ENDBRANCH   8   9
ENDBRANCH   5   7
TORSDOF 3
