REMARK  1 active torsions:
REMARK  status: ('A' for Active; 'I' for Inactive)
REMARK    1  A    between atoms: C3_3  and  C9_9 
ROOT
HETATM    1  C1  UNL     1     -32.423   5.855   3.061  1.00 20.00    -0.067 A 
HETATM    2  C2  UNL     1     -31.892   4.768   2.542  1.00 20.00     0.016 C 
HETATM    3  C4  UNL     1     -35.796   5.087   5.074  1.00 20.00     0.000 C 
HETATM    4  C5  UNL     1     -35.734   5.285   3.560  1.00 20.00     0.001 C 
HETATM    5  C6  UNL     1     -34.397   4.965   5.676  1.00 20.00     0.001 C 
HETATM    6  C7  UNL     1     -34.866   6.487   3.184  1.00 20.00     0.015 C 
HETATM    7  C8  UNL     1     -33.526   6.167   5.314  1.00 20.00     0.015 C 
HETATM    8  C9  UNL     1     -32.296   7.250   3.238  1.00 20.00     0.096 A 
HETATM    9  C10 UNL     1     -33.496   6.385   3.818  1.00 20.00    -0.003 A 
ENDROOT
BRANCH   8  10
HETATM   10  C3  UNL     1     -32.480   8.066   2.037  1.00 20.00     0.132 C 
HETATM   11  C11 UNL     1     -32.867   9.504   2.249  1.00 20.00     0.091 C 
HETATM   12  O12 UNL     1     -32.325   7.599   0.909  1.00 20.00    -0.298 OA
ENDBRANCH   8  10
TORSDOF 1
