REMARK  4 active torsions:
REMARK  status: ('A' for Active; 'I' for Inactive)
REMARK    1  A    between atoms: C1_1  and  C7_7 
REMARK    2  A    between atoms: C6_6  and  O10_10 
REMARK    3  A    between atoms: C7_7  and  C8_8 
REMARK    4  A    between atoms: C7_7  and  O10_10 
ROOT
HETATM    1  C7  UNL     1     -33.333   5.426   4.592  1.00 20.00     0.193 C 
ENDROOT
BRANCH   1   2
HETATM    2  C1  UNL     1     -33.719   5.733   6.036  1.00 20.00     0.152 C 
HETATM    3  C2  UNL     1     -33.315   4.731   7.087  1.00 20.00     0.093 C 
HETATM    4  O9  UNL     1     -34.333   6.755   6.345  1.00 20.00    -0.296 OA
ENDBRANCH   1   2
BRANCH   1   5
HETATM    5  C8  UNL     1     -34.428   4.651   3.838  1.00 20.00     0.014 C 
HETATM    6  C4  UNL     1     -35.086   3.572   4.705  1.00 20.00     0.012 C 
HETATM    7  C5  UNL     1     -35.506   5.610   3.320  1.00 20.00     0.012 C 
ENDBRANCH   1   5
BRANCH   1   8
HETATM    8  O10 UNL     1     -33.051   6.647   3.923  1.00 20.00    -0.378 OA
BRANCH   8   9
HETATM    9  C6  UNL     1     -32.265   6.435   2.757  1.00 20.00     0.164 C 
HETATM   10  C3  UNL     1     -32.001   7.769   2.092  1.00 20.00     0.033 C 
ENDBRANCH   8   9
ENDBRANCH   1   8
TORSDOF 4
