REMARK  1 active torsions:
REMARK  status: ('A' for Active; 'I' for Inactive)
REMARK    1  A    between atoms: C2_2  and  C3_3 
ROOT
HETATM    1  C1  UNL     1     -34.537   6.926   3.903  1.00 20.00    -0.009 C 
HETATM    2  C2  UNL     1     -33.177   6.815   3.988  1.00 20.00    -0.007 C 
HETATM    3  C4  UNL     1     -34.214   4.099   6.318  1.00 20.00     0.002 C 
HETATM    4  C5  UNL     1     -35.348   4.990   5.739  1.00 20.00     0.009 C 
HETATM    5  C6  UNL     1     -32.893   4.665   5.707  1.00 20.00     0.015 C 
HETATM    6  C7  UNL     1     -34.628   5.576   4.560  1.00 20.00     0.021 C 
HETATM    7  C8  UNL     1     -33.315   6.068   5.301  1.00 20.00    -0.007 C 
HETATM    8  C10 UNL     1     -33.268   7.028   6.509  1.00 20.00     0.021 C 
ENDROOT
BRANCH   2   9
HETATM    9  C3  UNL     1     -32.170   7.646   3.345  1.00 20.00     0.152 C 
HETATM   10  C9  UNL     1     -32.504   8.280   2.013  1.00 20.00     0.096 C 
HETATM   11  O11 UNL     1     -31.062   7.825   3.869  1.00 20.00    -0.293 OA
ENDBRANCH   2   9
TORSDOF 1
