REMARK  1 active torsions:
REMARK  status: ('A' for Active; 'I' for Inactive)
REMARK    1  A    between atoms: C3_3  and  C7_7 
ROOT
HETATM    1  C1  UNL     1     -34.051   5.150   6.232  1.00 20.00    -0.023 C 
HETATM    2  C2  UNL     1     -33.590   6.324   5.765  1.00 20.00    -0.075 C 
HETATM    3  C4  UNL     1     -34.912   4.212   5.440  1.00 20.00     0.027 C 
HETATM    4  C5  UNL     1     -34.951   4.532   3.947  1.00 20.00     0.005 C 
HETATM    5  C6  UNL     1     -35.059   6.035   3.697  1.00 20.00     0.018 C 
HETATM    6  C7  UNL     1     -33.930   6.820   4.379  1.00 20.00     0.100 C 
HETATM    7  C8  UNL     1     -32.751   7.230   6.623  1.00 20.00     0.044 C 
ENDROOT
BRANCH   6   8
HETATM    8  C3  UNL     1     -32.679   6.748   3.553  1.00 20.00     0.227 C 
HETATM    9  O9  UNL     1     -31.830   5.881   3.741  1.00 20.00    -0.279 OA
HETATM   10 CL10 UNL     1     -32.613   8.005   2.355  1.00 20.00    -0.043 Cl
ENDBRANCH   6   8
TORSDOF 1
