REMARK  2 active torsions:
REMARK  status: ('A' for Active; 'I' for Inactive)
REMARK    1  A    between atoms: C3_3  and  C5_5 
REMARK    2  A    between atoms: C3_3  and  O11_11 
ROOT
HETATM    1  C1  UNL     1     -33.955   7.261   7.210  1.00 20.00     0.013 C 
HETATM    2  C2  UNL     1     -33.961   7.062   6.027  1.00 20.00    -0.096 C 
HETATM    3  C4  UNL     1     -33.885   8.042   3.706  1.00 20.00     0.044 A 
HETATM    4  C5  UNL     1     -33.968   6.824   4.605  1.00 20.00     0.118 A 
HETATM    5  C6  UNL     1     -32.697   7.118   3.794  1.00 20.00    -0.018 A 
HETATM    6  C7  UNL     1     -32.381   6.269   2.585  1.00 20.00     0.017 C 
HETATM    7  C8  UNL     1     -31.461   7.630   4.496  1.00 20.00     0.017 C 
ENDROOT
BRANCH   4   8
HETATM    8  C3  UNL     1     -34.852   5.720   4.175  1.00 20.00     0.280 C 
HETATM    9  O10 UNL     1     -35.790   5.855   3.402  1.00 20.00    -0.263 OA
BRANCH   8  10
HETATM   10  O11 UNL     1     -34.454   4.559   4.770  1.00 20.00    -0.325 OA
HETATM   11  C9  UNL     1     -35.228   3.402   4.439  1.00 20.00     0.213 C 
ENDBRANCH   8  10
ENDBRANCH   4   8
TORSDOF 2
