REMARK  1 active torsions:
REMARK  status: ('A' for Active; 'I' for Inactive)
REMARK    1  A    between atoms: C4_4  and  C6_6 
ROOT
HETATM    1  C1  UNL     1     -35.145   4.207   4.073  1.00 20.00     0.009 A 
HETATM    2  C2  UNL     1     -35.055   4.488   5.376  1.00 20.00     0.082 A 
HETATM    3  C3  UNL     1     -34.812   5.190   3.084  1.00 20.00     0.037 A 
HETATM    4  C4  UNL     1     -34.408   6.397   3.495  1.00 20.00     0.079 A 
HETATM    5  C5  UNL     1     -34.609   5.823   5.826  1.00 20.00     0.288 A 
HETATM    6  O10 UNL     1     -34.525   6.085   7.021  1.00 20.00    -0.260 OA
HETATM    7  O11 UNL     1     -34.297   6.741   4.856  1.00 20.00    -0.276 OA
ENDROOT
BRANCH   4   8
HETATM    8  C6  UNL     1     -34.041   7.477   2.579  1.00 20.00     0.039 C 
HETATM    9  C7  UNL     1     -32.834   8.067   2.533  1.00 20.00    -0.085 C 
HETATM   10  C8  UNL     1     -32.419   9.177   1.608  1.00 20.00     0.043 C 
HETATM   11  C9  UNL     1     -31.746   7.616   3.473  1.00 20.00     0.043 C 
ENDBRANCH   4   8
TORSDOF 1
