REMARK  1 active torsions:
REMARK  status: ('A' for Active; 'I' for Inactive)
REMARK    1  A    between atoms: C3_3  and  C6_6 
ROOT
HETATM    1  C1  UNL     1     -34.765   3.657   5.967  1.00 20.00    -0.030 A 
HETATM    2  C2  UNL     1     -35.054   4.042   4.714  1.00 20.00    -0.025 A 
HETATM    3  C4  UNL     1     -34.078   4.786   6.695  1.00 20.00     0.033 A 
HETATM    4  C5  UNL     1     -34.645   5.422   4.407  1.00 20.00     0.024 A 
HETATM    5  C6  UNL     1     -33.188   5.811   4.425  1.00 20.00     0.068 A 
HETATM    6  C7  UNL     1     -34.007   5.919   5.690  1.00 20.00     0.009 A 
ENDROOT
BRANCH   5   7
HETATM    7  C3  UNL     1     -32.773   7.042   3.740  1.00 20.00     0.128 C 
HETATM    8  C8  UNL     1     -33.744   8.191   3.768  1.00 20.00     0.091 C 
HETATM    9  O9  UNL     1     -31.685   7.130   3.174  1.00 20.00    -0.298 OA
ENDBRANCH   5   7
TORSDOF 1
