REMARK  1 active torsions:
REMARK  status: ('A' for Active; 'I' for Inactive)
REMARK    1  A    between atoms: C9_9  and  C10_10 
ROOT
HETATM    1  C1  UNL     1     -35.155   4.818   5.789  1.00 20.00     0.001 A 
HETATM    2  C2  UNL     1     -34.563   5.777   6.728  1.00 20.00     0.001 A 
HETATM    3  C3  UNL     1     -34.727   4.703   4.515  1.00 20.00     0.012 A 
HETATM    4  C4  UNL     1     -33.554   6.601   6.373  1.00 20.00     0.012 A 
HETATM    5  C5  UNL     1     -33.034   5.660   2.898  1.00 20.00     0.001 A 
HETATM    6  C6  UNL     1     -32.082   7.199   4.406  1.00 20.00     0.001 A 
HETATM    7  C7  UNL     1     -33.649   5.563   4.085  1.00 20.00    -0.029 A 
HETATM    8  C8  UNL     1     -33.059   6.516   5.019  1.00 20.00    -0.029 A 
HETATM    9  C10 UNL     1     -31.965   6.719   2.982  1.00 20.00     0.094 A 
ENDROOT
BRANCH   9  10
HETATM   10  C9  UNL     1     -32.305   7.840   2.052  1.00 20.00     0.243 C 
HETATM   11  O11 UNL     1     -31.551   8.238   1.170  1.00 20.00    -0.306 OA
ENDBRANCH   9  10
TORSDOF 1
