REMARK  0 active torsions:
REMARK  status: ('A' for Active; 'I' for Inactive)
ROOT
HETATM    1  C1  UNL     1     -32.265   8.819   1.162  1.00 20.00     0.017 C 
HETATM    2  C2  UNL     1     -32.118   8.033   2.058  1.00 20.00    -0.057 C 
HETATM    3  C3  UNL     1     -34.084   7.164   4.192  1.00 20.00     0.182 C 
HETATM    4  C4  UNL     1     -33.513   5.389   2.541  1.00 20.00     0.182 C 
HETATM    5  C5  UNL     1     -31.938   7.071   3.155  1.00 20.00     0.341 C 
HETATM    6  C6  UNL     1     -34.333   5.697   3.805  1.00 20.00    -0.004 C 
HETATM    7  C7  UNL     1     -35.825   5.472   3.531  1.00 20.00     0.019 C 
HETATM    8  C8  UNL     1     -33.884   4.773   4.954  1.00 20.00     0.019 C 
HETATM    9  O9  UNL     1     -32.687   7.431   4.321  1.00 20.00    -0.350 OA
HETATM   10  O10 UNL     1     -32.137   5.718   2.729  1.00 20.00    -0.350 OA
ENDROOT
TORSDOF 0
