REMARK  3 active torsions:
REMARK  status: ('A' for Active; 'I' for Inactive)
REMARK    1  A    between atoms: C1_1  and  C2_2 
REMARK    2  A    between atoms: C4_4  and  C9_9 
REMARK    3  A    between atoms: C5_5  and  C9_9 
ROOT
HETATM    1  C2  UNL     1     -33.190   7.151   3.095  1.00 20.00    -0.004 C 
HETATM    2  C4  UNL     1     -33.466   6.134   3.926  1.00 20.00    -0.015 C 
ENDROOT
BRANCH   2   3
HETATM    3  C9  UNL     1     -34.749   6.022   4.706  1.00 20.00     0.073 C 
HETATM    4  C8  UNL     1     -35.500   4.742   4.359  1.00 20.00     0.022 C 
BRANCH   3   5
HETATM    5  C5  UNL     1     -34.433   6.048   6.200  1.00 20.00     0.130 C 
HETATM    6  C7  UNL     1     -34.871   4.848   7.002  1.00 20.00     0.091 C 
HETATM    7  O10 UNL     1     -33.886   7.005   6.749  1.00 20.00    -0.298 OA
ENDBRANCH   3   5
ENDBRANCH   2   3
BRANCH   1   8
HETATM    8  C1  UNL     1     -31.956   7.250   2.349  1.00 20.00    -0.005 C 
HETATM    9  C3  UNL     1     -31.681   8.267   1.519  1.00 20.00    -0.031 C 
HETATM   10  C6  UNL     1     -32.611   9.408   1.270  1.00 20.00     0.036 C 
ENDBRANCH   1   8
TORSDOF 3
