REMARK  1 active torsions:
REMARK  status: ('A' for Active; 'I' for Inactive)
REMARK    1  A    between atoms: C3_3  and  C6_6 
ROOT
HETATM    1  C1  UNL     1     -35.931   5.850   3.263  1.00 20.00    -0.029 C 
HETATM    2  C2  UNL     1     -35.675   4.981   4.247  1.00 20.00    -0.021 C 
HETATM    3  C4  UNL     1     -34.757   6.732   2.986  1.00 20.00     0.046 C 
HETATM    4  C5  UNL     1     -34.284   5.155   4.811  1.00 20.00    -0.015 C 
HETATM    5  C6  UNL     1     -33.592   5.964   3.655  1.00 20.00     0.046 C 
HETATM    6  C7  UNL     1     -33.639   3.796   5.108  1.00 20.00     0.020 C 
HETATM    7  C8  UNL     1     -34.402   5.945   6.131  1.00 20.00     0.020 C 
HETATM    8  C9  UNL     1     -32.895   5.084   2.596  1.00 20.00     0.026 C 
ENDROOT
BRANCH   5   9
HETATM    9  C3  UNL     1     -32.551   6.923   4.173  1.00 20.00     0.228 C 
HETATM   10  O10 UNL     1     -32.252   6.970   5.362  1.00 20.00    -0.279 OA
HETATM   11 CL11 UNL     1     -31.874   7.900   2.906  1.00 20.00    -0.043 Cl
ENDBRANCH   5   9
TORSDOF 1
