REMARK  1 active torsions:
REMARK  status: ('A' for Active; 'I' for Inactive)
REMARK    1  A    between atoms: C1_1  and  C4_4 
ROOT
HETATM    1  C2  UNL     1     -32.961   8.053   2.548  1.00 20.00     0.180 C 
HETATM    2  C3  UNL     1     -31.647   7.637   3.184  1.00 20.00     0.103 C 
HETATM    3  C4  UNL     1     -33.639   5.980   3.361  1.00 20.00     0.165 C 
HETATM    4  C6  UNL     1     -34.267   5.127   2.270  1.00 20.00     0.067 C 
HETATM    5  O8  UNL     1     -34.026   7.348   3.199  1.00 20.00    -0.362 OA
HETATM    6  S9  UNL     1     -31.834   5.856   3.347  1.00 20.00    -0.122 SA
ENDROOT
BRANCH   3   7
HETATM    7  C1  UNL     1     -34.125   5.569   4.714  1.00 20.00     0.167 C 
HETATM    8  C5  UNL     1     -35.108   4.431   4.763  1.00 20.00     0.095 C 
HETATM    9  O7  UNL     1     -33.738   6.131   5.737  1.00 20.00    -0.294 OA
ENDBRANCH   3   7
TORSDOF 1
