REMARK  1 active torsions:
REMARK  status: ('A' for Active; 'I' for Inactive)
REMARK    1  A    between atoms: C3_3  and  C7_7 
ROOT
HETATM    1  C1  UNL     1     -34.081   5.646   5.641  1.00 20.00    -0.020 C 
HETATM    2  C2  UNL     1     -34.657   5.235   4.498  1.00 20.00    -0.086 C 
HETATM    3  C4  UNL     1     -34.729   6.110   3.270  1.00 20.00     0.045 C 
HETATM    4  C5  UNL     1     -33.881   8.003   4.729  1.00 20.00     0.020 C 
HETATM    5  C6  UNL     1     -33.476   7.012   5.836  1.00 20.00     0.005 C 
HETATM    6  C7  UNL     1     -33.861   7.372   3.337  1.00 20.00     0.059 C 
HETATM    7  C8  UNL     1     -35.267   3.870   4.368  1.00 20.00     0.043 C 
HETATM    8  C10 UNL     1     -33.851   7.581   7.206  1.00 20.00     0.014 C 
ENDROOT
BRANCH   6   9
HETATM    9  C3  UNL     1     -32.448   7.080   2.918  1.00 20.00     0.127 C 
HETATM   10  C9  UNL     1     -32.256   6.506   1.540  1.00 20.00     0.091 C 
HETATM   11  O11 UNL     1     -31.496   7.300   3.664  1.00 20.00    -0.298 OA
ENDBRANCH   6   9
TORSDOF 1
