REMARK  1 active torsions:
REMARK  status: ('A' for Active; 'I' for Inactive)
REMARK    1  A    between atoms: C3_3  and  C6_6 
ROOT
HETATM    1  C1  UNL     1     -35.278   4.519   4.135  1.00 20.00    -0.023 C 
HETATM    2  C2  UNL     1     -34.380   4.920   5.047  1.00 20.00    -0.071 C 
HETATM    3  C4  UNL     1     -35.708   5.637   3.243  1.00 20.00     0.033 C 
HETATM    4  C5  UNL     1     -35.256   6.870   4.038  1.00 20.00     0.005 C 
HETATM    5  C6  UNL     1     -34.056   6.389   4.894  1.00 20.00     0.043 C 
HETATM    6  C7  UNL     1     -33.730   4.050   6.066  1.00 20.00     0.044 C 
HETATM    7  C9  UNL     1     -35.009   8.088   3.156  1.00 20.00     0.011 C 
HETATM    8  C10 UNL     1     -33.959   7.159   6.209  1.00 20.00     0.029 C 
ENDROOT
BRANCH   5   9
HETATM    9  C3  UNL     1     -32.738   6.452   4.162  1.00 20.00     0.136 C 
HETATM   10  C8  UNL     1     -32.694   5.829   2.793  1.00 20.00     0.092 C 
HETATM   11  O11 UNL     1     -31.749   6.987   4.660  1.00 20.00    -0.297 OA
ENDBRANCH   5   9
TORSDOF 1
