REMARK  1 active torsions:
REMARK  status: ('A' for Active; 'I' for Inactive)
REMARK    1  A    between atoms: C1_1  and  C2_2 
ROOT
HETATM    1  C2  UNL     1     -34.039   6.701   3.645  1.00 20.00     0.154 A 
HETATM    2  C3  UNL     1     -33.238   5.874   2.652  1.00 20.00     0.073 A 
HETATM    3  C4  UNL     1     -32.793   7.241   3.031  1.00 20.00     0.259 A 
HETATM    4  C5  UNL     1     -32.442   4.686   3.071  1.00 20.00     0.017 C 
HETATM    5  F7  UNL     1     -32.858   8.271   2.119  1.00 20.00    -0.205 F 
HETATM    6  F8  UNL     1     -31.657   7.435   3.786  1.00 20.00    -0.205 F 
ENDROOT
BRANCH   1   7
HETATM    7  C1  UNL     1     -34.057   6.351   5.069  1.00 20.00     0.229 C 
HETATM    8  O6  UNL     1     -33.285   6.869   5.870  1.00 20.00    -0.279 OA
HETATM    9 CL9  UNL     1     -35.268   5.160   5.434  1.00 20.00    -0.043 Cl
ENDBRANCH   1   7
TORSDOF 1
