REMARK  1 active torsions:
REMARK  status: ('A' for Active; 'I' for Inactive)
REMARK    1  A    between atoms: C8_8  and  C9_9 
ROOT
HETATM    1  C1  UNL     1     -34.497   6.312   6.143  1.00 20.00     0.008 A 
HETATM    2  C2  UNL     1     -33.424   7.508   4.193  1.00 20.00     0.026 A 
HETATM    3  C3  UNL     1     -33.342   5.815   2.630  1.00 20.00     0.026 A 
HETATM    4  C4  UNL     1     -34.983   5.111   6.504  1.00 20.00    -0.022 A 
HETATM    5  C5  UNL     1     -34.414   4.148   4.202  1.00 20.00    -0.011 A 
HETATM    6  C6  UNL     1     -33.966   6.448   4.817  1.00 20.00    -0.026 A 
HETATM    7  C7  UNL     1     -33.934   5.350   3.860  1.00 20.00    -0.029 A 
HETATM    8  C8  UNL     1     -33.043   7.107   2.846  1.00 20.00     0.003 A 
HETATM    9  C10 UNL     1     -34.997   3.901   5.582  1.00 20.00     0.055 A 
ENDROOT
BRANCH   8  10
HETATM   10  C9  UNL     1     -32.423   7.977   1.861  1.00 20.00     0.269 C 
HETATM   11  O11 UNL     1     -32.159   9.159   2.082  1.00 20.00    -0.301 OA
ENDBRANCH   8  10
TORSDOF 1
