REMARK  3 active torsions:
REMARK  status: ('A' for Active; 'I' for Inactive)
REMARK    1  A    between atoms: C2_2  and  N9_9 
REMARK    2  A    between atoms: C6_6  and  N9_9 
REMARK    3  A    between atoms: C7_7  and  N9_9 
ROOT
HETATM    1  C1  UNL     1     -32.816   7.328   2.560  1.00 20.00     0.036 C 
HETATM    2  C2  UNL     1     -33.187   6.616   3.452  1.00 20.00     0.024 C 
HETATM    3  C3  UNL     1     -32.393   8.142   1.540  1.00 20.00     0.154 C 
HETATM    4  N8  UNL     1     -32.035   8.831   0.678  1.00 20.00    -0.182 NA
ENDROOT
BRANCH   2   5
HETATM    5  N9  UNL     1     -33.636   5.753   4.534  1.00 20.00    -0.342 N 
BRANCH   5   6
HETATM    6  C6  UNL     1     -34.618   4.739   4.213  1.00 20.00     0.128 C 
HETATM    7  C4  UNL     1     -35.870   5.351   3.683  1.00 20.00     0.027 C 
ENDBRANCH   5   6
BRANCH   5   8
HETATM    8  C7  UNL     1     -33.614   6.298   5.875  1.00 20.00     0.128 C 
HETATM    9  C5  UNL     1     -34.101   5.300   6.869  1.00 20.00     0.027 C 
ENDBRANCH   5   8
ENDBRANCH   2   5
TORSDOF 3
