REMARK  2 active torsions:
REMARK  status: ('A' for Active; 'I' for Inactive)
REMARK    1  A    between atoms: C1_1  and  C6_6 
REMARK    2  A    between atoms: C7_7  and  C8_8 
ROOT
HETATM    1  C2  UNL     1     -33.870   6.449   5.284  1.00 20.00     0.014 C 
HETATM    2  C3  UNL     1     -34.279   5.018   3.245  1.00 20.00     0.014 C 
HETATM    3  C4  UNL     1     -33.024   7.405   4.445  1.00 20.00     0.008 C 
HETATM    4  C5  UNL     1     -33.433   5.971   2.403  1.00 20.00     0.008 C 
HETATM    5  C6  UNL     1     -34.913   5.740   4.427  1.00 20.00     0.072 C 
HETATM    6  C7  UNL     1     -32.375   6.689   3.252  1.00 20.00     0.014 C 
ENDROOT
BRANCH   5   7
HETATM    7  C1  UNL     1     -35.589   4.697   5.296  1.00 20.00     0.223 C 
HETATM    8  O9  UNL     1     -34.958   3.780   5.813  1.00 20.00    -0.279 OA
HETATM    9 CL11 UNL     1     -37.298   4.975   5.442  1.00 20.00    -0.043 Cl
ENDBRANCH   5   7
BRANCH   6  10
HETATM   10  C8  UNL     1     -31.577   7.675   2.401  1.00 20.00     0.226 C 
HETATM   11  F10 UNL     1     -32.433   8.614   1.932  1.00 20.00    -0.255 F 
ENDBRANCH   6  10
TORSDOF 2
