REMARK  0 active torsions:
REMARK  status: ('A' for Active; 'I' for Inactive)
ROOT
HETATM    1  C1  UNL     1     -34.654   6.259   6.221  1.00 20.00     0.017 C 
HETATM    2  C2  UNL     1     -33.956   6.477   5.269  1.00 20.00    -0.082 C 
HETATM    3  C3  UNL     1     -33.127   6.735   4.137  1.00 20.00     0.000 C 
HETATM    4  C4  UNL     1     -33.430   6.244   2.916  1.00 20.00    -0.041 C 
HETATM    5  C5  UNL     1     -31.887   7.572   4.355  1.00 20.00     0.083 C 
HETATM    6  C6  UNL     1     -32.547   6.530   1.714  1.00 20.00     0.307 C 
HETATM    7  C7  UNL     1     -30.871   7.512   3.197  1.00 20.00     0.223 C 
HETATM    8  C8  UNL     1     -34.620   5.372   2.607  1.00 20.00     0.046 C 
HETATM    9  C9  UNL     1     -29.979   6.265   3.297  1.00 20.00     0.043 C 
HETATM   10  C10 UNL     1     -32.074   8.907   1.603  1.00 20.00     0.310 C 
HETATM   11  N11 UNL     1     -31.525   7.577   1.878  1.00 20.00     0.092 N 
ENDROOT
TORSDOF 0
