REMARK  2 active torsions:
REMARK  status: ('A' for Active; 'I' for Inactive)
REMARK    1  A    between atoms: C1_1  and  C8_8 
REMARK    2  A    between atoms: C2_2  and  C9_9 
ROOT
HETATM    1  C3  UNL     1     -32.688   9.485   1.580  1.00 20.00     0.142 C 
HETATM    2  C4  UNL     1     -32.843   9.470   0.048  1.00 20.00     0.081 C 
HETATM    3  C5  UNL     1     -32.358   8.002   0.092  1.00 20.00     0.032 C 
HETATM    4  C8  UNL     1     -31.877   8.168   1.562  1.00 20.00     0.135 C 
HETATM    5  O10 UNL     1     -33.061  10.242   2.452  1.00 20.00    -0.297 OA
ENDROOT
BRANCH   4   6
HETATM    6  C1  UNL     1     -32.363   7.181   2.495  1.00 20.00    -0.094 C 
HETATM    7  C2  UNL     1     -32.768   6.359   3.271  1.00 20.00    -0.101 C 
BRANCH   7   8
HETATM    8  C9  UNL     1     -33.259   5.358   4.217  1.00 20.00     0.065 A 
HETATM    9  C6  UNL     1     -34.643   4.836   4.022  1.00 20.00     0.018 A 
HETATM   10  C7  UNL     1     -34.340   5.763   5.161  1.00 20.00     0.018 A 
ENDBRANCH   7   8
ENDBRANCH   4   6
TORSDOF 2
