REMARK  0 active torsions:
REMARK  status: ('A' for Active; 'I' for Inactive)
ROOT
HETATM    1  C1  UNL     1     -34.005   5.443   6.837  1.00 20.00     0.044 A 
HETATM    2  C2  UNL     1     -34.623   4.394   6.264  1.00 20.00     0.014 A 
HETATM    3  C3  UNL     1     -33.604   6.579   6.038  1.00 20.00     0.156 A 
HETATM    4  C4  UNL     1     -33.836   6.622   4.716  1.00 20.00     0.202 A 
HETATM    5  C5  UNL     1     -34.918   4.319   4.818  1.00 20.00     0.224 A 
HETATM    6  C6  UNL     1     -34.495   5.529   3.983  1.00 20.00     0.293 A 
HETATM    7  O7  UNL     1     -35.872   5.176   4.174  1.00 20.00    -0.328 OA
HETATM    8  F8  UNL     1     -32.993   7.608   6.660  1.00 20.00    -0.203 F 
HETATM    9  F9  UNL     1     -33.444   7.715   4.025  1.00 20.00    -0.201 F 
HETATM   10  F10 UNL     1     -33.964   5.239   2.731  1.00 20.00    -0.200 F 
ENDROOT
TORSDOF 0
