REMARK  1 active torsions:
REMARK  status: ('A' for Active; 'I' for Inactive)
REMARK    1  A    between atoms: C7_7  and  O11_11 
ROOT
HETATM    1  C1  UNL     1     -33.829   3.779   5.859  1.00 20.00    -0.029 C 
HETATM    2  C2  UNL     1     -35.304   5.166   3.360  1.00 20.00    -0.022 C 
HETATM    3  C3  UNL     1     -34.347   5.932   2.827  1.00 20.00     0.002 C 
HETATM    4  C4  UNL     1     -33.152   4.913   5.653  1.00 20.00    -0.018 C 
HETATM    5  C5  UNL     1     -35.286   3.936   5.574  1.00 20.00     0.036 C 
HETATM    6  C6  UNL     1     -35.366   5.292   4.859  1.00 20.00     0.026 C 
HETATM    7  C7  UNL     1     -33.630   6.725   3.872  1.00 20.00     0.155 C 
HETATM    8  C8  UNL     1     -34.046   6.043   5.196  1.00 20.00     0.010 C 
HETATM    9  C9  UNL     1     -34.212   7.058   6.328  1.00 20.00     0.023 C 
ENDROOT
BRANCH   7  10
HETATM   10  O11 UNL     1     -32.227   6.702   3.679  1.00 20.00    -0.386 OA
HETATM   11  C10 UNL     1     -31.818   7.624   2.674  1.00 20.00     0.202 C 
ENDBRANCH   7  10
TORSDOF 1
