REMARK  0 active torsions:
REMARK  status: ('A' for Active; 'I' for Inactive)
ROOT
HETATM    1  C1  UNL     1     -34.020   5.720   2.807  1.00 20.00     0.027 C 
HETATM    2  C2  UNL     1     -33.188   6.872   3.052  1.00 20.00     0.027 C 
HETATM    3  C3  UNL     1     -34.290   5.117   4.027  1.00 20.00     0.012 C 
HETATM    4  C4  UNL     1     -32.987   6.915   4.407  1.00 20.00     0.012 C 
HETATM    5  C5  UNL     1     -35.228   4.062   4.501  1.00 20.00     0.057 C 
HETATM    6  C6  UNL     1     -32.455   7.753   5.503  1.00 20.00     0.059 C 
HETATM    7  C7  UNL     1     -35.097   3.794   6.020  1.00 20.00     0.008 C 
HETATM    8  C8  UNL     1     -33.216   7.162   6.738  1.00 20.00     0.032 C 
HETATM    9  C9  UNL     1     -34.805   5.067   6.848  1.00 20.00     0.026 C 
HETATM   10  C10 UNL     1     -33.497   5.691   6.369  1.00 20.00     0.090 C 
HETATM   11  N11 UNL     1     -33.528   5.784   4.918  1.00 20.00    -0.349 N 
ENDROOT
TORSDOF 0
