REMARK  2 active torsions:
REMARK  status: ('A' for Active; 'I' for Inactive)
REMARK    1  A    between atoms: C2_2  and  C3_3 
REMARK    2  A    between atoms: C3_3  and  O11_11 
ROOT
HETATM    1  C1  UNL     1     -33.994   5.854   3.300  1.00 20.00    -0.069 C 
HETATM    2  C2  UNL     1     -33.449   6.676   2.406  1.00 20.00     0.084 C 
HETATM    3  C4  UNL     1     -35.176   4.857   3.276  1.00 20.00     0.040 C 
HETATM    4  C5  UNL     1     -34.486   5.608   6.973  1.00 20.00     0.001 C 
HETATM    5  C6  UNL     1     -33.584   6.356   5.960  1.00 20.00     0.009 C 
HETATM    6  C7  UNL     1     -35.412   4.706   6.121  1.00 20.00     0.005 C 
HETATM    7  C8  UNL     1     -33.714   5.489   4.732  1.00 20.00     0.019 C 
HETATM    8  C9  UNL     1     -35.270   5.337   4.753  1.00 20.00    -0.002 C 
ENDROOT
BRANCH   2   9
HETATM    9  C3  UNL     1     -32.290   7.552   2.681  1.00 20.00     0.165 C 
HETATM   10  O10 UNL     1     -31.729   7.595   3.766  1.00 20.00    -0.647 OA
BRANCH   9  11
HETATM   11  O11 UNL     1     -31.928   8.289   1.608  1.00 20.00    -0.773 OA
HETATM   12  H23 UNL     1     -31.159   8.866   1.801  1.00 20.00     0.167 HD
ENDBRANCH   9  11
ENDBRANCH   2   9
TORSDOF 2
