REMARK  1 active torsions:
REMARK  status: ('A' for Active; 'I' for Inactive)
REMARK    1  A    between atoms: C8_8  and  C11_11 
ROOT
HETATM    1  C1  UNL     1     -33.407   6.222   4.742  1.00 20.00    -0.081 C 
HETATM    2  C2  UNL     1     -33.225   6.682   5.989  1.00 20.00     0.015 C 
HETATM    3  C3  UNL     1     -34.778   6.143   4.107  1.00 20.00     0.061 C 
HETATM    4  C4  UNL     1     -32.470   4.348   3.341  1.00 20.00     0.039 C 
HETATM    5  C5  UNL     1     -34.780   6.496   2.613  1.00 20.00     0.239 C 
HETATM    6  C6  UNL     1     -33.329   4.506   2.079  1.00 20.00     0.236 C 
HETATM    7  C7  UNL     1     -32.246   5.779   3.868  1.00 20.00     0.046 C 
HETATM    8  C8  UNL     1     -32.246   6.573   2.565  1.00 20.00     0.199 C 
HETATM    9  N12 UNL     1     -33.511   6.015   1.934  1.00 20.00    -0.066 N 
HETATM   10  H32 UNL     1     -33.551   6.266   0.937  1.00 20.00     0.280 HD
ENDROOT
BRANCH   8  11
HETATM   11  C11 UNL     1     -32.228   8.090   2.645  1.00 20.00     0.009 C 
HETATM   12  C9  UNL     1     -30.996   8.580   3.408  1.00 20.00     0.011 C 
HETATM   13  C10 UNL     1     -32.266   8.710   1.246  1.00 20.00     0.011 C 
ENDBRANCH   8  11
TORSDOF 1
