REMARK  2 active torsions:
REMARK  status: ('A' for Active; 'I' for Inactive)
REMARK    1  A    between atoms: C2_2  and  C4_4 
REMARK    2  A    between atoms: C4_4  and  C5_5 
ROOT
HETATM    1  C1  UNL     1     -35.049   5.228   5.213  1.00 20.00     0.147 A 
HETATM    2  C2  UNL     1     -34.349   6.096   4.196  1.00 20.00     0.151 A 
HETATM    3  C3  UNL     1     -35.051   3.743   5.153  1.00 20.00     0.042 C 
HETATM    4  O6  UNL     1     -33.769   5.818   5.478  1.00 20.00    -0.376 OA
ENDROOT
BRANCH   2   5
HETATM    5  C4  UNL     1     -33.596   5.548   3.039  1.00 20.00     0.049 C 
BRANCH   5   6
HETATM    6  C5  UNL     1     -32.248   6.239   2.764  1.00 20.00     0.117 C 
HETATM    7 CL7  UNL     1     -32.461   7.971   2.420  1.00 20.00    -0.130 Cl
ENDBRANCH   5   6
ENDBRANCH   2   5
TORSDOF 2
