REMARK  1 active torsions:
REMARK  status: ('A' for Active; 'I' for Inactive)
REMARK    1  A    between atoms: C3_3  and  C6_6 
ROOT
HETATM    1  C1  UNL     1     -32.984   6.208   5.198  1.00 20.00    -0.009 C 
HETATM    2  C2  UNL     1     -33.580   6.489   6.371  1.00 20.00    -0.086 C 
HETATM    3  C4  UNL     1     -34.768   5.704   6.870  1.00 20.00     0.037 C 
HETATM    4  C5  UNL     1     -34.836   4.574   4.617  1.00 20.00     0.023 C 
HETATM    5  C6  UNL     1     -33.450   5.124   4.275  1.00 20.00     0.110 C 
HETATM    6  C7  UNL     1     -34.980   4.371   6.129  1.00 20.00    -0.014 C 
HETATM    7  C8  UNL     1     -33.106   7.605   7.255  1.00 20.00     0.043 C 
HETATM    8  C9  UNL     1     -36.339   3.768   6.477  1.00 20.00     0.010 C 
ENDROOT
BRANCH   5   9
HETATM    9  C3  UNL     1     -33.549   5.725   2.888  1.00 20.00     0.180 C 
HETATM   10  O10 UNL     1     -32.765   6.687   2.660  1.00 20.00    -0.647 OA
HETATM   11  O11 UNL     1     -34.407   5.182   2.136  1.00 20.00    -0.647 OA
ENDBRANCH   5   9
TORSDOF 1
