REMARK  2 active torsions:
REMARK  status: ('A' for Active; 'I' for Inactive)
REMARK    1  A    between atoms: C1_1  and  C2_2 
REMARK    2  A    between atoms: C1_1  and  C3_3 
ROOT
HETATM    1  C1  UNL     1     -34.123   5.906   3.834  1.00 20.00     0.280 C 
HETATM    2  O4  UNL     1     -34.740   5.507   2.846  1.00 20.00    -0.284 OA
ENDROOT
BRANCH   1   3
HETATM    3  C2  UNL     1     -34.686   5.748   5.221  1.00 20.00     0.344 C 
HETATM    4  F5  UNL     1     -34.241   6.735   6.045  1.00 20.00    -0.224 F 
HETATM    5 CL9  UNL     1     -34.166   4.187   5.865  1.00 20.00    -0.081 Cl
ENDBRANCH   1   3
BRANCH   1   6
HETATM    6  C3  UNL     1     -32.767   6.539   3.697  1.00 20.00     0.455 C 
HETATM    7  F6  UNL     1     -32.243   6.884   4.900  1.00 20.00    -0.163 F 
HETATM    8  F7  UNL     1     -32.802   7.666   2.942  1.00 20.00    -0.163 F 
HETATM    9  F8  UNL     1     -31.874   5.702   3.108  1.00 20.00    -0.163 F 
ENDBRANCH   1   6
TORSDOF 2
