REMARK  2 active torsions:
REMARK  status: ('A' for Active; 'I' for Inactive)
REMARK    1  A    between atoms: C7_7  and  C10_10 
REMARK    2  A    between atoms: C9_9  and  C10_10 
ROOT
HETATM    1  C1  UNL     1     -33.158   9.477   1.987  1.00 20.00     0.012 C 
HETATM    2  C2  UNL     1     -32.683   8.401   2.230  1.00 20.00    -0.117 C 
HETATM    3  C9  UNL     1     -32.100   7.085   2.523  1.00 20.00     0.093 C 
ENDROOT
BRANCH   3   4
HETATM    4  C10 UNL     1     -32.355   6.709   3.971  1.00 20.00     0.020 C 
BRANCH   4   5
HETATM    5  C7  UNL     1     -33.846   6.641   4.258  1.00 20.00     0.023 C 
HETATM    6  C4  UNL     1     -34.606   5.952   3.108  1.00 20.00     0.008 C 
HETATM    7  C3  UNL     1     -35.847   5.377   3.784  1.00 20.00     0.004 C 
HETATM    8  C5  UNL     1     -35.310   4.837   5.109  1.00 20.00     0.041 C 
HETATM    9  C8  UNL     1     -34.212   5.799   5.458  1.00 20.00     0.086 A 
HETATM   10  C6  UNL     1     -33.381   5.655   6.713  1.00 20.00     0.207 A 
HETATM   11  O11 UNL     1     -34.474   6.574   6.641  1.00 20.00    -0.375 OA
ENDBRANCH   4   5
ENDBRANCH   3   4
TORSDOF 2
