REMARK  1 active torsions:
REMARK  status: ('A' for Active; 'I' for Inactive)
REMARK    1  A    between atoms: C7_7  and  C10_10 
ROOT
HETATM    1  C1  UNL     1     -33.992   5.530   2.651  1.00 20.00    -0.017 C 
HETATM    2  C2  UNL     1     -35.039   5.520   3.498  1.00 20.00    -0.019 C 
HETATM    3  C3  UNL     1     -32.513   7.221   3.846  1.00 20.00     0.135 C 
HETATM    4  C4  UNL     1     -33.468   7.963   4.753  1.00 20.00     0.080 C 
HETATM    5  C5  UNL     1     -34.152   6.855   5.571  1.00 20.00     0.022 C 
HETATM    6  C6  UNL     1     -32.974   5.733   3.756  1.00 20.00     0.090 C 
HETATM    7  C7  UNL     1     -34.159   5.554   4.742  1.00 20.00    -0.006 C 
HETATM    8  O11 UNL     1     -31.579   7.763   3.266  1.00 20.00    -0.297 OA
ENDROOT
BRANCH   7   9
HETATM    9  C10 UNL     1     -34.194   4.294   5.591  1.00 20.00    -0.009 C 
HETATM   10  C8  UNL     1     -35.271   4.396   6.673  1.00 20.00     0.011 C 
HETATM   11  C9  UNL     1     -34.430   3.058   4.721  1.00 20.00     0.011 C 
ENDBRANCH   7   9
TORSDOF 1
