REMARK  2 active torsions:
REMARK  status: ('A' for Active; 'I' for Inactive)
REMARK    1  A    between atoms: C3_3  and  C4_4 
REMARK    2  A    between atoms: C4_4  and  C5_5 
ROOT
HETATM    1  C1  UNL     1     -32.384   8.004   1.890  1.00 20.00    -0.151 C 
HETATM    2  C2  UNL     1     -32.606   9.084   1.204  1.00 20.00     0.096 C 
HETATM    3  C3  UNL     1     -32.158   6.924   2.576  1.00 20.00     0.103 C 
ENDROOT
BRANCH   3   4
HETATM    4  C4  UNL     1     -33.277   6.160   3.170  1.00 20.00     0.188 C 
HETATM    5  O9  UNL     1     -34.185   5.665   2.516  1.00 20.00    -0.290 OA
BRANCH   4   6
HETATM    6  C5  UNL     1     -33.243   6.022   4.626  1.00 20.00     0.230 A 
HETATM    7  C6  UNL     1     -34.375   5.369   5.393  1.00 20.00     0.088 A 
HETATM    8  C7  UNL     1     -34.100   4.829   6.762  1.00 20.00     0.049 C 
HETATM    9  C8  UNL     1     -35.573   4.819   4.685  1.00 20.00     0.049 C 
HETATM   10  O10 UNL     1     -34.252   6.794   5.299  1.00 20.00    -0.362 OA
ENDBRANCH   4   6
ENDBRANCH   3   4
TORSDOF 2
