REMARK  0 active torsions:
REMARK  status: ('A' for Active; 'I' for Inactive)
ROOT
HETATM    1  C1  UNL     1     -34.345   6.069   5.960  1.00 20.00     0.146 C 
HETATM    2  C2  UNL     1     -35.390   4.975   6.161  1.00 20.00     0.084 C 
HETATM    3  C3  UNL     1     -34.964   5.163   3.691  1.00 20.00     0.034 C 
HETATM    4  C4  UNL     1     -33.563   4.015   4.726  1.00 20.00     0.034 C 
HETATM    5  C5  UNL     1     -35.129   4.137   4.878  1.00 20.00    -0.004 C 
HETATM    6  C6  UNL     1     -33.733   5.574   4.583  1.00 20.00     0.079 C 
HETATM    7  O7  UNL     1     -34.127   7.006   6.702  1.00 20.00    -0.296 OA
HETATM    8 BR8  UNL     1     -32.342   6.614   3.855  1.00 20.00    -0.077 Br
ENDROOT
TORSDOF 0
