REMARK  0 active torsions:
REMARK  status: ('A' for Active; 'I' for Inactive)
ROOT
HETATM    1  C1  UNL     1     -32.910   6.256   3.587  1.00 20.00     0.136 C 
HETATM    2  C2  UNL     1     -33.107   4.906   2.953  1.00 20.00     0.080 C 
HETATM    3  C3  UNL     1     -34.610   4.885   2.718  1.00 20.00     0.017 C 
HETATM    4  C4  UNL     1     -34.292   5.548   6.147  1.00 20.00     0.002 C 
HETATM    5  C5  UNL     1     -34.159   6.979   5.648  1.00 20.00     0.018 C 
HETATM    6  C6  UNL     1     -35.297   4.903   5.198  1.00 20.00     0.010 C 
HETATM    7  C7  UNL     1     -34.214   6.845   4.126  1.00 20.00     0.024 C 
HETATM    8  C8  UNL     1     -35.234   5.699   3.866  1.00 20.00    -0.029 C 
HETATM    9  C9  UNL     1     -34.477   8.173   3.426  1.00 20.00     0.024 C 
HETATM   10  C10 UNL     1     -36.645   6.152   3.476  1.00 20.00     0.016 C 
HETATM   11  O11 UNL     1     -31.815   6.794   3.692  1.00 20.00    -0.297 OA
ENDROOT
TORSDOF 0
