REMARK  0 active torsions:
REMARK  status: ('A' for Active; 'I' for Inactive)
ROOT
HETATM    1  C1  UNL     1     -32.743   5.793   3.217  1.00 20.00    -0.028 C 
HETATM    2  C2  UNL     1     -32.837   6.164   4.505  1.00 20.00     0.003 C 
HETATM    3  C3  UNL     1     -34.354   4.589   5.490  1.00 20.00     0.154 C 
HETATM    4  C4  UNL     1     -33.936   5.261   2.458  1.00 20.00     0.032 C 
HETATM    5  C5  UNL     1     -35.085   3.931   4.334  1.00 20.00     0.085 C 
HETATM    6  C6  UNL     1     -35.333   6.314   4.261  1.00 20.00     0.043 C 
HETATM    7  C7  UNL     1     -35.206   5.100   3.331  1.00 20.00    -0.002 C 
HETATM    8  C8  UNL     1     -34.157   6.065   5.216  1.00 20.00     0.115 C 
HETATM    9  O9  UNL     1     -33.956   3.983   6.475  1.00 20.00    -0.295 OA
HETATM   10 CL10 UNL     1     -34.251   7.024   6.677  1.00 20.00    -0.106 Cl
ENDROOT
TORSDOF 0
