REMARK  1 active torsions:
REMARK  status: ('A' for Active; 'I' for Inactive)
REMARK    1  A    between atoms: C3_3  and  C9_9 
ROOT
HETATM    1  C1  UNL     1     -33.843   6.820   2.195  1.00 20.00     0.069 C 
HETATM    2  C2  UNL     1     -32.780   7.869   2.486  1.00 20.00     0.069 C 
HETATM    3  C3  UNL     1     -33.459   5.688   3.138  1.00 20.00     0.076 C 
HETATM    4  C4  UNL     1     -32.215   8.470   1.198  1.00 20.00     0.042 C 
HETATM    5  C5  UNL     1     -33.270   8.986   3.408  1.00 20.00     0.042 C 
HETATM    6  C6  UNL     1     -33.504   4.330   2.435  1.00 20.00     0.043 C 
HETATM    7  N10 UNL     1     -31.702   7.126   3.165  1.00 20.00    -0.187 NA
HETATM    8  N11 UNL     1     -32.061   5.974   3.510  1.00 20.00    -0.186 NA
ENDROOT
BRANCH   3   9
HETATM    9  C9  UNL     1     -34.312   5.644   4.406  1.00 20.00     0.009 C 
HETATM   10  C7  UNL     1     -35.788   5.486   4.053  1.00 20.00     0.012 C 
HETATM   11  C8  UNL     1     -33.853   4.511   5.321  1.00 20.00     0.012 C 
ENDBRANCH   3   9
TORSDOF 1
