REMARK  1 active torsions:
REMARK  status: ('A' for Active; 'I' for Inactive)
REMARK    1  A    between atoms: C4_4  and  C8_8 
ROOT
HETATM    1  C1  UNL     1     -33.463   6.541   5.519  1.00 20.00     0.302 C 
HETATM    2  C2  UNL     1     -34.758   6.012   6.145  1.00 20.00     0.302 C 
HETATM    3  C3  UNL     1     -34.011   5.445   3.444  1.00 20.00     0.307 C 
HETATM    4  C4  UNL     1     -35.318   4.892   4.049  1.00 20.00     0.250 C 
HETATM    5  C6  UNL     1     -32.379   7.221   3.476  1.00 20.00     0.310 C 
HETATM    6  C7  UNL     1     -34.512   3.609   5.952  1.00 20.00     0.310 C 
HETATM    7  N9  UNL     1     -33.614   6.713   4.070  1.00 20.00     0.088 N 
HETATM    8  N10 UNL     1     -35.270   4.784   5.520  1.00 20.00     0.092 N 
ENDROOT
BRANCH   4   9
HETATM    9  C8  UNL     1     -36.530   5.737   3.629  1.00 20.00     0.033 C 
HETATM   10  C5  UNL     1     -37.800   5.171   4.168  1.00 20.00     0.007 C 
ENDBRANCH   4   9
TORSDOF 1
