REMARK  1 active torsions:
REMARK  status: ('A' for Active; 'I' for Inactive)
REMARK    1  A    between atoms: C9_9  and  N10_10 
ROOT
HETATM    1  C1  UNL     1     -35.136   5.397   6.443  1.00 20.00     0.004 A 
HETATM    2  C2  UNL     1     -34.139   6.287   6.431  1.00 20.00     0.042 A 
HETATM    3  C3  UNL     1     -35.537   4.722   5.243  1.00 20.00     0.017 A 
HETATM    4  C4  UNL     1     -34.901   4.974   4.095  1.00 20.00     0.093 A 
HETATM    5  C5  UNL     1     -33.413   6.600   5.150  1.00 20.00     0.103 A 
HETATM    6  N10 UNL     1     -33.843   5.881   4.000  1.00 20.00    -0.339 N 
HETATM    7  S11 UNL     1     -32.173   7.752   5.149  1.00 20.00    -0.060 SA
ENDROOT
BRANCH   6   8
HETATM    8  C9  UNL     1     -33.241   6.066   2.692  1.00 20.00     0.027 C 
HETATM    9  C6  UNL     1     -33.954   5.169   1.674  1.00 20.00     0.038 C 
HETATM   10  C7  UNL     1     -33.384   7.535   2.278  1.00 20.00     0.038 C 
HETATM   11  C8  UNL     1     -31.757   5.688   2.759  1.00 20.00     0.038 C 
ENDBRANCH   6   8
TORSDOF 1
