REMARK  1 active torsions:
REMARK  status: ('A' for Active; 'I' for Inactive)
REMARK    1  A    between atoms: C4_4  and  C9_9 
ROOT
HETATM    1  C1  UNL     1     -32.096   7.594   3.309  1.00 20.00     0.014 A 
HETATM    2  C2  UNL     1     -32.247   6.580   4.169  1.00 20.00     0.075 A 
HETATM    3  C3  UNL     1     -34.306   7.283   2.427  1.00 20.00     0.101 A 
HETATM    4  C4  UNL     1     -33.154   7.970   2.400  1.00 20.00    -0.039 A 
HETATM    5  C5  UNL     1     -33.525   5.811   4.205  1.00 20.00     0.246 A 
HETATM    6  C8  UNL     1     -35.786   5.523   3.272  1.00 20.00     0.159 C 
HETATM    7  N10 UNL     1     -34.508   6.226   3.299  1.00 20.00    -0.329 N 
HETATM    8  O11 UNL     1     -33.637   4.884   5.005  1.00 20.00    -0.268 OA
ENDROOT
BRANCH   4   9
HETATM    9  C9  UNL     1     -32.901   9.116   1.472  1.00 20.00     0.012 C 
HETATM   10  C6  UNL     1     -32.640  10.394   2.264  1.00 20.00     0.015 C 
HETATM   11  C7  UNL     1     -31.733   8.811   0.536  1.00 20.00     0.015 C 
ENDBRANCH   4   9
TORSDOF 1
