REMARK  0 active torsions:
REMARK  status: ('A' for Active; 'I' for Inactive)
ROOT
HETATM    1  C1  UNL     1     -33.816   5.137   3.139  1.00 20.00     0.050 C 
HETATM    2  C2  UNL     1     -33.347   6.148   2.400  1.00 20.00    -0.014 C 
HETATM    3  C3  UNL     1     -34.024   5.297   4.599  1.00 20.00     0.188 C 
HETATM    4  C4  UNL     1     -33.713   7.768   4.291  1.00 20.00     0.064 C 
HETATM    5  C5  UNL     1     -33.037   7.535   2.918  1.00 20.00    -0.026 C 
HETATM    6  C6  UNL     1     -33.557   6.589   5.257  1.00 20.00     0.164 C 
HETATM    7  C7  UNL     1     -33.582   8.580   1.927  1.00 20.00     0.019 C 
HETATM    8  C8  UNL     1     -31.510   7.701   3.008  1.00 20.00     0.019 C 
HETATM    9  C9  UNL     1     -34.335   6.852   6.544  1.00 20.00     0.060 C 
HETATM   10  O10 UNL     1     -34.496   4.359   5.240  1.00 20.00    -0.290 OA
HETATM   11  F11 UNL     1     -32.243   6.475   5.604  1.00 20.00    -0.235 F 
ENDROOT
TORSDOF 0
