REMARK  1 active torsions:
REMARK  status: ('A' for Active; 'I' for Inactive)
REMARK    1  A    between atoms: C2_2  and  C9_9 
ROOT
HETATM    1  C1  UNL     1     -33.208   6.766   4.926  1.00 20.00     0.057 A 
HETATM    2  C2  UNL     1     -32.928   6.361   3.684  1.00 20.00    -0.069 A 
HETATM    3  C3  UNL     1     -34.382   5.992   5.347  1.00 20.00     0.189 A 
HETATM    4  C4  UNL     1     -33.831   5.290   3.146  1.00 20.00     0.086 A 
HETATM    5  C5  UNL     1     -34.864   5.075   4.253  1.00 20.00     0.167 A 
HETATM    6  C6  UNL     1     -34.963   3.635   4.719  1.00 20.00     0.061 C 
HETATM    7  O10 UNL     1     -34.907   6.122   6.443  1.00 20.00    -0.290 OA
HETATM    8  F11 UNL     1     -36.086   5.472   3.806  1.00 20.00    -0.234 F 
ENDROOT
BRANCH   2   9
HETATM    9  C9  UNL     1     -31.810   6.876   2.844  1.00 20.00     0.006 C 
HETATM   10  C7  UNL     1     -32.346   7.466   1.540  1.00 20.00     0.014 C 
HETATM   11  C8  UNL     1     -30.983   7.914   3.604  1.00 20.00     0.014 C 
ENDBRANCH   2   9
TORSDOF 1
