REMARK  3 active torsions:
REMARK  status: ('A' for Active; 'I' for Inactive)
REMARK    1  A    between atoms: C4_4  and  C8_8 
REMARK    2  A    between atoms: C7_7  and  C11_11 
REMARK    3  A    between atoms: C8_8  and  O12_12 
ROOT
HETATM    1  C1  UNL     1     -33.208   8.028   3.889  1.00 20.00    -0.022 C 
HETATM    2  C2  UNL     1     -34.181   7.234   4.359  1.00 20.00     0.011 C 
HETATM    3  C5  UNL     1     -32.252   6.098   2.560  1.00 20.00     0.012 C 
HETATM    4  C6  UNL     1     -33.677   5.543   2.548  1.00 20.00     0.047 C 
HETATM    5  C7  UNL     1     -32.228   7.615   2.821  1.00 20.00     0.011 C 
HETATM    6  C8  UNL     1     -34.430   5.834   3.862  1.00 20.00     0.092 C 
ENDROOT
BRANCH   6   7
HETATM    7  C4  UNL     1     -34.084   4.838   4.932  1.00 20.00     0.004 C 
HETATM    8  C3  UNL     1     -34.956   3.970   5.458  1.00 20.00     0.010 C 
ENDBRANCH   6   7
BRANCH   6   9
HETATM    9  O12 UNL     1     -35.832   5.716   3.594  1.00 20.00    -0.382 OA
HETATM   10  H30 UNL     1     -36.035   6.381   2.920  1.00 20.00     0.211 HD
ENDBRANCH   6   9
BRANCH   5  11
HETATM   11  C11 UNL     1     -32.496   8.409   1.540  1.00 20.00    -0.015 C 
HETATM   12  C9  UNL     1     -32.867   9.852   1.873  1.00 20.00     0.010 C 
HETATM   13  C10 UNL     1     -31.280   8.364   0.619  1.00 20.00     0.010 C 
ENDBRANCH   5  11
TORSDOF 3
