REMARK  1 active torsions:
REMARK  status: ('A' for Active; 'I' for Inactive)
REMARK    1  A    between atoms: C7_7  and  C10_10 
ROOT
HETATM    1  C1  UNL     1     -34.491   5.243   6.690  1.00 20.00    -0.004 C 
HETATM    2  C2  UNL     1     -33.701   6.430   6.460  1.00 20.00    -0.004 C 
HETATM    3  C3  UNL     1     -35.454   4.737   5.906  1.00 20.00    -0.019 C 
HETATM    4  C4  UNL     1     -33.447   7.084   5.316  1.00 20.00    -0.014 C 
HETATM    5  C5  UNL     1     -34.610   5.468   3.747  1.00 20.00     0.138 C 
HETATM    6  C6  UNL     1     -35.860   5.262   4.571  1.00 20.00     0.106 C 
HETATM    7  C7  UNL     1     -33.898   6.810   3.904  1.00 20.00     0.081 C 
HETATM    8  O11 UNL     1     -34.186   4.573   3.015  1.00 20.00    -0.297 OA
ENDROOT
BRANCH   7   9
HETATM    9  C10 UNL     1     -32.707   6.900   2.948  1.00 20.00    -0.008 C 
HETATM   10  C8  UNL     1     -32.417   8.355   2.592  1.00 20.00     0.010 C 
HETATM   11  C9  UNL     1     -31.477   6.240   3.564  1.00 20.00     0.010 C 
ENDBRANCH   7   9
TORSDOF 1
