REMARK  0 active torsions:
REMARK  status: ('A' for Active; 'I' for Inactive)
ROOT
HETATM    1  C1  UNL     1     -34.493   3.616   5.762  1.00 20.00    -0.029 C 
HETATM    2  C2  UNL     1     -34.535   4.036   4.493  1.00 20.00    -0.013 C 
HETATM    3  C3  UNL     1     -35.196   6.191   3.438  1.00 20.00     0.139 C 
HETATM    4  C4  UNL     1     -34.151   4.726   6.700  1.00 20.00     0.032 C 
HETATM    5  C5  UNL     1     -34.483   6.995   2.381  1.00 20.00     0.079 C 
HETATM    6  C6  UNL     1     -33.058   7.050   2.915  1.00 20.00     0.009 C 
HETATM    7  C7  UNL     1     -32.878   5.745   3.684  1.00 20.00     0.022 C 
HETATM    8  C8  UNL     1     -34.401   5.977   5.841  1.00 20.00     0.004 C 
HETATM    9  C9  UNL     1     -34.222   5.498   4.380  1.00 20.00     0.041 C 
HETATM   10  C10 UNL     1     -33.567   7.164   6.302  1.00 20.00     0.011 C 
HETATM   11  O11 UNL     1     -36.417   6.097   3.499  1.00 20.00    -0.297 OA
ENDROOT
TORSDOF 0
