REMARK  1 active torsions:
REMARK  status: ('A' for Active; 'I' for Inactive)
REMARK    1  A    between atoms: C6_6  and  C10_10 
ROOT
HETATM    1  C1  UNL     1     -32.734   5.727   3.102  1.00 20.00     0.054 A 
HETATM    2  C2  UNL     1     -32.922   7.471   4.928  1.00 20.00     0.060 A 
HETATM    3  C3  UNL     1     -33.335   4.847   3.908  1.00 20.00     0.025 A 
HETATM    4  C4  UNL     1     -33.526   6.580   5.730  1.00 20.00    -0.037 A 
HETATM    5  C5  UNL     1     -32.519   7.117   3.548  1.00 20.00     0.172 A 
HETATM    6  C6  UNL     1     -33.850   5.164   5.289  1.00 20.00     0.147 A 
HETATM    7  C7  UNL     1     -33.875   6.953   7.146  1.00 20.00     0.047 C 
HETATM    8  O11 UNL     1     -32.009   7.949   2.805  1.00 20.00    -0.289 OA
HETATM    9  F12 UNL     1     -33.278   4.285   6.167  1.00 20.00    -0.233 F 
ENDROOT
BRANCH   6  10
HETATM   10  C10 UNL     1     -35.360   4.902   5.319  1.00 20.00     0.026 C 
HETATM   11  C8  UNL     1     -36.077   5.806   4.322  1.00 20.00     0.014 C 
HETATM   12  C9  UNL     1     -35.650   3.434   5.025  1.00 20.00     0.014 C 
ENDBRANCH   6  10
TORSDOF 1
