REMARK  1 active torsions:
REMARK  status: ('A' for Active; 'I' for Inactive)
REMARK    1  A    between atoms: C2_2  and  C4_4 
ROOT
HETATM    1  C1  UNL     1     -34.317   4.802   4.462  1.00 20.00     0.171 A 
HETATM    2  C2  UNL     1     -33.508   6.042   4.778  1.00 20.00     0.175 A 
HETATM    3  C3  UNL     1     -35.240   4.149   5.430  1.00 20.00     0.044 C 
HETATM    4  O5  UNL     1     -34.737   6.103   4.036  1.00 20.00    -0.352 OA
HETATM    5 CL6  UNL     1     -33.503   6.691   6.415  1.00 20.00    -0.084 Cl
ENDROOT
BRANCH   2   6
HETATM    6  C4  UNL     1     -32.301   6.358   3.955  1.00 20.00     0.172 C 
HETATM    7 CL7  UNL     1     -32.760   7.117   2.408  1.00 20.00    -0.126 Cl
ENDBRANCH   2   6
TORSDOF 1
