REMARK  1 active torsions:
REMARK  status: ('A' for Active; 'I' for Inactive)
REMARK    1  A    between atoms: C2_2  and  C6_6 
ROOT
HETATM    1  C3  UNL     1     -35.352   4.463   3.890  1.00 20.00     0.003 C 
HETATM    2  C4  UNL     1     -34.218   5.121   3.105  1.00 20.00     0.011 C 
HETATM    3  C5  UNL     1     -34.861   3.964   5.247  1.00 20.00     0.034 C 
HETATM    4  C6  UNL     1     -33.715   6.400   3.800  1.00 20.00     0.039 C 
HETATM    5  C7  UNL     1     -34.052   4.977   5.988  1.00 20.00     0.151 A 
HETATM    6  C8  UNL     1     -33.449   6.155   5.266  1.00 20.00     0.158 A 
HETATM    7  O9  UNL     1     -34.631   6.278   6.085  1.00 20.00    -0.375 OA
ENDROOT
BRANCH   4   8
HETATM    8  C2  UNL     1     -32.531   6.949   3.056  1.00 20.00    -0.030 C 
HETATM    9  C1  UNL     1     -32.515   8.140   2.448  1.00 20.00     0.007 C 
ENDBRANCH   4   8
TORSDOF 1
