REMARK  0 active torsions:
REMARK  status: ('A' for Active; 'I' for Inactive)
ROOT
HETATM    1  C1  UNL     1     -31.521   6.826   3.184  1.00 20.00     0.001 C 
HETATM    2  C2  UNL     1     -32.271   8.019   2.595  1.00 20.00     0.001 C 
HETATM    3  C3  UNL     1     -32.585   5.792   3.551  1.00 20.00     0.011 C 
HETATM    4  C4  UNL     1     -33.740   7.612   2.559  1.00 20.00     0.011 C 
HETATM    5  C5  UNL     1     -35.156   5.737   3.501  1.00 20.00     0.096 C 
HETATM    6  C6  UNL     1     -34.008   7.304   5.065  1.00 20.00     0.096 C 
HETATM    7  C7  UNL     1     -33.896   6.592   3.700  1.00 20.00    -0.022 C 
HETATM    8  S8  UNL     1     -35.426   4.772   5.009  1.00 20.00    -0.097 SA
HETATM    9  S9  UNL     1     -34.552   6.095   6.305  1.00 20.00    -0.097 SA
ENDROOT
TORSDOF 0
