REMARK  1 active torsions:
REMARK  status: ('A' for Active; 'I' for Inactive)
REMARK    1  A    between atoms: C6_6  and  C11_11 
ROOT
HETATM    1  C1  UNL     1     -34.858   4.893   4.615  1.00 20.00     0.136 C 
HETATM    2  C2  UNL     1     -35.597   5.865   3.680  1.00 20.00     0.085 C 
HETATM    3  C3  UNL     1     -32.056   6.775   3.526  1.00 20.00     0.006 C 
HETATM    4  C4  UNL     1     -32.364   5.639   4.495  1.00 20.00     0.018 C 
HETATM    5  C5  UNL     1     -34.426   6.863   3.885  1.00 20.00     0.012 C 
HETATM    6  C6  UNL     1     -33.372   6.958   2.775  1.00 20.00    -0.006 C 
HETATM    7  C7  UNL     1     -33.785   5.948   4.981  1.00 20.00     0.021 C 
HETATM    8  C8  UNL     1     -33.853   6.460   6.409  1.00 20.00     0.024 C 
HETATM    9  O12 UNL     1     -35.049   3.739   4.938  1.00 20.00    -0.297 OA
ENDROOT
BRANCH   6  10
HETATM   10  C11 UNL     1     -33.454   8.281   2.034  1.00 20.00    -0.018 C 
HETATM   11  C9  UNL     1     -33.364   9.449   3.013  1.00 20.00     0.010 C 
HETATM   12  C10 UNL     1     -32.353   8.375   0.981  1.00 20.00     0.010 C 
ENDBRANCH   6  10
TORSDOF 1
