REMARK  0 active torsions:
REMARK  status: ('A' for Active; 'I' for Inactive)
ROOT
HETATM    1  C1  UNL     1     -33.931   5.883   5.331  1.00 20.00     0.076 A 
HETATM    2  C2  UNL     1     -34.459   4.953   4.481  1.00 20.00     0.123 A 
HETATM    3  C3  UNL     1     -33.583   6.929   3.490  1.00 20.00     0.073 A 
HETATM    4  C4  UNL     1     -34.739   4.048   6.332  1.00 20.00     0.097 A 
HETATM    5  C5  UNL     1     -34.053   5.387   6.703  1.00 20.00     0.109 A 
HETATM    6  C6  UNL     1     -33.164   7.962   2.518  1.00 20.00     0.079 C 
HETATM    7  N7  UNL     1     -33.422   7.023   4.801  1.00 20.00    -0.248 NA
HETATM    8  N8  UNL     1     -34.956   3.832   5.057  1.00 20.00    -0.255 NA
HETATM    9  S9  UNL     1     -34.342   5.481   2.890  1.00 20.00    -0.053 SA
ENDROOT
TORSDOF 0
