REMARK  1 active torsions:
REMARK  status: ('A' for Active; 'I' for Inactive)
REMARK    1  A    between atoms: C3_3  and  C8_8 
ROOT
HETATM    1  C1  UNL     1     -34.468   5.663   4.372  1.00 20.00     0.145 C 
HETATM    2  C4  UNL     1     -34.208   5.215   2.950  1.00 20.00     0.080 C 
HETATM    3  C5  UNL     1     -33.652   6.361   2.114  1.00 20.00     0.016 C 
HETATM    4  C6  UNL     1     -32.786   7.506   4.185  1.00 20.00     0.036 C 
HETATM    5  C7  UNL     1     -33.313   6.371   5.059  1.00 20.00     0.152 C 
HETATM    6  C8  UNL     1     -32.427   7.006   2.777  1.00 20.00     0.009 C 
HETATM    7  O9  UNL     1     -35.520   5.369   4.939  1.00 20.00    -0.296 OA
HETATM    8 CL10 UNL     1     -33.843   7.010   6.632  1.00 20.00    -0.117 Cl
ENDROOT
BRANCH   6   9
HETATM    9  C3  UNL     1     -31.902   8.123   1.929  1.00 20.00    -0.032 C 
HETATM   10  C2  UNL     1     -32.602   9.218   1.616  1.00 20.00     0.007 C 
ENDBRANCH   6   9
TORSDOF 1
