REMARK  1 active torsions:
REMARK  status: ('A' for Active; 'I' for Inactive)
REMARK    1  A    between atoms: C2_2  and  C4_4 
ROOT
HETATM    1  C1  UNL     1     -35.959   5.705   3.544  1.00 20.00     0.171 A 
HETATM    2  C2  UNL     1     -34.815   5.448   4.502  1.00 20.00     0.175 A 
HETATM    3  C3  UNL     1     -37.245   4.958   3.574  1.00 20.00     0.044 C 
HETATM    4  O5  UNL     1     -34.827   4.912   3.169  1.00 20.00    -0.352 OA
HETATM    5 CL6  UNL     1     -35.030   4.325   5.841  1.00 20.00    -0.084 Cl
ENDROOT
BRANCH   2   6
HETATM    6  C4  UNL     1     -33.780   6.506   4.707  1.00 20.00     0.172 C 
HETATM    7 CL7  UNL     1     -32.581   6.496   3.386  1.00 20.00    -0.126 Cl
ENDBRANCH   2   6
TORSDOF 1
