REMARK  0 active torsions:
REMARK  status: ('A' for Active; 'I' for Inactive)
ROOT
HETATM    1  C1  UNL     1     -33.487   6.864   6.841  1.00 20.00     0.154 A 
HETATM    2  C2  UNL     1     -34.185   6.088   5.948  1.00 20.00     0.005 A 
HETATM    3  C3  UNL     1     -33.886   6.583   4.686  1.00 20.00     0.013 A 
HETATM    4  C4  UNL     1     -32.928   7.538   4.833  1.00 20.00     0.062 A 
HETATM    5  C5  UNL     1     -35.223   4.255   4.852  1.00 20.00     0.143 C 
HETATM    6  C6  UNL     1     -34.979   4.915   6.010  1.00 20.00    -0.027 C 
HETATM    7  C7  UNL     1     -32.114   8.118   3.747  1.00 20.00     0.066 C 
HETATM    8  C8  UNL     1     -32.663   7.617   2.375  1.00 20.00     0.009 C 
HETATM    9  C9  UNL     1     -33.230   6.163   2.384  1.00 20.00     0.038 C 
HETATM   10  C10 UNL     1     -34.364   6.006   3.424  1.00 20.00     0.164 C 
HETATM   11  C11 UNL     1     -35.429   4.458   7.357  1.00 20.00     0.051 C 
HETATM   12  O12 UNL     1     -32.686   7.759   6.155  1.00 20.00    -0.326 OA
HETATM   13  O13 UNL     1     -34.799   4.630   3.576  1.00 20.00    -0.352 OA
ENDROOT
TORSDOF 0
