REMARK  1 active torsions:
REMARK  status: ('A' for Active; 'I' for Inactive)
REMARK    1  A    between atoms: C2_2  and  C3_3 
ROOT
HETATM    1  C1  UNL     1     -33.104   6.571   5.205  1.00 20.00    -0.016 C 
HETATM    2  C2  UNL     1     -33.583   6.211   4.011  1.00 20.00    -0.020 C 
HETATM    3  C4  UNL     1     -33.796   5.837   6.306  1.00 20.00     0.032 C 
HETATM    4  C5  UNL     1     -34.670   5.185   4.106  1.00 20.00     0.021 C 
HETATM    5  C6  UNL     1     -35.045   5.283   5.604  1.00 20.00    -0.007 C 
HETATM    6  C7  UNL     1     -35.873   5.449   3.207  1.00 20.00     0.015 C 
HETATM    7  C8  UNL     1     -35.507   3.958   6.195  1.00 20.00     0.011 C 
ENDROOT
BRANCH   2   8
HETATM    8  C3  UNL     1     -33.034   6.739   2.773  1.00 20.00     0.265 C 
HETATM    9  O9  UNL     1     -32.104   7.545   2.742  1.00 20.00    -0.302 OA
ENDBRANCH   2   8
TORSDOF 1
