REMARK  4 active torsions:
REMARK  status: ('A' for Active; 'I' for Inactive)
REMARK    1  A    between atoms: C1_1  and  C6_6 
REMARK    2  A    between atoms: C1_1  and  C7_7 
REMARK    3  A    between atoms: C6_6  and  C8_8 
REMARK    4  A    between atoms: C7_7  and  C9_9 
ROOT
HETATM    1  C1  UNL     1     -33.392   6.436   3.032  1.00 20.00     0.161 C 
HETATM    2  O10 UNL     1     -33.649   5.318   2.586  1.00 20.00    -0.295 OA
ENDROOT
BRANCH   1   3
HETATM    3  C6  UNL     1     -34.294   7.140   4.035  1.00 20.00     0.085 C 
BRANCH   3   4
HETATM    4  C8  UNL     1     -35.028   6.176   4.979  1.00 20.00    -0.016 C 
HETATM    5  C2  UNL     1     -34.043   5.339   5.799  1.00 20.00     0.010 C 
HETATM    6  C3  UNL     1     -35.947   5.254   4.175  1.00 20.00     0.010 C 
ENDBRANCH   3   4
ENDBRANCH   1   3
BRANCH   1   7
HETATM    7  C7  UNL     1     -32.129   7.167   2.608  1.00 20.00     0.242 C 
HETATM    8  F11 UNL     1     -31.630   7.890   3.652  1.00 20.00    -0.241 F 
BRANCH   7   9
HETATM    9  C9  UNL     1     -32.349   8.108   1.416  1.00 20.00     0.019 C 
HETATM   10  C4  UNL     1     -32.983   9.432   1.849  1.00 20.00     0.012 C 
HETATM   11  C5  UNL     1     -31.018   8.382   0.711  1.00 20.00     0.012 C 
ENDBRANCH   7   9
ENDBRANCH   1   7
TORSDOF 4
