REMARK  0 active torsions:
REMARK  status: ('A' for Active; 'I' for Inactive)
ROOT
HETATM    1  C1  UNL     1     -36.080   5.216   4.309  1.00 20.00    -0.029 A 
HETATM    2  C2  UNL     1     -35.475   5.622   3.188  1.00 20.00    -0.023 A 
HETATM    3  C3  UNL     1     -33.224   6.626   5.092  1.00 20.00     0.155 C 
HETATM    4  C4  UNL     1     -35.133   4.873   5.418  1.00 20.00     0.040 A 
HETATM    5  C5  UNL     1     -34.002   5.620   3.357  1.00 20.00     0.050 A 
HETATM    6  C6  UNL     1     -33.758   5.202   4.841  1.00 20.00     0.071 A 
HETATM    7  C7  UNL     1     -33.284   6.998   3.580  1.00 20.00     0.101 C 
HETATM    8  C8  UNL     1     -31.903   7.071   2.928  1.00 20.00     0.042 C 
HETATM    9  O9  UNL     1     -32.882   7.221   6.093  1.00 20.00    -0.295 OA
HETATM   10 CL10 UNL     1     -34.209   8.513   3.301  1.00 20.00    -0.111 Cl
ENDROOT
TORSDOF 0
