REMARK  3 active torsions:
REMARK  status: ('A' for Active; 'I' for Inactive)
REMARK    1  A    between atoms: C1_1  and  C9_9 
REMARK    2  A    between atoms: C1_1  and  O11_11 
REMARK    3  A    between atoms: C8_8  and  C9_9 
ROOT
HETATM    1  C2  UNL     1     -34.527   5.898   6.472  1.00 20.00     0.005 C 
HETATM    2  C3  UNL     1     -34.748   4.431   6.063  1.00 20.00     0.005 C 
HETATM    3  C4  UNL     1     -35.682   6.650   4.395  1.00 20.00     0.005 C 
HETATM    4  C5  UNL     1     -35.903   5.185   3.987  1.00 20.00     0.005 C 
HETATM    5  C6  UNL     1     -34.321   6.605   5.117  1.00 20.00    -0.010 C 
HETATM    6  C7  UNL     1     -34.641   4.484   4.525  1.00 20.00    -0.010 C 
HETATM    7  C8  UNL     1     -33.537   5.536   4.342  1.00 20.00     0.003 C 
ENDROOT
BRANCH   7   8
HETATM    8  C9  UNL     1     -33.164   5.879   2.908  1.00 20.00     0.115 C 
BRANCH   8   9
HETATM    9  C1  UNL     1     -32.182   7.020   2.840  1.00 20.00     0.139 C 
HETATM   10  O10 UNL     1     -31.332   7.293   3.674  1.00 20.00    -0.650 OA
BRANCH   9  11
HETATM   11  O11 UNL     1     -32.371   7.726   1.696  1.00 20.00    -0.776 OA
HETATM   12  H25 UNL     1     -31.744   8.477   1.622  1.00 20.00     0.167 HD
ENDBRANCH   9  11
ENDBRANCH   8   9
ENDBRANCH   7   8
TORSDOF 3
