REMARK  0 active torsions:
REMARK  status: ('A' for Active; 'I' for Inactive)
ROOT
HETATM    1  C1  UNL     1     -34.481   6.118   5.840  1.00 20.00     0.051 C 
HETATM    2  C2  UNL     1     -35.329   5.322   6.753  1.00 20.00     0.058 C 
HETATM    3  C3  UNL     1     -35.140   3.961   6.038  1.00 20.00     0.007 C 
HETATM    4  C4  UNL     1     -34.669   5.778   2.084  1.00 20.00     0.004 C 
HETATM    5  C5  UNL     1     -33.243   6.168   2.565  1.00 20.00     0.036 C 
HETATM    6  C6  UNL     1     -34.198   4.212   4.823  1.00 20.00     0.018 C 
HETATM    7  C7  UNL     1     -35.566   5.731   3.359  1.00 20.00     0.018 C 
HETATM    8  C8  UNL     1     -33.557   6.698   3.937  1.00 20.00     0.169 C 
HETATM    9  C9  UNL     1     -34.523   5.661   4.442  1.00 20.00     0.031 C 
HETATM   10  N10 UNL     1     -33.440   6.819   6.175  1.00 20.00    -0.142 NA
HETATM   11  O11 UNL     1     -32.632   6.879   4.979  1.00 20.00    -0.250 OA
ENDROOT
TORSDOF 0
