REMARK  1 active torsions:
REMARK  status: ('A' for Active; 'I' for Inactive)
REMARK    1  A    between atoms: C7_7  and  C10_10 
ROOT
HETATM    1  C1  UNL     1     -35.048   3.566   5.254  1.00 20.00    -0.018 C 
HETATM    2  C2  UNL     1     -34.142   4.033   6.131  1.00 20.00    -0.024 C 
HETATM    3  C3  UNL     1     -34.353   5.162   3.619  1.00 20.00     0.139 C 
HETATM    4  C4  UNL     1     -35.475   5.825   5.533  1.00 20.00     0.025 C 
HETATM    5  C5  UNL     1     -35.553   4.739   4.458  1.00 20.00     0.078 C 
HETATM    6  C6  UNL     1     -34.012   5.528   5.899  1.00 20.00     0.020 C 
HETATM    7  C7  UNL     1     -33.268   5.730   4.547  1.00 20.00     0.067 C 
HETATM    8  O11 UNL     1     -34.255   5.031   2.409  1.00 20.00    -0.297 OA
ENDROOT
BRANCH   7   9
HETATM    9  C10 UNL     1     -32.946   7.176   4.223  1.00 20.00    -0.011 C 
HETATM   10  C8  UNL     1     -32.299   7.874   5.422  1.00 20.00     0.010 C 
HETATM   11  C9  UNL     1     -32.032   7.272   2.999  1.00 20.00     0.010 C 
ENDBRANCH   7   9
TORSDOF 1
