REMARK  1 active torsions:
REMARK  status: ('A' for Active; 'I' for Inactive)
REMARK    1  A    between atoms: C3_3  and  C9_9 
ROOT
HETATM    1  C1  UNL     1     -33.267   4.781   3.695  1.00 20.00     0.178 C 
HETATM    2  C2  UNL     1     -34.126   6.356   5.536  1.00 20.00     0.087 C 
HETATM    3  C3  UNL     1     -33.195   7.069   3.043  1.00 20.00     0.185 C 
HETATM    4  C4  UNL     1     -34.337   5.018   4.795  1.00 20.00    -0.018 C 
HETATM    5  C5  UNL     1     -35.747   4.954   4.169  1.00 20.00     0.018 C 
HETATM    6  C6  UNL     1     -34.251   3.876   5.830  1.00 20.00     0.018 C 
HETATM    7  O10 UNL     1     -32.446   5.919   3.431  1.00 20.00    -0.374 OA
HETATM    8  S11 UNL     1     -34.091   7.812   4.442  1.00 20.00    -0.136 SA
ENDROOT
BRANCH   3   9
HETATM    9  C9  UNL     1     -32.214   8.093   2.489  1.00 20.00     0.017 C 
HETATM   10  C7  UNL     1     -32.948   9.352   2.028  1.00 20.00     0.013 C 
HETATM   11  C8  UNL     1     -31.153   8.446   3.532  1.00 20.00     0.013 C 
ENDBRANCH   3   9
TORSDOF 1
