REMARK  1 active torsions:
REMARK  status: ('A' for Active; 'I' for Inactive)
REMARK    1  A    between atoms: C6_6  and  C11_11 
ROOT
HETATM    1  C1  UNL     1     -33.483   5.791   4.558  1.00 20.00    -0.014 C 
HETATM    2  C2  UNL     1     -33.113   7.002   5.026  1.00 20.00    -0.074 C 
HETATM    3  C3  UNL     1     -33.290   5.484   3.099  1.00 20.00     0.155 C 
HETATM    4  C4  UNL     1     -32.597   8.109   4.133  1.00 20.00     0.039 C 
HETATM    5  C5  UNL     1     -32.623   6.514   2.215  1.00 20.00     0.088 C 
HETATM    6  C6  UNL     1     -32.981   7.923   2.664  1.00 20.00     0.000 C 
HETATM    7  C7  UNL     1     -34.076   4.674   5.369  1.00 20.00     0.052 C 
HETATM    8  C8  UNL     1     -33.158   7.393   6.481  1.00 20.00     0.044 C 
HETATM    9  O12 UNL     1     -33.610   4.387   2.641  1.00 20.00    -0.293 OA
ENDROOT
BRANCH   6  10
HETATM   10  C11 UNL     1     -32.301   8.969   1.784  1.00 20.00    -0.018 C 
HETATM   11  C9  UNL     1     -32.663   8.752   0.316  1.00 20.00     0.010 C 
HETATM   12  C10 UNL     1     -32.685  10.378   2.229  1.00 20.00     0.010 C 
ENDBRANCH   6  10
TORSDOF 1
