REMARK  1 active torsions:
REMARK  status: ('A' for Active; 'I' for Inactive)
REMARK    1  A    between atoms: C2_2  and  C10_10 
ROOT
HETATM    1  C1  UNL     1     -35.028   4.850   3.733  1.00 20.00    -0.017 C 
HETATM    2  C2  UNL     1     -33.940   5.644   3.645  1.00 20.00    -0.068 C 
HETATM    3  C3  UNL     1     -33.611   6.138   6.128  1.00 20.00     0.135 C 
HETATM    4  C4  UNL     1     -34.944   5.806   6.763  1.00 20.00     0.080 C 
HETATM    5  C5  UNL     1     -35.233   4.368   6.303  1.00 20.00     0.017 C 
HETATM    6  C6  UNL     1     -34.526   4.124   4.964  1.00 20.00     0.024 C 
HETATM    7  C7  UNL     1     -33.363   5.139   4.957  1.00 20.00     0.092 C 
HETATM    8  O11 UNL     1     -32.912   7.080   6.485  1.00 20.00    -0.297 OA
ENDROOT
BRANCH   2   9
HETATM    9  C10 UNL     1     -33.493   6.730   2.649  1.00 20.00     0.007 C 
HETATM   10  C8  UNL     1     -34.046   8.062   3.100  1.00 20.00     0.014 C 
HETATM   11  C9  UNL     1     -31.984   6.732   2.555  1.00 20.00     0.014 C 
ENDBRANCH   2   9
TORSDOF 1
