REMARK  1 active torsions:
REMARK  status: ('A' for Active; 'I' for Inactive)
REMARK    1  A    between atoms: C4_4  and  C9_9 
ROOT
HETATM    1  C1  UNL     1     -33.292   6.998   6.596  1.00 20.00     0.007 A 
HETATM    2  C2  UNL     1     -34.055   5.914   6.759  1.00 20.00     0.074 A 
HETATM    3  C3  UNL     1     -32.938   7.462   5.284  1.00 20.00     0.026 A 
HETATM    4  C4  UNL     1     -33.368   6.817   4.186  1.00 20.00     0.018 A 
HETATM    5  C5  UNL     1     -34.553   5.169   5.568  1.00 20.00     0.247 A 
HETATM    6  C8  UNL     1     -34.629   4.992   3.104  1.00 20.00     0.159 C 
HETATM    7  N10 UNL     1     -34.172   5.676   4.313  1.00 20.00    -0.322 N 
HETATM    8  O11 UNL     1     -35.253   4.175   5.754  1.00 20.00    -0.268 OA
ENDROOT
BRANCH   4   9
HETATM    9  C9  UNL     1     -32.992   7.312   2.818  1.00 20.00     0.028 C 
HETATM   10  C6  UNL     1     -33.536   8.719   2.601  1.00 20.00     0.016 C 
HETATM   11  C7  UNL     1     -31.479   7.275   2.630  1.00 20.00     0.016 C 
ENDBRANCH   4   9
TORSDOF 1
