REMARK  0 active torsions:
REMARK  status: ('A' for Active; 'I' for Inactive)
ROOT
HETATM    1  C1  UNL     1     -33.816   5.950   2.886  1.00 20.00     0.024 A 
HETATM    2  C2  UNL     1     -34.286   5.564   4.177  1.00 20.00    -0.016 A 
HETATM    3  C3  UNL     1     -33.862   6.450   5.147  1.00 20.00    -0.007 A 
HETATM    4  C4  UNL     1     -33.056   7.100   2.932  1.00 20.00    -0.020 A 
HETATM    5  C5  UNL     1     -35.155   4.384   4.498  1.00 20.00     0.311 C 
HETATM    6  C6  UNL     1     -34.165   6.298   6.601  1.00 20.00     0.077 C 
HETATM    7  C7  UNL     1     -35.261   5.231   6.796  1.00 20.00     0.277 C 
HETATM    8  C8  UNL     1     -32.396   7.812   1.816  1.00 20.00     0.056 C 
HETATM    9  C9  UNL     1     -33.941   3.240   6.283  1.00 20.00     0.310 C 
HETATM   10  N10 UNL     1     -35.115   4.039   5.936  1.00 20.00     0.088 N 
HETATM   11  S11 UNL     1     -32.911   7.713   4.525  1.00 20.00    -0.099 SA
ENDROOT
TORSDOF 0
