REMARK  0 active torsions:
REMARK  status: ('A' for Active; 'I' for Inactive)
ROOT
HETATM    1  C1  UNL     1     -32.606   6.845   4.435  1.00 20.00     0.086 C 
HETATM    2  C2  UNL     1     -33.535   6.029   4.943  1.00 20.00    -0.064 C 
HETATM    3  C3  UNL     1     -32.422   6.914   2.972  1.00 20.00     0.283 C 
HETATM    4  C4  UNL     1     -33.778   5.769   6.400  1.00 20.00     0.035 C 
HETATM    5  C5  UNL     1     -34.778   4.612   6.402  1.00 20.00     0.005 C 
HETATM    6  C6  UNL     1     -34.616   3.944   5.036  1.00 20.00     0.016 C 
HETATM    7  C7  UNL     1     -33.494   4.729   2.880  1.00 20.00     0.192 C 
HETATM    8  C8  UNL     1     -34.352   5.111   4.080  1.00 20.00     0.002 C 
HETATM    9  C9  UNL     1     -35.658   5.790   3.636  1.00 20.00     0.022 C 
HETATM   10  O10 UNL     1     -31.795   7.837   2.463  1.00 20.00    -0.260 OA
HETATM   11  O11 UNL     1     -32.980   5.916   2.230  1.00 20.00    -0.317 OA
ENDROOT
TORSDOF 0
