REMARK  1 active torsions:
REMARK  status: ('A' for Active; 'I' for Inactive)
REMARK    1  A    between atoms: C4_4  and  C7_7 
ROOT
HETATM    1  C1  UNL     1     -32.765   8.105   2.281  1.00 20.00     0.075 C 
HETATM    2  C2  UNL     1     -34.835   6.831   2.694  1.00 20.00     0.105 C 
HETATM    3  C3  UNL     1     -33.532   7.353   3.280  1.00 20.00     0.164 C 
HETATM    4  C4  UNL     1     -34.042   5.063   4.625  1.00 20.00     0.113 C 
HETATM    5  N8  UNL     1     -32.158   8.700   1.491  1.00 20.00    -0.196 NA
HETATM    6  S9  UNL     1     -35.587   5.677   3.878  1.00 20.00    -0.151 SA
HETATM    7  S10 UNL     1     -32.619   5.893   3.856  1.00 20.00    -0.133 SA
ENDROOT
BRANCH   4   8
HETATM    8  C7  UNL     1     -34.055   5.330   6.125  1.00 20.00     0.001 C 
HETATM    9  C5  UNL     1     -34.154   6.830   6.405  1.00 20.00     0.011 C 
HETATM   10  C6  UNL     1     -35.208   4.585   6.797  1.00 20.00     0.011 C 
ENDBRANCH   4   8
TORSDOF 1
