REMARK  1 active torsions:
REMARK  status: ('A' for Active; 'I' for Inactive)
REMARK    1  A    between atoms: C1_1  and  C10_10 
ROOT
HETATM    1  C1  UNL     1     -33.976   5.713   4.747  1.00 20.00     0.025 C 
HETATM    2  C2  UNL     1     -33.101   5.915   3.770  1.00 20.00    -0.038 C 
HETATM    3  C3  UNL     1     -33.675   6.762   5.741  1.00 20.00     0.290 C 
HETATM    4  C4  UNL     1     -33.061   5.522   2.338  1.00 20.00     0.038 C 
HETATM    5  C5  UNL     1     -32.346   6.731   1.706  1.00 20.00     0.007 C 
HETATM    6  C6  UNL     1     -32.304   7.820   2.791  1.00 20.00     0.037 C 
HETATM    7  C7  UNL     1     -32.172   7.015   4.069  1.00 20.00     0.162 C 
HETATM    8  O11 UNL     1     -34.244   6.902   6.810  1.00 20.00    -0.260 OA
HETATM    9  O12 UNL     1     -32.702   7.596   5.246  1.00 20.00    -0.308 OA
ENDROOT
BRANCH   1  10
HETATM   10  C10 UNL     1     -35.154   4.823   4.827  1.00 20.00     0.017 C 
HETATM   11  C8  UNL     1     -35.357   4.059   3.514  1.00 20.00     0.015 C 
HETATM   12  C9  UNL     1     -35.037   3.839   5.998  1.00 20.00     0.015 C 
ENDBRANCH   1  10
TORSDOF 1
