REMARK  1 active torsions:
REMARK  status: ('A' for Active; 'I' for Inactive)
REMARK    1  A    between atoms: C4_4  and  C10_10 
ROOT
HETATM    1  C1  UNL     1     -34.217   5.924   3.190  1.00 20.00     0.132 C 
HETATM    2  C2  UNL     1     -35.153   5.288   4.185  1.00 20.00     0.087 C 
HETATM    3  C3  UNL     1     -32.895   5.333   5.072  1.00 20.00     0.021 C 
HETATM    4  C4  UNL     1     -32.791   5.970   3.681  1.00 20.00     0.059 C 
HETATM    5  C5  UNL     1     -34.375   5.415   5.503  1.00 20.00    -0.041 C 
HETATM    6  C6  UNL     1     -34.693   6.749   6.196  1.00 20.00     0.015 C 
HETATM    7  C7  UNL     1     -34.726   4.270   6.460  1.00 20.00     0.015 C 
HETATM    8  O11 UNL     1     -34.575   6.334   2.092  1.00 20.00    -0.298 OA
ENDROOT
BRANCH   4   9
HETATM    9  C10 UNL     1     -32.191   7.365   3.724  1.00 20.00    -0.011 C 
HETATM   10  C8  UNL     1     -30.759   7.329   4.265  1.00 20.00     0.010 C 
HETATM   11  C9  UNL     1     -32.216   8.016   2.339  1.00 20.00     0.010 C 
ENDBRANCH   4   9
TORSDOF 1
