REMARK  1 active torsions:
REMARK  status: ('A' for Active; 'I' for Inactive)
REMARK    1  A    between atoms: C4_4  and  C7_7 
ROOT
HETATM    1  C1  UNL     1     -32.582   8.540   1.964  1.00 20.00     0.075 C 
HETATM    2  C2  UNL     1     -31.946   6.244   2.679  1.00 20.00     0.105 C 
HETATM    3  C3  UNL     1     -32.118   7.703   3.082  1.00 20.00     0.164 C 
HETATM    4  C4  UNL     1     -34.247   6.269   4.087  1.00 20.00     0.113 C 
HETATM    5  N8  UNL     1     -32.947   9.201   1.083  1.00 20.00    -0.196 NA
HETATM    6  S9  UNL     1     -33.588   5.483   2.587  1.00 20.00    -0.151 SA
HETATM    7  S10 UNL     1     -33.283   7.767   4.483  1.00 20.00    -0.133 SA
ENDROOT
BRANCH   4   8
HETATM    8  C7  UNL     1     -34.180   5.296   5.258  1.00 20.00     0.001 C 
HETATM    9  C5  UNL     1     -34.739   5.938   6.527  1.00 20.00     0.011 C 
HETATM   10  C6  UNL     1     -34.934   4.007   4.933  1.00 20.00     0.011 C 
ENDBRANCH   4   8
TORSDOF 1
