REMARK  0 active torsions:
REMARK  status: ('A' for Active; 'I' for Inactive)
ROOT
HETATM    1  C1  UNL     1     -34.182   5.783   6.072  1.00 20.00     0.161 C 
HETATM    2  C2  UNL     1     -34.794   4.502   6.588  1.00 20.00     0.091 C 
HETATM    3  C3  UNL     1     -34.774   3.515   5.438  1.00 20.00     0.084 C 
HETATM    4  C4  UNL     1     -34.318   5.993   4.575  1.00 20.00     0.141 C 
HETATM    5  C5  UNL     1     -32.955   6.151   3.918  1.00 20.00     0.053 C 
HETATM    6  O6  UNL     1     -33.664   6.604   6.824  1.00 20.00    -0.295 OA
HETATM    7  S7  UNL     1     -35.163   4.499   3.976  1.00 20.00    -0.135 SA
HETATM    8 CL8  UNL     1     -35.325   7.431   4.314  1.00 20.00    -0.099 Cl
ENDROOT
TORSDOF 0
