REMARK  1 active torsions:
REMARK  status: ('A' for Active; 'I' for Inactive)
REMARK    1  A    between atoms: C4_4  and  C7_7 
ROOT
HETATM    1  C1  UNL     1     -32.378   8.614   1.495  1.00 20.00     0.075 C 
HETATM    2  C2  UNL     1     -34.086   6.918   2.025  1.00 20.00     0.105 C 
HETATM    3  C3  UNL     1     -32.605   7.268   2.034  1.00 20.00     0.164 C 
HETATM    4  C4  UNL     1     -33.167   5.851   4.321  1.00 20.00     0.113 C 
HETATM    5  N8  UNL     1     -32.199   9.678   1.069  1.00 20.00    -0.196 NA
HETATM    6  S9  UNL     1     -34.272   5.379   2.957  1.00 20.00    -0.151 SA
HETATM    7  S10 UNL     1     -32.008   7.140   3.752  1.00 20.00    -0.133 SA
ENDROOT
BRANCH   4   8
HETATM    8  C7  UNL     1     -33.981   6.377   5.496  1.00 20.00     0.001 C 
HETATM    9  C5  UNL     1     -34.946   5.307   6.007  1.00 20.00     0.011 C 
HETATM   10  C6  UNL     1     -33.063   6.849   6.623  1.00 20.00     0.011 C 
ENDBRANCH   4   8
TORSDOF 1
