REMARK  1 active torsions:
REMARK  status: ('A' for Active; 'I' for Inactive)
REMARK    1  A    between atoms: C5_5  and  C7_7 
ROOT
HETATM    1  C1  UNL     1     -35.070   5.023   5.244  1.00 20.00     0.003 C 
HETATM    2  C2  UNL     1     -33.907   5.496   6.112  1.00 20.00     0.003 C 
HETATM    3  C3  UNL     1     -34.467   4.947   3.839  1.00 20.00     0.041 C 
HETATM    4  C4  UNL     1     -33.204   6.538   5.238  1.00 20.00     0.041 C 
HETATM    5  C5  UNL     1     -33.030   6.777   2.593  1.00 20.00     0.167 A 
HETATM    6  C6  UNL     1     -33.432   6.032   3.846  1.00 20.00     0.088 A 
HETATM    7  O8  UNL     1     -32.234   5.711   3.119  1.00 20.00    -0.368 OA
ENDROOT
BRANCH   5   8
HETATM    8  C7  UNL     1     -32.381   8.114   2.635  1.00 20.00     0.120 C 
HETATM    9 BR9  UNL     1     -31.413   8.459   0.974  1.00 20.00    -0.094 Br
ENDBRANCH   5   8
TORSDOF 1
