REMARK  1 active torsions:
REMARK  status: ('A' for Active; 'I' for Inactive)
REMARK    1  A    between atoms: C8_8  and  C11_11 
ROOT
HETATM    1  C1  UNL     1     -32.761   7.089   3.301  1.00 20.00    -0.079 C 
HETATM    2  C2  UNL     1     -35.021   4.677   4.048  1.00 20.00     0.132 C 
HETATM    3  C3  UNL     1     -32.133   8.044   2.618  1.00 20.00     0.015 C 
HETATM    4  C4  UNL     1     -32.372   5.661   3.793  1.00 20.00     0.047 C 
HETATM    5  C5  UNL     1     -36.206   5.634   3.891  1.00 20.00     0.080 C 
HETATM    6  C6  UNL     1     -35.537   6.939   3.326  1.00 20.00     0.022 C 
HETATM    7  C7  UNL     1     -33.840   5.434   3.462  1.00 20.00     0.072 C 
HETATM    8  C8  UNL     1     -34.132   6.937   3.935  1.00 20.00    -0.004 C 
HETATM    9  O12 UNL     1     -35.079   3.561   4.538  1.00 20.00    -0.298 OA
ENDROOT
BRANCH   8  10
HETATM   10  C11 UNL     1     -34.155   7.380   5.405  1.00 20.00    -0.009 C 
HETATM   11  C9  UNL     1     -34.601   6.229   6.298  1.00 20.00     0.011 C 
HETATM   12  C10 UNL     1     -32.783   7.894   5.824  1.00 20.00     0.011 C 
ENDBRANCH   8  10
TORSDOF 1
