REMARK  0 active torsions:
REMARK  status: ('A' for Active; 'I' for Inactive)
ROOT
HETATM    1  C1  UNL     1     -33.401   6.223   4.816  1.00 20.00     0.117 A 
HETATM    2  C2  UNL     1     -34.010   5.504   3.871  1.00 20.00    -0.042 A 
HETATM    3  C3  UNL     1     -32.313   6.954   4.161  1.00 20.00     0.186 A 
HETATM    4  C4  UNL     1     -35.150   4.600   4.187  1.00 20.00     0.039 C 
HETATM    5  C5  UNL     1     -33.452   5.674   2.496  1.00 20.00     0.049 A 
HETATM    6  C6  UNL     1     -35.255   4.417   5.706  1.00 20.00     0.031 C 
HETATM    7  C7  UNL     1     -34.989   5.735   6.442  1.00 20.00     0.176 C 
HETATM    8  C8  UNL     1     -32.242   6.605   2.690  1.00 20.00     0.062 A 
HETATM    9  C9  UNL     1     -32.304   7.846   1.816  1.00 20.00     0.018 C 
HETATM   10  O10 UNL     1     -31.572   7.731   4.743  1.00 20.00    -0.290 OA
HETATM   11  O11 UNL     1     -33.701   6.300   6.142  1.00 20.00    -0.347 OA
ENDROOT
TORSDOF 0
