REMARK  1 active torsions:
REMARK  status: ('A' for Active; 'I' for Inactive)
REMARK    1  A    between atoms: C6_6  and  C9_9 
ROOT
HETATM    1  C1  UNL     1     -35.279   4.380   4.090  1.00 20.00     0.302 C 
HETATM    2  C2  UNL     1     -35.401   5.790   3.477  1.00 20.00     0.303 C 
HETATM    3  C3  UNL     1     -33.984   5.256   5.916  1.00 20.00     0.307 C 
HETATM    4  C4  UNL     1     -32.883   4.504   3.944  1.00 20.00     0.308 C 
HETATM    5  C5  UNL     1     -34.201   6.664   5.324  1.00 20.00     0.247 C 
HETATM    6  C6  UNL     1     -33.042   5.885   3.273  1.00 20.00     0.251 C 
HETATM    7  C7  UNL     1     -33.262   7.708   5.924  1.00 20.00     0.045 C 
HETATM    8  N10 UNL     1     -34.019   4.226   4.853  1.00 20.00     0.094 N 
HETATM    9  N11 UNL     1     -34.212   6.616   3.835  1.00 20.00     0.102 N 
ENDROOT
BRANCH   6  10
HETATM   10  C9  UNL     1     -31.739   6.682   3.251  1.00 20.00     0.033 C 
HETATM   11  C8  UNL     1     -31.893   7.965   2.506  1.00 20.00     0.007 C 
ENDBRANCH   6  10
TORSDOF 1
