REMARK  5 active torsions:
REMARK  status: ('A' for Active; 'I' for Inactive)
REMARK    1  A    between atoms: C2_2  and  C6_6 
REMARK    2  A    between atoms: C2_2  and  C8_8 
REMARK    3  A    between atoms: C6_6  and  O11_11 
REMARK    4  A    between atoms: C7_7  and  O10_10 
REMARK    5  A    between atoms: C7_7  and  O11_11 
ROOT
HETATM    1  C1  UNL     1     -35.460   6.707   4.212  1.00 20.00     0.209 A 
HETATM    2  C2  UNL     1     -34.584   5.479   4.141  1.00 20.00     0.106 A 
HETATM    3  O9  UNL     1     -36.009   5.398   3.997  1.00 20.00    -0.372 OA
ENDROOT
BRANCH   2   4
HETATM    4  C6  UNL     1     -33.834   5.181   2.883  1.00 20.00     0.211 C 
BRANCH   4   5
HETATM    5  O11 UNL     1     -32.661   5.990   2.818  1.00 20.00    -0.364 OA
BRANCH   5   6
HETATM    6  C7  UNL     1     -32.948   7.314   2.375  1.00 20.00     0.337 C 
BRANCH   6   7
HETATM    7  O10 UNL     1     -31.823   8.005   1.833  1.00 20.00    -0.372 OA
HETATM    8  C5  UNL     1     -32.165   9.299   1.355  1.00 20.00     0.204 C 
ENDBRANCH   6   7
ENDBRANCH   5   6
ENDBRANCH   4   5
ENDBRANCH   2   4
BRANCH   2   9
HETATM    9  C8  UNL     1     -34.059   4.853   5.431  1.00 20.00     0.016 C 
HETATM   10  C3  UNL     1     -34.461   5.697   6.639  1.00 20.00     0.012 C 
HETATM   11  C4  UNL     1     -34.571   3.422   5.581  1.00 20.00     0.012 C 
ENDBRANCH   2   9
TORSDOF 5
