REMARK  4 active torsions:
REMARK  status: ('A' for Active; 'I' for Inactive)
REMARK    1  A    between atoms: C1_1  and  C3_3 
REMARK    2  A    between atoms: C2_2  and  C7_7 
REMARK    3  A    between atoms: C2_2  and  C8_8 
REMARK    4  A    between atoms: C3_3  and  C9_9 
ROOT
HETATM    1  C1  UNL     1     -33.617   6.239   3.627  1.00 20.00     0.164 C 
HETATM    2  C2  UNL     1     -34.387   6.272   4.730  1.00 20.00    -0.038 C 
HETATM    3  F11 UNL     1     -33.828   5.280   2.696  1.00 20.00    -0.202 F 
ENDROOT
BRANCH   1   4
HETATM    4  C3  UNL     1     -32.515   7.175   3.259  1.00 20.00     0.187 C 
HETATM    5  O10 UNL     1     -31.511   7.304   3.954  1.00 20.00    -0.290 OA
BRANCH   4   6
HETATM    6  C9  UNL     1     -32.700   7.933   1.956  1.00 20.00     0.082 C 
HETATM    7  C6  UNL     1     -32.742   9.438   2.159  1.00 20.00     0.013 C 
ENDBRANCH   4   6
ENDBRANCH   1   4
BRANCH   2   8
HETATM    8  C7  UNL     1     -35.494   5.291   5.049  1.00 20.00     0.033 C 
HETATM    9  C4  UNL     1     -34.991   4.092   5.840  1.00 20.00     0.010 C 
ENDBRANCH   2   8
BRANCH   2  10
HETATM   10  C8  UNL     1     -34.160   7.352   5.771  1.00 20.00     0.033 C 
HETATM   11  C5  UNL     1     -33.154   6.933   6.835  1.00 20.00     0.010 C 
ENDBRANCH   2  10
TORSDOF 4
