REMARK  1 active torsions:
REMARK  status: ('A' for Active; 'I' for Inactive)
REMARK    1  A    between atoms: C7_7  and  N9_9 
ROOT
HETATM    1  C1  UNL     1     -34.889   3.440   5.911  1.00 20.00     0.004 A 
HETATM    2  C2  UNL     1     -34.263   4.391   6.614  1.00 20.00     0.042 A 
HETATM    3  C3  UNL     1     -35.243   3.649   4.536  1.00 20.00     0.018 A 
HETATM    4  C4  UNL     1     -34.947   4.810   3.941  1.00 20.00     0.097 A 
HETATM    5  C5  UNL     1     -33.914   5.709   5.974  1.00 20.00     0.106 A 
HETATM    6  N9  UNL     1     -34.299   5.835   4.619  1.00 20.00    -0.324 N 
HETATM    7  S10 UNL     1     -33.120   6.891   6.892  1.00 20.00    -0.060 SA
ENDROOT
BRANCH   6   8
HETATM    8  C7  UNL     1     -34.080   6.952   3.841  1.00 20.00     0.093 C 
HETATM    9  C6  UNL     1     -32.971   7.122   3.112  1.00 20.00    -0.013 C 
HETATM   10  C8  UNL     1     -31.857   6.130   3.060  1.00 20.00     0.037 C 
ENDBRANCH   6   8
TORSDOF 1
