REMARK  1 active torsions:
REMARK  status: ('A' for Active; 'I' for Inactive)
REMARK    1  A    between atoms: C3_3  and  C8_8 
ROOT
HETATM    1  C1  UNL     1     -33.797   6.435   5.660  1.00 20.00     0.145 C 
HETATM    2  C4  UNL     1     -33.395   7.381   4.543  1.00 20.00     0.088 C 
HETATM    3  C5  UNL     1     -34.541   4.919   3.821  1.00 20.00     0.028 C 
HETATM    4  C6  UNL     1     -33.520   5.504   2.839  1.00 20.00     0.011 C 
HETATM    5  C7  UNL     1     -34.059   4.990   5.266  1.00 20.00     0.151 C 
HETATM    6  C8  UNL     1     -32.647   6.612   3.453  1.00 20.00     0.014 C 
HETATM    7  O9  UNL     1     -33.894   6.840   6.818  1.00 20.00    -0.296 OA
HETATM    8 CL10 UNL     1     -35.294   4.308   6.350  1.00 20.00    -0.117 Cl
ENDROOT
BRANCH   6   9
HETATM    9  C3  UNL     1     -32.131   7.532   2.389  1.00 20.00    -0.032 C 
HETATM   10  C2  UNL     1     -32.743   8.661   2.016  1.00 20.00     0.007 C 
ENDBRANCH   6   9
TORSDOF 1
