REMARK  0 active torsions:
REMARK  status: ('A' for Active; 'I' for Inactive)
ROOT
HETATM    1  C1  UNL     1     -35.280   5.475   5.948  1.00 20.00    -0.025 A 
HETATM    2  C2  UNL     1     -33.987   5.846   5.969  1.00 20.00    -0.020 A 
HETATM    3  C3  UNL     1     -35.740   5.292   3.391  1.00 20.00     0.014 C 
HETATM    4  C4  UNL     1     -34.537   5.438   2.466  1.00 20.00     0.070 C 
HETATM    5  C5  UNL     1     -32.391   7.901   3.019  1.00 20.00     0.197 C 
HETATM    6  C6  UNL     1     -31.370   6.799   3.091  1.00 20.00     0.197 C 
HETATM    7  C7  UNL     1     -35.140   4.690   4.661  1.00 20.00     0.021 A 
HETATM    8  C8  UNL     1     -33.647   5.117   4.683  1.00 20.00     0.078 A 
HETATM    9  C9  UNL     1     -33.426   5.922   3.396  1.00 20.00     0.171 C 
HETATM   10  O10 UNL     1     -33.546   7.332   3.634  1.00 20.00    -0.352 OA
HETATM   11  O11 UNL     1     -32.141   5.626   2.839  1.00 20.00    -0.352 OA
ENDROOT
TORSDOF 0
