REMARK  0 active torsions:
REMARK  status: ('A' for Active; 'I' for Inactive)
ROOT
HETATM    1  C1  UNL     1     -32.857   7.108   2.098  1.00 20.00     0.001 C 
HETATM    2  C2  UNL     1     -31.784   6.235   2.744  1.00 20.00     0.001 C 
HETATM    3  C3  UNL     1     -34.195   5.739   6.672  1.00 20.00     0.004 C 
HETATM    4  C4  UNL     1     -35.287   4.739   6.305  1.00 20.00     0.034 C 
HETATM    5  C5  UNL     1     -33.803   7.514   3.223  1.00 20.00     0.012 C 
HETATM    6  C6  UNL     1     -32.192   6.059   4.207  1.00 20.00     0.012 C 
HETATM    7  C7  UNL     1     -34.121   6.881   5.660  1.00 20.00     0.012 C 
HETATM    8  C8  UNL     1     -35.248   4.352   4.862  1.00 20.00     0.152 A 
HETATM    9  C9  UNL     1     -34.507   5.175   3.838  1.00 20.00     0.159 A 
HETATM   10  C10 UNL     1     -33.697   6.385   4.261  1.00 20.00    -0.012 C 
HETATM   11  O11 UNL     1     -35.923   5.291   4.003  1.00 20.00    -0.375 OA
ENDROOT
TORSDOF 0
