REMARK  0 active torsions:
REMARK  status: ('A' for Active; 'I' for Inactive)
ROOT
HETATM    1  C1  UNL     1     -34.993   4.922   6.379  1.00 20.00    -0.004 C 
HETATM    2  C2  UNL     1     -34.565   4.026   5.338  1.00 20.00    -0.003 C 
HETATM    3  C3  UNL     1     -34.486   6.157   6.469  1.00 20.00    -0.025 C 
HETATM    4  C4  UNL     1     -33.862   4.466   4.284  1.00 20.00    -0.009 C 
HETATM    5  C5  UNL     1     -31.999   5.966   3.595  1.00 20.00     0.140 C 
HETATM    6  C6  UNL     1     -33.472   6.671   5.484  1.00 20.00     0.048 C 
HETATM    7  C7  UNL     1     -31.479   7.309   3.123  1.00 20.00     0.079 C 
HETATM    8  C8  UNL     1     -32.414   7.933   2.102  1.00 20.00     0.008 C 
HETATM    9  C9  UNL     1     -33.847   8.006   2.621  1.00 20.00     0.006 C 
HETATM   10  C10 UNL     1     -34.389   6.628   3.059  1.00 20.00     0.001 C 
HETATM   11  C11 UNL     1     -33.455   5.925   4.104  1.00 20.00     0.044 C 
HETATM   12  C12 UNL     1     -34.668   5.775   1.805  1.00 20.00     0.011 C 
HETATM   13  O13 UNL     1     -31.243   4.995   3.645  1.00 20.00    -0.297 OA
ENDROOT
TORSDOF 0
