REMARK  0 active torsions:
REMARK  status: ('A' for Active; 'I' for Inactive)
ROOT
HETATM    1  C1  UNL     1     -34.786   4.724   3.733  1.00 20.00     0.098 A 
HETATM    2  C2  UNL     1     -34.500   5.252   4.974  1.00 20.00     0.136 A 
HETATM    3  C3  UNL     1     -32.949   6.280   3.813  1.00 20.00     0.253 A 
HETATM    4  N4  UNL     1     -33.446   6.144   5.023  1.00 20.00    -0.201 NA
HETATM    5  F5  UNL     1     -31.911   7.091   3.563  1.00 20.00    -0.176 F 
HETATM    6  S6  UNL     1     -33.700   5.365   2.571  1.00 20.00    -0.048 SA
HETATM    7 CL7  UNL     1     -35.363   4.859   6.403  1.00 20.00    -0.062 Cl
ENDROOT
TORSDOF 0
