REMARK  3 active torsions:
REMARK  status: ('A' for Active; 'I' for Inactive)
REMARK    1  A    between atoms: C1_1  and  C7_7 
REMARK    2  A    between atoms: C2_2  and  C8_8 
REMARK    3  A    between atoms: C7_7  and  C9_9 
ROOT
HETATM    1  C1  UNL     1     -33.115   7.068   3.644  1.00 20.00     0.062 A 
HETATM    2  C2  UNL     1     -32.717   7.308   2.216  1.00 20.00     0.064 A 
HETATM    3  S10 UNL     1     -31.607   6.379   3.158  1.00 20.00    -0.157 SA
ENDROOT
BRANCH   1   4
HETATM    4  C7  UNL     1     -34.264   6.125   3.973  1.00 20.00     0.020 C 
BRANCH   4   5
HETATM    5  C9  UNL     1     -34.197   5.547   5.397  1.00 20.00    -0.022 C 
HETATM    6  C5  UNL     1     -34.234   6.636   6.470  1.00 20.00     0.009 C 
HETATM    7  C6  UNL     1     -35.353   4.567   5.615  1.00 20.00     0.009 C 
ENDBRANCH   4   5
ENDBRANCH   1   4
BRANCH   2   8
HETATM    8  C8  UNL     1     -32.297   8.667   1.771  1.00 20.00    -0.008 C 
HETATM    9  C3  UNL     1     -31.451   8.614   0.485  1.00 20.00     0.011 C 
HETATM   10  C4  UNL     1     -33.505   9.595   1.543  1.00 20.00     0.011 C 
ENDBRANCH   2   8
TORSDOF 3
