REMARK  1 active torsions:
REMARK  status: ('A' for Active; 'I' for Inactive)
REMARK    1  A    between atoms: C6_6  and  C8_8 
ROOT
HETATM    1  C1  UNL     1     -34.229   5.432   6.889  1.00 20.00     0.061 C 
HETATM    2  C2  UNL     1     -34.529   5.309   3.732  1.00 20.00     0.066 C 
HETATM    3  C3  UNL     1     -33.926   6.750   6.188  1.00 20.00     0.170 C 
HETATM    4  C4  UNL     1     -35.314   4.670   6.193  1.00 20.00     0.153 A 
HETATM    5  C5  UNL     1     -35.444   4.607   4.689  1.00 20.00     0.153 A 
HETATM    6  C6  UNL     1     -33.099   5.536   4.238  1.00 20.00     0.123 C 
HETATM    7  O9  UNL     1     -32.981   6.649   5.127  1.00 20.00    -0.386 OA
HETATM    8  O10 UNL     1     -34.858   3.536   5.437  1.00 20.00    -0.375 OA
ENDROOT
BRANCH   6   9
HETATM    9  C8  UNL     1     -32.168   5.838   3.064  1.00 20.00     0.027 C 
HETATM   10  C7  UNL     1     -32.612   7.044   2.303  1.00 20.00     0.007 C 
ENDBRANCH   6   9
TORSDOF 1
