REMARK  1 active torsions:
REMARK  status: ('A' for Active; 'I' for Inactive)
REMARK    1  A    between atoms: C6_6  and  C8_8 
ROOT
HETATM    1  C1  UNL     1     -34.731   4.604   3.453  1.00 20.00     0.061 C 
HETATM    2  C2  UNL     1     -32.840   7.002   4.847  1.00 20.00     0.066 C 
HETATM    3  C3  UNL     1     -33.995   5.395   2.342  1.00 20.00     0.170 C 
HETATM    4  C4  UNL     1     -34.166   4.981   4.760  1.00 20.00     0.153 A 
HETATM    5  C5  UNL     1     -34.223   6.487   4.911  1.00 20.00     0.153 A 
HETATM    6  C6  UNL     1     -32.349   6.946   3.368  1.00 20.00     0.123 C 
HETATM    7  O9  UNL     1     -32.627   5.706   2.673  1.00 20.00    -0.386 OA
HETATM    8  O10 UNL     1     -34.797   5.606   5.862  1.00 20.00    -0.375 OA
ENDROOT
BRANCH   6   9
HETATM    9  C8  UNL     1     -32.783   8.167   2.556  1.00 20.00     0.027 C 
HETATM   10  C7  UNL     1     -32.191   8.159   1.184  1.00 20.00     0.007 C 
ENDBRANCH   6   9
TORSDOF 1
