REMARK  1 active torsions:
REMARK  status: ('A' for Active; 'I' for Inactive)
REMARK    1  A    between atoms: C6_6  and  C10_10 
ROOT
HETATM    1  C1  UNL     1     -35.352   4.417   4.506  1.00 20.00     0.014 C 
HETATM    2  C2  UNL     1     -35.056   5.630   3.610  1.00 20.00     0.039 C 
HETATM    3  C3  UNL     1     -33.015   4.866   4.611  1.00 20.00     0.049 C 
HETATM    4  C4  UNL     1     -34.307   5.686   6.378  1.00 20.00     0.177 C 
HETATM    5  C5  UNL     1     -34.173   4.436   5.502  1.00 20.00    -0.020 C 
HETATM    6  C6  UNL     1     -33.732   6.144   4.196  1.00 20.00     0.064 C 
HETATM    7  C7  UNL     1     -33.987   3.147   6.268  1.00 20.00     0.017 C 
HETATM    8  O11 UNL     1     -34.053   6.775   5.460  1.00 20.00    -0.379 OA
ENDROOT
BRANCH   6   9
HETATM    9  C10 UNL     1     -32.962   7.084   3.302  1.00 20.00     0.012 C 
HETATM   10  C8  UNL     1     -31.677   7.570   3.983  1.00 20.00     0.012 C 
HETATM   11  C9  UNL     1     -32.623   6.421   1.961  1.00 20.00     0.012 C 
ENDBRANCH   6   9
TORSDOF 1
