REMARK  2 active torsions:
REMARK  status: ('A' for Active; 'I' for Inactive)
REMARK    1  A    between atoms: C3_3  and  C5_5 
REMARK    2  A    between atoms: C3_3  and  O9_9 
ROOT
HETATM    1  C1  UNL     1     -34.131   4.505   6.715  1.00 20.00    -0.002 A 
HETATM    2  C2  UNL     1     -33.842   5.695   6.196  1.00 20.00     0.013 A 
HETATM    3  C4  UNL     1     -35.077   3.788   5.829  1.00 20.00     0.196 A 
HETATM    4  C5  UNL     1     -34.573   5.873   4.921  1.00 20.00     0.244 A 
HETATM    5  O8  UNL     1     -35.345   4.681   4.729  1.00 20.00    -0.368 OA
ENDROOT
BRANCH   4   6
HETATM    6  C3  UNL     1     -33.593   5.969   3.797  1.00 20.00     0.291 C 
HETATM    7  O7  UNL     1     -33.505   5.150   2.893  1.00 20.00    -0.262 OA
BRANCH   6   8
HETATM    8  O9  UNL     1     -32.837   7.094   3.948  1.00 20.00    -0.324 OA
HETATM    9  C6  UNL     1     -31.850   7.311   2.934  1.00 20.00     0.213 C 
ENDBRANCH   6   8
ENDBRANCH   4   6
TORSDOF 2
