REMARK  2 active torsions:
REMARK  status: ('A' for Active; 'I' for Inactive)
REMARK    1  A    between atoms: C1_1  and  C3_3 
REMARK    2  A    between atoms: C3_3  and  C5_5 
ROOT
HETATM    1  C1  UNL     1     -34.061   5.970   3.603  1.00 20.00     0.212 C 
HETATM    2  C2  UNL     1     -34.405   5.690   4.863  1.00 20.00     0.228 C 
HETATM    3  F7  UNL     1     -34.633   5.330   2.562  1.00 20.00    -0.198 F 
HETATM    4  F8  UNL     1     -35.342   4.753   5.126  1.00 20.00    -0.189 F 
HETATM    5 CL9  UNL     1     -33.672   6.511   6.190  1.00 20.00    -0.048 Cl
ENDROOT
BRANCH   1   6
HETATM    6  C3  UNL     1     -33.040   6.986   3.230  1.00 20.00     0.191 C 
HETATM    7  O6  UNL     1     -32.092   7.243   3.968  1.00 20.00    -0.290 OA
BRANCH   6   8
HETATM    8  C5  UNL     1     -33.245   7.676   1.893  1.00 20.00     0.082 C 
HETATM    9  C4  UNL     1     -32.174   8.713   1.602  1.00 20.00     0.013 C 
ENDBRANCH   6   8
ENDBRANCH   1   6
TORSDOF 2
