REMARK  0 active torsions:
REMARK  status: ('A' for Active; 'I' for Inactive)
ROOT
HETATM    1  C1  UNL     1     -34.947   4.072   6.066  1.00 20.00     0.013 C 
HETATM    2  C2  UNL     1     -34.997   3.776   4.550  1.00 20.00     0.035 C 
HETATM    3  C3  UNL     1     -33.742   4.903   6.565  1.00 20.00     0.074 C 
HETATM    4  C4  UNL     1     -33.328   6.864   4.443  1.00 20.00     0.108 C 
HETATM    5  C5  UNL     1     -34.904   5.058   3.822  1.00 20.00     0.152 A 
HETATM    6  C6  UNL     1     -33.480   5.548   3.807  1.00 20.00     0.160 A 
HETATM    7  O7  UNL     1     -34.201   5.284   2.607  1.00 20.00    -0.375 OA
HETATM    8  S8  UNL     1     -33.793   6.729   6.230  1.00 20.00    -0.166 SA
ENDROOT
TORSDOF 0
