REMARK  1 active torsions:
REMARK  status: ('A' for Active; 'I' for Inactive)
REMARK    1  A    between atoms: C8_8  and  C11_11 
ROOT
HETATM    1  C1  UNL     1     -35.541   6.110   3.574  1.00 20.00     0.071 C 
HETATM    2  C2  UNL     1     -34.917   5.943   6.948  1.00 20.00    -0.004 A 
HETATM    3  C3  UNL     1     -34.798   4.556   6.546  1.00 20.00    -0.004 A 
HETATM    4  C4  UNL     1     -34.334   6.916   6.225  1.00 20.00    -0.020 A 
HETATM    5  C5  UNL     1     -34.102   4.223   5.444  1.00 20.00    -0.020 A 
HETATM    6  C6  UNL     1     -33.508   6.661   5.024  1.00 20.00     0.041 A 
HETATM    7  C7  UNL     1     -33.382   5.203   4.602  1.00 20.00     0.041 A 
HETATM    8  C8  UNL     1     -34.107   6.195   3.709  1.00 20.00     0.067 A 
HETATM    9  N12 UNL     1     -36.694   6.042   3.466  1.00 20.00    -0.196 NA
ENDROOT
BRANCH   8  10
HETATM   10  C11 UNL     1     -33.404   6.623   2.444  1.00 20.00     0.001 C 
HETATM   11  C9  UNL     1     -33.903   7.993   1.968  1.00 20.00     0.011 C 
HETATM   12  C10 UNL     1     -31.884   6.661   2.639  1.00 20.00     0.011 C 
ENDBRANCH   8  10
TORSDOF 1
