REMARK  1 active torsions:
REMARK  status: ('A' for Active; 'I' for Inactive)
REMARK    1  A    between atoms: C9_9  and  C12_12 
ROOT
HETATM    1  C1  UNL     1     -34.744   7.127   3.000  1.00 20.00     0.012 C 
HETATM    2  C2  UNL     1     -33.457   7.325   2.707  1.00 20.00     0.052 C 
HETATM    3  C3  UNL     1     -34.577   3.238   4.465  1.00 20.00    -0.025 C 
HETATM    4  C4  UNL     1     -33.484   4.020   4.426  1.00 20.00    -0.008 C 
HETATM    5  C5  UNL     1     -36.044   5.196   3.853  1.00 20.00    -0.014 C 
HETATM    6  C6  UNL     1     -34.937   5.950   3.805  1.00 20.00    -0.041 C 
HETATM    7  C7  UNL     1     -32.723   6.242   3.402  1.00 20.00     0.166 C 
HETATM    8  C8  UNL     1     -35.984   3.788   4.388  1.00 20.00     0.054 C 
HETATM    9  C9  UNL     1     -33.615   5.514   4.392  1.00 20.00     0.071 C 
HETATM   10  O13 UNL     1     -31.533   6.026   3.220  1.00 20.00    -0.292 OA
ENDROOT
BRANCH   9  11
HETATM   11  C12 UNL     1     -33.381   6.101   5.791  1.00 20.00     0.002 C 
HETATM   12  C10 UNL     1     -33.479   7.622   5.750  1.00 20.00     0.011 C 
HETATM   13  C11 UNL     1     -34.381   5.518   6.783  1.00 20.00     0.011 C 
ENDBRANCH   9  11
TORSDOF 1
