REMARK  0 active torsions:
REMARK  status: ('A' for Active; 'I' for Inactive)
ROOT
HETATM    1  C1  UNL     1     -33.110   6.465   5.676  1.00 20.00     0.050 C 
HETATM    2  C2  UNL     1     -32.354   6.884   4.655  1.00 20.00    -0.014 C 
HETATM    3  C3  UNL     1     -34.376   5.733   5.432  1.00 20.00     0.188 C 
HETATM    4  C4  UNL     1     -34.207   6.406   3.021  1.00 20.00     0.064 C 
HETATM    5  C5  UNL     1     -32.702   6.725   3.192  1.00 20.00    -0.026 C 
HETATM    6  C6  UNL     1     -34.723   5.347   4.000  1.00 20.00     0.164 C 
HETATM    7  C7  UNL     1     -31.821   5.617   2.590  1.00 20.00     0.019 C 
HETATM    8  C8  UNL     1     -32.399   8.042   2.453  1.00 20.00     0.019 C 
HETATM    9  C9  UNL     1     -36.230   5.165   3.839  1.00 20.00     0.060 C 
HETATM   10  O10 UNL     1     -35.065   5.399   6.395  1.00 20.00    -0.290 OA
HETATM   11  F11 UNL     1     -34.144   4.150   3.697  1.00 20.00    -0.235 F 
ENDROOT
TORSDOF 0
