REMARK  5 active torsions:
REMARK  status: ('A' for Active; 'I' for Inactive)
REMARK    1  A    between atoms: C1_1  and  C3_3 
REMARK    2  A    between atoms: C2_2  and  C5_5 
REMARK    3  A    between atoms: C3_3  and  C8_8 
REMARK    4  A    between atoms: C5_5  and  C7_7 
REMARK    5  A    between atoms: C6_6  and  C7_7 
ROOT
HETATM    1  C1  UNL     1     -33.193   6.501   4.776  1.00 20.00    -0.023 C 
HETATM    2  C2  UNL     1     -32.521   7.088   3.972  1.00 20.00    -0.098 C 
ENDROOT
BRANCH   1   3
HETATM    3  C3  UNL     1     -34.003   5.790   5.735  1.00 20.00     0.266 C 
HETATM    4  O9  UNL     1     -33.770   5.904   6.931  1.00 20.00    -0.277 OA
BRANCH   3   5
HETATM    5  C8  UNL     1     -35.138   4.982   5.182  1.00 20.00     0.435 C 
HETATM    6  F10 UNL     1     -35.404   3.903   5.963  1.00 20.00    -0.205 F 
HETATM    7  F11 UNL     1     -34.862   4.500   3.942  1.00 20.00    -0.205 F 
ENDBRANCH   3   5
ENDBRANCH   1   3
BRANCH   2   8
HETATM    8  C5  UNL     1     -31.701   7.802   2.984  1.00 20.00     0.094 C 
BRANCH   8   9
HETATM    9  C7  UNL     1     -32.309   7.753   1.582  1.00 20.00     0.012 C 
BRANCH   9  10
HETATM   10  C6  UNL     1     -31.457   8.479   0.537  1.00 20.00    -0.004 C 
HETATM   11  C4  UNL     1     -32.089   8.403  -0.844  1.00 20.00     0.005 C 
ENDBRANCH   9  10
ENDBRANCH   8   9
ENDBRANCH   2   8
TORSDOF 5
