REMARK  0 active torsions:
REMARK  status: ('A' for Active; 'I' for Inactive)
ROOT
HETATM    1  C1  UNL     1     -34.970   4.208   4.659  1.00 20.00     0.100 C 
HETATM    2  C2  UNL     1     -33.575   5.369   3.041  1.00 20.00     0.067 A 
HETATM    3  C3  UNL     1     -34.097   5.293   4.327  1.00 20.00     0.056 A 
HETATM    4  C4  UNL     1     -33.766   6.265   5.264  1.00 20.00    -0.001 A 
HETATM    5  C5  UNL     1     -32.732   6.428   2.744  1.00 20.00     0.129 A 
HETATM    6  C6  UNL     1     -32.914   7.284   4.868  1.00 20.00     0.135 A 
HETATM    7  C7  UNL     1     -34.313   6.212   6.654  1.00 20.00     0.053 C 
HETATM    8  N8  UNL     1     -35.677   3.329   4.928  1.00 20.00    -0.191 NA
HETATM    9  N9  UNL     1     -32.387   7.391   3.628  1.00 20.00    -0.224 NA
HETATM   10 CL10 UNL     1     -32.040   6.602   1.184  1.00 20.00    -0.062 Cl
HETATM   11 CL11 UNL     1     -32.427   8.546   5.932  1.00 20.00    -0.062 Cl
ENDROOT
TORSDOF 0
