REMARK  1 active torsions:
REMARK  status: ('A' for Active; 'I' for Inactive)
REMARK    1  A    between atoms: C7_7  and  C10_10 
ROOT
HETATM    1  C1  UNL     1     -35.461   5.730   3.487  1.00 20.00    -0.023 C 
HETATM    2  C2  UNL     1     -35.114   6.920   4.087  1.00 20.00    -0.012 C 
HETATM    3  C3  UNL     1     -32.335   6.863   4.029  1.00 20.00     0.140 C 
HETATM    4  C4  UNL     1     -31.689   5.755   3.170  1.00 20.00     0.080 C 
HETATM    5  C5  UNL     1     -32.863   4.732   2.951  1.00 20.00     0.017 C 
HETATM    6  C6  UNL     1     -34.063   5.648   2.948  1.00 20.00     0.028 C 
HETATM    7  C7  UNL     1     -33.745   6.317   4.378  1.00 20.00     0.048 C 
HETATM    8  O11 UNL     1     -31.786   7.907   4.344  1.00 20.00    -0.297 OA
ENDROOT
BRANCH   7   9
HETATM    9  C10 UNL     1     -33.711   5.595   5.739  1.00 20.00    -0.002 C 
HETATM   10  C8  UNL     1     -34.003   6.581   6.861  1.00 20.00     0.011 C 
HETATM   11  C9  UNL     1     -34.708   4.445   5.746  1.00 20.00     0.011 C 
ENDBRANCH   7   9
TORSDOF 1
