REMARK  1 active torsions:
REMARK  status: ('A' for Active; 'I' for Inactive)
REMARK    1  A    between atoms: C2_2  and  C4_4 
ROOT
HETATM    1  C1  UNL     1     -34.461   6.225   6.189  1.00 20.00     0.171 A 
HETATM    2  C2  UNL     1     -34.319   5.420   4.911  1.00 20.00     0.175 A 
HETATM    3  C3  UNL     1     -33.365   7.054   6.756  1.00 20.00     0.044 C 
HETATM    4  O5  UNL     1     -34.219   4.813   6.210  1.00 20.00    -0.352 OA
HETATM    5 CL6  UNL     1     -35.792   5.126   3.981  1.00 20.00    -0.084 Cl
ENDROOT
BRANCH   2   6
HETATM    6  C4  UNL     1     -33.046   5.395   4.130  1.00 20.00     0.172 C 
HETATM    7 CL7  UNL     1     -32.889   6.849   3.108  1.00 20.00    -0.126 Cl
ENDBRANCH   2   6
TORSDOF 1
