REMARK  3 active torsions:
REMARK  status: ('A' for Active; 'I' for Inactive)
REMARK    1  A    between atoms: C1_1  and  C5_5 
REMARK    2  A    between atoms: C1_1  and  C6_6 
REMARK    3  A    between atoms: C4_4  and  C5_5 
ROOT
HETATM    1  C1  UNL     1     -32.486   7.207   2.946  1.00 20.00     0.137 C 
HETATM    2  O7  UNL     1     -31.583   7.419   3.756  1.00 20.00    -0.297 OA
ENDROOT
BRANCH   1   3
HETATM    3  C5  UNL     1     -33.276   5.911   2.928  1.00 20.00     0.083 C 
BRANCH   3   4
HETATM    4  C4  UNL     1     -34.463   5.918   3.838  1.00 20.00    -0.008 A 
HETATM    5  C2  UNL     1     -35.086   4.624   4.280  1.00 20.00     0.005 A 
HETATM    6  C3  UNL     1     -34.325   5.466   5.265  1.00 20.00     0.005 A 
ENDBRANCH   3   4
ENDBRANCH   1   3
BRANCH   1   7
HETATM    7  C6  UNL     1     -32.875   8.249   1.933  1.00 20.00     0.163 C 
HETATM    8 BR8  UNL     1     -31.333   8.530   0.801  1.00 20.00    -0.089 Br
ENDBRANCH   1   7
TORSDOF 3
