REMARK  2 active torsions:
REMARK  status: ('A' for Active; 'I' for Inactive)
REMARK    1  A    between atoms: C1_1  and  C5_5 
REMARK    2  A    between atoms: C2_2  and  C3_3 
ROOT
HETATM    1  C1  UNL     1     -32.874   7.395   4.459  1.00 20.00     0.134 C 
HETATM    2  C2  UNL     1     -33.634   6.643   5.262  1.00 20.00     0.166 C 
HETATM    3  F7  UNL     1     -33.695   6.889   6.588  1.00 20.00    -0.202 F 
ENDROOT
BRANCH   1   4
HETATM    4  C5  UNL     1     -32.743   7.201   2.988  1.00 20.00     0.410 C 
HETATM    5  F8  UNL     1     -31.911   8.092   2.392  1.00 20.00    -0.167 F 
HETATM    6  F9  UNL     1     -33.945   7.313   2.368  1.00 20.00    -0.167 F 
HETATM    7  F10 UNL     1     -32.265   5.965   2.694  1.00 20.00    -0.167 F 
ENDBRANCH   1   4
BRANCH   2   8
HETATM    8  C3  UNL     1     -34.471   5.496   4.828  1.00 20.00     0.183 C 
HETATM    9  C4  UNL     1     -35.278   4.739   5.850  1.00 20.00     0.099 C 
HETATM   10  O6  UNL     1     -34.494   5.181   3.638  1.00 20.00    -0.290 OA
ENDBRANCH   2   8
TORSDOF 2
