REMARK  0 active torsions:
REMARK  status: ('A' for Active; 'I' for Inactive)
ROOT
HETATM    1  C1  UNL     1     -34.371   5.238   4.071  1.00 20.00     0.145 C 
HETATM    2  C2  UNL     1     -34.109   6.014   2.798  1.00 20.00     0.089 C 
HETATM    3  C3  UNL     1     -31.950   7.847   1.680  1.00 20.00     0.002 C 
HETATM    4  C4  UNL     1     -33.199   8.447   2.356  1.00 20.00     0.010 C 
HETATM    5  C5  UNL     1     -31.715   7.037   2.970  1.00 20.00     0.010 C 
HETATM    6  C6  UNL     1     -33.603   7.385   4.740  1.00 20.00     0.037 C 
HETATM    7  C7  UNL     1     -33.803   5.961   5.269  1.00 20.00     0.152 C 
HETATM    8  C8  UNL     1     -33.240   7.188   3.266  1.00 20.00    -0.032 C 
HETATM    9  O9  UNL     1     -34.953   4.162   4.104  1.00 20.00    -0.296 OA
HETATM   10 CL10 UNL     1     -34.931   5.903   6.619  1.00 20.00    -0.117 Cl
ENDROOT
TORSDOF 0
