REMARK  1 active torsions:
REMARK  status: ('A' for Active; 'I' for Inactive)
REMARK    1  A    between atoms: C3_3  and  C6_6 
ROOT
HETATM    1  C1  UNL     1     -32.699   7.927   2.594  1.00 20.00     0.134 C 
HETATM    2  C2  UNL     1     -32.116   5.772   3.470  1.00 20.00     0.137 C 
HETATM    3  C3  UNL     1     -33.085   6.247   4.542  1.00 20.00     0.075 C 
HETATM    4  N7  UNL     1     -31.781   6.905   2.641  1.00 20.00    -0.374 N 
HETATM    5  S8  UNL     1     -32.574   9.267   1.621  1.00 20.00    -0.053 SA
HETATM    6  S9  UNL     1     -34.005   7.591   3.717  1.00 20.00    -0.094 SA
HETATM    7  H20 UNL     1     -30.958   6.903   2.046  1.00 20.00     0.161 HD
ENDROOT
BRANCH   3   8
HETATM    8  C6  UNL     1     -34.013   5.153   5.037  1.00 20.00    -0.007 C 
HETATM    9  C4  UNL     1     -34.940   5.678   6.136  1.00 20.00     0.011 C 
HETATM   10  C5  UNL     1     -34.835   4.571   3.885  1.00 20.00     0.011 C 
ENDBRANCH   3   8
TORSDOF 1
