REMARK  1 active torsions:
REMARK  status: ('A' for Active; 'I' for Inactive)
REMARK    1  A    between atoms: C3_3  and  C7_7 
ROOT
HETATM    1  C1  UNL     1     -35.929   4.420   5.131  1.00 20.00     0.255 C 
HETATM    2  C2  UNL     1     -34.186   5.363   6.152  1.00 20.00     0.157 C 
HETATM    3  C3  UNL     1     -34.032   5.459   4.646  1.00 20.00     0.164 C 
HETATM    4  C4  UNL     1     -34.639   6.629   6.868  1.00 20.00     0.043 C 
HETATM    5  O8  UNL     1     -35.211   4.375   6.284  1.00 20.00    -0.314 OA
HETATM    6  O9  UNL     1     -35.347   5.180   4.169  1.00 20.00    -0.313 OA
HETATM    7  S10 UNL     1     -37.359   3.638   4.925  1.00 20.00    -0.025 SA
ENDROOT
BRANCH   3   8
HETATM    8  C7  UNL     1     -33.538   6.784   4.097  1.00 20.00     0.010 C 
HETATM    9  C5  UNL     1     -32.933   6.607   2.702  1.00 20.00     0.012 C 
HETATM   10  C6  UNL     1     -34.669   7.815   4.055  1.00 20.00     0.012 C 
ENDBRANCH   3   8
TORSDOF 1
