REMARK  0 active torsions:
REMARK  status: ('A' for Active; 'I' for Inactive)
ROOT
HETATM    1  C1  UNL     1     -35.169   4.178   4.664  1.00 20.00     0.088 C 
HETATM    2  C2  UNL     1     -33.719   5.632   3.403  1.00 20.00    -0.041 C 
HETATM    3  C3  UNL     1     -33.181   6.307   4.587  1.00 20.00    -0.050 C 
HETATM    4  C4  UNL     1     -34.636   4.651   3.440  1.00 20.00     0.101 C 
HETATM    5  C5  UNL     1     -33.812   6.395   5.770  1.00 20.00    -0.081 C 
HETATM    6  C6  UNL     1     -33.154   6.101   2.077  1.00 20.00     0.044 C 
HETATM    7  C7  UNL     1     -31.847   6.976   4.368  1.00 20.00     0.040 C 
HETATM    8  C8  UNL     1     -31.885   7.990   3.218  1.00 20.00     0.009 C 
HETATM    9  C9  UNL     1     -32.866   7.611   2.091  1.00 20.00    -0.014 C 
HETATM   10  C10 UNL     1     -33.201   7.103   6.942  1.00 20.00     0.043 C 
HETATM   11  C11 UNL     1     -35.166   5.792   5.992  1.00 20.00     0.043 C 
HETATM   12  C12 UNL     1     -32.351   8.090   0.735  1.00 20.00     0.010 C 
HETATM   13  N13 UNL     1     -35.611   3.786   5.663  1.00 20.00    -0.192 NA
ENDROOT
TORSDOF 0
