REMARK  1 active torsions:
REMARK  status: ('A' for Active; 'I' for Inactive)
REMARK    1  A    between atoms: C4_4  and  C9_9 
ROOT
HETATM    1  C1  UNL     1     -32.998   7.614   4.113  1.00 20.00     0.174 C 
HETATM    2  C2  UNL     1     -32.757   6.479   1.811  1.00 20.00     0.083 C 
HETATM    3  C3  UNL     1     -32.375   7.665   2.709  1.00 20.00     0.015 C 
HETATM    4  C4  UNL     1     -34.296   5.592   3.910  1.00 20.00     0.108 C 
HETATM    5  C5  UNL     1     -32.755   8.971   2.002  1.00 20.00     0.012 C 
HETATM    6  C6  UNL     1     -35.671   5.233   3.341  1.00 20.00     0.058 C 
HETATM    7  O10 UNL     1     -34.293   7.022   4.075  1.00 20.00    -0.369 OA
HETATM    8  S11 UNL     1     -33.014   4.956   2.759  1.00 20.00    -0.131 SA
ENDROOT
BRANCH   4   9
HETATM    9  C9  UNL     1     -34.115   4.922   5.276  1.00 20.00     0.022 C 
HETATM   10  C7  UNL     1     -34.584   5.853   6.389  1.00 20.00     0.013 C 
HETATM   11  C8  UNL     1     -34.870   3.599   5.321  1.00 20.00     0.013 C 
ENDBRANCH   4   9
TORSDOF 1
