REMARK  2 active torsions:
REMARK  status: ('A' for Active; 'I' for Inactive)
REMARK    1  A    between atoms: C3_3  and  C9_9 
REMARK    2  A    between atoms: C3_3  and  S10_10 
ROOT
HETATM    1  C1  UNL     1     -35.325   6.238   4.126  1.00 20.00     0.010 A 
HETATM    2  C2  UNL     1     -34.279   5.227   4.573  1.00 20.00    -0.025 A 
HETATM    3  C3  UNL     1     -33.931   6.734   4.499  1.00 20.00     0.019 A 
HETATM    4  C4  UNL     1     -35.869   6.289   2.739  1.00 20.00     0.012 C 
HETATM    5  C5  UNL     1     -34.518   4.560   5.914  1.00 20.00     0.017 C 
HETATM    6  C6  UNL     1     -33.661   4.267   3.581  1.00 20.00     0.017 C 
ENDROOT
BRANCH   3   7
HETATM    7  C9  UNL     1     -32.995   7.257   3.433  1.00 20.00    -0.003 C 
HETATM    8  C7  UNL     1     -33.197   8.760   3.210  1.00 20.00     0.011 C 
HETATM    9  C8  UNL     1     -31.533   6.973   3.793  1.00 20.00     0.011 C 
ENDBRANCH   3   7
BRANCH   3  10
HETATM   10  S10 UNL     1     -33.779   7.676   5.998  1.00 20.00    -0.171 SA
HETATM   11  H28 UNL     1     -32.454   7.896   5.940  1.00 20.00     0.102 HD
ENDBRANCH   3  10
TORSDOF 2
