REMARK  1 active torsions:
REMARK  status: ('A' for Active; 'I' for Inactive)
REMARK    1  A    between atoms: C3_3  and  C7_7 
ROOT
HETATM    1  C1  UNL     1     -35.625   5.380   4.252  1.00 20.00     0.089 C 
HETATM    2  C2  UNL     1     -34.475   4.937   5.143  1.00 20.00     0.053 C 
HETATM    3  C3  UNL     1     -33.682   7.301   4.095  1.00 20.00     0.112 C 
HETATM    4  C4  UNL     1     -34.962   4.126   6.336  1.00 20.00     0.022 C 
HETATM    5  S8  UNL     1     -34.996   6.589   3.051  1.00 20.00    -0.152 SA
HETATM    6  S9  UNL     1     -33.653   6.457   5.706  1.00 20.00    -0.148 SA
ENDROOT
BRANCH   3   7
HETATM    7  C7  UNL     1     -32.335   7.145   3.400  1.00 20.00     0.001 C 
HETATM    8  C5  UNL     1     -32.011   5.669   3.173  1.00 20.00     0.011 C 
HETATM    9  C6  UNL     1     -32.319   7.905   2.074  1.00 20.00     0.011 C 
ENDBRANCH   3   7
TORSDOF 1
