REMARK  0 active torsions:
REMARK  status: ('A' for Active; 'I' for Inactive)
ROOT
HETATM    1  C1  UNL     1     -35.238   4.604   5.038  1.00 20.00     0.147 A 
HETATM    2  C2  UNL     1     -32.542   6.400   3.033  1.00 20.00     0.168 A 
HETATM    3  C3  UNL     1     -34.271   5.216   4.192  1.00 20.00     0.061 A 
HETATM    4  C4  UNL     1     -33.510   6.066   4.944  1.00 20.00     0.134 A 
HETATM    5  N5  UNL     1     -35.270   4.916   6.336  1.00 20.00    -0.220 NA
HETATM    6  N6  UNL     1     -32.523   6.749   4.304  1.00 20.00    -0.244 NA
HETATM    7  S7  UNL     1     -33.735   5.247   2.543  1.00 20.00    -0.078 SA
HETATM    8  S8  UNL     1     -34.046   6.039   6.604  1.00 20.00     0.032 SA
ENDROOT
TORSDOF 0
