REMARK  1 active torsions:
REMARK  status: ('A' for Active; 'I' for Inactive)
REMARK    1  A    between atoms: C3_3  and  C8_8 
ROOT
HETATM    1  C1  UNL     1     -34.410   5.006   4.547  1.00 20.00     0.145 C 
HETATM    2  C4  UNL     1     -34.732   5.075   3.068  1.00 20.00     0.080 C 
HETATM    3  C5  UNL     1     -33.548   5.623   2.283  1.00 20.00     0.016 C 
HETATM    4  C6  UNL     1     -32.679   6.803   4.333  1.00 20.00     0.036 C 
HETATM    5  C7  UNL     1     -33.855   6.282   5.156  1.00 20.00     0.152 C 
HETATM    6  C8  UNL     1     -33.060   6.963   2.854  1.00 20.00     0.009 C 
HETATM    7  O9  UNL     1     -34.685   4.003   5.202  1.00 20.00    -0.296 OA
HETATM    8 CL10 UNL     1     -33.338   5.979   6.831  1.00 20.00    -0.117 Cl
ENDROOT
BRANCH   6   9
HETATM    9  C3  UNL     1     -31.897   7.487   2.068  1.00 20.00    -0.032 C 
HETATM   10  C2  UNL     1     -31.903   8.651   1.409  1.00 20.00     0.007 C 
ENDBRANCH   6   9
TORSDOF 1
