REMARK  1 active torsions:
REMARK  status: ('A' for Active; 'I' for Inactive)
REMARK    1  A    between atoms: C5_5  and  C9_9 
ROOT
HETATM    1  C1  UNL     1     -33.360   6.812   6.054  1.00 20.00     0.049 C 
HETATM    2  C2  UNL     1     -33.244   7.546   4.941  1.00 20.00    -0.018 C 
HETATM    3  C3  UNL     1     -33.958   5.456   5.985  1.00 20.00     0.182 C 
HETATM    4  C4  UNL     1     -33.783   5.552   3.503  1.00 20.00     0.054 C 
HETATM    5  C5  UNL     1     -33.634   7.078   3.562  1.00 20.00     0.014 C 
HETATM    6  C6  UNL     1     -34.589   5.028   4.681  1.00 20.00     0.244 C 
HETATM    7  O10 UNL     1     -33.976   4.741   6.984  1.00 20.00    -0.290 OA
HETATM    8  F11 UNL     1     -34.643   3.670   4.595  1.00 20.00    -0.241 F 
ENDROOT
BRANCH   5   9
HETATM    9  C9  UNL     1     -32.618   7.545   2.519  1.00 20.00    -0.015 C 
HETATM   10  C7  UNL     1     -32.891   8.991   2.115  1.00 20.00     0.010 C 
HETATM   11  C8  UNL     1     -31.196   7.394   3.054  1.00 20.00     0.010 C 
ENDBRANCH   5   9
TORSDOF 1
