REMARK  1 active torsions:
REMARK  status: ('A' for Active; 'I' for Inactive)
REMARK    1  A    between atoms: C8_8  and  C11_11 
ROOT
HETATM    1  C1  UNL     1     -33.240   6.549   3.949  1.00 20.00    -0.079 C 
HETATM    2  C2  UNL     1     -36.222   4.999   4.379  1.00 20.00     0.132 C 
HETATM    3  C3  UNL     1     -32.026   6.810   3.471  1.00 20.00     0.015 C 
HETATM    4  C4  UNL     1     -34.613   7.287   3.910  1.00 20.00     0.047 C 
HETATM    5  C5  UNL     1     -35.562   3.667   4.749  1.00 20.00     0.080 C 
HETATM    6  C6  UNL     1     -34.038   3.938   4.476  1.00 20.00     0.022 C 
HETATM    7  C7  UNL     1     -35.089   5.845   3.822  1.00 20.00     0.072 C 
HETATM    8  C8  UNL     1     -33.862   5.431   4.767  1.00 20.00    -0.004 C 
HETATM    9  O12 UNL     1     -37.407   5.258   4.518  1.00 20.00    -0.298 OA
ENDROOT
BRANCH   8  10
HETATM   10  C11 UNL     1     -33.815   5.707   6.277  1.00 20.00    -0.009 C 
HETATM   11  C9  UNL     1     -33.115   7.033   6.550  1.00 20.00     0.011 C 
HETATM   12  C10 UNL     1     -35.224   5.706   6.858  1.00 20.00     0.011 C 
ENDBRANCH   8  10
TORSDOF 1
