REMARK  1 active torsions:
REMARK  status: ('A' for Active; 'I' for Inactive)
REMARK    1  A    between atoms: C5_5  and  C10_10 
ROOT
HETATM    1  C1  UNL     1     -34.605   5.795   3.473  1.00 20.00     0.166 C 
HETATM    2  C2  UNL     1     -33.784   6.494   2.407  1.00 20.00     0.086 C 
HETATM    3  C3  UNL     1     -31.784   6.621   3.954  1.00 20.00     0.009 C 
HETATM    4  C4  UNL     1     -32.409   5.370   4.582  1.00 20.00     0.052 C 
HETATM    5  C5  UNL     1     -32.753   7.413   3.062  1.00 20.00    -0.004 C 
HETATM    6  C6  UNL     1     -33.915   5.509   4.804  1.00 20.00     0.159 C 
HETATM    7  C7  UNL     1     -34.484   4.253   5.453  1.00 20.00     0.060 C 
HETATM    8  O11 UNL     1     -35.777   5.485   3.260  1.00 20.00    -0.294 OA
HETATM    9  F12 UNL     1     -34.127   6.547   5.664  1.00 20.00    -0.235 F 
ENDROOT
BRANCH   5  10
HETATM   10  C10 UNL     1     -31.993   8.225   2.016  1.00 20.00    -0.018 C 
HETATM   11  C8  UNL     1     -31.645   7.356   0.810  1.00 20.00     0.010 C 
HETATM   12  C9  UNL     1     -32.809   9.441   1.584  1.00 20.00     0.010 C 
ENDBRANCH   5  10
TORSDOF 1
