REMARK  0 active torsions:
REMARK  status: ('A' for Active; 'I' for Inactive)
ROOT
HETATM    1  C1  UNL     1     -33.416   6.707   4.798  1.00 20.00     0.154 C 
HETATM    2  C2  UNL     1     -33.671   6.803   6.285  1.00 20.00     0.081 C 
HETATM    3  C3  UNL     1     -33.878   5.426   6.905  1.00 20.00     0.018 C 
HETATM    4  C4  UNL     1     -34.545   4.390   6.004  1.00 20.00     0.076 C 
HETATM    5  C5  UNL     1     -34.541   6.193   3.919  1.00 20.00     0.212 C 
HETATM    6  O6  UNL     1     -32.350   7.109   4.327  1.00 20.00    -0.295 OA
HETATM    7  S7  UNL     1     -35.706   5.142   4.830  1.00 20.00    -0.141 SA
HETATM    8 CL8  UNL     1     -33.839   5.295   2.553  1.00 20.00    -0.105 Cl
ENDROOT
TORSDOF 0
