REMARK  0 active torsions:
REMARK  status: ('A' for Active; 'I' for Inactive)
ROOT
HETATM    1  C1  UNL     1     -33.335   6.329   3.185  1.00 20.00     0.218 C 
HETATM    2  C2  UNL     1     -34.480   5.405   2.828  1.00 20.00     0.105 C 
HETATM    3  C3  UNL     1     -35.283   5.243   4.126  1.00 20.00     0.040 C 
HETATM    4  C4  UNL     1     -34.846   6.027   6.570  1.00 20.00     0.033 A 
HETATM    5  C5  UNL     1     -34.058   4.764   6.378  1.00 20.00     0.033 A 
HETATM    6  C6  UNL     1     -34.326   5.669   5.203  1.00 20.00     0.033 A 
HETATM    7  N7  UNL     1     -33.281   6.402   4.569  1.00 20.00    -0.352 N 
HETATM    8  O8  UNL     1     -32.585   6.866   2.385  1.00 20.00    -0.274 OA
HETATM    9  H17 UNL     1     -32.573   6.921   5.076  1.00 20.00     0.163 HD
ENDROOT
TORSDOF 0
