REMARK  0 active torsions:
REMARK  status: ('A' for Active; 'I' for Inactive)
ROOT
HETATM    1  C1  UNL     1     -32.827   6.855   4.600  1.00 20.00     0.082 C 
HETATM    2  C2  UNL     1     -33.504   5.777   4.981  1.00 20.00    -0.050 C 
HETATM    3  C3  UNL     1     -33.111   7.007   3.161  1.00 20.00     0.171 C 
HETATM    4  C4  UNL     1     -33.917   5.279   6.322  1.00 20.00     0.036 C 
HETATM    5  C5  UNL     1     -34.142   6.003   2.698  1.00 20.00     0.094 C 
HETATM    6  C6  UNL     1     -35.168   4.449   5.990  1.00 20.00     0.005 C 
HETATM    7  C7  UNL     1     -35.564   4.831   4.556  1.00 20.00     0.010 C 
HETATM    8  C8  UNL     1     -34.221   5.056   3.884  1.00 20.00     0.023 C 
HETATM    9  O9  UNL     1     -32.611   7.867   2.452  1.00 20.00    -0.291 OA
HETATM   10 CL10 UNL     1     -32.010   7.999   5.525  1.00 20.00    -0.080 Cl
ENDROOT
TORSDOF 0
