REMARK  1 active torsions:
REMARK  status: ('A' for Active; 'I' for Inactive)
REMARK    1  A    between atoms: C7_7  and  C11_11 
ROOT
HETATM    1  C1  UNL     1     -31.625   7.732   3.612  1.00 20.00    -0.023 C 
HETATM    2  C2  UNL     1     -32.041   6.886   4.568  1.00 20.00     0.007 C 
HETATM    3  C3  UNL     1     -34.279   6.734   3.460  1.00 20.00     0.050 C 
HETATM    4  C4  UNL     1     -32.980   5.348   2.107  1.00 20.00     0.174 C 
HETATM    5  C5  UNL     1     -32.333   7.820   2.274  1.00 20.00     0.010 C 
HETATM    6  C6  UNL     1     -33.499   6.792   2.155  1.00 20.00     0.020 C 
HETATM    7  C7  UNL     1     -33.247   6.007   4.324  1.00 20.00     0.082 C 
HETATM    8  C8  UNL     1     -32.836   9.248   2.050  1.00 20.00     0.015 C 
HETATM    9  O12 UNL     1     -32.798   4.924   3.478  1.00 20.00    -0.375 OA
ENDROOT
BRANCH   7  10
HETATM   10  C11 UNL     1     -33.838   5.452   5.609  1.00 20.00     0.016 C 
HETATM   11  C9  UNL     1     -34.254   6.585   6.550  1.00 20.00     0.013 C 
HETATM   12  C10 UNL     1     -35.031   4.543   5.312  1.00 20.00     0.013 C 
ENDBRANCH   7  10
TORSDOF 1
