REMARK  1 active torsions:
REMARK  status: ('A' for Active; 'I' for Inactive)
REMARK    1  A    between atoms: C6_6  and  C7_7 
ROOT
HETATM    1  C1  UNL     1     -32.991   6.209   3.602  1.00 20.00     0.146 C 
HETATM    2  C2  UNL     1     -33.845   4.988   3.228  1.00 20.00     0.091 C 
HETATM    3  C5  UNL     1     -34.202   6.952   4.201  1.00 20.00     0.160 C 
HETATM    4  C7  UNL     1     -34.952   5.556   4.193  1.00 20.00    -0.010 C 
HETATM    5  C8  UNL     1     -36.310   5.666   3.482  1.00 20.00     0.018 C 
HETATM    6  O9  UNL     1     -31.815   6.477   3.470  1.00 20.00    -0.296 OA
HETATM    7 CL10 UNL     1     -33.865   7.792   5.739  1.00 20.00    -0.116 Cl
ENDROOT
BRANCH   4   8
HETATM    8  C6  UNL     1     -35.094   4.814   5.529  1.00 20.00    -0.004 A 
HETATM    9  C3  UNL     1     -34.936   3.325   5.663  1.00 20.00     0.006 A 
HETATM   10  C4  UNL     1     -33.922   4.247   6.281  1.00 20.00     0.006 A 
ENDBRANCH   4   8
TORSDOF 1
