REMARK  2 active torsions:
REMARK  status: ('A' for Active; 'I' for Inactive)
REMARK    1  A    between atoms: C2_2  and  C3_3 
REMARK    2  A    between atoms: C3_3  and  O11_11 
ROOT
HETATM    1  C1  UNL     1     -33.867   5.299   3.246  1.00 20.00    -0.008 C 
HETATM    2  C2  UNL     1     -34.284   5.455   4.507  1.00 20.00     0.020 C 
HETATM    3  C4  UNL     1     -32.719   7.169   4.127  1.00 20.00     0.022 C 
HETATM    4  C5  UNL     1     -32.686   6.173   2.954  1.00 20.00     0.006 C 
HETATM    5  C6  UNL     1     -33.474   6.459   5.279  1.00 20.00    -0.014 C 
HETATM    6  C7  UNL     1     -32.775   6.868   1.604  1.00 20.00     0.014 C 
HETATM    7  C8  UNL     1     -32.495   5.758   6.229  1.00 20.00     0.020 C 
HETATM    8  C9  UNL     1     -34.332   7.465   6.053  1.00 20.00     0.020 C 
ENDROOT
BRANCH   2   9
HETATM    9  C3  UNL     1     -35.386   4.673   5.046  1.00 20.00     0.172 C 
HETATM   10  O10 UNL     1     -35.506   4.350   6.220  1.00 20.00    -0.646 OA
BRANCH   9  11
HETATM   11  O11 UNL     1     -36.256   4.358   4.059  1.00 20.00    -0.773 OA
HETATM   12  H25 UNL     1     -37.014   3.829   4.385  1.00 20.00     0.167 HD
ENDBRANCH   9  11
ENDBRANCH   2   9
TORSDOF 2
