REMARK  0 active torsions:
REMARK  status: ('A' for Active; 'I' for Inactive)
ROOT
HETATM    1  C1  UNL     1     -31.686   7.647   2.998  1.00 20.00    -0.021 C 
HETATM    2  C2  UNL     1     -32.607   8.232   2.213  1.00 20.00    -0.087 C 
HETATM    3  C3  UNL     1     -31.991   6.482   3.897  1.00 20.00     0.068 C 
HETATM    4  C4  UNL     1     -34.032   7.736   2.150  1.00 20.00     0.036 C 
HETATM    5  C5  UNL     1     -34.214   6.306   2.675  1.00 20.00     0.045 C 
HETATM    6  C6  UNL     1     -33.906   5.133   5.022  1.00 20.00     0.153 A 
HETATM    7  C7  UNL     1     -33.447   6.101   3.948  1.00 20.00     0.090 A 
HETATM    8  C8  UNL     1     -32.283   9.424   1.362  1.00 20.00     0.043 C 
HETATM    9  C9  UNL     1     -35.139   4.311   4.913  1.00 20.00     0.042 C 
HETATM   10  O10 UNL     1     -34.134   6.544   5.130  1.00 20.00    -0.369 OA
ENDROOT
TORSDOF 0
