REMARK  1 active torsions:
REMARK  status: ('A' for Active; 'I' for Inactive)
REMARK    1  A    between atoms: C5_5  and  N7_7 
ROOT
HETATM    1  C1  UNL     1     -32.333   7.271   2.467  1.00 20.00     0.332 C 
HETATM    2  N7  UNL     1     -32.710   6.417   3.176  1.00 20.00    -0.241 NA
HETATM    3  O8  UNL     1     -31.950   8.124   1.753  1.00 20.00    -0.260 OA
ENDROOT
BRANCH   2   4
HETATM    4  C5  UNL     1     -33.858   6.793   4.012  1.00 20.00     0.126 C 
HETATM    5  C3  UNL     1     -35.153   6.434   3.281  1.00 20.00     0.029 C 
HETATM    6  C2  UNL     1     -35.496   5.040   3.785  1.00 20.00     0.003 C 
HETATM    7  C4  UNL     1     -35.133   5.112   5.260  1.00 20.00     0.018 C 
HETATM    8  C6  UNL     1     -33.852   5.941   5.286  1.00 20.00     0.083 C 
HETATM    9 BR9  UNL     1     -33.807   7.063   6.876  1.00 20.00    -0.089 Br
ENDBRANCH   2   4
TORSDOF 1
