REMARK  1 active torsions:
REMARK  status: ('A' for Active; 'I' for Inactive)
REMARK    1  A    between atoms: C5_5  and  C8_8 
ROOT
HETATM    1  C1  UNL     1     -32.441   6.896   4.090  1.00 20.00     0.006 A 
HETATM    2  C2  UNL     1     -33.576   6.439   4.614  1.00 20.00     0.076 A 
HETATM    3  C3  UNL     1     -34.508   6.231   3.500  1.00 20.00     0.171 A 
HETATM    4  C4  UNL     1     -33.862   6.571   2.185  1.00 20.00     0.093 A 
HETATM    5  C5  UNL     1     -32.466   7.060   2.597  1.00 20.00     0.020 A 
HETATM    6  O9  UNL     1     -35.652   5.824   3.628  1.00 20.00    -0.291 OA
HETATM    7 CL10 UNL     1     -33.946   6.128   6.227  1.00 20.00    -0.081 Cl
ENDROOT
BRANCH   5   8
HETATM    8  C8  UNL     1     -32.219   8.508   2.189  1.00 20.00    -0.015 C 
HETATM    9  C6  UNL     1     -32.214   8.646   0.668  1.00 20.00     0.010 C 
HETATM   10  C7  UNL     1     -33.270   9.429   2.807  1.00 20.00     0.010 C 
ENDBRANCH   5   8
TORSDOF 1
