REMARK  2 active torsions:
REMARK  status: ('A' for Active; 'I' for Inactive)
REMARK    1  A    between atoms: C5_5  and  O12_12 
REMARK    2  A    between atoms: C6_6  and  C11_11 
ROOT
HETATM    1  C1  UNL     1     -32.870   6.136   1.554  1.00 20.00    -0.021 C 
HETATM    2  C2  UNL     1     -32.416   7.343   1.935  1.00 20.00    -0.059 C 
HETATM    3  C3  UNL     1     -33.594   5.190   2.466  1.00 20.00     0.032 C 
HETATM    4  C4  UNL     1     -33.676   7.075   4.133  1.00 20.00     0.042 C 
HETATM    5  C5  UNL     1     -32.641   7.876   3.330  1.00 20.00     0.149 C 
HETATM    6  C6  UNL     1     -33.474   5.565   3.951  1.00 20.00    -0.005 C 
HETATM    7  C7  UNL     1     -31.680   8.240   0.980  1.00 20.00     0.046 C 
ENDROOT
BRANCH   6   8
HETATM    8  C11 UNL     1     -34.471   4.770   4.792  1.00 20.00    -0.018 C 
HETATM    9  C8  UNL     1     -35.903   5.083   4.365  1.00 20.00     0.010 C 
HETATM   10  C9  UNL     1     -34.193   3.273   4.683  1.00 20.00     0.010 C 
ENDBRANCH   6   8
BRANCH   5  11
HETATM   11  O12 UNL     1     -31.407   7.856   4.047  1.00 20.00    -0.386 OA
HETATM   12  C10 UNL     1     -31.441   8.737   5.159  1.00 20.00     0.202 C 
ENDBRANCH   5  11
TORSDOF 2
