REMARK  1 active torsions:
REMARK  status: ('A' for Active; 'I' for Inactive)
REMARK    1  A    between atoms: C3_3  and  N9_9 
ROOT
HETATM    1  C1  UNL     1     -33.930   6.769   5.910  1.00 20.00     0.079 C 
HETATM    2  C4  UNL     1     -34.852   5.723   6.541  1.00 20.00     0.070 C 
HETATM    3  C5  UNL     1     -34.494   4.308   6.088  1.00 20.00     0.007 C 
HETATM    4  C6  UNL     1     -35.167   3.903   4.780  1.00 20.00     0.002 C 
HETATM    5  C7  UNL     1     -34.761   4.743   3.573  1.00 20.00     0.020 C 
HETATM    6  C8  UNL     1     -35.065   6.230   3.733  1.00 20.00     0.129 C 
HETATM    7  N9  UNL     1     -34.032   6.933   4.517  1.00 20.00    -0.352 N 
HETATM    8  S10 UNL     1     -32.873   7.593   6.945  1.00 20.00    -0.065 SA
ENDROOT
BRANCH   7   9
HETATM    9  C3  UNL     1     -33.179   7.744   3.791  1.00 20.00     0.081 C 
HETATM   10  C2  UNL     1     -32.855   7.503   2.519  1.00 20.00     0.030 C 
ENDBRANCH   7   9
TORSDOF 1
