REMARK  0 active torsions:
REMARK  status: ('A' for Active; 'I' for Inactive)
ROOT
HETATM    1  C1  UNL     1     -32.356   8.640   2.215  1.00 20.00    -0.004 C 
HETATM    2  C2  UNL     1     -31.584   7.614   2.861  1.00 20.00    -0.003 C 
HETATM    3  C3  UNL     1     -33.619   8.888   2.582  1.00 20.00    -0.025 C 
HETATM    4  C4  UNL     1     -32.149   6.732   3.696  1.00 20.00    -0.009 C 
HETATM    5  C5  UNL     1     -33.678   6.617   5.578  1.00 20.00     0.140 C 
HETATM    6  C6  UNL     1     -34.312   8.107   3.665  1.00 20.00     0.048 C 
HETATM    7  C7  UNL     1     -34.187   5.330   6.184  1.00 20.00     0.079 C 
HETATM    8  C8  UNL     1     -35.478   4.829   5.554  1.00 20.00     0.008 C 
HETATM    9  C9  UNL     1     -35.696   5.248   4.102  1.00 20.00     0.006 C 
HETATM   10  C10 UNL     1     -34.396   5.564   3.345  1.00 20.00     0.001 C 
HETATM   11  C11 UNL     1     -33.630   6.739   4.043  1.00 20.00     0.044 C 
HETATM   12  C12 UNL     1     -33.591   4.276   3.109  1.00 20.00     0.011 C 
HETATM   13  O13 UNL     1     -33.230   7.502   6.314  1.00 20.00    -0.297 OA
ENDROOT
TORSDOF 0
