REMARK  3 active torsions:
REMARK  status: ('A' for Active; 'I' for Inactive)
REMARK    1  A    between atoms: C1_1  and  C2_2 
REMARK    2  A    between atoms: C1_1  and  O11_11 
REMARK    3  A    between atoms: C8_8  and  N9_9 
ROOT
HETATM    1  C2  UNL     1     -32.623   6.608   4.189  1.00 20.00     0.355 A 
HETATM    2  C3  UNL     1     -33.515   5.385   4.117  1.00 20.00     0.264 A 
HETATM    3  C4  UNL     1     -34.369   5.099   2.930  1.00 20.00     0.046 C 
HETATM    4  N9  UNL     1     -33.855   6.512   4.972  1.00 20.00     0.115 N 
ENDROOT
BRANCH   1   5
HETATM    5  C1  UNL     1     -32.686   7.668   3.182  1.00 20.00     0.294 C 
HETATM    6  O10 UNL     1     -33.477   8.601   3.218  1.00 20.00    -0.263 OA
BRANCH   5   7
HETATM    7  O11 UNL     1     -31.740   7.445   2.226  1.00 20.00    -0.325 OA
HETATM    8  C7  UNL     1     -31.691   8.413   1.172  1.00 20.00     0.213 C 
ENDBRANCH   5   7
ENDBRANCH   1   5
BRANCH   4   9
HETATM    9  C8  UNL     1     -33.615   6.251   6.387  1.00 20.00     0.216 C 
HETATM   10  C5  UNL     1     -34.874   5.663   7.006  1.00 20.00     0.042 C 
HETATM   11  C6  UNL     1     -33.207   7.550   7.065  1.00 20.00     0.042 C 
ENDBRANCH   4   9
TORSDOF 3
