REMARK  1 active torsions:
REMARK  status: ('A' for Active; 'I' for Inactive)
REMARK    1  A    between atoms: C7_7  and  C10_10 
ROOT
HETATM    1  C1  UNL     1     -33.758   7.529   2.543  1.00 20.00    -0.018 C 
HETATM    2  C2  UNL     1     -33.114   8.027   3.612  1.00 20.00    -0.024 C 
HETATM    3  C3  UNL     1     -34.208   5.499   3.706  1.00 20.00     0.139 C 
HETATM    4  C4  UNL     1     -32.050   6.051   3.056  1.00 20.00     0.025 C 
HETATM    5  C5  UNL     1     -33.474   6.054   2.491  1.00 20.00     0.078 C 
HETATM    6  C6  UNL     1     -32.416   6.872   4.304  1.00 20.00     0.020 C 
HETATM    7  C7  UNL     1     -33.460   5.932   4.976  1.00 20.00     0.067 C 
HETATM    8  O11 UNL     1     -35.249   4.862   3.675  1.00 20.00    -0.297 OA
ENDROOT
BRANCH   7   9
HETATM    9  C10 UNL     1     -34.356   6.592   6.005  1.00 20.00    -0.011 C 
HETATM   10  C8  UNL     1     -35.160   5.547   6.783  1.00 20.00     0.010 C 
HETATM   11  C9  UNL     1     -33.539   7.455   6.971  1.00 20.00     0.010 C 
ENDBRANCH   7   9
TORSDOF 1
