REMARK  2 active torsions:
REMARK  status: ('A' for Active; 'I' for Inactive)
REMARK    1  A    between atoms: C1_1  and  C4_4 
REMARK    2  A    between atoms: C1_1  and  C5_5 
ROOT
HETATM    1  C1  UNL     1     -34.324   5.607   4.244  1.00 20.00     0.163 C 
HETATM    2  O6  UNL     1     -34.990   4.814   3.574  1.00 20.00    -0.295 OA
ENDROOT
BRANCH   1   3
HETATM    3  C4  UNL     1     -33.727   6.862   3.633  1.00 20.00     0.194 C 
HETATM    4 CL7  UNL     1     -31.959   6.832   3.754  1.00 20.00    -0.122 Cl
ENDBRANCH   1   3
BRANCH   1   5
HETATM    5  C5  UNL     1     -34.055   5.344   5.735  1.00 20.00     0.091 C 
HETATM    6  C2  UNL     1     -33.888   6.661   6.498  1.00 20.00     0.041 C 
HETATM    7  C3  UNL     1     -32.828   4.461   5.961  1.00 20.00     0.041 C 
HETATM    8 CL8  UNL     1     -35.514   4.509   6.359  1.00 20.00    -0.112 Cl
ENDBRANCH   1   5
TORSDOF 2
