REMARK  1 active torsions:
REMARK  status: ('A' for Active; 'I' for Inactive)
REMARK    1  A    between atoms: C7_7  and  C11_11 
ROOT
HETATM    1  C1  UNL     1     -34.120   5.000   6.726  1.00 20.00    -0.021 C 
HETATM    2  C2  UNL     1     -33.738   6.120   6.080  1.00 20.00    -0.053 C 
HETATM    3  C3  UNL     1     -34.762   3.846   5.999  1.00 20.00     0.034 C 
HETATM    4  C4  UNL     1     -33.781   4.815   3.927  1.00 20.00     0.050 C 
HETATM    5  C5  UNL     1     -36.051   5.230   4.285  1.00 20.00     0.174 C 
HETATM    6  C6  UNL     1     -35.007   4.131   4.502  1.00 20.00     0.016 C 
HETATM    7  C7  UNL     1     -33.948   6.199   4.569  1.00 20.00     0.087 C 
HETATM    8  C8  UNL     1     -33.185   7.300   6.820  1.00 20.00     0.046 C 
HETATM    9  O12 UNL     1     -35.353   6.493   4.373  1.00 20.00    -0.375 OA
ENDROOT
BRANCH   7  10
HETATM   10  C11 UNL     1     -33.109   7.246   3.846  1.00 20.00     0.016 C 
HETATM   11  C9  UNL     1     -31.619   6.995   4.074  1.00 20.00     0.013 C 
HETATM   12  C10 UNL     1     -33.427   7.256   2.352  1.00 20.00     0.013 C 
ENDBRANCH   7  10
TORSDOF 1
