REMARK  3 active torsions:
REMARK  status: ('A' for Active; 'I' for Inactive)
REMARK    1  A    between atoms: C2_2  and  C6_6 
REMARK    2  A    between atoms: C3_3  and  C7_7 
REMARK    3  A    between atoms: C7_7  and  C8_8 
ROOT
HETATM    1  C1  UNL     1     -33.861   6.717   5.607  1.00 20.00     0.100 C 
HETATM    2  C2  UNL     1     -33.451   6.374   3.105  1.00 20.00     0.172 A 
HETATM    3  C3  UNL     1     -34.347   6.303   4.325  1.00 20.00     0.175 A 
HETATM    4  N9  UNL     1     -33.468   7.053   6.646  1.00 20.00    -0.194 NA
HETATM    5  O10 UNL     1     -34.429   7.383   3.379  1.00 20.00    -0.353 OA
ENDROOT
BRANCH   3   6
HETATM    6  C7  UNL     1     -35.539   5.400   4.302  1.00 20.00     0.056 C 
BRANCH   6   7
HETATM    7  C8  UNL     1     -35.186   3.957   4.693  1.00 20.00    -0.000 C 
HETATM    8  C5  UNL     1     -34.570   3.867   6.080  1.00 20.00     0.005 C 
ENDBRANCH   6   7
ENDBRANCH   3   6
BRANCH   2   9
HETATM    9  C6  UNL     1     -32.043   6.854   3.149  1.00 20.00     0.032 C 
HETATM   10  C4  UNL     1     -31.694   7.770   2.002  1.00 20.00     0.007 C 
ENDBRANCH   2   9
TORSDOF 3
