REMARK  1 active torsions:
REMARK  status: ('A' for Active; 'I' for Inactive)
REMARK    1  A    between atoms: C4_4  and  C10_10 
ROOT
HETATM    1  C1  UNL     1     -31.658   6.967   3.188  1.00 20.00    -0.003 C 
HETATM    2  C2  UNL     1     -32.459   6.791   4.378  1.00 20.00     0.011 C 
HETATM    3  C3  UNL     1     -31.950   6.693   1.911  1.00 20.00    -0.026 C 
HETATM    4  C4  UNL     1     -33.689   6.281   4.554  1.00 20.00    -0.009 C 
HETATM    5  C5  UNL     1     -34.504   5.667   3.462  1.00 20.00     0.156 C 
HETATM    6  C6  UNL     1     -33.174   6.030   1.364  1.00 20.00     0.035 C 
HETATM    7  C7  UNL     1     -33.798   5.013   2.300  1.00 20.00     0.087 C 
HETATM    8  O11 UNL     1     -35.733   5.652   3.539  1.00 20.00    -0.293 OA
ENDROOT
BRANCH   4   9
HETATM    9  C10 UNL     1     -34.356   6.308   5.902  1.00 20.00     0.014 C 
HETATM   10  C8  UNL     1     -34.700   4.891   6.345  1.00 20.00     0.015 C 
HETATM   11  C9  UNL     1     -33.467   7.003   6.927  1.00 20.00     0.015 C 
ENDBRANCH   4   9
TORSDOF 1
