REMARK  3 active torsions:
REMARK  status: ('A' for Active; 'I' for Inactive)
REMARK    1  A    between atoms: C1_1  and  C7_7 
REMARK    2  A    between atoms: C1_1  and  N9_9 
REMARK    3  A    between atoms: C7_7  and  C8_8 
ROOT
HETATM    1  C2  UNL     1     -34.754   4.300   5.098  1.00 20.00     0.021 C 
HETATM    2  C3  UNL     1     -35.590   4.888   3.973  1.00 20.00     0.021 C 
HETATM    3  C4  UNL     1     -33.746   5.408   5.388  1.00 20.00     0.123 C 
HETATM    4  C5  UNL     1     -34.556   5.625   3.128  1.00 20.00     0.123 C 
HETATM    5  N9  UNL     1     -33.553   6.057   4.096  1.00 20.00    -0.375 N 
ENDROOT
BRANCH   5   6
HETATM    6  C1  UNL     1     -32.566   6.951   3.828  1.00 20.00     0.075 C 
HETATM    7  S10 UNL     1     -31.916   7.942   5.006  1.00 20.00    -0.066 SA
BRANCH   6   8
HETATM    8  C7  UNL     1     -32.085   6.970   2.393  1.00 20.00     0.069 C 
BRANCH   8   9
HETATM    9  C8  UNL     1     -32.298   8.347   1.763  1.00 20.00     0.002 C 
HETATM   10  C6  UNL     1     -31.789   8.389   0.332  1.00 20.00     0.005 C 
ENDBRANCH   8   9
ENDBRANCH   6   8
ENDBRANCH   5   6
TORSDOF 3
