REMARK  1 active torsions:
REMARK  status: ('A' for Active; 'I' for Inactive)
REMARK    1  A    between atoms: C4_4  and  C7_7 
ROOT
HETATM    1  C1  UNL     1     -32.270   6.870   3.696  1.00 20.00     0.268 C 
HETATM    2  C2  UNL     1     -32.496   6.106   2.424  1.00 20.00     0.184 C 
HETATM    3  C3  UNL     1     -34.836   5.459   3.763  1.00 20.00     0.107 C 
HETATM    4  C4  UNL     1     -33.673   5.177   4.704  1.00 20.00     0.144 C 
HETATM    5  O8  UNL     1     -31.569   7.877   3.738  1.00 20.00    -0.264 OA
HETATM    6  O9  UNL     1     -32.844   6.353   4.814  1.00 20.00    -0.314 OA
HETATM    7  S10 UNL     1     -34.257   5.882   2.092  1.00 20.00    -0.157 SA
ENDROOT
BRANCH   4   8
HETATM    8  C7  UNL     1     -34.180   4.856   6.106  1.00 20.00     0.008 C 
HETATM    9  C5  UNL     1     -34.949   6.042   6.686  1.00 20.00     0.012 C 
HETATM   10  C6  UNL     1     -35.058   3.606   6.089  1.00 20.00     0.012 C 
ENDBRANCH   4   8
TORSDOF 1
