REMARK  1 active torsions:
REMARK  status: ('A' for Active; 'I' for Inactive)
REMARK    1  A    between atoms: C5_5  and  C10_10 
ROOT
HETATM    1  C1  UNL     1     -35.079   4.781   3.918  1.00 20.00     0.046 C 
HETATM    2  C2  UNL     1     -34.390   5.833   3.460  1.00 20.00    -0.018 C 
HETATM    3  C3  UNL     1     -35.275   4.604   5.374  1.00 20.00     0.149 C 
HETATM    4  C4  UNL     1     -34.792   5.698   6.299  1.00 20.00     0.088 C 
HETATM    5  C5  UNL     1     -33.709   6.863   4.328  1.00 20.00     0.015 C 
HETATM    6  C6  UNL     1     -33.507   6.343   5.772  1.00 20.00    -0.003 C 
HETATM    7  C7  UNL     1     -33.056   7.448   6.732  1.00 20.00     0.011 C 
HETATM    8  O11 UNL     1     -35.879   3.619   5.794  1.00 20.00    -0.293 OA
ENDROOT
BRANCH   5   9
HETATM    9  C10 UNL     1     -32.377   7.271   3.687  1.00 20.00    -0.015 C 
HETATM   10  C8  UNL     1     -31.659   6.048   3.126  1.00 20.00     0.010 C 
HETATM   11  C9  UNL     1     -32.609   8.310   2.594  1.00 20.00     0.010 C 
ENDBRANCH   5   9
TORSDOF 1
