REMARK  3 active torsions:
REMARK  status: ('A' for Active; 'I' for Inactive)
REMARK    1  A    between atoms: C1_1  and  C7_7 
REMARK    2  A    between atoms: C1_1  and  N9_9 
REMARK    3  A    between atoms: C7_7  and  C8_8 
ROOT
HETATM    1  C1  UNL     1     -34.546   5.695   4.370  1.00 20.00     0.075 C 
HETATM    2  S10 UNL     1     -35.176   4.638   3.197  1.00 20.00    -0.066 SA
ENDROOT
BRANCH   1   3
HETATM    3  C7  UNL     1     -34.075   7.079   3.874  1.00 20.00     0.077 C 
BRANCH   3   4
HETATM    4  C8  UNL     1     -32.562   7.227   3.535  1.00 20.00    -0.045 C 
HETATM    5  C2  UNL     1     -32.457   7.765   2.092  1.00 20.00     0.015 C 
HETATM    6  C3  UNL     1     -31.803   5.894   3.601  1.00 20.00     0.015 C 
HETATM    7  C4  UNL     1     -31.870   8.235   4.469  1.00 20.00     0.015 C 
ENDBRANCH   3   4
ENDBRANCH   1   3
BRANCH   1   8
HETATM    8  N9  UNL     1     -34.416   5.377   5.728  1.00 20.00    -0.384 N 
HETATM    9  C5  UNL     1     -34.823   4.103   6.320  1.00 20.00     0.149 C 
HETATM   10  C6  UNL     1     -33.986   6.364   6.724  1.00 20.00     0.149 C 
ENDBRANCH   1   8
TORSDOF 3
