REMARK  1 active torsions:
REMARK  status: ('A' for Active; 'I' for Inactive)
REMARK    1  A    between atoms: C5_5  and  C10_10 
ROOT
HETATM    1  C6  UNL     1     -34.539   4.464   5.225  1.00 20.00     0.005 C 
HETATM    2  C7  UNL     1     -33.895   5.666   5.933  1.00 20.00     0.005 C 
HETATM    3  C8  UNL     1     -33.918   5.393   2.975  1.00 20.00     0.014 C 
HETATM    4  C9  UNL     1     -35.490   6.477   4.383  1.00 20.00     0.010 C 
HETATM    5  C10 UNL     1     -33.168   6.536   3.703  1.00 20.00     0.023 C 
HETATM    6  C11 UNL     1     -35.087   5.079   3.926  1.00 20.00    -0.013 C 
HETATM    7  C12 UNL     1     -34.093   6.811   4.918  1.00 20.00    -0.006 C 
ENDROOT
BRANCH   5   8
HETATM    8  C5  UNL     1     -32.873   7.707   2.780  1.00 20.00    -0.051 A 
HETATM    9  C1  UNL     1     -32.118   7.516   1.629  1.00 20.00     0.026 A 
HETATM   10  C3  UNL     1     -31.877   8.616   0.821  1.00 20.00     0.116 A 
HETATM   11  N13 UNL     1     -32.332   9.861   1.083  1.00 20.00    -0.273 NA
HETATM   12  C4  UNL     1     -33.063  10.009   2.211  1.00 20.00     0.116 A 
HETATM   13  C2  UNL     1     -33.359   8.974   3.084  1.00 20.00     0.026 A 
ENDBRANCH   5   8
TORSDOF 1
