REMARK  4 active torsions:
REMARK  status: ('A' for Active; 'I' for Inactive)
REMARK    1  A    between atoms: C1_1  and  C5_5 
REMARK       I    between atoms: C1_1  and  N9_9 
REMARK    2  A    between atoms: C6_6  and  C8_8 
REMARK    3  A    between atoms: C7_7  and  N9_9 
REMARK    4  A    between atoms: C8_8  and  N9_9 
ROOT
HETATM    1  C1  UNL     1     -34.736   5.597   3.052  1.00 20.00     0.219 C 
HETATM    2  N9  UNL     1     -33.643   5.492   3.919  1.00 20.00    -0.353 N 
HETATM    3  O10 UNL     1     -34.625   5.769   1.836  1.00 20.00    -0.273 OA
ENDROOT
BRANCH   2   4
HETATM    4  C7  UNL     1     -33.799   5.289   5.354  1.00 20.00     0.121 C 
HETATM    5  C4  UNL     1     -33.878   6.590   6.076  1.00 20.00     0.026 C 
ENDBRANCH   2   4
BRANCH   2   6
HETATM    6  C8  UNL     1     -32.261   5.579   3.451  1.00 20.00     0.125 C 
BRANCH   6   7
HETATM    7  C6  UNL     1     -31.734   7.009   3.460  1.00 20.00     0.015 C 
HETATM    8  C3  UNL     1     -32.557   7.945   2.587  1.00 20.00     0.006 C 
ENDBRANCH   6   7
ENDBRANCH   2   6
BRANCH   1   9
HETATM    9  C5  UNL     1     -36.113   5.488   3.692  1.00 20.00     0.098 C 
HETATM   10  C2  UNL     1     -37.242   5.627   2.683  1.00 20.00     0.014 C 
ENDBRANCH   1   9
TORSDOF 4
