REMARK  0 active torsions:
REMARK  status: ('A' for Active; 'I' for Inactive)
ROOT
HETATM    1  C1  UNL     1     -33.138   6.620   3.621  1.00 20.00     0.066 C 
HETATM    2  C2  UNL     1     -33.836   3.891   5.914  1.00 20.00     0.034 C 
HETATM    3  C3  UNL     1     -32.773   4.971   6.116  1.00 20.00     0.036 C 
HETATM    4  C4  UNL     1     -35.186   5.452   4.480  1.00 20.00     0.053 C 
HETATM    5  C5  UNL     1     -34.155   6.574   4.672  1.00 20.00     0.124 C 
HETATM    6  C6  UNL     1     -35.115   4.719   5.822  1.00 20.00     0.123 C 
HETATM    7  C7  UNL     1     -33.605   6.255   6.068  1.00 20.00     0.139 C 
HETATM    8  N8  UNL     1     -32.332   6.657   2.788  1.00 20.00    -0.197 NA
HETATM    9  O9  UNL     1     -34.815   5.805   6.729  1.00 20.00    -0.379 OA
ENDROOT
TORSDOF 0
