REMARK  0 active torsions:
REMARK  status: ('A' for Active; 'I' for Inactive)
ROOT
HETATM    1  C1  UNL     1     -34.894   5.365   3.052  1.00 20.00     0.017 A 
HETATM    2  C2  UNL     1     -34.177   6.128   2.131  1.00 20.00     0.025 A 
HETATM    3  C3  UNL     1     -32.646   6.871   3.876  1.00 20.00     0.032 A 
HETATM    4  C4  UNL     1     -34.461   5.381   4.365  1.00 20.00     0.016 A 
HETATM    5  C5  UNL     1     -33.362   6.117   4.794  1.00 20.00    -0.038 A 
HETATM    6  C6  UNL     1     -33.060   6.875   2.540  1.00 20.00     0.034 A 
HETATM    7  C7  UNL     1     -35.016   4.676   5.508  1.00 20.00     0.160 A 
HETATM    8  C8  UNL     1     -34.186   4.970   6.734  1.00 20.00     0.093 A 
HETATM    9  C9  UNL     1     -33.100   5.968   6.266  1.00 20.00     0.023 A 
HETATM   10  C10 UNL     1     -33.188   7.294   7.013  1.00 20.00     0.015 C 
HETATM   11  O11 UNL     1     -35.996   3.955   5.458  1.00 20.00    -0.292 OA
HETATM   12 CL12 UNL     1     -32.188   7.806   1.381  1.00 20.00    -0.084 Cl
ENDROOT
TORSDOF 0
