REMARK  5 active torsions:
REMARK  status: ('A' for Active; 'I' for Inactive)
REMARK    1  A    between atoms: C2_2  and  C5_5 
REMARK    2  A    between atoms: C5_5  and  C8_8 
REMARK    3  A    between atoms: C6_6  and  C7_7 
REMARK    4  A    between atoms: C7_7  and  C8_8 
REMARK    5  A    between atoms: C8_8  and  O9_9 
ROOT
HETATM    1  C1  UNL     1     -32.562   8.425   2.088  1.00 20.00    -0.111 C 
HETATM    2  C2  UNL     1     -32.494   7.282   2.451  1.00 20.00    -0.104 C 
HETATM    3  C3  UNL     1     -32.650   9.816   1.647  1.00 20.00     0.112 C 
ENDROOT
BRANCH   2   4
HETATM    4  C5  UNL     1     -32.409   5.881   2.892  1.00 20.00     0.125 C 
BRANCH   4   5
HETATM    5  C8  UNL     1     -33.459   5.522   3.951  1.00 20.00     0.129 C 
BRANCH   5   6
HETATM    6  C7  UNL     1     -33.433   6.365   5.233  1.00 20.00     0.032 C 
BRANCH   6   7
HETATM    7  C6  UNL     1     -34.431   5.900   6.292  1.00 20.00    -0.002 C 
HETATM    8  C4  UNL     1     -34.222   4.435   6.644  1.00 20.00     0.005 C 
ENDBRANCH   6   7
ENDBRANCH   5   6
BRANCH   5   9
HETATM    9  O9  UNL     1     -34.767   5.639   3.388  1.00 20.00    -0.395 OA
HETATM   10  H23 UNL     1     -34.800   5.020   2.644  1.00 20.00     0.210 HD
ENDBRANCH   5   9
ENDBRANCH   4   5
ENDBRANCH   2   4
TORSDOF 5
