REMARK  2 active torsions:
REMARK  status: ('A' for Active; 'I' for Inactive)
REMARK    1  A    between atoms: C2_2  and  C5_5 
REMARK    2  A    between atoms: C3_3  and  C6_6 
ROOT
HETATM    1  C1  UNL     1     -33.885   6.774   2.326  1.00 20.00     0.204 C 
HETATM    2  C2  UNL     1     -32.473   7.243   2.582  1.00 20.00     0.162 C 
HETATM    3  C3  UNL     1     -33.075   5.786   4.198  1.00 20.00     0.260 C 
HETATM    4  O7  UNL     1     -33.979   5.580   3.104  1.00 20.00    -0.359 OA
HETATM    5  O8  UNL     1     -32.298   6.970   3.974  1.00 20.00    -0.353 OA
ENDROOT
BRANCH   2   6
HETATM    6  C5  UNL     1     -32.252   8.712   2.293  1.00 20.00     0.148 C 
HETATM    7 CL9  UNL     1     -32.596   9.072   0.587  1.00 20.00    -0.128 Cl
ENDBRANCH   2   6
BRANCH   3   8
HETATM    8  C6  UNL     1     -33.854   5.935   5.491  1.00 20.00     0.056 C 
HETATM    9  C4  UNL     1     -34.685   4.725   5.789  1.00 20.00     0.010 C 
ENDBRANCH   3   8
TORSDOF 2
