REMARK  2 active torsions:
REMARK  status: ('A' for Active; 'I' for Inactive)
REMARK    1  A    between atoms: C1_1  and  C5_5 
REMARK    2  A    between atoms: C5_5  and  C6_6 
ROOT
HETATM    1  C2  UNL     1     -33.019   7.281   5.804  1.00 20.00     0.019 C 
HETATM    2  C5  UNL     1     -34.012   6.867   4.717  1.00 20.00     0.071 C 
ENDROOT
BRANCH   2   3
HETATM    3  C1  UNL     1     -33.205   6.592   3.448  1.00 20.00     0.223 C 
HETATM    4  O7  UNL     1     -33.257   5.511   2.866  1.00 20.00    -0.279 OA
HETATM    5 CL8  UNL     1     -32.222   7.947   2.969  1.00 20.00    -0.043 Cl
ENDBRANCH   2   3
BRANCH   2   6
HETATM    6  C6  UNL     1     -34.862   5.629   5.100  1.00 20.00    -0.011 C 
HETATM    7  C3  UNL     1     -35.863   5.248   4.005  1.00 20.00     0.010 C 
HETATM    8  C4  UNL     1     -33.965   4.419   5.395  1.00 20.00     0.010 C 
ENDBRANCH   2   6
TORSDOF 2
