REMARK  1 active torsions:
REMARK  status: ('A' for Active; 'I' for Inactive)
REMARK    1  A    between atoms: C1_1  and  C5_5 
ROOT
HETATM    1  C2  UNL     1     -34.161   3.916   3.384  1.00 20.00     0.006 C 
HETATM    2  C3  UNL     1     -33.487   4.507   4.634  1.00 20.00     0.011 C 
HETATM    3  C4  UNL     1     -33.093   5.645   1.964  1.00 20.00     0.017 C 
HETATM    4  C5  UNL     1     -32.373   6.199   3.213  1.00 20.00     0.056 C 
HETATM    5  C6  UNL     1     -34.453   5.168   2.528  1.00 20.00    -0.005 C 
HETATM    6  C7  UNL     1     -33.457   6.037   4.327  1.00 20.00    -0.027 C 
HETATM    7  C8  UNL     1     -34.811   6.249   3.578  1.00 20.00    -0.036 C 
HETATM    8  C9  UNL     1     -33.228   6.858   5.584  1.00 20.00     0.016 C 
HETATM    9  C10 UNL     1     -36.072   5.929   4.410  1.00 20.00     0.016 C 
HETATM   10  C11 UNL     1     -35.060   7.643   2.972  1.00 20.00     0.016 C 
ENDROOT
BRANCH   4  11
HETATM   11  C1  UNL     1     -31.837   7.582   2.989  1.00 20.00     0.236 C 
HETATM   12  O12 UNL     1     -31.491   8.003   1.890  1.00 20.00    -0.306 OA
ENDBRANCH   4  11
TORSDOF 1
