REMARK  1 active torsions:
REMARK  status: ('A' for Active; 'I' for Inactive)
REMARK    1  A    between atoms: C1_1  and  C6_6 
ROOT
HETATM    1  C2  UNL     1     -34.623   3.417   5.394  1.00 20.00     0.005 C 
HETATM    2  C3  UNL     1     -35.158   4.462   4.405  1.00 20.00     0.006 C 
HETATM    3  C4  UNL     1     -32.861   5.015   6.171  1.00 20.00     0.016 C 
HETATM    4  C5  UNL     1     -35.178   5.407   6.579  1.00 20.00     0.010 C 
HETATM    5  C6  UNL     1     -33.374   6.091   5.203  1.00 20.00     0.051 C 
HETATM    6  C7  UNL     1     -34.150   4.275   6.579  1.00 20.00    -0.013 C 
HETATM    7  C8  UNL     1     -34.884   5.795   5.127  1.00 20.00    -0.003 C 
ENDROOT
BRANCH   5   8
HETATM    8  C1  UNL     1     -32.687   6.071   3.875  1.00 20.00     0.236 C 
HETATM    9  O9  UNL     1     -33.231   6.402   2.827  1.00 20.00    -0.306 OA
ENDBRANCH   5   8
TORSDOF 1
