REMARK  2 active torsions:
REMARK  status: ('A' for Active; 'I' for Inactive)
REMARK    1  A    between atoms: C5_5  and  O8_8 
REMARK    2  A    between atoms: C6_6  and  O8_8 
ROOT
HETATM    1  C1  UNL     1     -32.624   7.924   2.594  1.00 20.00     0.097 C 
HETATM    2  C3  UNL     1     -31.613   5.830   3.403  1.00 20.00     0.062 C 
HETATM    3  C4  UNL     1     -32.543   7.519   5.021  1.00 20.00     0.062 C 
HETATM    4  C6  UNL     1     -32.692   6.887   3.637  1.00 20.00     0.141 C 
HETATM    5  N7  UNL     1     -32.571   8.742   1.772  1.00 20.00    -0.194 NA
ENDROOT
BRANCH   4   6
HETATM    6  O8  UNL     1     -33.968   6.253   3.565  1.00 20.00    -0.367 OA
BRANCH   6   7
HETATM    7  C5  UNL     1     -34.097   5.239   4.549  1.00 20.00     0.165 C 
HETATM    8  C2  UNL     1     -35.465   4.603   4.426  1.00 20.00     0.033 C 
ENDBRANCH   6   7
ENDBRANCH   4   6
TORSDOF 2
