REMARK  1 active torsions:
REMARK  status: ('A' for Active; 'I' for Inactive)
REMARK    1  A    between atoms: C2_2  and  C7_7 
ROOT
HETATM    1  C3  UNL     1     -33.781   6.185   5.699  1.00 20.00     0.034 C 
HETATM    2  C4  UNL     1     -34.746   4.657   3.960  1.00 20.00     0.034 C 
HETATM    3  C5  UNL     1     -34.118   5.113   6.728  1.00 20.00     0.168 C 
HETATM    4  C6  UNL     1     -35.029   3.668   5.085  1.00 20.00     0.168 C 
HETATM    5  C7  UNL     1     -33.571   5.555   4.327  1.00 20.00     0.011 C 
HETATM    6  O8  UNL     1     -35.256   4.355   6.316  1.00 20.00    -0.391 OA
ENDROOT
BRANCH   5   7
HETATM    7  C2  UNL     1     -33.485   6.668   3.301  1.00 20.00    -0.032 C 
HETATM    8  C1  UNL     1     -32.421   6.885   2.520  1.00 20.00     0.007 C 
ENDBRANCH   5   7
TORSDOF 1
