REMARK  2 active torsions:
REMARK  status: ('A' for Active; 'I' for Inactive)
REMARK    1  A    between atoms: C5_5  and  C6_6 
REMARK    2  A    between atoms: C6_6  and  C7_7 
ROOT
HETATM    1  C1  UNL     1     -32.737   7.398   2.634  1.00 20.00     0.068 C 
HETATM    2  C3  UNL     1     -31.690   5.280   3.323  1.00 20.00     0.031 C 
HETATM    3  C4  UNL     1     -34.017   5.320   2.413  1.00 20.00     0.031 C 
HETATM    4  C7  UNL     1     -32.995   6.087   3.273  1.00 20.00     0.042 C 
HETATM    5  N8  UNL     1     -32.535   8.425   2.132  1.00 20.00    -0.196 NA
ENDROOT
BRANCH   4   6
HETATM    6  C6  UNL     1     -33.598   6.291   4.688  1.00 20.00     0.023 C 
BRANCH   6   7
HETATM    7  C5  UNL     1     -33.967   5.003   5.436  1.00 20.00    -0.003 C 
HETATM    8  C2  UNL     1     -34.611   5.311   6.781  1.00 20.00     0.005 C 
ENDBRANCH   6   7
ENDBRANCH   4   6
TORSDOF 2
