REMARK  0 active torsions:
REMARK  status: ('A' for Active; 'I' for Inactive)
ROOT
HETATM    1  C1  UNL     1     -34.744   3.706   5.851  1.00 20.00     0.148 A 
HETATM    2  C2  UNL     1     -35.114   4.856   3.821  1.00 20.00     0.148 A 
HETATM    3  C3  UNL     1     -34.215   4.746   6.505  1.00 20.00     0.074 A 
HETATM    4  C4  UNL     1     -34.628   6.030   4.236  1.00 20.00     0.074 A 
HETATM    5  O5  UNL     1     -35.195   3.700   4.556  1.00 20.00    -0.334 OA
HETATM    6  S6  UNL     1     -33.996   6.315   5.818  1.00 20.00    -0.110 SA
ENDROOT
TORSDOF 0
