REMARK  3 active torsions:
REMARK  status: ('A' for Active; 'I' for Inactive)
REMARK    1  A    between atoms: C1_1  and  C3_3 
REMARK    2  A    between atoms: C2_2  and  C3_3 
REMARK    3  A    between atoms: C2_2  and  S6_6 
ROOT
HETATM    1  C3  UNL     1     -33.803   6.395   3.626  1.00 20.00     0.192 C 
HETATM    2 CL7  UNL     1     -33.890   5.135   2.347  1.00 20.00    -0.113 Cl
ENDROOT
BRANCH   1   3
HETATM    3  C1  UNL     1     -34.446   5.751   4.864  1.00 20.00     0.192 C 
HETATM    4  O4  UNL     1     -34.084   6.256   5.967  1.00 20.00    -0.647 OA
HETATM    5  O5  UNL     1     -35.250   4.803   4.644  1.00 20.00    -0.647 OA
ENDBRANCH   1   3
BRANCH   1   6
HETATM    6  C2  UNL     1     -32.353   6.845   3.759  1.00 20.00     0.102 C 
BRANCH   6   7
HETATM    7  S6  UNL     1     -31.754   7.610   2.219  1.00 20.00    -0.180 SA
HETATM    8  H11 UNL     1     -30.519   7.872   2.668  1.00 20.00     0.101 HD
ENDBRANCH   6   7
ENDBRANCH   1   6
TORSDOF 3
