REMARK  3 active torsions:
REMARK  status: ('A' for Active; 'I' for Inactive)
REMARK    1  A    between atoms: C1_1  and  C5_5 
REMARK    2  A    between atoms: C2_2  and  C6_6 
REMARK    3  A    between atoms: C6_6  and  O7_7 
ROOT
HETATM    1  C3  UNL     1     -35.592   4.858   4.429  1.00 20.00     0.060 C 
HETATM    2  C4  UNL     1     -35.046   5.840   6.675  1.00 20.00     0.060 C 
HETATM    3  C6  UNL     1     -34.481   5.141   5.440  1.00 20.00     0.114 C 
ENDROOT
BRANCH   3   4
HETATM    4  C2  UNL     1     -33.421   5.962   4.829  1.00 20.00    -0.068 C 
HETATM    5  C1  UNL     1     -32.558   6.631   4.329  1.00 20.00    -0.088 C 
BRANCH   5   6
HETATM    6  C5  UNL     1     -31.505   7.442   3.723  1.00 20.00     0.208 C 
HETATM    7 CL8  UNL     1     -32.225   8.486   2.483  1.00 20.00    -0.117 Cl
ENDBRANCH   5   6
ENDBRANCH   3   4
BRANCH   3   8
HETATM    8  O7  UNL     1     -33.930   3.896   5.870  1.00 20.00    -0.378 OA
HETATM    9  H17 UNL     1     -34.660   3.394   6.262  1.00 20.00     0.211 HD
ENDBRANCH   3   8
TORSDOF 3
