REMARK  3 active torsions:
REMARK  status: ('A' for Active; 'I' for Inactive)
REMARK    1  A    between atoms: C1_1  and  C4_4 
REMARK    2  A    between atoms: C4_4  and  C5_5 
REMARK    3  A    between atoms: C5_5  and  C6_6 
ROOT
HETATM    1  C5  UNL     1     -33.324   5.744   3.767  1.00 20.00     0.035 C 
ENDROOT
BRANCH   1   2
HETATM    2  C4  UNL     1     -33.403   7.231   3.414  1.00 20.00     0.115 C 
BRANCH   2   3
HETATM    3  C1  UNL     1     -32.186   7.784   2.661  1.00 20.00     0.172 C 
HETATM    4  O7  UNL     1     -31.069   7.263   2.927  1.00 20.00    -0.648 OA
HETATM    5  O8  UNL     1     -32.463   8.715   1.849  1.00 20.00    -0.648 OA
ENDBRANCH   2   3
ENDBRANCH   1   2
BRANCH   1   6
HETATM    6  C6  UNL     1     -34.503   5.184   4.596  1.00 20.00     0.030 C 
HETATM    7  C2  UNL     1     -34.639   5.993   5.894  1.00 20.00     0.032 C 
HETATM    8  C3  UNL     1     -35.828   5.230   3.827  1.00 20.00     0.032 C 
HETATM    9 CL9  UNL     1     -34.174   3.474   5.054  1.00 20.00    -0.120 Cl
ENDBRANCH   1   6
TORSDOF 3
