REMARK  2 active torsions:
REMARK  status: ('A' for Active; 'I' for Inactive)
REMARK    1  A    between atoms: C6_6  and  C9_9 
REMARK    2  A    between atoms: C6_6  and  C10_10 
ROOT
HETATM    1  C1  UNL     1     -33.590   5.981   5.559  1.00 20.00     0.047 C 
HETATM    2  C2  UNL     1     -32.728   6.832   4.991  1.00 20.00    -0.014 C 
HETATM    3  C3  UNL     1     -34.298   4.971   4.737  1.00 20.00     0.149 C 
HETATM    4  C4  UNL     1     -33.961   4.871   3.267  1.00 20.00     0.084 C 
HETATM    5  C5  UNL     1     -33.562   6.228   2.701  1.00 20.00     0.021 C 
HETATM    6  C6  UNL     1     -32.433   6.907   3.508  1.00 20.00    -0.023 C 
HETATM    7  O11 UNL     1     -35.093   4.199   5.270  1.00 20.00    -0.293 OA
ENDROOT
BRANCH   6   8
HETATM    8  C9  UNL     1     -32.342   8.382   3.078  1.00 20.00     0.009 C 
HETATM    9  C7  UNL     1     -32.052   8.504   1.622  1.00 20.00     0.006 C 
ENDBRANCH   6   8
BRANCH   6  10
HETATM   10  C10 UNL     1     -31.080   6.228   3.236  1.00 20.00     0.009 C 
HETATM   11  C8  UNL     1     -29.979   6.900   3.981  1.00 20.00     0.006 C 
ENDBRANCH   6  10
TORSDOF 2
