REMARK  0 active torsions:
REMARK  status: ('A' for Active; 'I' for Inactive)
ROOT
HETATM    1  C1  UNL     1     -32.144   7.041   3.193  1.00 20.00     0.064 C 
HETATM    2  C2  UNL     1     -34.646   5.767   5.751  1.00 20.00     0.128 C 
HETATM    3  C3  UNL     1     -35.645   5.093   4.839  1.00 20.00     0.078 C 
HETATM    4  C4  UNL     1     -33.675   6.725   5.097  1.00 20.00     0.097 C 
HETATM    5  C5  UNL     1     -34.941   4.474   3.639  1.00 20.00     0.009 C 
HETATM    6  C6  UNL     1     -34.041   5.483   2.927  1.00 20.00     0.020 C 
HETATM    7  C7  UNL     1     -33.000   6.068   3.891  1.00 20.00     0.100 C 
HETATM    8  N8  UNL     1     -31.469   7.808   2.643  1.00 20.00    -0.197 NA
HETATM    9  O9  UNL     1     -34.689   5.625   6.972  1.00 20.00    -0.298 OA
ENDROOT
TORSDOF 0
