REMARK  2 active torsions:
REMARK  status: ('A' for Active; 'I' for Inactive)
REMARK    1  A    between atoms: C2_2  and  C6_6 
REMARK    2  A    between atoms: C6_6  and  N7_7 
ROOT
HETATM    1  C3  UNL     1     -35.093   5.454   6.477  1.00 20.00     0.060 C 
HETATM    2  C4  UNL     1     -34.049   6.394   5.843  1.00 20.00     0.274 C 
HETATM    3  C5  UNL     1     -35.482   5.137   5.020  1.00 20.00     0.274 C 
HETATM    4  N7  UNL     1     -34.101   5.528   4.636  1.00 20.00     0.093 N 
ENDROOT
BRANCH   4   5
HETATM    5  C6  UNL     1     -34.115   6.337   3.423  1.00 20.00     0.317 C 
BRANCH   5   6
HETATM    6  C2  UNL     1     -32.747   6.827   3.039  1.00 20.00     0.007 C 
HETATM    7  C1  UNL     1     -31.619   6.178   3.358  1.00 20.00     0.029 C 
HETATM    8 BR8  UNL     1     -32.708   8.389   2.004  1.00 20.00    -0.055 Br
ENDBRANCH   5   6
ENDBRANCH   4   5
TORSDOF 2
