REMARK  0 active torsions:
REMARK  status: ('A' for Active; 'I' for Inactive)
ROOT
HETATM    1  C1  UNL     1     -32.830   5.650   3.975  1.00 20.00     0.080 C 
HETATM    2  C2  UNL     1     -33.977   6.718   5.882  1.00 20.00     0.043 C 
HETATM    3  C3  UNL     1     -33.918   4.210   5.659  1.00 20.00     0.043 C 
HETATM    4  C4  UNL     1     -33.960   5.540   4.910  1.00 20.00     0.099 C 
HETATM    5  N5  UNL     1     -31.936   5.736   3.240  1.00 20.00    -0.196 NA
HETATM    6 BR6  UNL     1     -35.639   5.593   3.876  1.00 20.00    -0.070 Br
ENDROOT
TORSDOF 0
