REMARK  2 active torsions:
REMARK  status: ('A' for Active; 'I' for Inactive)
REMARK    1  A    between atoms: C1_1  and  C6_6 
REMARK    2  A    between atoms: C6_6  and  N7_7 
ROOT
HETATM    1  C3  UNL     1     -35.294   5.280   5.899  1.00 20.00     0.060 C 
HETATM    2  C4  UNL     1     -34.936   5.483   4.415  1.00 20.00     0.274 C 
HETATM    3  C5  UNL     1     -33.960   6.002   6.173  1.00 20.00     0.274 C 
HETATM    4  N7  UNL     1     -34.113   6.645   4.842  1.00 20.00     0.091 N 
ENDROOT
BRANCH   4   5
HETATM    5  C6  UNL     1     -32.840   6.662   4.131  1.00 20.00     0.300 C 
BRANCH   5   6
HETATM    6  C1  UNL     1     -32.987   7.232   2.752  1.00 20.00     0.010 C 
HETATM    7  C2  UNL     1     -32.295   8.290   2.315  1.00 20.00     0.053 C 
HETATM    8 BR8  UNL     1     -32.448   9.008   0.613  1.00 20.00    -0.064 Br
ENDBRANCH   5   6
ENDBRANCH   4   5
TORSDOF 2
