REMARK  0 active torsions:
REMARK  status: ('A' for Active; 'I' for Inactive)
ROOT
HETATM    1  C1  UNL     1     -32.716   7.671   2.887  1.00 20.00     0.069 C 
HETATM    2  C2  UNL     1     -34.586   4.829   6.224  1.00 20.00     0.000 C 
HETATM    3  C3  UNL     1     -35.498   4.789   5.004  1.00 20.00     0.000 C 
HETATM    4  C4  UNL     1     -33.172   5.357   6.014  1.00 20.00     0.002 C 
HETATM    5  C5  UNL     1     -34.803   4.456   3.688  1.00 20.00     0.002 C 
HETATM    6  C6  UNL     1     -33.061   6.594   5.119  1.00 20.00     0.024 C 
HETATM    7  C7  UNL     1     -34.239   5.698   2.991  1.00 20.00     0.024 C 
HETATM    8  C8  UNL     1     -32.963   6.321   3.598  1.00 20.00     0.045 C 
HETATM    9  C9  UNL     1     -31.798   5.452   3.306  1.00 20.00     0.031 C 
HETATM   10  N10 UNL     1     -32.530   8.684   2.353  1.00 20.00    -0.196 NA
ENDROOT
TORSDOF 0
