REMARK  4 active torsions:
REMARK  status: ('A' for Active; 'I' for Inactive)
REMARK    1  A    between atoms: C2_2  and  C7_7 
REMARK    2  A    between atoms: C5_5  and  C6_6 
REMARK    3  A    between atoms: C6_6  and  C7_7 
REMARK    4  A    between atoms: C7_7  and  O8_8 
ROOT
HETATM    1  C7  UNL     1     -32.700   6.847   4.734  1.00 20.00     0.146 C 
ENDROOT
BRANCH   1   2
HETATM    2  C2  UNL     1     -33.828   6.185   5.496  1.00 20.00    -0.065 C 
HETATM    3  C1  UNL     1     -33.929   6.305   6.829  1.00 20.00     0.016 C 
HETATM    4  C3  UNL     1     -34.829   5.378   4.716  1.00 20.00     0.045 C 
ENDBRANCH   1   2
BRANCH   1   5
HETATM    5  C6  UNL     1     -33.079   7.334   3.326  1.00 20.00     0.036 C 
BRANCH   5   6
HETATM    6  C5  UNL     1     -31.975   8.068   2.562  1.00 20.00    -0.002 C 
HETATM    7  C4  UNL     1     -32.421   8.584   1.203  1.00 20.00     0.005 C 
ENDBRANCH   5   6
ENDBRANCH   1   5
BRANCH   1   8
HETATM    8  O8  UNL     1     -32.251   7.974   5.493  1.00 20.00    -0.391 OA
HETATM    9  H22 UNL     1     -31.951   7.625   6.344  1.00 20.00     0.210 HD
ENDBRANCH   1   8
TORSDOF 4
