REMARK  2 active torsions:
REMARK  status: ('A' for Active; 'I' for Inactive)
REMARK    1  A    between atoms: C2_2  and  C3_3 
REMARK    2  A    between atoms: C3_3  and  C4_4 
ROOT
HETATM    1  C3  UNL     1     -33.993   4.915   5.089  1.00 20.00     0.254 C 
HETATM    2  O5  UNL     1     -33.759   3.709   5.058  1.00 20.00    -0.283 OA
ENDROOT
BRANCH   1   3
HETATM    3  C2  UNL     1     -34.262   5.639   6.359  1.00 20.00     0.049 C 
HETATM    4  C1  UNL     1     -33.479   6.648   6.752  1.00 20.00     0.015 C 
ENDBRANCH   1   3
BRANCH   1   5
HETATM    5  C4  UNL     1     -34.022   5.744   3.838  1.00 20.00     0.455 C 
HETATM    6  F6  UNL     1     -34.298   7.047   4.099  1.00 20.00    -0.163 F 
HETATM    7  F7  UNL     1     -32.834   5.716   3.182  1.00 20.00    -0.163 F 
HETATM    8  F8  UNL     1     -34.964   5.312   2.961  1.00 20.00    -0.163 F 
ENDBRANCH   1   5
TORSDOF 2
