REMARK  0 active torsions:
REMARK  status: ('A' for Active; 'I' for Inactive)
ROOT
HETATM    1  C1  UNL     1     -33.952   6.798   5.635  1.00 20.00     0.050 C 
HETATM    2  C2  UNL     1     -34.933   5.555   3.620  1.00 20.00     0.050 C 
HETATM    3  C3  UNL     1     -33.075   7.335   3.247  1.00 20.00     0.207 A 
HETATM    4  C4  UNL     1     -33.981   5.566   6.532  1.00 20.00     0.077 C 
HETATM    5  C5  UNL     1     -35.038   4.230   4.366  1.00 20.00     0.077 C 
HETATM    6  C6  UNL     1     -33.854   6.437   4.180  1.00 20.00     0.084 A 
HETATM    7  O7  UNL     1     -32.529   6.102   3.742  1.00 20.00    -0.375 OA
HETATM    8  S8  UNL     1     -35.388   4.483   6.134  1.00 20.00    -0.169 SA
ENDROOT
TORSDOF 0
