REMARK  3 active torsions:
REMARK  status: ('A' for Active; 'I' for Inactive)
REMARK    1  A    between atoms: C1_1  and  C2_2 
REMARK    2  A    between atoms: C1_1  and  O10_10 
REMARK    3  A    between atoms: C3_3  and  C7_7 
ROOT
HETATM    1  C2  UNL     1     -33.101   7.005   3.800  1.00 20.00     0.256 A 
HETATM    2  C3  UNL     1     -32.513   6.971   2.404  1.00 20.00     0.093 A 
HETATM    3  C4  UNL     1     -33.067   6.061   1.353  1.00 20.00     0.049 C 
HETATM    4  O9  UNL     1     -31.897   6.281   3.499  1.00 20.00    -0.359 OA
ENDROOT
BRANCH   1   5
HETATM    5  C1  UNL     1     -34.219   6.145   4.188  1.00 20.00     0.290 C 
HETATM    6  O8  UNL     1     -35.134   5.831   3.438  1.00 20.00    -0.262 OA
BRANCH   5   7
HETATM    7  O10 UNL     1     -34.072   5.765   5.489  1.00 20.00    -0.324 OA
HETATM    8  C6  UNL     1     -35.104   4.916   6.002  1.00 20.00     0.213 C 
ENDBRANCH   5   7
ENDBRANCH   1   5
BRANCH   2   9
HETATM    9  C7  UNL     1     -31.734   8.153   1.921  1.00 20.00     0.036 C 
HETATM   10  C5  UNL     1     -32.611   9.234   1.349  1.00 20.00     0.008 C 
ENDBRANCH   2   9
TORSDOF 3
