REMARK  1 active torsions:
REMARK  status: ('A' for Active; 'I' for Inactive)
REMARK    1  A    between atoms: C3_3  and  C5_5 
ROOT
HETATM    1  C1  UNL     1     -33.960   5.732   2.925  1.00 20.00    -0.015 C 
HETATM    2  C2  UNL     1     -33.783   6.788   2.127  1.00 20.00    -0.021 C 
HETATM    3  C4  UNL     1     -32.169   6.976   3.869  1.00 20.00     0.032 C 
HETATM    4  C5  UNL     1     -33.092   5.784   4.132  1.00 20.00     0.110 C 
HETATM    5  C6  UNL     1     -32.769   7.756   2.671  1.00 20.00    -0.029 C 
HETATM    6  C7  UNL     1     -31.695   8.076   1.628  1.00 20.00     0.019 C 
HETATM    7  C8  UNL     1     -33.455   9.049   3.128  1.00 20.00     0.019 C 
ENDROOT
BRANCH   4   8
HETATM    8  C3  UNL     1     -33.975   6.014   5.337  1.00 20.00     0.180 C 
HETATM    9  O9  UNL     1     -35.129   5.509   5.264  1.00 20.00    -0.647 OA
HETATM   10  O10 UNL     1     -33.440   6.684   6.265  1.00 20.00    -0.647 OA
ENDBRANCH   4   8
TORSDOF 1
