REMARK  4 active torsions:
REMARK  status: ('A' for Active; 'I' for Inactive)
REMARK    1  A    between atoms: C2_2  and  C3_3 
REMARK    2  A    between atoms: C2_2  and  C4_4 
REMARK    3  A    between atoms: C3_3  and  C5_5 
REMARK    4  A    between atoms: C4_4  and  S6_6 
ROOT
HETATM    1  C2  UNL     1     -32.960   6.841   3.699  1.00 20.00     0.011 C 
ENDROOT
BRANCH   1   2
HETATM    2  C3  UNL     1     -33.594   5.744   2.835  1.00 20.00     0.016 C 
BRANCH   2   3
HETATM    3  C5  UNL     1     -34.849   5.138   3.453  1.00 20.00     0.114 C 
HETATM    4 CL7  UNL     1     -34.528   4.415   5.046  1.00 20.00    -0.130 Cl
ENDBRANCH   2   3
ENDBRANCH   1   2
BRANCH   1   5
HETATM    5  C4  UNL     1     -31.666   7.349   3.067  1.00 20.00     0.073 C 
BRANCH   5   6
HETATM    6  S6  UNL     1     -31.987   8.049   1.422  1.00 20.00    -0.173 SA
HETATM    7  C1  UNL     1     -32.648   9.648   1.941  1.00 20.00     0.089 C 
ENDBRANCH   5   6
ENDBRANCH   1   5
TORSDOF 4
