REMARK  0 active torsions:
REMARK  status: ('A' for Active; 'I' for Inactive)
ROOT
HETATM    1  C1  UNL     1     -33.659   4.568   2.850  1.00 20.00    -0.023 C 
HETATM    2  C2  UNL     1     -32.787   5.574   2.685  1.00 20.00    -0.014 C 
HETATM    3  C3  UNL     1     -33.883   6.874   4.566  1.00 20.00     0.144 C 
HETATM    4  C4  UNL     1     -34.875   4.660   3.656  1.00 20.00     0.028 A 
HETATM    5  C5  UNL     1     -35.003   5.894   4.515  1.00 20.00     0.073 A 
HETATM    6  C6  UNL     1     -32.921   6.922   3.364  1.00 20.00     0.031 C 
HETATM    7  C7  UNL     1     -34.873   4.527   5.167  1.00 20.00    -0.029 A 
HETATM    8  C8  UNL     1     -31.535   7.355   3.868  1.00 20.00     0.027 C 
HETATM    9  C9  UNL     1     -33.456   7.953   2.364  1.00 20.00     0.027 C 
HETATM   10  C10 UNL     1     -36.114   3.950   5.804  1.00 20.00     0.016 C 
HETATM   11  C11 UNL     1     -33.607   4.151   5.899  1.00 20.00     0.016 C 
HETATM   12  O12 UNL     1     -33.808   7.641   5.521  1.00 20.00    -0.296 OA
ENDROOT
TORSDOF 0
