REMARK  2 active torsions:
REMARK  status: ('A' for Active; 'I' for Inactive)
REMARK    1  A    between atoms: C3_3  and  C5_5 
REMARK    2  A    between atoms: C4_4  and  C5_5 
ROOT
HETATM    1  C1  UNL     1     -31.889   7.428   3.450  1.00 20.00     0.012 C 
HETATM    2  C2  UNL     1     -32.645   6.516   3.257  1.00 20.00    -0.117 C 
HETATM    3  C4  UNL     1     -33.569   5.396   3.020  1.00 20.00     0.101 C 
ENDROOT
BRANCH   3   4
HETATM    4  C5  UNL     1     -34.671   5.333   4.077  1.00 20.00     0.108 C 
BRANCH   4   5
HETATM    5  C3  UNL     1     -34.145   5.131   5.490  1.00 20.00     0.219 C 
HETATM    6  O6  UNL     1     -33.976   4.023   5.990  1.00 20.00    -0.280 OA
HETATM    7 CL7  UNL     1     -33.856   6.652   6.289  1.00 20.00    -0.044 Cl
ENDBRANCH   4   5
ENDBRANCH   3   4
TORSDOF 2
