REMARK  0 active torsions:
REMARK  status: ('A' for Active; 'I' for Inactive)
ROOT
HETATM    1  C1  UNL     1     -33.920   5.827   4.061  1.00 20.00    -0.032 A 
HETATM    2  C2  UNL     1     -33.034   6.688   4.569  1.00 20.00     0.056 A 
HETATM    3  C3  UNL     1     -34.769   5.415   5.215  1.00 20.00     0.157 A 
HETATM    4  C4  UNL     1     -34.134   5.337   2.679  1.00 20.00     0.048 C 
HETATM    5  C5  UNL     1     -31.945   7.425   3.874  1.00 20.00     0.072 C 
HETATM    6  C6  UNL     1     -34.702   3.931   5.541  1.00 20.00     0.041 C 
HETATM    7  N7  UNL     1     -33.206   6.878   5.919  1.00 20.00    -0.160 NA
HETATM    8  N8  UNL     1     -34.173   6.184   6.341  1.00 20.00    -0.183 NA
ENDROOT
TORSDOF 0
