REMARK  1 active torsions:
REMARK  status: ('A' for Active; 'I' for Inactive)
REMARK    1  A    between atoms: C3_3  and  C7_7 
ROOT
HETATM    1  C1  UNL     1     -32.594   6.914   2.792  1.00 20.00     0.220 A 
HETATM    2  C2  UNL     1     -33.380   5.594   2.709  1.00 20.00     0.128 A 
HETATM    3  C3  UNL     1     -33.206   5.531   4.246  1.00 20.00     0.100 A 
HETATM    4  N8  UNL     1     -32.497   6.802   4.144  1.00 20.00    -0.355 N 
HETATM    5  O9  UNL     1     -32.200   7.749   2.012  1.00 20.00    -0.274 OA
HETATM    6  H22 UNL     1     -32.052   7.409   4.819  1.00 20.00     0.162 HD
ENDROOT
BRANCH   3   7
HETATM    7  C7  UNL     1     -34.473   5.661   5.102  1.00 20.00    -0.030 C 
HETATM    8  C4  UNL     1     -34.080   5.957   6.557  1.00 20.00     0.016 C 
HETATM    9  C5  UNL     1     -35.268   4.349   5.043  1.00 20.00     0.016 C 
HETATM   10  C6  UNL     1     -35.339   6.809   4.563  1.00 20.00     0.016 C 
ENDBRANCH   3   7
TORSDOF 1
