REMARK  3 active torsions:
REMARK  status: ('A' for Active; 'I' for Inactive)
REMARK    1  A    between atoms: C2_2  and  C3_3 
REMARK    2  A    between atoms: C3_3  and  C4_4 
REMARK    3  A    between atoms: C3_3  and  O5_5 
ROOT
HETATM    1  C3  UNL     1     -34.038   5.949   4.750  1.00 20.00     0.362 C 
HETATM    2  F8  UNL     1     -35.136   6.724   4.536  1.00 20.00    -0.195 F 
ENDROOT
BRANCH   1   3
HETATM    3  C2  UNL     1     -34.481   4.573   5.224  1.00 20.00     0.429 C 
HETATM    4  F6  UNL     1     -35.307   4.006   4.309  1.00 20.00    -0.208 F 
HETATM    5  F7  UNL     1     -35.204   4.681   6.366  1.00 20.00    -0.208 F 
ENDBRANCH   1   3
BRANCH   1   6
HETATM    6  C4  UNL     1     -33.272   5.866   3.443  1.00 20.00     0.455 C 
HETATM    7  F9  UNL     1     -34.026   5.324   2.463  1.00 20.00    -0.165 F 
HETATM    8  F10 UNL     1     -32.169   5.097   3.578  1.00 20.00    -0.165 F 
HETATM    9  F11 UNL     1     -32.873   7.087   3.027  1.00 20.00    -0.165 F 
ENDBRANCH   1   6
BRANCH   1  10
HETATM   10  O5  UNL     1     -33.188   6.616   5.685  1.00 20.00    -0.345 OA
HETATM   11  C1  UNL     1     -33.859   7.239   6.769  1.00 20.00     0.206 C 
ENDBRANCH   1  10
TORSDOF 3
