REMARK  2 active torsions:
REMARK  status: ('A' for Active; 'I' for Inactive)
REMARK    1  A    between atoms: C5_5  and  C6_6 
REMARK    2  A    between atoms: C6_6  and  N7_7 
ROOT
HETATM    1  C1  UNL     1     -32.577   8.962   2.104  1.00 20.00     0.012 C 
HETATM    2  C2  UNL     1     -32.261   8.031   2.793  1.00 20.00    -0.115 C 
HETATM    3  C5  UNL     1     -31.867   6.893   3.638  1.00 20.00     0.128 C 
ENDROOT
BRANCH   3   4
HETATM    4  C6  UNL     1     -33.014   5.891   3.831  1.00 20.00     0.227 C 
HETATM    5  C3  UNL     1     -33.836   5.694   2.557  1.00 20.00     0.043 C 
BRANCH   4   6
HETATM    6  N7  UNL     1     -33.903   6.381   4.888  1.00 20.00     0.084 N 
HETATM    7  C4  UNL     1     -34.667   5.287   5.464  1.00 20.00     0.307 C 
HETATM    8  H18 UNL     1     -33.340   6.822   5.611  1.00 20.00     0.315 HD
ENDBRANCH   4   6
ENDBRANCH   3   4
TORSDOF 2
