REMARK  0 active torsions:
REMARK  status: ('A' for Active; 'I' for Inactive)
ROOT
HETATM    1  C1  UNL     1     -34.100   5.037   2.683  1.00 20.00    -0.008 C 
HETATM    2  C2  UNL     1     -34.325   5.344   3.956  1.00 20.00    -0.037 C 
HETATM    3  C3  UNL     1     -33.424   6.326   4.576  1.00 20.00     0.044 C 
HETATM    4  C4  UNL     1     -32.331   6.870   2.629  1.00 20.00     0.246 C 
HETATM    5  C5  UNL     1     -33.022   5.713   1.904  1.00 20.00     0.133 C 
HETATM    6  C6  UNL     1     -35.262   4.831   4.988  1.00 20.00     0.040 C 
HETATM    7  C7  UNL     1     -33.716   6.428   6.042  1.00 20.00     0.060 C 
HETATM    8  C8  UNL     1     -34.515   5.143   6.290  1.00 20.00     0.011 C 
HETATM    9  N9  UNL     1     -32.515   7.025   3.990  1.00 20.00    -0.218 NA
HETATM   10  O10 UNL     1     -31.591   7.613   1.983  1.00 20.00    -0.271 OA
ENDROOT
TORSDOF 0
