REMARK  2 active torsions:
REMARK  status: ('A' for Active; 'I' for Inactive)
REMARK    1  A    between atoms: C1_1  and  C7_7 
REMARK    2  A    between atoms: C7_7  and  C10_10 
ROOT
HETATM    1  C2  UNL     1     -34.068   4.451   6.489  1.00 20.00     0.000 C 
HETATM    2  C3  UNL     1     -33.842   3.662   5.205  1.00 20.00     0.001 C 
HETATM    3  C4  UNL     1     -34.870   5.721   6.232  1.00 20.00     0.001 C 
HETATM    4  C5  UNL     1     -33.178   4.517   4.124  1.00 20.00     0.021 C 
HETATM    5  C6  UNL     1     -34.217   6.597   5.161  1.00 20.00     0.021 C 
HETATM    6  C7  UNL     1     -33.919   5.832   3.869  1.00 20.00     0.051 C 
ENDROOT
BRANCH   6   7
HETATM    7  C1  UNL     1     -35.225   5.548   3.130  1.00 20.00     0.182 C 
HETATM    8  O11 UNL     1     -35.145   5.558   1.870  1.00 20.00    -0.647 OA
HETATM    9  O12 UNL     1     -36.222   5.339   3.877  1.00 20.00    -0.647 OA
ENDBRANCH   6   7
BRANCH   6  10
HETATM   10  C10 UNL     1     -33.157   6.709   2.875  1.00 20.00    -0.004 C 
HETATM   11  C8  UNL     1     -33.959   7.964   2.548  1.00 20.00     0.011 C 
HETATM   12  C9  UNL     1     -31.784   7.073   3.431  1.00 20.00     0.011 C 
ENDBRANCH   6  10
TORSDOF 2
