REMARK  0 active torsions:
REMARK  status: ('A' for Active; 'I' for Inactive)
ROOT
HETATM    1  C1  UNL     1     -34.116   4.970   5.693  1.00 20.00     0.158 C 
HETATM    2  C2  UNL     1     -34.267   5.555   4.506  1.00 20.00     0.277 C 
HETATM    3  F3  UNL     1     -33.340   6.435   4.075  1.00 20.00    -0.172 F 
HETATM    4  F4  UNL     1     -35.336   5.277   3.730  1.00 20.00    -0.172 F 
HETATM    5 CL5  UNL     1     -35.226   3.841   6.341  1.00 20.00    -0.091 Cl
ENDROOT
TORSDOF 0
