REMARK  2 active torsions:
REMARK  status: ('A' for Active; 'I' for Inactive)
REMARK    1  A    between atoms: C4_4  and  C10_10 
REMARK    2  A    between atoms: C7_7  and  C10_10 
ROOT
HETATM    1  C1  UNL     1     -34.679   6.284   4.648  1.00 20.00     0.015 A 
HETATM    2  C2  UNL     1     -33.856   7.329   4.137  1.00 20.00     0.017 A 
HETATM    3  C3  UNL     1     -34.547   5.120   3.925  1.00 20.00    -0.021 A 
HETATM    4  C4  UNL     1     -33.126   6.923   3.042  1.00 20.00    -0.002 A 
HETATM    5  C8  UNL     1     -35.225   3.822   4.136  1.00 20.00     0.056 C 
HETATM    6  S11 UNL     1     -33.434   5.288   2.634  1.00 20.00    -0.099 SA
ENDROOT
BRANCH   4   7
HETATM    7  C10 UNL     1     -32.143   7.723   2.216  1.00 20.00     0.102 C 
HETATM    8 BR12 UNL     1     -30.586   8.158   3.323  1.00 20.00    -0.085 Br
BRANCH   7   9
HETATM    9  C7  UNL     1     -32.729   8.961   1.630  1.00 20.00     0.009 A 
HETATM   10  C5  UNL     1     -32.803  10.224   2.447  1.00 20.00     0.011 A 
HETATM   11  C6  UNL     1     -31.841  10.130   1.292  1.00 20.00    -0.013 A 
HETATM   12  C9  UNL     1     -32.083  10.918   0.051  1.00 20.00     0.010 C 
ENDBRANCH   7   9
ENDBRANCH   4   7
TORSDOF 2
