REMARK  2 active torsions:
REMARK  status: ('A' for Active; 'I' for Inactive)
REMARK    1  A    between atoms: C4_4  and  C9_9 
REMARK    2  A    between atoms: C7_7  and  C9_9 
ROOT
HETATM    1  C1  UNL     1     -33.723   8.688   1.735  1.00 20.00     0.015 A 
HETATM    2  C2  UNL     1     -34.232   7.851   2.770  1.00 20.00     0.017 A 
HETATM    3  C3  UNL     1     -32.414   8.390   1.426  1.00 20.00    -0.021 A 
HETATM    4  C4  UNL     1     -33.293   6.946   3.212  1.00 20.00    -0.002 A 
HETATM    5  C8  UNL     1     -31.539   9.026   0.417  1.00 20.00     0.056 C 
HETATM    6  S10 UNL     1     -31.805   7.106   2.381  1.00 20.00    -0.099 SA
ENDROOT
BRANCH   4   7
HETATM    7  C9  UNL     1     -33.435   5.891   4.287  1.00 20.00     0.102 C 
HETATM    8 BR11 UNL     1     -33.675   6.771   6.022  1.00 20.00    -0.085 Br
BRANCH   7   9
HETATM    9  C7  UNL     1     -34.549   4.935   4.039  1.00 20.00     0.005 A 
HETATM   10  C5  UNL     1     -35.190   4.204   5.187  1.00 20.00     0.006 A 
HETATM   11  C6  UNL     1     -35.951   5.279   4.461  1.00 20.00     0.006 A 
ENDBRANCH   7   9
ENDBRANCH   4   7
TORSDOF 2
