REMARK  2 active torsions:
REMARK  status: ('A' for Active; 'I' for Inactive)
REMARK    1  A    between atoms: C3_3  and  C8_8 
REMARK    2  A    between atoms: C7_7  and  C8_8 
ROOT
HETATM    1  C1  UNL     1     -31.772   6.692   2.978  1.00 20.00     0.018 A 
HETATM    2  C2  UNL     1     -31.642   7.673   1.953  1.00 20.00     0.032 A 
HETATM    3  C3  UNL     1     -32.916   6.872   3.724  1.00 20.00     0.003 A 
HETATM    4  C4  UNL     1     -32.692   8.565   1.954  1.00 20.00     0.075 A 
HETATM    5  S9  UNL     1     -33.828   8.218   3.188  1.00 20.00    -0.081 SA
HETATM    6 CL10 UNL     1     -32.942   9.895   0.903  1.00 20.00    -0.076 Cl
ENDROOT
BRANCH   3   7
HETATM    7  C8  UNL     1     -33.421   6.045   4.903  1.00 20.00     0.126 C 
HETATM    8 CL11 UNL     1     -33.335   7.066   6.386  1.00 20.00    -0.119 Cl
BRANCH   7   9
HETATM    9  C7  UNL     1     -34.783   5.468   4.731  1.00 20.00     0.009 A 
HETATM   10  C5  UNL     1     -34.967   4.162   4.010  1.00 20.00     0.007 A 
HETATM   11  C6  UNL     1     -35.186   4.238   5.495  1.00 20.00     0.007 A 
ENDBRANCH   7   9
ENDBRANCH   3   7
TORSDOF 2
