REMARK  2 active torsions:
REMARK  status: ('A' for Active; 'I' for Inactive)
REMARK    1  A    between atoms: C3_3  and  C8_8 
REMARK    2  A    between atoms: C7_7  and  C8_8 
ROOT
HETATM    1  C1  UNL     1     -32.352   6.788   3.733  1.00 20.00     0.018 A 
HETATM    2  C2  UNL     1     -31.696   7.697   2.854  1.00 20.00     0.032 A 
HETATM    3  C3  UNL     1     -33.719   6.958   3.727  1.00 20.00    -0.001 A 
HETATM    4  C4  UNL     1     -32.586   8.528   2.210  1.00 20.00     0.075 A 
HETATM    5  S9  UNL     1     -34.206   8.211   2.666  1.00 20.00    -0.081 SA
HETATM    6 CL10 UNL     1     -32.238   9.764   1.075  1.00 20.00    -0.076 Cl
ENDROOT
BRANCH   3   7
HETATM    7  C8  UNL     1     -34.765   6.200   4.513  1.00 20.00     0.102 C 
HETATM    8 BR11 UNL     1     -36.113   5.497   3.276  1.00 20.00    -0.085 Br
BRANCH   7   9
HETATM    9  C7  UNL     1     -34.204   5.096   5.341  1.00 20.00     0.005 A 
HETATM   10  C5  UNL     1     -33.658   5.380   6.712  1.00 20.00     0.006 A 
HETATM   11  C6  UNL     1     -34.942   4.614   6.559  1.00 20.00     0.006 A 
ENDBRANCH   7   9
ENDBRANCH   3   7
TORSDOF 2
