REMARK  2 active torsions:
REMARK  status: ('A' for Active; 'I' for Inactive)
REMARK    1  A    between atoms: C3_3  and  C5_5 
REMARK    2  A    between atoms: C5_5  and  S6_6 
ROOT
HETATM    1  C1  UNL     1     -35.138   4.816   6.191  1.00 20.00     0.010 A 
HETATM    2  C2  UNL     1     -34.007   3.900   5.822  1.00 20.00     0.010 A 
HETATM    3  C3  UNL     1     -34.354   5.064   4.924  1.00 20.00    -0.036 A 
HETATM    4  C4  UNL     1     -35.024   4.767   3.611  1.00 20.00     0.016 C 
ENDROOT
BRANCH   3   5
HETATM    5  C5  UNL     1     -33.414   6.238   4.895  1.00 20.00     0.079 C 
BRANCH   5   6
HETATM    6  S6  UNL     1     -32.178   6.048   3.576  1.00 20.00    -0.181 SA
HETATM    7  H16 UNL     1     -31.538   7.200   3.818  1.00 20.00     0.101 HD
ENDBRANCH   5   6
ENDBRANCH   3   5
TORSDOF 2
