REMARK  0 active torsions:
REMARK  status: ('A' for Active; 'I' for Inactive)
ROOT
HETATM    1  C1  UNL     1     -34.269   5.504   2.632  1.00 20.00     0.149 A 
HETATM    2  C2  UNL     1     -33.437   6.480   3.140  1.00 20.00     0.094 A 
HETATM    3  C3  UNL     1     -34.551   5.097   4.768  1.00 20.00     0.145 A 
HETATM    4  N4  UNL     1     -34.909   4.711   3.564  1.00 20.00    -0.244 NA
HETATM    5  S5  UNL     1     -33.449   6.410   4.854  1.00 20.00    -0.049 SA
HETATM    6 CL6  UNL     1     -32.494   7.633   2.308  1.00 20.00    -0.075 Cl
HETATM    7 BR7  UNL     1     -35.222   4.245   6.341  1.00 20.00    -0.021 Br
ENDROOT
TORSDOF 0
