REMARK  1 active torsions:
REMARK  status: ('A' for Active; 'I' for Inactive)
REMARK    1  A    between atoms: C1_1  and  C2_2 
ROOT
HETATM    1  C1  UNL     1     -33.754   5.909   4.131  1.00 20.00     0.384 C 
HETATM    2  F3  UNL     1     -34.368   7.098   3.891  1.00 20.00    -0.181 F 
HETATM    3  F4  UNL     1     -34.403   4.991   3.365  1.00 20.00    -0.181 F 
HETATM    4 CL6  UNL     1     -32.064   6.015   3.596  1.00 20.00    -0.042 Cl
ENDROOT
BRANCH   1   5
HETATM    5  C2  UNL     1     -33.925   5.545   5.602  1.00 20.00     0.336 C 
HETATM    6  F5  UNL     1     -35.263   5.453   5.849  1.00 20.00    -0.199 F 
HETATM    7 CL7  UNL     1     -33.260   6.801   6.677  1.00 20.00    -0.058 Cl
HETATM    8 CL8  UNL     1     -33.192   3.967   5.984  1.00 20.00    -0.058 Cl
ENDBRANCH   1   5
TORSDOF 1
