REMARK  1 active torsions:
REMARK  status: ('A' for Active; 'I' for Inactive)
REMARK    1  A    between atoms: C2_2  and  C6_6 
ROOT
HETATM    1  C1  UNL     1     -33.916   5.902   2.570  1.00 20.00     0.080 A 
HETATM    2  C2  UNL     1     -33.225   6.678   3.478  1.00 20.00     0.047 A 
HETATM    3  C3  UNL     1     -34.279   5.373   4.892  1.00 20.00     0.144 A 
HETATM    4  N7  UNL     1     -33.433   6.376   4.810  1.00 20.00    -0.238 NA
HETATM    5  S8  UNL     1     -34.864   4.744   3.407  1.00 20.00    -0.073 SA
HETATM    6 BR9  UNL     1     -34.826   4.655   6.576  1.00 20.00    -0.021 Br
ENDROOT
BRANCH   2   7
HETATM    7  C6  UNL     1     -32.281   7.812   3.044  1.00 20.00     0.038 A 
HETATM    8  C4  UNL     1     -32.631   8.612   1.811  1.00 20.00     0.011 A 
HETATM    9  C5  UNL     1     -31.489   7.645   1.768  1.00 20.00     0.011 A 
ENDBRANCH   2   7
TORSDOF 1
