REMARK  3 active torsions:
REMARK  status: ('A' for Active; 'I' for Inactive)
REMARK    1  A    between atoms: C4_4  and  C7_7 
REMARK    2  A    between atoms: C6_6  and  N9_9 
REMARK    3  A    between atoms: C7_7  and  N9_9 
ROOT
HETATM    1  C1  UNL     1     -33.371   6.418   5.745  1.00 20.00     0.095 C 
HETATM    2  C7  UNL     1     -33.476   5.762   4.421  1.00 20.00     0.330 C 
HETATM    3  N8  UNL     1     -33.292   6.954   6.771  1.00 20.00    -0.195 NA
ENDROOT
BRANCH   2   4
HETATM    4  C4  UNL     1     -34.592   4.777   4.367  1.00 20.00     0.033 A 
HETATM    5  C2  UNL     1     -34.936   3.954   5.577  1.00 20.00     0.008 A 
HETATM    6  C3  UNL     1     -35.870   5.038   5.115  1.00 20.00     0.008 A 
ENDBRANCH   2   4
BRANCH   2   7
HETATM    7  N9  UNL     1     -33.615   6.791   3.404  1.00 20.00     0.101 N 
HETATM    8  H21 UNL     1     -34.013   6.380   2.559  1.00 20.00     0.317 HD
BRANCH   7   9
HETATM    9  C6  UNL     1     -32.324   7.386   3.081  1.00 20.00     0.267 C 
HETATM   10  C5  UNL     1     -32.466   8.452   2.049  1.00 20.00     0.037 C 
ENDBRANCH   7   9
ENDBRANCH   2   7
TORSDOF 3
