REMARK  1 active torsions:
REMARK  status: ('A' for Active; 'I' for Inactive)
REMARK    1  A    between atoms: C4_4  and  C7_7 
ROOT
HETATM    1  C1  UNL     1     -34.186   4.864   4.874  1.00 20.00     0.069 C 
HETATM    2  C6  UNL     1     -35.892   5.558   3.226  1.00 20.00     0.031 C 
HETATM    3  C7  UNL     1     -34.389   5.280   3.458  1.00 20.00     0.128 C 
HETATM    4  N8  UNL     1     -34.009   4.556   5.979  1.00 20.00    -0.197 NA
ENDROOT
BRANCH   3   5
HETATM    5  C4  UNL     1     -33.519   6.409   3.062  1.00 20.00     0.001 A 
HETATM    6  C2  UNL     1     -32.144   6.482   3.090  1.00 20.00     0.018 A 
HETATM    7  C3  UNL     1     -31.665   7.742   2.628  1.00 20.00     0.032 A 
HETATM    8  C5  UNL     1     -32.694   8.584   2.264  1.00 20.00     0.075 A 
HETATM    9  S9  UNL     1     -34.228   7.855   2.480  1.00 20.00    -0.081 SA
HETATM   10 CL10 UNL     1     -32.578  10.183   1.657  1.00 20.00    -0.076 Cl
ENDBRANCH   3   5
TORSDOF 1
