REMARK  3 active torsions:
REMARK  status: ('A' for Active; 'I' for Inactive)
REMARK    1  A    between atoms: C6_6  and  C8_8 
REMARK    2  A    between atoms: C7_7  and  N10_10 
REMARK    3  A    between atoms: C8_8  and  N10_10 
ROOT
HETATM    1  C1  UNL     1     -33.736   6.389   5.845  1.00 20.00     0.095 C 
HETATM    2  C8  UNL     1     -33.647   5.783   4.497  1.00 20.00     0.330 C 
HETATM    3  N9  UNL     1     -33.813   6.886   6.891  1.00 20.00    -0.195 NA
ENDROOT
BRANCH   2   4
HETATM    4  C6  UNL     1     -34.534   4.595   4.352  1.00 20.00     0.033 A 
HETATM    5  C2  UNL     1     -34.756   3.669   5.515  1.00 20.00     0.008 A 
HETATM    6  C3  UNL     1     -35.869   4.560   5.041  1.00 20.00     0.008 A 
ENDBRANCH   2   4
BRANCH   2   7
HETATM    7  N10 UNL     1     -33.947   6.804   3.508  1.00 20.00     0.106 N 
HETATM    8  H22 UNL     1     -34.890   7.162   3.666  1.00 20.00     0.318 HD
BRANCH   7   9
HETATM    9  C7  UNL     1     -32.999   7.909   3.589  1.00 20.00     0.222 A 
HETATM   10  C4  UNL     1     -31.633   7.786   2.973  1.00 20.00     0.038 A 
HETATM   11  C5  UNL     1     -32.649   8.707   2.364  1.00 20.00     0.038 A 
ENDBRANCH   7   9
ENDBRANCH   2   7
TORSDOF 3
