REMARK  0 active torsions:
REMARK  status: ('A' for Active; 'I' for Inactive)
ROOT
HETATM    1  C1  UNL     1     -36.424   5.157   4.075  1.00 20.00     0.068 C 
HETATM    2  C2  UNL     1     -32.386   7.009   4.898  1.00 20.00     0.009 A 
HETATM    3  C3  UNL     1     -31.920   7.307   3.616  1.00 20.00     0.024 A 
HETATM    4  C4  UNL     1     -33.533   5.780   2.625  1.00 20.00     0.033 A 
HETATM    5  C5  UNL     1     -33.414   6.090   5.026  1.00 20.00    -0.050 A 
HETATM    6  C6  UNL     1     -33.988   5.484   3.901  1.00 20.00    -0.033 A 
HETATM    7  C7  UNL     1     -32.488   6.696   2.487  1.00 20.00     0.034 A 
HETATM    8  C8  UNL     1     -34.093   5.641   6.280  1.00 20.00     0.041 C 
HETATM    9  C9  UNL     1     -34.802   4.365   5.795  1.00 20.00     0.028 C 
HETATM   10  C10 UNL     1     -35.102   4.557   4.293  1.00 20.00     0.126 C 
HETATM   11  N11 UNL     1     -37.469   5.631   3.904  1.00 20.00    -0.197 NA
HETATM   12 CL12 UNL     1     -31.897   7.089   0.918  1.00 20.00    -0.084 Cl
ENDROOT
TORSDOF 0
