REMARK  2 active torsions:
REMARK  status: ('A' for Active; 'I' for Inactive)
REMARK    1  A    between atoms: C5_5  and  N8_8 
REMARK    2  A    between atoms: C7_7  and  N8_8 
ROOT
HETATM    1  C1  UNL     1     -31.827   8.117   1.959  1.00 20.00     0.013 C 
HETATM    2  C2  UNL     1     -32.031   7.243   2.755  1.00 20.00    -0.087 C 
HETATM    3  C7  UNL     1     -32.275   6.175   3.728  1.00 20.00     0.364 C 
ENDROOT
BRANCH   3   4
HETATM    4  N8  UNL     1     -33.702   6.069   4.031  1.00 20.00     0.099 N 
HETATM    5  C6  UNL     1     -34.404   5.377   2.951  1.00 20.00     0.311 C 
BRANCH   4   6
HETATM    6  C5  UNL     1     -33.904   5.371   5.301  1.00 20.00     0.223 A 
HETATM    7  C3  UNL     1     -35.177   5.562   6.079  1.00 20.00     0.038 A 
HETATM    8  C4  UNL     1     -34.901   4.250   5.406  1.00 20.00     0.038 A 
ENDBRANCH   4   6
ENDBRANCH   3   4
TORSDOF 2
