REMARK  1 active torsions:
REMARK  status: ('A' for Active; 'I' for Inactive)
REMARK    1  A    between atoms: C6_6  and  N8_8 
ROOT
HETATM    1  C1  UNL     1     -32.536   9.554   1.830  1.00 20.00     0.014 C 
HETATM    2  C2  UNL     1     -32.192   8.444   2.131  1.00 20.00    -0.096 C 
HETATM    3  C6  UNL     1     -31.769   7.089   2.497  1.00 20.00     0.243 C 
ENDROOT
BRANCH   3   4
HETATM    4  N8  UNL     1     -32.722   6.443   3.367  1.00 20.00    -0.269 N 
HETATM    5  C4  UNL     1     -32.879   6.666   4.703  1.00 20.00     0.138 A 
HETATM    6  C5  UNL     1     -33.893   5.831   5.107  1.00 20.00     0.070 A 
HETATM    7  C3  UNL     1     -34.275   5.150   3.935  1.00 20.00     0.164 A 
HETATM    8 CL9  UNL     1     -34.555   5.640   6.649  1.00 20.00    -0.081 Cl
HETATM    9  N7  UNL     1     -33.562   5.520   2.868  1.00 20.00    -0.183 NA
ENDBRANCH   3   4
TORSDOF 1
