REMARK  3 active torsions:
REMARK  status: ('A' for Active; 'I' for Inactive)
REMARK    1  A    between atoms: C6_6  and  N11_11 
REMARK    2  A    between atoms: C8_8  and  C9_9 
REMARK    3  A    between atoms: C9_9  and  N11_11 
ROOT
HETATM    1  C1  UNL     1     -32.080   8.797   1.488  1.00 20.00     0.060 C 
HETATM    2  C8  UNL     1     -31.736   7.609   2.284  1.00 20.00     0.153 C 
HETATM    3  N10 UNL     1     -32.349   9.735   0.860  1.00 20.00    -0.197 NA
ENDROOT
BRANCH   2   4
HETATM    4  C9  UNL     1     -32.978   6.885   2.794  1.00 20.00     0.284 C 
BRANCH   4   5
HETATM    5  N11 UNL     1     -32.612   5.721   3.581  1.00 20.00     0.093 N 
HETATM    6  H27 UNL     1     -31.816   5.943   4.172  1.00 20.00     0.316 HD
BRANCH   5   7
HETATM    7  C6  UNL     1     -33.713   5.313   4.424  1.00 20.00     0.154 C 
HETATM    8  C4  UNL     1     -34.107   6.430   5.397  1.00 20.00     0.041 C 
HETATM    9  C2  UNL     1     -34.790   5.721   6.563  1.00 20.00     0.003 C 
HETATM   10  C3  UNL     1     -34.263   4.286   6.556  1.00 20.00     0.003 C 
HETATM   11  C5  UNL     1     -33.287   4.198   5.386  1.00 20.00     0.041 C 
HETATM   12  C7  UNL     1     -34.892   4.884   3.544  1.00 20.00     0.049 C 
ENDBRANCH   5   7
ENDBRANCH   4   5
ENDBRANCH   2   4
TORSDOF 3
