REMARK  4 active torsions:
REMARK  status: ('A' for Active; 'I' for Inactive)
REMARK    1  A    between atoms: C6_6  and  N10_10 
REMARK    2  A    between atoms: C7_7  and  C8_8 
REMARK    3  A    between atoms: C7_7  and  C9_9 
REMARK    4  A    between atoms: C8_8  and  N10_10 
ROOT
HETATM    1  C1  UNL     1     -32.610  10.033   1.735  1.00 20.00     0.013 C 
HETATM    2  C2  UNL     1     -32.578   8.839   1.857  1.00 20.00    -0.087 C 
HETATM    3  C6  UNL     1     -32.538   7.382   2.001  1.00 20.00     0.364 C 
ENDROOT
BRANCH   3   4
HETATM    4  N10 UNL     1     -32.473   7.001   3.421  1.00 20.00     0.095 N 
HETATM    5  C5  UNL     1     -31.259   7.573   4.026  1.00 20.00     0.310 C 
BRANCH   4   6
HETATM    6  C8  UNL     1     -33.653   7.411   4.129  1.00 20.00     0.273 C 
BRANCH   6   7
HETATM    7  C7  UNL     1     -33.879   6.604   5.405  1.00 20.00     0.034 C 
BRANCH   7   8
HETATM    8  C9  UNL     1     -34.021   5.083   5.199  1.00 20.00    -0.021 C 
HETATM    9  C3  UNL     1     -35.217   4.796   4.286  1.00 20.00     0.009 C 
HETATM   10  C4  UNL     1     -34.187   4.327   6.518  1.00 20.00     0.009 C 
ENDBRANCH   7   8
ENDBRANCH   6   7
ENDBRANCH   4   6
ENDBRANCH   3   4
TORSDOF 4
