REMARK  0 active torsions:
REMARK  status: ('A' for Active; 'I' for Inactive)
ROOT
HETATM    1  C1  UNL     1     -33.700   6.167   4.457  1.00 20.00     0.225 C 
HETATM    2  C2  UNL     1     -35.476   4.455   6.049  1.00 20.00     0.021 C 
HETATM    3  C3  UNL     1     -34.832   3.899   4.787  1.00 20.00     0.020 C 
HETATM    4  C4  UNL     1     -34.517   5.419   6.716  1.00 20.00     0.122 C 
HETATM    5  C5  UNL     1     -34.468   5.016   3.790  1.00 20.00     0.034 C 
HETATM    6  C6  UNL     1     -35.737   5.622   3.161  1.00 20.00     0.025 C 
HETATM    7  C7  UNL     1     -33.605   4.412   2.668  1.00 20.00     0.025 C 
HETATM    8  N8  UNL     1     -33.936   6.380   5.799  1.00 20.00    -0.360 N 
HETATM    9  O9  UNL     1     -32.984   6.929   3.803  1.00 20.00    -0.273 OA
HETATM   10  H22 UNL     1     -33.681   7.287   6.178  1.00 20.00     0.162 HD
ENDROOT
TORSDOF 0
