REMARK  1 active torsions:
REMARK  status: ('A' for Active; 'I' for Inactive)
REMARK    1  A    between atoms: C7_7  and  C8_8 
ROOT
HETATM    1  C1  UNL     1     -31.894   8.298   1.281  1.00 20.00     0.012 C 
HETATM    2  C2  UNL     1     -32.063   7.957   2.420  1.00 20.00    -0.117 C 
HETATM    3  C8  UNL     1     -32.269   7.540   3.814  1.00 20.00     0.105 C 
ENDROOT
BRANCH   3   4
HETATM    4  C7  UNL     1     -33.610   6.859   3.996  1.00 20.00     0.066 C 
HETATM    5  C3  UNL     1     -33.845   6.384   5.416  1.00 20.00     0.132 C 
HETATM    6  C4  UNL     1     -34.416   4.988   5.457  1.00 20.00     0.079 C 
HETATM    7  O9  UNL     1     -33.602   7.046   6.417  1.00 20.00    -0.298 OA
HETATM    8  C5  UNL     1     -34.763   4.745   3.994  1.00 20.00     0.008 C 
HETATM    9  C6  UNL     1     -33.724   5.546   3.219  1.00 20.00     0.013 C 
ENDBRANCH   3   4
TORSDOF 1
