REMARK  3 active torsions:
REMARK  status: ('A' for Active; 'I' for Inactive)
REMARK    1  A    between atoms: C5_5  and  C8_8 
REMARK    2  A    between atoms: C8_8  and  C9_9 
REMARK    3  A    between atoms: C9_9  and  C10_10 
ROOT
HETATM    1  C1  UNL     1     -34.228   6.466   5.587  1.00 20.00     0.131 C 
HETATM    2  C2  UNL     1     -34.363   5.023   6.005  1.00 20.00     0.079 C 
HETATM    3  C3  UNL     1     -34.848   4.365   4.720  1.00 20.00     0.008 C 
HETATM    4  C4  UNL     1     -34.214   5.192   3.608  1.00 20.00     0.013 C 
HETATM    5  C5  UNL     1     -34.361   6.637   4.088  1.00 20.00     0.055 C 
HETATM    6  O11 UNL     1     -34.033   7.383   6.374  1.00 20.00    -0.298 OA
ENDROOT
BRANCH   5   7
HETATM    7  C8  UNL     1     -33.315   7.564   3.503  1.00 20.00     0.012 C 
BRANCH   7   8
HETATM    8  C9  UNL     1     -33.461   7.681   1.984  1.00 20.00     0.005 C 
BRANCH   8   9
HETATM    9  C10 UNL     1     -32.466   8.668   1.346  1.00 20.00    -0.023 C 
HETATM   10  C6  UNL     1     -32.676  10.067   1.931  1.00 20.00     0.009 C 
HETATM   11  C7  UNL     1     -32.591   8.722  -0.177  1.00 20.00     0.009 C 
ENDBRANCH   8   9
ENDBRANCH   7   8
ENDBRANCH   5   7
TORSDOF 3
