REMARK  3 active torsions:
REMARK  status: ('A' for Active; 'I' for Inactive)
REMARK    1  A    between atoms: C5_5  and  C8_8 
REMARK    2  A    between atoms: C8_8  and  C9_9 
REMARK    3  A    between atoms: C9_9  and  C10_10 
ROOT
HETATM    1  C1  UNL     1     -34.150   5.501   5.492  1.00 20.00     0.131 C 
HETATM    2  C2  UNL     1     -35.364   4.608   5.540  1.00 20.00     0.079 C 
HETATM    3  C3  UNL     1     -35.360   3.992   4.147  1.00 20.00     0.008 C 
HETATM    4  C4  UNL     1     -34.754   5.070   3.258  1.00 20.00     0.013 C 
HETATM    5  C5  UNL     1     -33.598   5.631   4.087  1.00 20.00     0.055 C 
HETATM    6  O11 UNL     1     -33.676   6.053   6.476  1.00 20.00    -0.298 OA
ENDROOT
BRANCH   5   7
HETATM    7  C8  UNL     1     -33.244   7.058   3.720  1.00 20.00     0.012 C 
BRANCH   7   8
HETATM    8  C9  UNL     1     -32.655   7.141   2.309  1.00 20.00     0.005 C 
BRANCH   8   9
HETATM    9  C10 UNL     1     -32.344   8.580   1.858  1.00 20.00    -0.023 C 
HETATM   10  C6  UNL     1     -33.627   9.415   1.865  1.00 20.00     0.009 C 
HETATM   11  C7  UNL     1     -31.702   8.632   0.471  1.00 20.00     0.009 C 
ENDBRANCH   8   9
ENDBRANCH   7   8
ENDBRANCH   5   7
TORSDOF 3
