REMARK  3 active torsions:
REMARK  status: ('A' for Active; 'I' for Inactive)
REMARK    1  A    between atoms: C3_3  and  C4_4 
REMARK    2  A    between atoms: C3_3  and  C5_5 
REMARK    3  A    between atoms: C4_4  and  N6_6 
ROOT
HETATM    1  C3  UNL     1     -33.568   5.457   4.069  1.00 20.00     0.152 C 
ENDROOT
BRANCH   1   2
HETATM    2  C4  UNL     1     -35.008   5.397   4.602  1.00 20.00     0.224 C 
HETATM    3  C1  UNL     1     -35.993   5.881   3.539  1.00 20.00     0.043 C 
BRANCH   2   4
HETATM    4  N6  UNL     1     -35.375   4.038   4.997  1.00 20.00     0.083 N 
HETATM    5  C2  UNL     1     -34.793   3.701   6.287  1.00 20.00     0.307 C 
HETATM    6  H19 UNL     1     -36.389   3.973   5.055  1.00 20.00     0.315 HD
ENDBRANCH   2   4
ENDBRANCH   1   2
BRANCH   1   7
HETATM    7  C5  UNL     1     -33.094   6.857   3.726  1.00 20.00     0.389 C 
HETATM    8  F7  UNL     1     -33.813   7.402   2.723  1.00 20.00    -0.171 F 
HETATM    9  F8  UNL     1     -31.801   6.830   3.329  1.00 20.00    -0.171 F 
HETATM   10  F9  UNL     1     -33.175   7.677   4.794  1.00 20.00    -0.171 F 
ENDBRANCH   1   7
TORSDOF 3
