REMARK  3 active torsions:
REMARK  status: ('A' for Active; 'I' for Inactive)
REMARK    1  A    between atoms: C6_6  and  C9_9 
REMARK    2  A    between atoms: C7_7  and  C10_10 
REMARK    3  A    between atoms: C10_10  and  N11_11 
ROOT
HETATM    1  C1  UNL     1     -34.883   5.491   3.717  1.00 20.00     0.032 C 
HETATM    2  C2  UNL     1     -33.736   7.131   5.258  1.00 20.00     0.032 C 
HETATM    3  C3  UNL     1     -33.596   5.357   2.914  1.00 20.00     0.235 C 
HETATM    4  C4  UNL     1     -32.455   6.988   4.446  1.00 20.00     0.235 C 
HETATM    5  C6  UNL     1     -34.644   5.896   5.178  1.00 20.00    -0.012 C 
HETATM    6  N11 UNL     1     -32.761   6.609   3.018  1.00 20.00    -0.069 N 
HETATM    7  H32 UNL     1     -31.823   6.360   2.585  1.00 20.00     0.280 HD
ENDROOT
BRANCH   6   8
HETATM    8  C10 UNL     1     -33.278   7.752   2.186  1.00 20.00     0.268 C 
BRANCH   8   9
HETATM    9  C7  UNL     1     -32.171   8.763   1.984  1.00 20.00     0.171 A 
HETATM   10  C5  UNL     1     -32.206   9.738   0.841  1.00 20.00     0.201 A 
HETATM   11  O12 UNL     1     -31.387   8.559   0.804  1.00 20.00    -0.380 OA
ENDBRANCH   8   9
ENDBRANCH   6   8
BRANCH   5  12
HETATM   12  C9  UNL     1     -34.086   4.732   6.002  1.00 20.00     0.000 C 
HETATM   13  C8  UNL     1     -34.995   3.547   5.969  1.00 20.00     0.005 C 
ENDBRANCH   5  12
TORSDOF 3
