REMARK  1 active torsions:
REMARK  status: ('A' for Active; 'I' for Inactive)
REMARK    1  A    between atoms: C7_7  and  N9_9 
ROOT
HETATM    1  C1  UNL     1     -32.087   8.278   2.146  1.00 20.00     0.089 C 
HETATM    2  C7  UNL     1     -31.802   7.449   3.315  1.00 20.00     0.395 C 
HETATM    3  N8  UNL     1     -32.310   8.938   1.217  1.00 20.00    -0.195 NA
ENDROOT
BRANCH   2   4
HETATM    4  N9  UNL     1     -33.045   6.998   3.952  1.00 20.00     0.102 N 
HETATM    5  C3  UNL     1     -33.594   5.852   3.214  1.00 20.00     0.274 C 
HETATM    6  C2  UNL     1     -35.078   5.616   3.505  1.00 20.00     0.040 C 
HETATM    7  C5  UNL     1     -35.390   4.584   4.583  1.00 20.00     0.075 C 
HETATM    8  S10 UNL     1     -34.482   4.668   6.153  1.00 20.00    -0.167 SA
HETATM    9  C6  UNL     1     -34.036   6.425   6.211  1.00 20.00     0.104 C 
HETATM   10  C4  UNL     1     -32.793   6.729   5.375  1.00 20.00     0.283 C 
ENDBRANCH   2   4
TORSDOF 1
