REMARK  3 active torsions:
REMARK  status: ('A' for Active; 'I' for Inactive)
REMARK    1  A    between atoms: C4_4  and  N11_11 
REMARK    2  A    between atoms: C8_8  and  C9_9 
REMARK    3  A    between atoms: C8_8  and  N11_11 
ROOT
HETATM    1  C1  UNL     1     -33.183   6.866   5.149  1.00 20.00     0.067 C 
HETATM    2  C2  UNL     1     -34.495   6.469   5.816  1.00 20.00     0.274 C 
HETATM    3  C3  UNL     1     -34.587   5.521   3.703  1.00 20.00     0.307 C 
HETATM    4  C4  UNL     1     -33.235   6.225   3.764  1.00 20.00     0.250 C 
HETATM    5  C7  UNL     1     -34.373   4.055   5.624  1.00 20.00     0.310 C 
HETATM    6  N10 UNL     1     -34.977   5.280   5.100  1.00 20.00     0.086 N 
ENDROOT
BRANCH   4   7
HETATM    7  N11 UNL     1     -33.076   7.179   2.701  1.00 20.00     0.090 N 
HETATM    8  H31 UNL     1     -33.440   6.782   1.835  1.00 20.00     0.316 HD
BRANCH   7   9
HETATM    9  C8  UNL     1     -31.673   7.524   2.515  1.00 20.00     0.274 C 
BRANCH   9  10
HETATM   10  C9  UNL     1     -31.487   8.583   1.421  1.00 20.00     0.005 C 
HETATM   11  C5  UNL     1     -32.223   9.885   1.741  1.00 20.00     0.011 C 
HETATM   12  C6  UNL     1     -30.010   8.857   1.131  1.00 20.00     0.011 C 
ENDBRANCH   9  10
ENDBRANCH   7   9
ENDBRANCH   4   7
TORSDOF 3
