REMARK  1 active torsions:
REMARK  status: ('A' for Active; 'I' for Inactive)
REMARK    1  A    between atoms: C5_5  and  N7_7 
ROOT
HETATM    1  C1  UNL     1     -32.066   7.281   2.391  1.00 20.00     0.158 C 
HETATM    2  N7  UNL     1     -32.325   6.548   3.273  1.00 20.00    -0.268 NA
HETATM    3  S9  UNL     1     -31.689   8.263   1.196  1.00 20.00    -0.055 SA
ENDROOT
BRANCH   2   4
HETATM    4  C5  UNL     1     -33.692   6.657   3.784  1.00 20.00     0.139 C 
HETATM    5  C2  UNL     1     -34.608   5.685   3.044  1.00 20.00     0.059 C 
HETATM    6  C3  UNL     1     -34.981   4.640   4.085  1.00 20.00     0.274 C 
HETATM    7  N8  UNL     1     -34.955   5.416   5.325  1.00 20.00     0.086 N 
HETATM    8  C4  UNL     1     -33.734   6.220   5.246  1.00 20.00     0.299 C 
HETATM    9  C6  UNL     1     -34.989   4.571   6.510  1.00 20.00     0.310 C 
ENDBRANCH   2   4
TORSDOF 1
