REMARK  2 active torsions:
REMARK  status: ('A' for Active; 'I' for Inactive)
REMARK    1  A    between atoms: C6_6  and  C9_9 
REMARK    2  A    between atoms: C7_7  and  N10_10 
ROOT
HETATM    1  C1  UNL     1     -34.538   3.098   5.663  1.00 20.00     0.158 C 
HETATM    2  N10 UNL     1     -33.860   4.045   5.794  1.00 20.00    -0.270 NA
HETATM    3  S11 UNL     1     -35.430   1.790   5.485  1.00 20.00    -0.055 SA
ENDROOT
BRANCH   2   4
HETATM    4  C7  UNL     1     -34.590   5.320   5.840  1.00 20.00     0.109 C 
HETATM    5  C4  UNL     1     -35.410   5.492   4.562  1.00 20.00     0.028 C 
HETATM    6  C2  UNL     1     -34.552   5.809   3.337  1.00 20.00     0.007 C 
HETATM    7  C6  UNL     1     -33.627   7.007   3.584  1.00 20.00    -0.015 C 
HETATM    8  C3  UNL     1     -32.760   6.781   4.828  1.00 20.00     0.007 C 
HETATM    9  C5  UNL     1     -33.608   6.470   6.062  1.00 20.00     0.028 C 
BRANCH   7  10
HETATM   10  C9  UNL     1     -32.753   7.275   2.359  1.00 20.00     0.000 C 
HETATM   11  C8  UNL     1     -31.871   8.462   2.561  1.00 20.00     0.005 C 
ENDBRANCH   7  10
ENDBRANCH   2   4
TORSDOF 2
