REMARK  2 active torsions:
REMARK  status: ('A' for Active; 'I' for Inactive)
REMARK    1  A    between atoms: C6_6  and  C7_7 
REMARK    2  A    between atoms: C7_7  and  N8_8 
ROOT
HETATM    1  C1  UNL     1     -32.419   7.597   2.132  1.00 20.00     0.157 C 
HETATM    2  N8  UNL     1     -32.225   6.582   2.696  1.00 20.00    -0.273 NA
HETATM    3  S10 UNL     1     -32.657   8.974   1.369  1.00 20.00    -0.055 SA
ENDROOT
BRANCH   2   4
HETATM    4  C7  UNL     1     -33.422   5.803   2.997  1.00 20.00     0.182 C 
BRANCH   4   5
HETATM    5  C6  UNL     1     -33.519   5.617   4.505  1.00 20.00     0.141 C 
HETATM    6  C4  UNL     1     -34.423   4.433   4.857  1.00 20.00     0.034 C 
HETATM    7  C2  UNL     1     -34.605   4.325   6.368  1.00 20.00     0.005 C 
HETATM    8  C3  UNL     1     -35.041   5.664   6.952  1.00 20.00     0.026 C 
HETATM    9  C5  UNL     1     -34.115   6.781   6.488  1.00 20.00     0.168 C 
HETATM   10  O9  UNL     1     -34.049   6.825   5.062  1.00 20.00    -0.384 OA
ENDBRANCH   4   5
ENDBRANCH   2   4
TORSDOF 2
