REMARK  1 active torsions:
REMARK  status: ('A' for Active; 'I' for Inactive)
REMARK    1  A    between atoms: C1_1  and  O10_10 
ROOT
HETATM    1  C1  UNL     1     -35.327   5.104   4.503  1.00 20.00     0.099 C 
HETATM    2  C2  UNL     1     -35.057   5.868   3.422  1.00 20.00     0.026 C 
HETATM    3  C3  UNL     1     -34.387   5.708   5.495  1.00 20.00     0.183 C 
HETATM    4  C4  UNL     1     -34.189   5.289   2.334  1.00 20.00     0.018 C 
HETATM    5  C5  UNL     1     -34.602   7.249   3.822  1.00 20.00     0.030 C 
HETATM    6  C6  UNL     1     -32.779   5.098   2.955  1.00 20.00     0.002 C 
HETATM    7  C7  UNL     1     -32.373   6.162   4.027  1.00 20.00     0.013 C 
HETATM    8  C8  UNL     1     -33.558   6.783   4.816  1.00 20.00     0.063 C 
HETATM    9  O9  UNL     1     -34.244   5.310   6.639  1.00 20.00    -0.290 OA
ENDROOT
BRANCH   1  10
HETATM   10  O10 UNL     1     -35.563   3.761   4.547  1.00 20.00    -0.360 OA
HETATM   11  H20 UNL     1     -35.729   3.474   5.455  1.00 20.00     0.217 HD
ENDBRANCH   1  10
TORSDOF 1
