REMARK  1 active torsions:
REMARK  status: ('A' for Active; 'I' for Inactive)
REMARK    1  A    between atoms: C3_3  and  O8_8 
ROOT
HETATM    1  C1  UNL     1     -33.797   6.666   4.361  1.00 20.00     0.040 C 
HETATM    2  C2  UNL     1     -33.857   6.295   5.831  1.00 20.00     0.172 C 
HETATM    3  C3  UNL     1     -35.134   4.758   4.628  1.00 20.00     0.264 C 
HETATM    4  C4  UNL     1     -34.090   5.342   3.667  1.00 20.00     0.004 C 
HETATM    5  C5  UNL     1     -32.818   4.478   3.582  1.00 20.00     0.020 C 
HETATM    6  C6  UNL     1     -34.653   5.536   2.258  1.00 20.00     0.020 C 
HETATM    7  O7  UNL     1     -34.731   5.163   5.947  1.00 20.00    -0.361 OA
ENDROOT
BRANCH   3   8
HETATM    8  O8  UNL     1     -35.229   3.349   4.508  1.00 20.00    -0.371 OA
HETATM    9  H20 UNL     1     -35.904   3.061   5.143  1.00 20.00     0.212 HD
ENDBRANCH   3   8
TORSDOF 1
