REMARK  3 active torsions:
REMARK  status: ('A' for Active; 'I' for Inactive)
REMARK    1  A    between atoms: C3_3  and  C4_4 
REMARK    2  A    between atoms: C4_4  and  C5_5 
REMARK    3  A    between atoms: C4_4  and  O6_6 
ROOT
HETATM    1  C4  UNL     1     -35.399   4.985   4.605  1.00 20.00     0.229 C 
ENDROOT
BRANCH   1   2
HETATM    2  C3  UNL     1     -35.194   5.446   6.007  1.00 20.00     0.023 A 
HETATM    3  C1  UNL     1     -33.886   5.196   6.703  1.00 20.00     0.008 A 
HETATM    4  C2  UNL     1     -34.267   6.593   6.298  1.00 20.00     0.008 A 
ENDBRANCH   1   2
BRANCH   1   5
HETATM    5  C5  UNL     1     -34.381   5.576   3.647  1.00 20.00     0.413 C 
HETATM    6  F7  UNL     1     -34.484   6.923   3.597  1.00 20.00    -0.168 F 
HETATM    7  F8  UNL     1     -33.121   5.282   4.038  1.00 20.00    -0.168 F 
HETATM    8  F9  UNL     1     -34.547   5.104   2.393  1.00 20.00    -0.168 F 
ENDBRANCH   1   5
BRANCH   1   9
HETATM    9  O6  UNL     1     -35.287   3.562   4.540  1.00 20.00    -0.386 OA
HETATM   10  H16 UNL     1     -35.974   3.207   5.123  1.00 20.00     0.210 HD
ENDBRANCH   1   9
TORSDOF 3
