REMARK  0 active torsions:
REMARK  status: ('A' for Active; 'I' for Inactive)
ROOT
HETATM    1  C1  UNL     1     -32.961   5.683   3.478  1.00 20.00     0.137 C 
HETATM    2  C2  UNL     1     -34.252   4.493   5.228  1.00 20.00     0.108 C 
HETATM    3  C3  UNL     1     -34.212   5.624   4.226  1.00 20.00     0.326 C 
HETATM    4  N4  UNL     1     -31.966   5.732   2.882  1.00 20.00    -0.191 NA
HETATM    5  F5  UNL     1     -34.397   6.803   4.873  1.00 20.00    -0.190 F 
HETATM    6  F6  UNL     1     -35.244   5.490   3.355  1.00 20.00    -0.190 F 
ENDROOT
TORSDOF 0
