REMARK  0 active torsions:
REMARK  status: ('A' for Active; 'I' for Inactive)
ROOT
HETATM    1  C1  UNL     1     -32.657   7.033   2.744  1.00 20.00     0.088 C 
HETATM    2  C2  UNL     1     -34.243   5.791   4.065  1.00 20.00    -0.060 C 
HETATM    3  C3  UNL     1     -33.686   6.066   2.879  1.00 20.00     0.097 C 
HETATM    4  C4  UNL     1     -35.333   4.779   4.265  1.00 20.00     0.046 C 
HETATM    5  C5  UNL     1     -33.780   6.393   5.357  1.00 20.00     0.108 C 
HETATM    6  C6  UNL     1     -34.954   3.987   5.506  1.00 20.00     0.078 C 
HETATM    7  N7  UNL     1     -31.816   7.823   2.628  1.00 20.00    -0.192 NA
HETATM    8  S8  UNL     1     -34.250   5.203   6.652  1.00 20.00    -0.165 SA
ENDROOT
TORSDOF 0
