REMARK  2 active torsions:
REMARK  status: ('A' for Active; 'I' for Inactive)
REMARK    1  A    between atoms: C3_3  and  C8_8 
REMARK    2  A    between atoms: C7_7  and  C8_8 
ROOT
HETATM    1  C1  UNL     1     -34.345   5.240   5.915  1.00 20.00     0.088 C 
HETATM    2  C2  UNL     1     -33.537   6.203   5.251  1.00 20.00     0.096 C 
HETATM    3  C3  UNL     1     -33.579   6.451   3.926  1.00 20.00    -0.070 C 
HETATM    4  C4  UNL     1     -34.540   5.666   3.066  1.00 20.00     0.044 C 
HETATM    5  N9  UNL     1     -35.001   4.456   6.464  1.00 20.00    -0.192 NA
ENDROOT
BRANCH   3   6
HETATM    6  C8  UNL     1     -32.705   7.490   3.223  1.00 20.00     0.010 C 
HETATM    7  C6  UNL     1     -31.396   7.722   3.988  1.00 20.00     0.015 C 
BRANCH   6   8
HETATM    8  C7  UNL     1     -32.384   7.144   1.753  1.00 20.00     0.004 C 
HETATM    9  C5  UNL     1     -31.496   8.176   1.071  1.00 20.00     0.006 C 
ENDBRANCH   6   8
ENDBRANCH   3   6
TORSDOF 2
