REMARK  2 active torsions:
REMARK  status: ('A' for Active; 'I' for Inactive)
REMARK    1  A    between atoms: C3_3  and  C8_8 
REMARK    2  A    between atoms: C7_7  and  C8_8 
ROOT
HETATM    1  C1  UNL     1     -34.331   4.833   4.371  1.00 20.00     0.053 A 
HETATM    2  C2  UNL     1     -34.600   5.721   6.602  1.00 20.00     0.087 A 
HETATM    3  C3  UNL     1     -33.413   5.843   4.081  1.00 20.00    -0.007 A 
HETATM    4  C4  UNL     1     -34.924   4.772   5.632  1.00 20.00     0.120 A 
HETATM    5  C5  UNL     1     -33.682   6.730   6.312  1.00 20.00     0.158 A 
HETATM    6  C6  UNL     1     -33.089   6.791   5.051  1.00 20.00     0.161 A 
HETATM    7  F10 UNL     1     -35.806   3.803   5.912  1.00 20.00    -0.206 F 
HETATM    8  F11 UNL     1     -33.371   7.641   7.243  1.00 20.00    -0.203 F 
HETATM    9  F12 UNL     1     -32.208   7.764   4.780  1.00 20.00    -0.202 F 
ENDROOT
BRANCH   3  10
HETATM   10  C8  UNL     1     -32.780   5.905   2.731  1.00 20.00     0.111 C 
BRANCH  10  11
HETATM   11  C7  UNL     1     -33.031   7.203   1.994  1.00 20.00     0.235 C 
HETATM   12  O9  UNL     1     -32.156   7.997   1.667  1.00 20.00    -0.307 OA
ENDBRANCH  10  11
ENDBRANCH   3  10
TORSDOF 2
