REMARK  4 active torsions:
REMARK  status: ('A' for Active; 'I' for Inactive)
REMARK    1  A    between atoms: C1_1  and  C9_9 
REMARK    2  A    between atoms: C6_6  and  C7_7 
REMARK    3  A    between atoms: C6_6  and  C8_8 
REMARK    4  A    between atoms: C7_7  and  C9_9 
ROOT
HETATM    1  C7  UNL     1     -33.693   5.544   3.997  1.00 20.00     0.016 C 
ENDROOT
BRANCH   1   2
HETATM    2  C6  UNL     1     -33.801   7.001   3.520  1.00 20.00     0.005 C 
BRANCH   2   3
HETATM    3  C8  UNL     1     -32.498   7.533   2.890  1.00 20.00    -0.023 C 
HETATM    4  C2  UNL     1     -31.364   7.472   3.916  1.00 20.00     0.009 C 
HETATM    5  C3  UNL     1     -32.643   8.962   2.366  1.00 20.00     0.009 C 
ENDBRANCH   2   3
ENDBRANCH   1   2
BRANCH   1   6
HETATM    6  C9  UNL     1     -35.000   4.955   4.581  1.00 20.00     0.006 C 
HETATM    7  C4  UNL     1     -34.898   3.421   4.589  1.00 20.00     0.022 C 
HETATM    8  C5  UNL     1     -36.233   5.372   3.770  1.00 20.00     0.022 C 
BRANCH   6   9
HETATM    9  C1  UNL     1     -35.136   5.392   6.037  1.00 20.00     0.239 C 
HETATM   10  O10 UNL     1     -34.349   6.133   6.618  1.00 20.00    -0.306 OA
ENDBRANCH   6   9
ENDBRANCH   1   6
TORSDOF 4
