REMARK  4 active torsions:
REMARK  status: ('A' for Active; 'I' for Inactive)
REMARK    1  A    between atoms: C4_4  and  C5_5 
REMARK    2  A    between atoms: C4_4  and  O8_8 
REMARK    3  A    between atoms: C5_5  and  S9_9 
REMARK    4  A    between atoms: C6_6  and  S9_9 
ROOT
HETATM    1  C1  UNL     1     -34.072   6.201   5.582  1.00 20.00     0.074 C 
HETATM    2  C2  UNL     1     -35.046   5.272   3.516  1.00 20.00     0.037 C 
HETATM    3  C6  UNL     1     -34.036   6.245   4.114  1.00 20.00     0.150 C 
HETATM    4  N7  UNL     1     -34.098   6.171   6.742  1.00 20.00    -0.196 NA
ENDROOT
BRANCH   3   5
HETATM    5  S9  UNL     1     -32.386   5.853   3.491  1.00 20.00    -0.148 SA
BRANCH   5   6
HETATM    6  C5  UNL     1     -31.615   7.479   3.756  1.00 20.00     0.101 C 
BRANCH   6   7
HETATM    7  C4  UNL     1     -31.980   8.454   2.648  1.00 20.00     0.177 C 
BRANCH   7   8
HETATM    8  O8  UNL     1     -31.535   7.956   1.394  1.00 20.00    -0.395 OA
HETATM    9  C3  UNL     1     -31.930   8.806   0.325  1.00 20.00     0.201 C 
ENDBRANCH   7   8
ENDBRANCH   6   7
ENDBRANCH   5   6
ENDBRANCH   3   5
TORSDOF 4
