REMARK  2 active torsions:
REMARK  status: ('A' for Active; 'I' for Inactive)
REMARK    1  A    between atoms: C6_6  and  C9_9 
REMARK    2  A    between atoms: C10_10  and  N12_12 
ROOT
HETATM    1  C1  UNL     1     -34.775   4.205   4.959  1.00 20.00     0.092 C 
HETATM    2  C8  UNL     1     -34.955   5.831   6.813  1.00 20.00     0.056 C 
HETATM    3  C10 UNL     1     -34.218   5.427   5.547  1.00 20.00     0.289 C 
HETATM    4  N11 UNL     1     -35.213   3.238   4.492  1.00 20.00    -0.195 NA
ENDROOT
BRANCH   3   5
HETATM    5  N12 UNL     1     -34.337   6.551   4.552  1.00 20.00    -0.055 N 
HETATM    6  C4  UNL     1     -34.167   6.112   3.119  1.00 20.00     0.237 C 
HETATM    7  C2  UNL     1     -32.701   5.850   2.799  1.00 20.00     0.032 C 
HETATM    8  C6  UNL     1     -31.786   7.032   3.145  1.00 20.00    -0.012 C 
HETATM    9  C3  UNL     1     -32.027   7.503   4.585  1.00 20.00     0.032 C 
HETATM   10  C5  UNL     1     -33.498   7.756   4.895  1.00 20.00     0.237 C 
HETATM   11  H31 UNL     1     -35.346   6.878   4.630  1.00 20.00     0.281 HD
BRANCH   8  12
HETATM   12  C9  UNL     1     -31.944   8.180   2.143  1.00 20.00     0.000 C 
HETATM   13  C7  UNL     1     -31.656   7.736   0.746  1.00 20.00     0.005 C 
ENDBRANCH   8  12
ENDBRANCH   3   5
TORSDOF 2
