REMARK  4 active torsions:
REMARK  status: ('A' for Active; 'I' for Inactive)
REMARK    1  A    between atoms: C4_4  and  N11_11 
REMARK    2  A    between atoms: C7_7  and  C9_9 
REMARK    3  A    between atoms: C8_8  and  N11_11 
REMARK    4  A    between atoms: C9_9  and  N11_11 
ROOT
HETATM    1  C1  UNL     1     -32.655   7.575   5.231  1.00 20.00     0.095 C 
HETATM    2  C9  UNL     1     -33.362   6.934   4.113  1.00 20.00     0.328 C 
HETATM    3  N10 UNL     1     -32.100   8.082   6.115  1.00 20.00    -0.195 NA
ENDROOT
BRANCH   2   4
HETATM    4  C7  UNL     1     -32.628   7.113   2.778  1.00 20.00     0.046 C 
HETATM    5  C5  UNL     1     -32.424   8.564   2.354  1.00 20.00     0.008 C 
ENDBRANCH   2   4
BRANCH   2   6
HETATM    6  N11 UNL     1     -33.603   5.541   4.398  1.00 20.00     0.110 N 
BRANCH   6   7
HETATM    7  C4  UNL     1     -34.423   5.379   5.607  1.00 20.00     0.224 A 
HETATM    8  C2  UNL     1     -34.735   4.007   6.136  1.00 20.00     0.038 A 
HETATM    9  C3  UNL     1     -33.803   4.907   6.893  1.00 20.00     0.038 A 
ENDBRANCH   6   7
BRANCH   6  10
HETATM   10  C8  UNL     1     -34.257   4.872   3.264  1.00 20.00     0.270 C 
HETATM   11  C6  UNL     1     -35.606   5.451   3.003  1.00 20.00     0.037 C 
ENDBRANCH   6  10
ENDBRANCH   2   6
TORSDOF 4
