REMARK  3 active torsions:
REMARK  status: ('A' for Active; 'I' for Inactive)
REMARK    1  A    between atoms: C5_5  and  C9_9 
REMARK    2  A    between atoms: C6_6  and  C10_10 
REMARK    3  A    between atoms: C9_9  and  C11_11 
ROOT
HETATM    1  C1  UNL     1     -33.730   6.650   5.649  1.00 20.00     0.131 C 
HETATM    2  C2  UNL     1     -34.731   5.867   6.471  1.00 20.00     0.079 C 
HETATM    3  C3  UNL     1     -34.710   4.395   6.085  1.00 20.00     0.012 C 
HETATM    4  C4  UNL     1     -33.800   4.964   3.805  1.00 20.00     0.016 C 
HETATM    5  C5  UNL     1     -33.806   6.461   4.137  1.00 20.00     0.055 C 
HETATM    6  C6  UNL     1     -34.863   4.163   4.575  1.00 20.00    -0.014 C 
HETATM    7  O12 UNL     1     -32.970   7.457   6.182  1.00 20.00    -0.298 OA
ENDROOT
BRANCH   5   8
HETATM    8  C9  UNL     1     -32.658   7.171   3.425  1.00 20.00     0.012 C 
BRANCH   8   9
HETATM    9  C11 UNL     1     -32.718   6.946   1.918  1.00 20.00    -0.004 C 
HETATM   10  C8  UNL     1     -31.591   7.675   1.205  1.00 20.00     0.005 C 
ENDBRANCH   8   9
ENDBRANCH   5   8
BRANCH   6  11
HETATM   11  C10 UNL     1     -36.280   4.471   4.088  1.00 20.00     0.000 C 
HETATM   12  C7  UNL     1     -37.298   3.648   4.805  1.00 20.00     0.005 C 
ENDBRANCH   6  11
TORSDOF 3
