REMARK  4 active torsions:
REMARK  status: ('A' for Active; 'I' for Inactive)
REMARK    1  A    between atoms: C4_4  and  C5_5 
REMARK    2  A    between atoms: C4_4  and  C6_6 
REMARK    3  A    between atoms: C5_5  and  O8_8 
REMARK    4  A    between atoms: C6_6  and  C7_7 
ROOT
HETATM    1  C1  UNL     1     -34.425   4.833   3.182  1.00 20.00     0.011 C 
HETATM    2  C6  UNL     1     -33.707   5.645   4.269  1.00 20.00     0.001 C 
ENDROOT
BRANCH   2   3
HETATM    3  C4  UNL     1     -33.563   7.106   3.789  1.00 20.00     0.032 C 
BRANCH   3   4
HETATM    4  C5  UNL     1     -32.686   7.275   2.554  1.00 20.00     0.167 C 
BRANCH   4   5
HETATM    5  O8  UNL     1     -32.658   8.652   2.200  1.00 20.00    -0.396 OA
HETATM    6  C3  UNL     1     -31.833   8.882   1.066  1.00 20.00     0.201 C 
ENDBRANCH   4   5
ENDBRANCH   3   4
ENDBRANCH   2   3
BRANCH   2   7
HETATM    7  C7  UNL     1     -34.359   5.515   5.669  1.00 20.00     0.082 C 
HETATM    8  C2  UNL     1     -34.405   4.078   6.181  1.00 20.00     0.027 C 
HETATM    9 CL9  UNL     1     -33.549   6.538   6.897  1.00 20.00    -0.125 Cl
ENDBRANCH   2   7
TORSDOF 4
