REMARK  3 active torsions:
REMARK  status: ('A' for Active; 'I' for Inactive)
REMARK    1  A    between atoms: C2_2  and  C9_9 
REMARK    2  A    between atoms: C6_6  and  C9_9 
REMARK    3  A    between atoms: C7_7  and  O10_10 
ROOT
HETATM    1  C3  UNL     1     -34.773   5.875   6.434  1.00 20.00     0.003 C 
HETATM    2  C4  UNL     1     -33.556   6.668   5.957  1.00 20.00     0.007 C 
HETATM    3  C5  UNL     1     -35.304   5.126   5.211  1.00 20.00     0.032 C 
HETATM    4  C6  UNL     1     -33.695   6.716   4.438  1.00 20.00     0.018 C 
HETATM    5  C7  UNL     1     -34.260   5.334   4.120  1.00 20.00     0.122 C 
ENDROOT
BRANCH   4   6
HETATM    6  C9  UNL     1     -32.383   7.008   3.726  1.00 20.00     0.034 C 
BRANCH   6   7
HETATM    7  C2  UNL     1     -32.617   7.467   2.317  1.00 20.00    -0.031 C 
HETATM    8  C1  UNL     1     -32.210   8.654   1.843  1.00 20.00    -0.035 C 
HETATM    9  C8  UNL     1     -32.447   9.114   0.443  1.00 20.00     0.036 C 
ENDBRANCH   6   7
ENDBRANCH   4   6
BRANCH   5  10
HETATM   10  O10 UNL     1     -34.843   5.303   2.831  1.00 20.00    -0.395 OA
HETATM   11  H26 UNL     1     -35.257   4.430   2.725  1.00 20.00     0.210 HD
ENDBRANCH   5  10
TORSDOF 3
