REMARK  4 active torsions:
REMARK  status: ('A' for Active; 'I' for Inactive)
REMARK    1  A    between atoms: C5_5  and  C9_9 
REMARK    2  A    between atoms: C6_6  and  C10_10 
REMARK    3  A    between atoms: C9_9  and  C12_12 
REMARK    4  A    between atoms: C11_11  and  C12_12 
ROOT
HETATM    1  C1  UNL     1     -32.344   5.766   3.394  1.00 20.00     0.131 C 
HETATM    2  C2  UNL     1     -31.084   6.601   3.370  1.00 20.00     0.079 C 
HETATM    3  C3  UNL     1     -31.109   7.590   2.214  1.00 20.00     0.012 C 
HETATM    4  C4  UNL     1     -33.625   7.536   2.166  1.00 20.00     0.016 C 
HETATM    5  C5  UNL     1     -33.670   6.502   3.296  1.00 20.00     0.056 C 
HETATM    6  C6  UNL     1     -32.385   8.442   2.220  1.00 20.00    -0.014 C 
HETATM    7  O13 UNL     1     -32.301   4.550   3.584  1.00 20.00    -0.298 OA
ENDROOT
BRANCH   5   8
HETATM    8  C9  UNL     1     -34.025   7.114   4.648  1.00 20.00     0.012 C 
BRANCH   8   9
HETATM    9  C12 UNL     1     -34.187   6.038   5.718  1.00 20.00     0.000 C 
BRANCH   9  10
HETATM   10  C11 UNL     1     -35.276   5.038   5.332  1.00 20.00    -0.005 C 
HETATM   11  C8  UNL     1     -35.422   3.943   6.376  1.00 20.00     0.005 C 
ENDBRANCH   9  10
ENDBRANCH   8   9
ENDBRANCH   5   8
BRANCH   6  12
HETATM   12  C10 UNL     1     -32.384   9.418   1.043  1.00 20.00     0.000 C 
HETATM   13  C7  UNL     1     -32.342   8.701  -0.265  1.00 20.00     0.005 C 
ENDBRANCH   6  12
TORSDOF 4
