REMARK  3 active torsions:
REMARK  status: ('A' for Active; 'I' for Inactive)
REMARK    1  A    between atoms: C2_2  and  C9_9 
REMARK    2  A    between atoms: C6_6  and  C9_9 
REMARK    3  A    between atoms: C7_7  and  O10_10 
ROOT
HETATM    1  C3  UNL     1     -33.717   5.329   6.682  1.00 20.00     0.003 C 
HETATM    2  C4  UNL     1     -33.885   6.661   5.954  1.00 20.00     0.007 C 
HETATM    3  C5  UNL     1     -34.180   4.239   5.711  1.00 20.00     0.032 C 
HETATM    4  C6  UNL     1     -33.985   6.307   4.468  1.00 20.00     0.018 C 
HETATM    5  C7  UNL     1     -34.737   4.974   4.495  1.00 20.00     0.122 C 
ENDROOT
BRANCH   4   6
HETATM    6  C9  UNL     1     -32.607   6.181   3.821  1.00 20.00     0.040 C 
BRANCH   6   7
HETATM    7  C2  UNL     1     -32.031   7.515   3.410  1.00 20.00    -0.093 C 
HETATM    8  C1  UNL     1     -32.230   8.016   2.181  1.00 20.00     0.014 C 
HETATM    9  C8  UNL     1     -31.194   8.240   4.424  1.00 20.00     0.042 C 
ENDBRANCH   6   7
ENDBRANCH   4   6
BRANCH   5  10
HETATM   10  O10 UNL     1     -36.127   5.207   4.706  1.00 20.00    -0.395 OA
HETATM   11  H26 UNL     1     -36.550   4.338   4.814  1.00 20.00     0.210 HD
ENDBRANCH   5  10
TORSDOF 3
