REMARK  3 active torsions:
REMARK  status: ('A' for Active; 'I' for Inactive)
REMARK    1  A    between atoms: C5_5  and  C9_9 
REMARK    2  A    between atoms: C6_6  and  C10_10 
REMARK    3  A    between atoms: C9_9  and  C11_11 
ROOT
HETATM    1  C1  UNL     1     -33.788   6.712   5.242  1.00 20.00     0.131 C 
HETATM    2  C2  UNL     1     -32.664   7.718   5.361  1.00 20.00     0.079 C 
HETATM    3  C3  UNL     1     -32.334   8.316   4.001  1.00 20.00     0.012 C 
HETATM    4  C4  UNL     1     -33.261   6.281   2.839  1.00 20.00     0.016 C 
HETATM    5  C5  UNL     1     -33.605   5.630   4.183  1.00 20.00     0.055 C 
HETATM    6  C6  UNL     1     -32.057   7.229   2.954  1.00 20.00    -0.014 C 
HETATM    7  O12 UNL     1     -34.739   6.730   6.021  1.00 20.00    -0.298 OA
ENDROOT
BRANCH   5   8
HETATM    8  C9  UNL     1     -34.845   4.751   4.056  1.00 20.00     0.012 C 
BRANCH   8   9
HETATM    9  C11 UNL     1     -36.076   5.577   3.698  1.00 20.00    -0.004 C 
HETATM   10  C8  UNL     1     -37.307   4.697   3.545  1.00 20.00     0.005 C 
ENDBRANCH   8   9
ENDBRANCH   5   8
BRANCH   6  11
HETATM   11  C10 UNL     1     -31.738   7.858   1.598  1.00 20.00     0.000 C 
HETATM   12  C7  UNL     1     -32.880   8.671   1.085  1.00 20.00     0.005 C 
ENDBRANCH   6  11
TORSDOF 3
