REMARK  3 active torsions:
REMARK  status: ('A' for Active; 'I' for Inactive)
REMARK    1  A    between atoms: C5_5  and  C9_9 
REMARK    2  A    between atoms: C6_6  and  C10_10 
REMARK    3  A    between atoms: C10_10  and  C11_11 
ROOT
HETATM    1  C1  UNL     1     -34.778   5.297   4.168  1.00 20.00     0.131 C 
HETATM    2  C2  UNL     1     -34.681   5.292   2.658  1.00 20.00     0.079 C 
HETATM    3  C3  UNL     1     -34.292   6.671   2.143  1.00 20.00     0.012 C 
HETATM    4  C4  UNL     1     -33.209   7.232   4.348  1.00 20.00     0.016 C 
HETATM    5  C5  UNL     1     -33.569   5.853   4.912  1.00 20.00     0.055 C 
HETATM    6  C6  UNL     1     -33.020   7.194   2.823  1.00 20.00    -0.013 C 
HETATM    7  O12 UNL     1     -35.742   4.794   4.741  1.00 20.00    -0.298 OA
ENDROOT
BRANCH   6   8
HETATM    8  C10 UNL     1     -32.658   8.580   2.292  1.00 20.00     0.004 C 
BRANCH   8   9
HETATM    9  C11 UNL     1     -32.371   8.540   0.795  1.00 20.00    -0.004 C 
HETATM   10  C8  UNL     1     -32.036   9.924   0.262  1.00 20.00     0.005 C 
ENDBRANCH   8   9
ENDBRANCH   6   8
BRANCH   5  11
HETATM   11  C9  UNL     1     -33.820   5.934   6.415  1.00 20.00     0.007 C 
HETATM   12  C7  UNL     1     -34.177   4.602   6.989  1.00 20.00     0.006 C 
ENDBRANCH   5  11
TORSDOF 3
