REMARK  2 active torsions:
REMARK  status: ('A' for Active; 'I' for Inactive)
REMARK    1  A    between atoms: C4_4  and  C10_10 
REMARK    2  A    between atoms: C8_8  and  C10_10 
ROOT
HETATM    1  C5  UNL     1     -34.981   4.958   5.681  1.00 20.00     0.002 C 
HETATM    2  C6  UNL     1     -33.593   5.602   5.736  1.00 20.00     0.006 C 
HETATM    3  C7  UNL     1     -35.598   5.364   4.339  1.00 20.00     0.016 C 
HETATM    4  C8  UNL     1     -33.534   6.540   4.529  1.00 20.00     0.004 C 
HETATM    5  C9  UNL     1     -34.436   5.870   3.493  1.00 20.00     0.062 C 
HETATM    6 BR12 UNL     1     -33.594   4.362   2.581  1.00 20.00    -0.091 Br
ENDROOT
BRANCH   4   7
HETATM    7  C10 UNL     1     -32.119   6.886   4.093  1.00 20.00     0.045 C 
BRANCH   7   8
HETATM    8  C4  UNL     1     -32.109   7.841   2.928  1.00 20.00    -0.051 A 
HETATM    9  C1  UNL     1     -31.483   7.564   1.679  1.00 20.00     0.014 A 
HETATM   10  C2  UNL     1     -31.621   8.606   0.788  1.00 20.00     0.050 A 
HETATM   11  S11 UNL     1     -32.502   9.911   1.459  1.00 20.00    -0.113 SA
HETATM   12  C3  UNL     1     -32.701   9.085   2.945  1.00 20.00     0.056 A 
ENDBRANCH   7   8
ENDBRANCH   4   7
TORSDOF 2
