REMARK  1 active torsions:
REMARK  status: ('A' for Active; 'I' for Inactive)
REMARK    1  A    between atoms: C6_6  and  O10_10 
ROOT
HETATM    1  C1  UNL     1     -35.154   5.029   3.048  1.00 20.00     0.003 C 
HETATM    2  C2  UNL     1     -33.780   5.628   2.707  1.00 20.00     0.032 C 
HETATM    3  C3  UNL     1     -35.675   5.389   4.443  1.00 20.00     0.010 C 
HETATM    4  C4  UNL     1     -34.126   6.483   6.230  1.00 20.00     0.017 A 
HETATM    5  C5  UNL     1     -33.279   5.930   5.117  1.00 20.00     0.023 A 
HETATM    6  C6  UNL     1     -33.239   6.589   3.770  1.00 20.00     0.125 C 
HETATM    7  C7  UNL     1     -34.582   5.251   5.480  1.00 20.00    -0.038 A 
HETATM    8  C8  UNL     1     -34.516   3.922   6.179  1.00 20.00     0.015 C 
ENDROOT
BRANCH   6   9
HETATM    9  O10 UNL     1     -31.895   6.943   3.458  1.00 20.00    -0.390 OA
HETATM   10  C9  UNL     1     -31.848   7.950   2.460  1.00 20.00     0.202 C 
ENDBRANCH   6   9
TORSDOF 1
