REMARK  0 active torsions:
REMARK  status: ('A' for Active; 'I' for Inactive)
ROOT
HETATM    1  C1  UNL     1     -32.057   7.725   4.879  1.00 20.00    -0.030 C 
HETATM    2  C2  UNL     1     -31.356   7.262   3.839  1.00 20.00    -0.030 C 
HETATM    3  C3  UNL     1     -34.368   4.341   4.927  1.00 20.00     0.128 C 
HETATM    4  C4  UNL     1     -33.448   7.276   5.197  1.00 20.00     0.037 C 
HETATM    5  C5  UNL     1     -31.885   6.260   2.863  1.00 20.00     0.037 C 
HETATM    6  C6  UNL     1     -35.215   5.564   4.658  1.00 20.00     0.088 C 
HETATM    7  C7  UNL     1     -33.019   4.412   4.248  1.00 20.00     0.088 C 
HETATM    8  C8  UNL     1     -34.184   6.532   4.036  1.00 20.00    -0.026 C 
HETATM    9  C9  UNL     1     -33.219   5.579   3.250  1.00 20.00    -0.026 C 
HETATM   10  C10 UNL     1     -34.884   7.567   3.141  1.00 20.00     0.016 C 
HETATM   11  C11 UNL     1     -33.833   5.000   1.951  1.00 20.00     0.016 C 
HETATM   12  O12 UNL     1     -34.733   3.399   5.619  1.00 20.00    -0.298 OA
ENDROOT
TORSDOF 0
