REMARK  1 active torsions:
REMARK  status: ('A' for Active; 'I' for Inactive)
REMARK    1  A    between atoms: C6_6  and  O8_8 
ROOT
HETATM    1  C1  UNL     1     -33.470   6.607   6.018  1.00 20.00    -0.023 C 
HETATM    2  C2  UNL     1     -34.542   5.795   6.048  1.00 20.00     0.001 C 
HETATM    3  C3  UNL     1     -32.052   6.939   3.715  1.00 20.00     0.009 C 
HETATM    4  C4  UNL     1     -33.055   6.336   2.646  1.00 20.00     0.009 C 
HETATM    5  C5  UNL     1     -33.282   6.970   4.613  1.00 20.00     0.015 C 
HETATM    6  C6  UNL     1     -34.995   5.428   4.641  1.00 20.00     0.145 C 
HETATM    7  C7  UNL     1     -33.687   5.627   3.880  1.00 20.00     0.026 C 
ENDROOT
BRANCH   6   8
HETATM    8  O8  UNL     1     -35.382   4.066   4.590  1.00 20.00    -0.391 OA
HETATM    9  H18 UNL     1     -36.114   3.955   5.220  1.00 20.00     0.210 HD
ENDBRANCH   6   8
TORSDOF 1
