REMARK  0 active torsions:
REMARK  status: ('A' for Active; 'I' for Inactive)
ROOT
HETATM    1  C1  UNL     1     -33.632   6.803   6.219  1.00 20.00    -0.029 C 
HETATM    2  C2  UNL     1     -33.013   6.664   5.036  1.00 20.00    -0.014 C 
HETATM    3  C3  UNL     1     -34.794   5.224   3.908  1.00 20.00     0.143 C 
HETATM    4  C4  UNL     1     -34.918   6.190   6.695  1.00 20.00     0.032 C 
HETATM    5  C5  UNL     1     -34.110   3.778   6.075  1.00 20.00     0.018 A 
HETATM    6  C6  UNL     1     -35.039   4.215   4.974  1.00 20.00     0.061 A 
HETATM    7  C7  UNL     1     -35.212   4.753   6.374  1.00 20.00     0.001 A 
HETATM    8  C8  UNL     1     -33.429   5.916   3.786  1.00 20.00     0.031 C 
HETATM    9  C9  UNL     1     -33.521   6.967   2.655  1.00 20.00     0.027 C 
HETATM   10  C10 UNL     1     -32.367   4.886   3.369  1.00 20.00     0.027 C 
HETATM   11  O11 UNL     1     -35.729   5.481   3.153  1.00 20.00    -0.296 OA
ENDROOT
TORSDOF 0
