REMARK  1 active torsions:
REMARK  status: ('A' for Active; 'I' for Inactive)
REMARK    1  A    between atoms: C8_8  and  O10_10 
ROOT
HETATM    1  C1  UNL     1     -33.550   6.484   5.460  1.00 20.00    -0.023 C 
HETATM    2  C2  UNL     1     -33.760   7.432   4.530  1.00 20.00     0.001 C 
HETATM    3  C3  UNL     1     -34.769   5.293   2.772  1.00 20.00     0.003 C 
HETATM    4  C4  UNL     1     -33.358   5.906   2.563  1.00 20.00     0.036 C 
HETATM    5  C5  UNL     1     -34.883   4.305   3.955  1.00 20.00     0.005 C 
HETATM    6  C6  UNL     1     -34.746   4.436   6.534  1.00 20.00     0.014 A 
HETATM    7  C7  UNL     1     -34.692   5.881   6.145  1.00 20.00     0.012 A 
HETATM    8  C8  UNL     1     -33.124   7.307   3.180  1.00 20.00     0.140 C 
HETATM    9  C9  UNL     1     -35.425   4.869   5.258  1.00 20.00    -0.006 A 
ENDROOT
BRANCH   8  10
HETATM   10  O10 UNL     1     -31.737   7.612   3.233  1.00 20.00    -0.392 OA
HETATM   11  H24 UNL     1     -31.393   7.512   2.331  1.00 20.00     0.210 HD
ENDBRANCH   8  10
TORSDOF 1
