REMARK  1 active torsions:
REMARK  status: ('A' for Active; 'I' for Inactive)
REMARK    1  A    between atoms: C6_6  and  O10_10 
ROOT
HETATM    1  C1  UNL     1     -33.324   6.973   6.524  1.00 20.00     0.003 C 
HETATM    2  C2  UNL     1     -33.270   7.657   5.164  1.00 20.00     0.032 C 
HETATM    3  C3  UNL     1     -34.485   5.984   6.594  1.00 20.00     0.010 C 
HETATM    4  C4  UNL     1     -35.302   5.455   4.202  1.00 20.00     0.017 A 
HETATM    5  C5  UNL     1     -33.803   5.405   4.131  1.00 20.00     0.023 A 
HETATM    6  C6  UNL     1     -32.966   6.646   4.060  1.00 20.00     0.125 C 
HETATM    7  C7  UNL     1     -34.508   5.023   5.422  1.00 20.00    -0.038 A 
HETATM    8  C8  UNL     1     -34.536   3.567   5.798  1.00 20.00     0.015 C 
ENDROOT
BRANCH   6   9
HETATM    9  O10 UNL     1     -33.153   7.258   2.787  1.00 20.00    -0.390 OA
HETATM   10  C9  UNL     1     -32.033   8.053   2.426  1.00 20.00     0.202 C 
ENDBRANCH   6   9
TORSDOF 1
