REMARK  0 active torsions:
REMARK  status: ('A' for Active; 'I' for Inactive)
ROOT
HETATM    1  C1  UNL     1     -34.261   5.083   5.317  1.00 20.00    -0.082 C 
HETATM    2  C2  UNL     1     -34.213   4.722   6.608  1.00 20.00     0.015 C 
HETATM    3  C3  UNL     1     -34.951   4.228   4.278  1.00 20.00     0.038 C 
HETATM    4  C4  UNL     1     -34.770   7.190   4.143  1.00 20.00     0.018 C 
HETATM    5  C5  UNL     1     -34.036   6.228   1.979  1.00 20.00     0.173 C 
HETATM    6  C6  UNL     1     -33.657   6.392   4.824  1.00 20.00     0.043 C 
HETATM    7  C7  UNL     1     -35.243   6.408   2.915  1.00 20.00     0.014 C 
HETATM    8  C8  UNL     1     -35.864   5.046   3.339  1.00 20.00    -0.009 C 
HETATM    9  C9  UNL     1     -32.491   6.132   3.841  1.00 20.00     0.125 C 
HETATM   10  C10 UNL     1     -37.244   5.248   3.983  1.00 20.00     0.011 C 
HETATM   11  C11 UNL     1     -31.650   7.380   3.569  1.00 20.00     0.040 C 
HETATM   12  O12 UNL     1     -32.938   5.564   2.602  1.00 20.00    -0.385 OA
ENDROOT
TORSDOF 0
