REMARK  0 active torsions:
REMARK  status: ('A' for Active; 'I' for Inactive)
ROOT
HETATM    1  C1  UNL     1     -33.312   7.404   5.207  1.00 20.00    -0.082 C 
HETATM    2  C2  UNL     1     -32.764   8.046   6.251  1.00 20.00     0.015 C 
HETATM    3  C3  UNL     1     -34.148   8.129   4.178  1.00 20.00     0.038 C 
HETATM    4  C4  UNL     1     -32.468   5.753   3.582  1.00 20.00     0.018 C 
HETATM    5  C5  UNL     1     -34.754   5.387   2.688  1.00 20.00     0.173 C 
HETATM    6  C6  UNL     1     -33.087   5.918   4.972  1.00 20.00     0.043 C 
HETATM    7  C7  UNL     1     -33.481   6.240   2.541  1.00 20.00     0.014 C 
HETATM    8  C8  UNL     1     -33.769   7.758   2.727  1.00 20.00    -0.009 C 
HETATM    9  C9  UNL     1     -34.383   5.073   5.032  1.00 20.00     0.125 C 
HETATM   10  C10 UNL     1     -32.578   8.605   2.256  1.00 20.00     0.011 C 
HETATM   11  C11 UNL     1     -35.104   5.185   6.371  1.00 20.00     0.040 C 
HETATM   12  O12 UNL     1     -35.308   5.444   4.003  1.00 20.00    -0.385 OA
ENDROOT
TORSDOF 0
