REMARK  4 active torsions:
REMARK  status: ('A' for Active; 'I' for Inactive)
REMARK    1  A    between atoms: C1_1  and  C3_3 
REMARK    2  A    between atoms: C3_3  and  N6_6 
REMARK    3  A    between atoms: C4_4  and  C5_5 
REMARK    4  A    between atoms: C4_4  and  N6_6 
ROOT
HETATM    1  C4  UNL     1     -33.410   4.620   4.638  1.00 20.00     0.389 C 
ENDROOT
BRANCH   1   2
HETATM    2  C5  UNL     1     -34.660   4.935   5.419  1.00 20.00     0.413 C 
HETATM    3  F8  UNL     1     -34.938   3.939   6.289  1.00 20.00    -0.169 F 
HETATM    4  F9  UNL     1     -34.523   6.074   6.131  1.00 20.00    -0.169 F 
HETATM    5  F10 UNL     1     -35.728   5.075   4.604  1.00 20.00    -0.169 F 
ENDBRANCH   1   2
BRANCH   1   6
HETATM    6  N6  UNL     1     -33.087   5.681   3.685  1.00 20.00     0.099 N 
HETATM    7  C2  UNL     1     -33.881   5.532   2.466  1.00 20.00     0.310 C 
BRANCH   6   8
HETATM    8  C3  UNL     1     -31.659   5.668   3.369  1.00 20.00     0.341 C 
BRANCH   8   9
HETATM    9  C1  UNL     1     -31.270   7.030   2.871  1.00 20.00     0.261 C 
HETATM   10  O7  UNL     1     -32.072   7.957   2.784  1.00 20.00    -0.305 OA
ENDBRANCH   8   9
ENDBRANCH   6   8
ENDBRANCH   1   6
TORSDOF 4
