REMARK  4 active torsions:
REMARK  status: ('A' for Active; 'I' for Inactive)
REMARK    1  A    between atoms: C1_1  and  C7_7 
REMARK    2  A    between atoms: C7_7  and  N10_10 
REMARK    3  A    between atoms: C8_8  and  C9_9 
REMARK    4  A    between atoms: C8_8  and  N10_10 
ROOT
HETATM    1  C2  UNL     1     -35.827   5.772   3.374  1.00 20.00     0.043 C 
HETATM    2  C8  UNL     1     -34.700   6.407   4.189  1.00 20.00     0.226 C 
ENDROOT
BRANCH   2   3
HETATM    3  C9  UNL     1     -34.257   5.598   5.451  1.00 20.00    -0.021 C 
HETATM    4  C3  UNL     1     -35.055   5.998   6.707  1.00 20.00     0.016 C 
HETATM    5  C4  UNL     1     -34.446   4.086   5.215  1.00 20.00     0.016 C 
HETATM    6  C5  UNL     1     -32.757   5.843   5.729  1.00 20.00     0.016 C 
ENDBRANCH   2   3
BRANCH   2   7
HETATM    7  N10 UNL     1     -33.579   6.675   3.311  1.00 20.00     0.095 N 
HETATM    8  C6  UNL     1     -33.387   5.578   2.356  1.00 20.00     0.310 C 
BRANCH   7   9
HETATM    9  C7  UNL     1     -33.768   7.939   2.589  1.00 20.00     0.341 C 
BRANCH   9  10
HETATM   10  C1  UNL     1     -32.421   8.449   2.165  1.00 20.00     0.261 C 
HETATM   11  O11 UNL     1     -32.128   8.646   0.988  1.00 20.00    -0.305 OA
ENDBRANCH   9  10
ENDBRANCH   7   9
ENDBRANCH   2   7
TORSDOF 4
