REMARK  2 active torsions:
REMARK  status: ('A' for Active; 'I' for Inactive)
REMARK    1  A    between atoms: C2_2  and  C8_8 
REMARK    2  A    between atoms: C8_8  and  O9_9 
ROOT
HETATM    1  C3  UNL     1     -33.810   4.163   5.772  1.00 20.00     0.012 C 
HETATM    2  C4  UNL     1     -35.464   5.431   5.813  1.00 20.00     0.012 C 
HETATM    3  C5  UNL     1     -34.833   4.601   3.583  1.00 20.00     0.047 C 
HETATM    4  C6  UNL     1     -35.168   4.131   5.004  1.00 20.00    -0.010 C 
HETATM    5  C7  UNL     1     -33.960   5.691   5.454  1.00 20.00     0.024 C 
HETATM    6  C8  UNL     1     -33.936   5.805   3.925  1.00 20.00     0.079 C 
ENDROOT
BRANCH   6   7
HETATM    7  C2  UNL     1     -32.537   5.727   3.417  1.00 20.00     0.001 C 
HETATM    8  C1  UNL     1     -31.615   6.675   3.615  1.00 20.00     0.010 C 
ENDBRANCH   6   7
BRANCH   6   9
HETATM    9  O9  UNL     1     -34.498   7.043   3.513  1.00 20.00    -0.385 OA
HETATM   10  H21 UNL     1     -34.476   7.053   2.543  1.00 20.00     0.211 HD
ENDBRANCH   6   9
TORSDOF 2
