REMARK  1 active torsions:
REMARK  status: ('A' for Active; 'I' for Inactive)
REMARK    1  A    between atoms: C3_3  and  C7_7 
ROOT
HETATM    1  C1  UNL     1     -33.115   6.430   4.587  1.00 20.00     0.034 A 
HETATM    2  C2  UNL     1     -34.283   6.815   2.615  1.00 20.00     0.058 A 
HETATM    3  C3  UNL     1     -33.165   7.139   3.352  1.00 20.00    -0.046 A 
HETATM    4  C4  UNL     1     -34.195   5.591   4.747  1.00 20.00     0.051 A 
HETATM    5  S8  UNL     1     -35.265   5.660   3.411  1.00 20.00    -0.094 SA
HETATM    6 BR9  UNL     1     -34.480   4.483   6.263  1.00 20.00    -0.043 Br
ENDROOT
BRANCH   3   7
HETATM    7  C7  UNL     1     -32.105   8.141   2.900  1.00 20.00     0.019 A 
HETATM    8  C5  UNL     1     -32.534   9.349   2.091  1.00 20.00     0.010 A 
HETATM    9  C6  UNL     1     -31.774   8.244   1.424  1.00 20.00     0.010 A 
ENDBRANCH   3   7
TORSDOF 1
