REMARK  0 active torsions:
REMARK  status: ('A' for Active; 'I' for Inactive)
ROOT
HETATM    1  C1  UNL     1     -32.932   7.037   5.983  1.00 20.00     0.069 C 
HETATM    2  C2  UNL     1     -32.671   6.987   2.281  1.00 20.00     0.007 C 
HETATM    3  C3  UNL     1     -32.362   7.632   3.635  1.00 20.00     0.025 C 
HETATM    4  C4  UNL     1     -33.089   5.549   2.578  1.00 20.00     0.070 C 
HETATM    5  C5  UNL     1     -35.701   4.981   4.378  1.00 20.00     0.197 C 
HETATM    6  C6  UNL     1     -34.801   4.097   5.198  1.00 20.00     0.197 C 
HETATM    7  C7  UNL     1     -32.523   6.517   4.672  1.00 20.00     0.155 C 
HETATM    8  C8  UNL     1     -33.553   5.580   4.034  1.00 20.00     0.180 C 
HETATM    9  N9  UNL     1     -33.255   7.447   7.018  1.00 20.00    -0.197 NA
HETATM   10  O10 UNL     1     -34.882   6.116   4.101  1.00 20.00    -0.352 OA
HETATM   11  O11 UNL     1     -33.518   4.268   4.596  1.00 20.00    -0.352 OA
ENDROOT
TORSDOF 0
