REMARK  1 active torsions:
REMARK  status: ('A' for Active; 'I' for Inactive)
REMARK    1  A    between atoms: C2_2  and  C6_6 
ROOT
HETATM    1  C1  UNL     1     -33.115   6.502   4.848  1.00 20.00     0.133 A 
HETATM    2  C2  UNL     1     -33.920   5.630   4.145  1.00 20.00     0.007 A 
HETATM    3  C3  UNL     1     -32.709   7.239   2.823  1.00 20.00     0.143 A 
HETATM    4  N7  UNL     1     -32.419   7.424   4.091  1.00 20.00    -0.245 NA
HETATM    5  S8  UNL     1     -33.812   5.972   2.468  1.00 20.00    -0.066 SA
HETATM    6 BR9  UNL     1     -31.943   8.321   1.447  1.00 20.00    -0.021 Br
ENDROOT
BRANCH   2   7
HETATM    7  C6  UNL     1     -34.786   4.520   4.763  1.00 20.00     0.027 A 
HETATM    8  C4  UNL     1     -35.420   4.764   6.113  1.00 20.00     0.010 A 
HETATM    9  C5  UNL     1     -34.277   3.805   5.993  1.00 20.00     0.010 A 
ENDBRANCH   2   7
TORSDOF 1
