REMARK  1 active torsions:
REMARK  status: ('A' for Active; 'I' for Inactive)
REMARK    1  A    between atoms: C5_5  and  C8_8 
ROOT
HETATM    1  C1  UNL     1     -33.971   8.991   2.166  1.00 20.00     0.047 C 
HETATM    2  C2  UNL     1     -34.307   7.924   2.901  1.00 20.00    -0.009 C 
HETATM    3  C3  UNL     1     -32.611   9.107   1.590  1.00 20.00     0.149 C 
HETATM    4  C6  UNL     1     -31.650   7.955   1.775  1.00 20.00     0.084 C 
HETATM    5  C7  UNL     1     -31.900   7.239   3.096  1.00 20.00     0.025 C 
HETATM    6  C8  UNL     1     -33.370   6.792   3.269  1.00 20.00    -0.003 C 
HETATM    7  C11 UNL     1     -33.685   5.577   2.381  1.00 20.00     0.024 C 
HETATM    8  O12 UNL     1     -32.311  10.098   0.926  1.00 20.00    -0.293 OA
ENDROOT
BRANCH   6   9
HETATM    9  C5  UNL     1     -33.574   6.386   4.709  1.00 20.00    -0.076 C 
HETATM   10  C4  UNL     1     -33.948   5.134   5.034  1.00 20.00    -0.027 C 
HETATM   11  C9  UNL     1     -34.187   4.584   6.382  1.00 20.00     0.036 C 
HETATM   12  C10 UNL     1     -33.329   7.473   5.717  1.00 20.00     0.044 C 
ENDBRANCH   6   9
TORSDOF 1
