REMARK  1 active torsions:
REMARK  status: ('A' for Active; 'I' for Inactive)
REMARK    1  A    between atoms: C4_4  and  C8_8 
ROOT
HETATM    1  C1  UNL     1     -34.184   5.167   2.827  1.00 20.00     0.012 A 
HETATM    2  C2  UNL     1     -33.321   5.873   1.997  1.00 20.00     0.040 A 
HETATM    3  C3  UNL     1     -33.785   6.781   4.528  1.00 20.00     0.125 A 
HETATM    4  C4  UNL     1     -34.426   5.623   4.119  1.00 20.00    -0.036 A 
HETATM    5  C5  UNL     1     -32.730   7.021   2.501  1.00 20.00     0.102 A 
HETATM    6  N9  UNL     1     -32.940   7.495   3.749  1.00 20.00    -0.253 NA
HETATM    7 BR10 UNL     1     -31.548   8.001   1.383  1.00 20.00    -0.029 Br
ENDROOT
BRANCH   4   8
HETATM    8  C8  UNL     1     -35.345   4.891   5.030  1.00 20.00     0.020 A 
HETATM    9  C6  UNL     1     -34.841   4.447   6.381  1.00 20.00     0.010 A 
HETATM   10  C7  UNL     1     -35.095   3.431   5.312  1.00 20.00     0.010 A 
ENDBRANCH   4   8
TORSDOF 1
