REMARK  2 active torsions:
REMARK  status: ('A' for Active; 'I' for Inactive)
REMARK    1  A    between atoms: C3_3  and  C6_6 
REMARK    2  A    between atoms: C3_3  and  O10_10 
ROOT
HETATM    1  C1  UNL     1     -34.768   5.139   6.258  1.00 20.00    -0.003 C 
HETATM    2  C2  UNL     1     -34.961   4.584   5.055  1.00 20.00     0.132 C 
HETATM    3  C4  UNL     1     -33.900   6.343   6.436  1.00 20.00     0.032 C 
HETATM    4  C5  UNL     1     -33.061   6.591   5.184  1.00 20.00     0.046 C 
HETATM    5  C6  UNL     1     -33.912   6.368   3.938  1.00 20.00     0.227 C 
HETATM    6  O9  UNL     1     -34.458   5.046   3.866  1.00 20.00    -0.348 OA
ENDROOT
BRANCH   5   7
HETATM    7  C3  UNL     1     -33.082   6.487   2.702  1.00 20.00     0.288 C 
HETATM    8  O8  UNL     1     -32.900   5.574   1.908  1.00 20.00    -0.262 OA
BRANCH   7   9
HETATM    9  O10 UNL     1     -32.577   7.751   2.613  1.00 20.00    -0.324 OA
HETATM   10  C7  UNL     1     -31.756   8.005   1.468  1.00 20.00     0.213 C 
ENDBRANCH   7   9
ENDBRANCH   5   7
TORSDOF 2
