REMARK  1 active torsions:
REMARK  status: ('A' for Active; 'I' for Inactive)
REMARK    1  A    between atoms: C10_10  and  O11_11 
ROOT
HETATM    1  C1  UNL     1     -35.902   5.138   3.808  1.00 20.00     0.011 A 
HETATM    2  C2  UNL     1     -34.694   5.882   6.739  1.00 20.00     0.013 A 
HETATM    3  C3  UNL     1     -32.898   6.881   2.642  1.00 20.00     0.013 A 
HETATM    4  C4  UNL     1     -35.008   4.244   4.627  1.00 20.00    -0.005 A 
HETATM    5  C5  UNL     1     -34.559   4.747   3.254  1.00 20.00    -0.005 A 
HETATM    6  C6  UNL     1     -34.336   4.634   5.963  1.00 20.00    -0.003 A 
HETATM    7  C7  UNL     1     -33.298   5.575   3.238  1.00 20.00    -0.003 A 
HETATM    8  C8  UNL     1     -33.270   5.689   6.290  1.00 20.00     0.019 A 
HETATM    9  C9  UNL     1     -33.355   6.842   4.071  1.00 20.00     0.019 A 
HETATM   10  C10 UNL     1     -32.608   6.670   5.343  1.00 20.00     0.127 C 
ENDROOT
BRANCH  10  11
HETATM   11  O11 UNL     1     -32.494   7.930   6.001  1.00 20.00    -0.395 OA
HETATM   12  H25 UNL     1     -31.951   7.780   6.790  1.00 20.00     0.210 HD
ENDBRANCH  10  11
TORSDOF 1
