REMARK  0 active torsions:
REMARK  status: ('A' for Active; 'I' for Inactive)
ROOT
HETATM    1  C1  UNL     1     -32.828   6.820   4.000  1.00 20.00     0.136 C 
HETATM    2  C2  UNL     1     -34.484   5.333   2.500  1.00 20.00     0.018 A 
HETATM    3  C3  UNL     1     -33.437   7.886   6.262  1.00 20.00     0.018 A 
HETATM    4  C4  UNL     1     -35.282   4.297   6.390  1.00 20.00     0.011 A 
HETATM    5  C5  UNL     1     -34.133   6.384   3.490  1.00 20.00     0.060 A 
HETATM    6  C6  UNL     1     -32.663   6.856   5.484  1.00 20.00     0.060 A 
HETATM    7  C7  UNL     1     -34.452   4.951   3.943  1.00 20.00     0.002 A 
HETATM    8  C8  UNL     1     -33.697   6.421   6.521  1.00 20.00     0.002 A 
HETATM    9  C9  UNL     1     -35.473   4.971   5.063  1.00 20.00    -0.005 A 
HETATM   10  C10 UNL     1     -35.090   5.792   6.298  1.00 20.00    -0.005 A 
HETATM   11  O11 UNL     1     -31.928   7.171   3.249  1.00 20.00    -0.297 OA
ENDROOT
TORSDOF 0
