REMARK  1 active torsions:
REMARK  status: ('A' for Active; 'I' for Inactive)
REMARK    1  A    between atoms: C4_4  and  C7_7 
ROOT
HETATM    1  C1  UNL     1     -33.884   5.246   2.456  1.00 20.00     0.056 A 
HETATM    2  C2  UNL     1     -34.788   4.785   3.315  1.00 20.00     0.010 A 
HETATM    3  C3  UNL     1     -33.411   6.508   3.013  1.00 20.00     0.157 A 
HETATM    4  C4  UNL     1     -34.964   5.700   4.466  1.00 20.00     0.157 A 
HETATM    5  N8  UNL     1     -32.529   7.300   2.520  1.00 20.00    -0.278 NA
HETATM    6  O9  UNL     1     -34.050   6.770   4.187  1.00 20.00    -0.325 OA
HETATM    7  H20 UNL     1     -32.408   8.109   3.141  1.00 20.00     0.189 HD
ENDROOT
BRANCH   4   8
HETATM    8  C7  UNL     1     -34.601   5.062   5.796  1.00 20.00     0.011 C 
HETATM    9  C5  UNL     1     -34.767   6.062   6.943  1.00 20.00     0.012 C 
HETATM   10  C6  UNL     1     -35.449   3.815   6.052  1.00 20.00     0.012 C 
ENDBRANCH   4   8
TORSDOF 1
