REMARK  1 active torsions:
REMARK  status: ('A' for Active; 'I' for Inactive)
REMARK    1  A    between atoms: C9_9  and  C10_10 
ROOT
HETATM    1  C1  UNL     1     -32.173   8.326   1.518  1.00 20.00     0.063 C 
HETATM    2  C10 UNL     1     -31.728   7.035   2.004  1.00 20.00     0.163 C 
HETATM    3  N11 UNL     1     -32.499   9.364   1.113  1.00 20.00    -0.197 NA
ENDROOT
BRANCH   2   4
HETATM    4  C9  UNL     1     -32.847   6.419   2.849  1.00 20.00    -0.033 A 
HETATM    5  C6  UNL     1     -33.988   5.573   2.545  1.00 20.00     0.021 A 
HETATM    6  C7  UNL     1     -34.318   5.584   3.841  1.00 20.00    -0.025 A 
HETATM    7  C4  UNL     1     -35.227   5.153   4.912  1.00 20.00     0.012 A 
HETATM    8  C8  UNL     1     -33.206   6.407   4.138  1.00 20.00    -0.019 A 
HETATM    9  C2  UNL     1     -34.960   5.568   6.168  1.00 20.00     0.001 A 
HETATM   10  C3  UNL     1     -33.806   6.421   6.476  1.00 20.00     0.001 A 
HETATM   11  C5  UNL     1     -32.950   6.837   5.518  1.00 20.00     0.013 A 
ENDBRANCH   2   4
TORSDOF 1
