REMARK  2 active torsions:
REMARK  status: ('A' for Active; 'I' for Inactive)
REMARK    1  A    between atoms: C5_5  and  C9_9 
REMARK    2  A    between atoms: C6_6  and  C10_10 
ROOT
HETATM    1  C1  UNL     1     -34.197   5.397   3.458  1.00 20.00     0.131 C 
HETATM    2  C2  UNL     1     -33.572   4.954   2.154  1.00 20.00     0.079 C 
HETATM    3  C3  UNL     1     -32.981   6.145   1.413  1.00 20.00     0.012 C 
HETATM    4  C4  UNL     1     -32.730   7.415   3.575  1.00 20.00     0.016 C 
HETATM    5  C5  UNL     1     -33.313   6.241   4.369  1.00 20.00     0.055 C 
HETATM    6  C6  UNL     1     -32.015   6.944   2.299  1.00 20.00    -0.014 C 
HETATM    7  O11 UNL     1     -35.319   5.012   3.786  1.00 20.00    -0.298 OA
ENDROOT
BRANCH   5   8
HETATM    8  C9  UNL     1     -34.077   6.742   5.591  1.00 20.00     0.007 C 
HETATM    9  C7  UNL     1     -34.658   5.615   6.381  1.00 20.00     0.006 C 
ENDBRANCH   5   8
BRANCH   6  10
HETATM   10  C10 UNL     1     -31.443   8.135   1.533  1.00 20.00     0.000 C 
HETATM   11  C8  UNL     1     -32.516   9.080   1.102  1.00 20.00     0.005 C 
ENDBRANCH   6  10
TORSDOF 2
