REMARK  0 active torsions:
REMARK  status: ('A' for Active; 'I' for Inactive)
ROOT
HETATM    1  C1  UNL     1     -33.292   7.588   4.389  1.00 20.00     0.050 C 
HETATM    2  C2  UNL     1     -33.040   7.085   3.168  1.00 20.00     0.003 C 
HETATM    3  C3  UNL     1     -33.543   6.737   5.590  1.00 20.00     0.027 C 
HETATM    4  C4  UNL     1     -34.339   3.793   4.003  1.00 20.00     0.056 A 
HETATM    5  C5  UNL     1     -34.927   5.067   4.562  1.00 20.00     0.133 A 
HETATM    6  C6  UNL     1     -34.362   5.041   3.174  1.00 20.00     0.108 A 
HETATM    7  C7  UNL     1     -32.561   8.009   2.077  1.00 20.00     0.068 C 
HETATM    8  C8  UNL     1     -32.918   7.244   6.874  1.00 20.00     0.070 C 
HETATM    9  N9  UNL     1     -34.220   5.642   5.695  1.00 20.00    -0.287 NA
HETATM   10  N10 UNL     1     -33.155   5.761   2.795  1.00 20.00    -0.387 N 
HETATM   11  H22 UNL     1     -32.685   5.507   1.931  1.00 20.00     0.159 HD
ENDROOT
TORSDOF 0
