REMARK  0 active torsions:
REMARK  status: ('A' for Active; 'I' for Inactive)
ROOT
HETATM    1  C1  UNL     1     -33.547   4.259   2.806  1.00 20.00    -0.029 C 
HETATM    2  C2  UNL     1     -33.463   5.565   2.507  1.00 20.00    -0.014 C 
HETATM    3  C3  UNL     1     -33.816   6.479   4.872  1.00 20.00     0.143 C 
HETATM    4  C4  UNL     1     -33.898   3.633   4.122  1.00 20.00     0.032 C 
HETATM    5  C5  UNL     1     -34.933   4.607   6.293  1.00 20.00     0.018 A 
HETATM    6  C6  UNL     1     -35.016   5.692   5.251  1.00 20.00     0.061 A 
HETATM    7  C7  UNL     1     -35.063   4.243   4.841  1.00 20.00     0.001 A 
HETATM    8  C8  UNL     1     -33.652   6.796   3.374  1.00 20.00     0.031 C 
HETATM    9  C9  UNL     1     -32.409   7.692   3.203  1.00 20.00     0.027 C 
HETATM   10  C10 UNL     1     -34.882   7.577   2.882  1.00 20.00     0.027 C 
HETATM   11  O11 UNL     1     -33.027   6.838   5.739  1.00 20.00    -0.296 OA
ENDROOT
TORSDOF 0
