REMARK  1 active torsions:
REMARK  status: ('A' for Active; 'I' for Inactive)
REMARK    1  A    between atoms: C3_3  and  C8_8 
ROOT
HETATM    1  C1  UNL     1     -33.485   5.795   3.701  1.00 20.00     0.147 C 
HETATM    2  C4  UNL     1     -33.536   7.790   5.797  1.00 20.00     0.007 C 
HETATM    3  C5  UNL     1     -33.863   6.306   6.058  1.00 20.00     0.022 C 
HETATM    4  C6  UNL     1     -35.253   7.168   4.315  1.00 20.00     0.027 C 
HETATM    5  C7  UNL     1     -33.957   7.992   4.323  1.00 20.00     0.002 C 
HETATM    6  C8  UNL     1     -34.568   5.881   4.767  1.00 20.00     0.038 C 
HETATM    7  C9  UNL     1     -33.035   7.207   3.329  1.00 20.00     0.018 C 
HETATM    8  C10 UNL     1     -33.371   7.509   1.867  1.00 20.00     0.023 C 
HETATM    9  C11 UNL     1     -31.540   7.398   3.573  1.00 20.00     0.023 C 
HETATM   10  O12 UNL     1     -33.017   4.766   3.236  1.00 20.00    -0.296 OA
ENDROOT
BRANCH   6  11
HETATM   11  C3  UNL     1     -35.419   4.673   4.844  1.00 20.00    -0.020 C 
HETATM   12  C2  UNL     1     -34.957   3.447   5.114  1.00 20.00     0.008 C 
ENDBRANCH   6  11
TORSDOF 1
