REMARK  1 active torsions:
REMARK  status: ('A' for Active; 'I' for Inactive)
REMARK    1  A    between atoms: C10_10  and  O11_11 
ROOT
HETATM    1  C1  UNL     1     -37.257   4.944   5.491  1.00 20.00    -0.021 C 
HETATM    2  C2  UNL     1     -34.989   5.633   6.595  1.00 20.00    -0.021 C 
HETATM    3  C3  UNL     1     -37.302   5.418   4.226  1.00 20.00    -0.025 C 
HETATM    4  C4  UNL     1     -33.863   5.877   5.890  1.00 20.00    -0.022 C 
HETATM    5  C5  UNL     1     -35.075   5.704   2.562  1.00 20.00     0.041 C 
HETATM    6  C6  UNL     1     -35.853   4.591   5.938  1.00 20.00     0.035 C 
HETATM    7  C7  UNL     1     -35.912   5.713   3.816  1.00 20.00     0.016 C 
HETATM    8  C8  UNL     1     -33.772   5.056   4.620  1.00 20.00     0.042 C 
HETATM    9  C9  UNL     1     -35.203   4.574   4.577  1.00 20.00     0.015 C 
HETATM   10  C10 UNL     1     -33.643   5.706   3.205  1.00 20.00     0.127 C 
ENDROOT
BRANCH  10  11
HETATM   11  O11 UNL     1     -33.151   7.035   3.295  1.00 20.00    -0.395 OA
HETATM   12  H23 UNL     1     -33.117   7.384   2.389  1.00 20.00     0.210 HD
ENDBRANCH  10  11
TORSDOF 1
