REMARK  3 active torsions:
REMARK  status: ('A' for Active; 'I' for Inactive)
REMARK    1  A    between atoms: C6_6  and  N10_10 
REMARK    2  A    between atoms: C7_7  and  C8_8 
REMARK    3  A    between atoms: C7_7  and  N10_10 
ROOT
HETATM    1  C1  UNL     1     -32.458   8.728   1.781  1.00 20.00     0.086 C 
HETATM    2  C6  UNL     1     -32.147   7.414   2.336  1.00 20.00     0.357 C 
HETATM    3  N9  UNL     1     -32.701   9.772   1.337  1.00 20.00    -0.196 NA
ENDROOT
BRANCH   2   4
HETATM    4  N10 UNL     1     -32.938   7.198   3.604  1.00 20.00    -0.062 N 
HETATM    5  C5  UNL     1     -32.364   8.000   4.747  1.00 20.00     0.270 C 
HETATM    6  H27 UNL     1     -33.878   7.590   3.424  1.00 20.00     0.280 HD
BRANCH   4   7
HETATM    7  C7  UNL     1     -33.100   5.762   3.938  1.00 20.00     0.243 C 
BRANCH   7   8
HETATM    8  C8  UNL     1     -34.341   5.496   4.816  1.00 20.00    -0.027 C 
HETATM    9  C2  UNL     1     -34.933   4.103   4.543  1.00 20.00     0.016 C 
HETATM   10  C3  UNL     1     -33.897   5.557   6.291  1.00 20.00     0.016 C 
HETATM   11  C4  UNL     1     -35.427   6.561   4.589  1.00 20.00     0.016 C 
ENDBRANCH   7   8
ENDBRANCH   4   7
ENDBRANCH   2   4
TORSDOF 3
