REMARK  0 active torsions:
REMARK  status: ('A' for Active; 'I' for Inactive)
ROOT
HETATM    1  C1  UNL     1     -34.235   6.120   4.958  1.00 20.00    -0.010 C 
HETATM    2  C2  UNL     1     -33.717   7.157   5.897  1.00 20.00     0.155 C 
HETATM    3  C3  UNL     1     -34.809   5.027   5.476  1.00 20.00    -0.078 C 
HETATM    4  C4  UNL     1     -34.053   6.361   3.489  1.00 20.00     0.051 C 
HETATM    5  C5  UNL     1     -32.439   7.865   5.502  1.00 20.00     0.084 C 
HETATM    6  C6  UNL     1     -32.340   8.127   4.002  1.00 20.00     0.017 C 
HETATM    7  C7  UNL     1     -32.643   6.886   3.134  1.00 20.00    -0.043 C 
HETATM    8  C8  UNL     1     -35.359   3.931   4.610  1.00 20.00     0.043 C 
HETATM    9  C9  UNL     1     -34.943   4.825   6.958  1.00 20.00     0.043 C 
HETATM   10  C10 UNL     1     -32.620   7.296   1.649  1.00 20.00     0.015 C 
HETATM   11  C11 UNL     1     -31.580   5.791   3.345  1.00 20.00     0.015 C 
HETATM   12  O12 UNL     1     -34.259   7.373   6.979  1.00 20.00    -0.293 OA
ENDROOT
TORSDOF 0
