REMARK  0 active torsions:
REMARK  status: ('A' for Active; 'I' for Inactive)
ROOT
HETATM    1  C1  UNL     1     -35.561   5.443   4.231  1.00 20.00     0.005 A 
HETATM    2  C2  UNL     1     -34.798   6.472   3.815  1.00 20.00     0.107 A 
HETATM    3  C3  UNL     1     -34.440   4.535   4.759  1.00 20.00     0.132 A 
HETATM    4  C4  UNL     1     -34.543   4.170   6.232  1.00 20.00     0.031 C 
HETATM    5  O5  UNL     1     -32.943   6.758   5.326  1.00 20.00    -0.223 OA
HETATM    6  O6  UNL     1     -32.676   5.663   3.006  1.00 20.00    -0.223 OA
HETATM    7  S7  UNL     1     -33.247   5.758   4.330  1.00 20.00     0.172 S 
ENDROOT
TORSDOF 0
