REMARK  3 active torsions:
REMARK  status: ('A' for Active; 'I' for Inactive)
REMARK    1  A    between atoms: C6_6  and  C7_7 
REMARK    2  A    between atoms: C8_8  and  C10_10 
REMARK    3  A    between atoms: C9_9  and  C11_11 
ROOT
HETATM    1  C1  UNL     1     -34.298   4.404   3.055  1.00 20.00    -0.021 C 
HETATM    2  C2  UNL     1     -35.051   5.532   3.079  1.00 20.00    -0.020 C 
HETATM    3  C5  UNL     1     -32.231   5.682   3.309  1.00 20.00    -0.003 C 
HETATM    4  C6  UNL     1     -32.971   6.797   3.114  1.00 20.00     0.024 C 
HETATM    5  C8  UNL     1     -33.009   4.514   3.923  1.00 20.00     0.039 C 
HETATM    6  C9  UNL     1     -34.383   6.733   3.753  1.00 20.00     0.056 C 
ENDROOT
BRANCH   4   7
HETATM    7  C7  UNL     1     -32.428   8.036   2.453  1.00 20.00     0.205 C 
HETATM    8  O12 UNL     1     -31.519   7.840   1.593  1.00 20.00    -0.644 OA
HETATM    9  O13 UNL     1     -32.944   9.128   2.836  1.00 20.00    -0.644 OA
ENDBRANCH   4   7
BRANCH   6  10
HETATM   10  C11 UNL     1     -33.934   6.440   5.201  1.00 20.00     0.029 C 
HETATM   11  C4  UNL     1     -34.459   6.142   6.581  1.00 20.00    -0.024 C 
HETATM   12  C3  UNL     1     -33.410   5.236   6.692  1.00 20.00    -0.024 C 
HETATM   13  C10 UNL     1     -33.695   4.872   5.259  1.00 20.00     0.028 C 
ENDBRANCH   6  10
TORSDOF 3
