REMARK  0 active torsions:
REMARK  status: ('A' for Active; 'I' for Inactive)
ROOT
HETATM    1  C1  UNL     1     -33.691   5.230   2.014  1.00 20.00    -0.023 C 
HETATM    2  C2  UNL     1     -34.300   4.272   2.799  1.00 20.00    -0.013 C 
HETATM    3  C3  UNL     1     -34.163   5.444   5.341  1.00 20.00     0.140 C 
HETATM    4  C4  UNL     1     -33.298   6.725   5.476  1.00 20.00     0.088 C 
HETATM    5  C5  UNL     1     -33.113   5.796   3.273  1.00 20.00     0.035 C 
HETATM    6  C6  UNL     1     -34.559   5.363   3.844  1.00 20.00     0.042 C 
HETATM    7  C7  UNL     1     -32.901   7.119   3.991  1.00 20.00    -0.033 C 
HETATM    8  C8  UNL     1     -35.957   5.970   3.643  1.00 20.00     0.029 C 
HETATM    9  C9  UNL     1     -33.690   8.292   3.413  1.00 20.00     0.016 C 
HETATM   10  C10 UNL     1     -31.407   7.490   3.934  1.00 20.00     0.016 C 
HETATM   11  O11 UNL     1     -34.464   4.715   6.275  1.00 20.00    -0.297 OA
ENDROOT
TORSDOF 0
