REMARK  2 active torsions:
REMARK  status: ('A' for Active; 'I' for Inactive)
REMARK    1  A    between atoms: C7_7  and  C9_9 
REMARK    2  A    between atoms: C8_8  and  C9_9 
ROOT
HETATM    1  C1  UNL     1     -32.819   9.357   1.836  1.00 20.00     0.012 C 
HETATM    2  C2  UNL     1     -32.317   8.480   2.485  1.00 20.00    -0.117 C 
HETATM    3  C8  UNL     1     -31.699   7.411   3.281  1.00 20.00     0.093 C 
ENDROOT
BRANCH   3   4
HETATM    4  C9  UNL     1     -32.581   6.173   3.282  1.00 20.00     0.017 C 
BRANCH   4   5
HETATM    5  C7  UNL     1     -33.954   6.477   3.880  1.00 20.00    -0.006 C 
HETATM    6  C5  UNL     1     -33.912   6.532   5.410  1.00 20.00     0.082 C 
HETATM    7  C3  UNL     1     -34.227   5.109   5.795  1.00 20.00     0.127 C 
HETATM    8  C4  UNL     1     -34.725   4.296   4.629  1.00 20.00     0.079 C 
HETATM    9  O10 UNL     1     -34.094   4.664   6.928  1.00 20.00    -0.298 OA
HETATM   10  C6  UNL     1     -34.971   5.373   3.579  1.00 20.00     0.012 C 
ENDBRANCH   4   5
ENDBRANCH   3   4
TORSDOF 2
