REMARK  0 active torsions:
REMARK  status: ('A' for Active; 'I' for Inactive)
ROOT
HETATM    1  C1  UNL     1     -33.586   7.047   6.690  1.00 20.00    -0.021 C 
HETATM    2  C2  UNL     1     -35.250   4.932   5.987  1.00 20.00    -0.021 C 
HETATM    3  C3  UNL     1     -32.665   7.544   5.826  1.00 20.00    -0.018 C 
HETATM    4  C4  UNL     1     -35.298   4.448   4.707  1.00 20.00    -0.024 C 
HETATM    5  C5  UNL     1     -32.976   6.882   3.057  1.00 20.00     0.135 C 
HETATM    6  C6  UNL     1     -33.688   5.569   2.611  1.00 20.00     0.087 C 
HETATM    7  C7  UNL     1     -34.588   6.276   5.932  1.00 20.00     0.036 C 
HETATM    8  C8  UNL     1     -32.582   6.792   4.532  1.00 20.00     0.083 C 
HETATM    9  C9  UNL     1     -34.624   5.450   3.792  1.00 20.00     0.021 C 
HETATM   10  C10 UNL     1     -33.628   5.780   4.880  1.00 20.00     0.020 C 
HETATM   11  O11 UNL     1     -32.700   7.815   2.317  1.00 20.00    -0.297 OA
ENDROOT
TORSDOF 0
