REMARK  1 active torsions:
REMARK  status: ('A' for Active; 'I' for Inactive)
REMARK    1  A    between atoms: C10_10  and  O12_12 
ROOT
HETATM    1  C1  UNL     1     -36.051   5.217   4.012  1.00 20.00     0.011 A 
HETATM    2  C2  UNL     1     -33.828   5.173   1.538  1.00 20.00     0.013 A 
HETATM    3  C3  UNL     1     -34.124   7.214   5.845  1.00 20.00     0.013 A 
HETATM    4  C4  UNL     1     -34.992   4.186   3.732  1.00 20.00    -0.005 A 
HETATM    5  C5  UNL     1     -35.085   4.834   5.102  1.00 20.00    -0.005 A 
HETATM    6  C6  UNL     1     -33.790   4.361   2.810  1.00 20.00    -0.003 A 
HETATM    7  C7  UNL     1     -33.987   5.721   5.679  1.00 20.00    -0.003 A 
HETATM    8  C8  UNL     1     -32.936   5.604   2.669  1.00 20.00     0.020 A 
HETATM    9  C9  UNL     1     -33.089   6.662   4.904  1.00 20.00     0.020 A 
HETATM   10  C10 UNL     1     -33.231   6.864   3.425  1.00 20.00     0.129 C 
ENDROOT
BRANCH  10  11
HETATM   11  O12 UNL     1     -32.306   7.868   3.002  1.00 20.00    -0.390 OA
HETATM   12  C11 UNL     1     -32.087   7.807   1.602  1.00 20.00     0.202 C 
ENDBRANCH  10  11
TORSDOF 1
