REMARK  0 active torsions:
REMARK  status: ('A' for Active; 'I' for Inactive)
ROOT
HETATM    1  C1  UNL     1     -35.762   5.915   4.751  1.00 20.00    -0.002 C 
HETATM    2  C2  UNL     1     -34.103   4.322   5.755  1.00 20.00    -0.002 C 
HETATM    3  C3  UNL     1     -35.687   5.637   3.440  1.00 20.00    -0.022 C 
HETATM    4  C4  UNL     1     -33.633   3.665   4.684  1.00 20.00    -0.022 C 
HETATM    5  C5  UNL     1     -32.820   6.599   4.111  1.00 20.00     0.079 C 
HETATM    6  C6  UNL     1     -34.605   5.733   5.688  1.00 20.00     0.128 C 
HETATM    7  C7  UNL     1     -34.516   5.137   2.707  1.00 20.00     0.028 A 
HETATM    8  C8  UNL     1     -33.517   4.177   3.312  1.00 20.00     0.028 A 
HETATM    9  C9  UNL     1     -33.116   5.610   3.033  1.00 20.00     0.063 A 
HETATM   10  N10 UNL     1     -33.516   6.624   5.300  1.00 20.00    -0.373 N 
HETATM   11  S11 UNL     1     -31.588   7.687   3.802  1.00 20.00    -0.065 SA
HETATM   12  H20 UNL     1     -33.244   7.333   5.974  1.00 20.00     0.161 HD
ENDROOT
TORSDOF 0
