REMARK  2 active torsions:
REMARK  status: ('A' for Active; 'I' for Inactive)
REMARK    1  A    between atoms: C6_6  and  C10_10 
REMARK    2  A    between atoms: C10_10  and  O11_11 
ROOT
HETATM    1  C1  UNL     1     -35.160   4.688   4.602  1.00 20.00    -0.024 C 
HETATM    2  C2  UNL     1     -34.562   5.634   3.855  1.00 20.00    -0.081 C 
HETATM    3  C3  UNL     1     -35.213   4.708   6.100  1.00 20.00     0.027 C 
HETATM    4  C4  UNL     1     -34.846   6.067   6.688  1.00 20.00     0.004 C 
HETATM    5  C5  UNL     1     -33.611   6.635   6.000  1.00 20.00     0.012 C 
HETATM    6  C6  UNL     1     -33.837   6.815   4.485  1.00 20.00     0.042 C 
HETATM    7  C7  UNL     1     -34.639   5.580   2.354  1.00 20.00     0.043 C 
ENDROOT
BRANCH   6   8
HETATM    8  C10 UNL     1     -32.488   7.116   3.821  1.00 20.00     0.124 C 
HETATM    9  C8  UNL     1     -31.760   5.841   3.441  1.00 20.00     0.040 C 
BRANCH   8  10
HETATM   10  O11 UNL     1     -32.715   7.902   2.660  1.00 20.00    -0.390 OA
HETATM   11  C9  UNL     1     -32.916   9.270   2.986  1.00 20.00     0.202 C 
ENDBRANCH   8  10
ENDBRANCH   6   8
TORSDOF 2
