REMARK  0 active torsions:
REMARK  status: ('A' for Active; 'I' for Inactive)
ROOT
HETATM    1  C1  UNL     1     -33.362   6.854   5.827  1.00 20.00     0.064 C 
HETATM    2  C2  UNL     1     -34.731   4.931   3.343  1.00 20.00    -0.030 C 
HETATM    3  C3  UNL     1     -35.482   6.037   3.344  1.00 20.00    -0.030 C 
HETATM    4  C4  UNL     1     -33.240   4.895   3.312  1.00 20.00     0.037 C 
HETATM    5  C5  UNL     1     -34.984   7.444   3.286  1.00 20.00     0.038 C 
HETATM    6  C6  UNL     1     -31.748   7.568   0.896  1.00 20.00     0.001 C 
HETATM    7  C7  UNL     1     -32.832   8.618   1.105  1.00 20.00     0.001 C 
HETATM    8  C8  UNL     1     -32.168   6.217   1.459  1.00 20.00     0.011 C 
HETATM    9  C9  UNL     1     -33.028   8.872   2.593  1.00 20.00     0.012 C 
HETATM   10  C10 UNL     1     -31.585   6.703   4.005  1.00 20.00     0.030 C 
HETATM   11  C11 UNL     1     -32.702   7.520   4.719  1.00 20.00     0.103 C 
HETATM   12  C12 UNL     1     -32.631   6.266   2.925  1.00 20.00    -0.027 C 
HETATM   13  C13 UNL     1     -33.453   7.569   3.329  1.00 20.00    -0.013 C 
HETATM   14  N14 UNL     1     -33.890   6.322   6.712  1.00 20.00    -0.197 NA
ENDROOT
TORSDOF 0
