REMARK  1 active torsions:
REMARK  status: ('A' for Active; 'I' for Inactive)
REMARK    1  A    between atoms: C4_4  and  C11_11 
ROOT
HETATM    1  C1  UNL     1     -33.975   5.960   2.606  1.00 20.00     0.027 A 
HETATM    2  C2  UNL     1     -33.333   6.747   4.786  1.00 20.00     0.034 A 
HETATM    3  C3  UNL     1     -34.610   4.900   3.234  1.00 20.00     0.117 A 
HETATM    4  C4  UNL     1     -33.327   6.896   3.404  1.00 20.00    -0.047 A 
HETATM    5  C5  UNL     1     -33.997   5.652   5.317  1.00 20.00     0.030 A 
HETATM    6  C12 UNL     1     -34.024   5.460   6.797  1.00 20.00     0.070 C 
HETATM    7  N13 UNL     1     -34.637   4.722   4.574  1.00 20.00    -0.266 NA
ENDROOT
BRANCH   4   8
HETATM    8  C11 UNL     1     -32.615   8.078   2.766  1.00 20.00     0.041 C 
HETATM    9  C7  UNL     1     -31.452   7.653   1.899  1.00 20.00    -0.021 C 
HETATM   10  C6  UNL     1     -31.183   8.210   0.709  1.00 20.00    -0.030 C 
HETATM   11  C8  UNL     1     -31.981   9.339   0.131  1.00 20.00     0.027 C 
HETATM   12  C9  UNL     1     -32.894  10.014   1.156  1.00 20.00     0.005 C 
HETATM   13  C10 UNL     1     -33.618   8.979   2.015  1.00 20.00     0.013 C 
ENDBRANCH   4   8
TORSDOF 1
