REMARK  3 active torsions:
REMARK  status: ('A' for Active; 'I' for Inactive)
REMARK    1  A    between atoms: C6_6  and  C7_7 
REMARK    2  A    between atoms: C8_8  and  C10_10 
REMARK    3  A    between atoms: C9_9  and  C11_11 
ROOT
HETATM    1  C1  UNL     1     -32.696   7.330   6.107  1.00 20.00    -0.021 C 
HETATM    2  C2  UNL     1     -34.002   7.484   5.796  1.00 20.00    -0.020 C 
HETATM    3  C5  UNL     1     -32.808   4.962   5.422  1.00 20.00    -0.003 C 
HETATM    4  C6  UNL     1     -34.106   5.126   5.109  1.00 20.00     0.024 C 
HETATM    5  C8  UNL     1     -31.982   6.242   5.298  1.00 20.00     0.039 C 
HETATM    6  C9  UNL     1     -34.499   6.538   4.698  1.00 20.00     0.056 C 
ENDROOT
BRANCH   4   7
HETATM    7  C7  UNL     1     -35.088   3.985   5.154  1.00 20.00     0.205 C 
HETATM    8  O12 UNL     1     -34.835   3.083   6.007  1.00 20.00    -0.644 OA
HETATM    9  O13 UNL     1     -36.050   4.062   4.334  1.00 20.00    -0.644 OA
ENDBRANCH   4   7
BRANCH   6  10
HETATM   10  C11 UNL     1     -33.625   6.930   3.463  1.00 20.00     0.029 A 
HETATM   11  C4  UNL     1     -33.365   5.920   2.358  1.00 20.00    -0.024 A 
HETATM   12  C3  UNL     1     -32.063   5.763   2.670  1.00 20.00    -0.024 A 
HETATM   13  C10 UNL     1     -32.103   6.748   3.825  1.00 20.00     0.028 A 
ENDBRANCH   6  10
TORSDOF 3
