REMARK  0 active torsions:
REMARK  status: ('A' for Active; 'I' for Inactive)
ROOT
HETATM    1  C1  UNL     1     -34.076   8.090   2.399  1.00 20.00     0.052 A 
HETATM    2  C2  UNL     1     -31.816   6.974   3.591  1.00 20.00     0.126 A 
HETATM    3  C3  UNL     1     -34.151   6.899   3.080  1.00 20.00    -0.043 A 
HETATM    4  C4  UNL     1     -33.021   6.333   3.683  1.00 20.00    -0.028 A 
HETATM    5  C5  UNL     1     -32.814   8.667   2.351  1.00 20.00     0.126 A 
HETATM    6  C6  UNL     1     -34.538   4.640   3.341  1.00 20.00     0.020 C 
HETATM    7  C7  UNL     1     -35.616   6.103   4.892  1.00 20.00     0.030 C 
HETATM    8  C8  UNL     1     -35.307   5.979   3.382  1.00 20.00     0.021 C 
HETATM    9  C9  UNL     1     -33.467   5.069   4.370  1.00 20.00     0.040 C 
HETATM   10  C10 UNL     1     -34.390   5.415   5.563  1.00 20.00     0.091 C 
HETATM   11  N11 UNL     1     -31.689   8.145   2.923  1.00 20.00    -0.248 NA
HETATM   12 CL12 UNL     1     -32.564  10.156   1.532  1.00 20.00    -0.062 Cl
HETATM   13 CL13 UNL     1     -33.615   6.430   6.794  1.00 20.00    -0.124 Cl
ENDROOT
TORSDOF 0
