REMARK  3 active torsions:
REMARK  status: ('A' for Active; 'I' for Inactive)
REMARK    1  A    between atoms: C3_3  and  C7_7 
REMARK    2  A    between atoms: C6_6  and  N9_9 
REMARK    3  A    between atoms: C7_7  and  N9_9 
ROOT
HETATM    1  C1  UNL     1     -34.161   5.956   5.465  1.00 20.00     0.089 C 
HETATM    2  C6  UNL     1     -33.584   6.958   4.570  1.00 20.00     0.395 C 
HETATM    3  N8  UNL     1     -34.620   5.163   6.177  1.00 20.00    -0.195 NA
ENDROOT
BRANCH   2   4
HETATM    4  N9  UNL     1     -32.588   6.350   3.674  1.00 20.00     0.100 N 
HETATM    5  C5  UNL     1     -33.277   5.677   2.561  1.00 20.00     0.311 C 
BRANCH   4   6
HETATM    6  C7  UNL     1     -31.648   7.325   3.197  1.00 20.00     0.300 C 
BRANCH   6   7
HETATM    7  C3  UNL     1     -32.372   8.354   2.392  1.00 20.00    -0.002 C 
HETATM    8  C2  UNL     1     -32.108   8.611   1.103  1.00 20.00    -0.033 C 
HETATM    9  C4  UNL     1     -32.833   9.634   0.293  1.00 20.00     0.036 C 
ENDBRANCH   6   7
ENDBRANCH   4   6
ENDBRANCH   2   4
TORSDOF 3
