REMARK  2 active torsions:
REMARK  status: ('A' for Active; 'I' for Inactive)
REMARK    1  A    between atoms: C7_7  and  C9_9 
REMARK    2  A    between atoms: C8_8  and  C9_9 
ROOT
HETATM    1  C1  UNL     1     -31.996   9.100   1.082  1.00 20.00     0.012 C 
HETATM    2  C2  UNL     1     -32.290   8.077   1.638  1.00 20.00    -0.117 C 
HETATM    3  C8  UNL     1     -32.647   6.823   2.315  1.00 20.00     0.093 C 
ENDROOT
BRANCH   3   4
HETATM    4  C9  UNL     1     -33.183   7.106   3.708  1.00 20.00     0.017 C 
BRANCH   4   5
HETATM    5  C7  UNL     1     -33.558   5.817   4.421  1.00 20.00    -0.006 C 
HETATM    6  C5  UNL     1     -34.147   6.057   5.813  1.00 20.00     0.082 C 
HETATM    7  C3  UNL     1     -34.991   4.823   6.006  1.00 20.00     0.127 C 
HETATM    8  C4  UNL     1     -35.160   4.042   4.729  1.00 20.00     0.079 C 
HETATM    9  O10 UNL     1     -35.481   4.493   7.078  1.00 20.00    -0.298 OA
HETATM   10  C6  UNL     1     -34.647   5.030   3.690  1.00 20.00     0.012 C 
ENDBRANCH   4   5
ENDBRANCH   3   4
TORSDOF 2
