REMARK  0 active torsions:
REMARK  status: ('A' for Active; 'I' for Inactive)
ROOT
HETATM    1  C1  UNL     1     -35.636   5.451   3.090  1.00 20.00    -0.023 C 
HETATM    2  C2  UNL     1     -35.949   5.116   4.356  1.00 20.00    -0.013 C 
HETATM    3  C3  UNL     1     -33.884   6.023   5.528  1.00 20.00     0.140 C 
HETATM    4  C4  UNL     1     -33.260   6.983   4.533  1.00 20.00     0.088 C 
HETATM    5  C5  UNL     1     -34.175   5.047   3.233  1.00 20.00     0.035 C 
HETATM    6  C6  UNL     1     -34.510   4.821   4.738  1.00 20.00     0.042 C 
HETATM    7  C7  UNL     1     -33.078   6.144   3.240  1.00 20.00    -0.033 C 
HETATM    8  C8  UNL     1     -34.226   3.449   5.315  1.00 20.00     0.029 C 
HETATM    9  C9  UNL     1     -33.177   7.020   1.988  1.00 20.00     0.016 C 
HETATM   10  C10 UNL     1     -31.700   5.455   3.259  1.00 20.00     0.016 C 
HETATM   11  O11 UNL     1     -33.908   6.239   6.735  1.00 20.00    -0.297 OA
ENDROOT
TORSDOF 0
