REMARK  0 active torsions:
REMARK  status: ('A' for Active; 'I' for Inactive)
ROOT
HETATM    1  C1  UNL     1     -34.995   3.824   5.453  1.00 20.00    -0.029 C 
HETATM    2  C2  UNL     1     -34.984   4.172   4.149  1.00 20.00    -0.014 C 
HETATM    3  C3  UNL     1     -33.830   6.578   4.086  1.00 20.00     0.143 C 
HETATM    4  C4  UNL     1     -34.321   4.473   6.641  1.00 20.00     0.032 C 
HETATM    5  C5  UNL     1     -33.318   6.997   6.692  1.00 20.00     0.018 A 
HETATM    6  C6  UNL     1     -34.161   6.648   5.513  1.00 20.00     0.061 A 
HETATM    7  C7  UNL     1     -33.400   5.567   6.255  1.00 20.00     0.001 A 
HETATM    8  C8  UNL     1     -34.335   5.310   3.346  1.00 20.00     0.031 C 
HETATM    9  C9  UNL     1     -33.140   4.715   2.581  1.00 20.00     0.027 C 
HETATM   10  C10 UNL     1     -35.382   5.819   2.334  1.00 20.00     0.027 C 
HETATM   11  O11 UNL     1     -33.217   7.491   3.547  1.00 20.00    -0.296 OA
ENDROOT
TORSDOF 0
