REMARK  0 active torsions:
REMARK  status: ('A' for Active; 'I' for Inactive)
ROOT
HETATM    1  C1  UNL     1     -35.732   4.463   4.965  1.00 20.00    -0.017 C 
HETATM    2  C2  UNL     1     -35.504   4.119   3.660  1.00 20.00    -0.019 C 
HETATM    3  C3  UNL     1     -33.951   6.337   5.726  1.00 20.00     0.136 C 
HETATM    4  C4  UNL     1     -32.668   6.913   5.121  1.00 20.00     0.083 C 
HETATM    5  C5  UNL     1     -33.972   8.309   1.889  1.00 20.00     0.000 C 
HETATM    6  C6  UNL     1     -32.596   8.638   2.457  1.00 20.00     0.000 C 
HETATM    7  C7  UNL     1     -35.011   7.947   2.953  1.00 20.00     0.001 C 
HETATM    8  C8  UNL     1     -31.701   7.442   2.781  1.00 20.00     0.005 C 
HETATM    9  C9  UNL     1     -35.519   6.512   2.892  1.00 20.00     0.014 C 
HETATM   10  C10 UNL     1     -33.213   5.359   2.938  1.00 20.00     0.019 C 
HETATM   11  C11 UNL     1     -34.364   5.079   5.009  1.00 20.00     0.090 C 
HETATM   12  C12 UNL     1     -32.258   6.345   3.711  1.00 20.00    -0.007 C 
HETATM   13  C13 UNL     1     -34.628   5.394   3.493  1.00 20.00    -0.009 C 
HETATM   14  O14 UNL     1     -34.507   6.847   6.696  1.00 20.00    -0.297 OA
ENDROOT
TORSDOF 0
