REMARK  3 active torsions:
REMARK  status: ('A' for Active; 'I' for Inactive)
REMARK    1  A    between atoms: C2_2  and  C8_8 
REMARK    2  A    between atoms: C4_4  and  N9_9 
REMARK    3  A    between atoms: C8_8  and  N9_9 
ROOT
HETATM    1  N9  UNL     1     -33.032   7.894   3.345  1.00 20.00     0.093 N 
HETATM    2  H24 UNL     1     -33.494   8.719   3.717  1.00 20.00     0.316 HD
ENDROOT
BRANCH   1   3
HETATM    3  C4  UNL     1     -34.054   6.982   2.819  1.00 20.00     0.229 A 
HETATM    4  C3  UNL     1     -33.746   5.522   2.618  1.00 20.00     0.047 A 
HETATM    5  C5  UNL     1     -34.734   5.936   3.685  1.00 20.00    -0.015 A 
HETATM    6  C6  UNL     1     -34.326   5.765   5.125  1.00 20.00     0.017 C 
HETATM    7  C7  UNL     1     -36.196   5.675   3.430  1.00 20.00     0.017 C 
ENDBRANCH   1   3
BRANCH   1   8
HETATM    8  C8  UNL     1     -32.106   8.282   2.296  1.00 20.00     0.320 C 
BRANCH   8   9
HETATM    9  C2  UNL     1     -32.655   9.364   1.414  1.00 20.00     0.030 C 
HETATM   10  C1  UNL     1     -32.862   9.226   0.098  1.00 20.00     0.034 C 
HETATM   11 CL10 UNL     1     -32.967  10.888   2.178  1.00 20.00    -0.088 Cl
ENDBRANCH   8   9
ENDBRANCH   1   8
TORSDOF 3
