REMARK  2 active torsions:
REMARK  status: ('A' for Active; 'I' for Inactive)
REMARK    1  A    between atoms: C6_6  and  N9_9 
REMARK    2  A    between atoms: C7_7  and  N9_9 
ROOT
HETATM    1  C1  UNL     1     -31.880   7.475   3.774  1.00 20.00     0.013 C 
HETATM    2  C2  UNL     1     -32.765   6.671   3.671  1.00 20.00    -0.087 C 
HETATM    3  C6  UNL     1     -33.843   5.687   3.541  1.00 20.00     0.366 C 
ENDROOT
BRANCH   3   4
HETATM    4  N9  UNL     1     -34.948   6.009   4.442  1.00 20.00     0.112 N 
HETATM    5  C5  UNL     1     -36.177   5.351   4.000  1.00 20.00     0.312 C 
BRANCH   4   6
HETATM    6  C7  UNL     1     -34.622   5.616   5.812  1.00 20.00     0.325 C 
HETATM    7  C3  UNL     1     -33.708   6.598   6.410  1.00 20.00     0.095 C 
HETATM    8  N8  UNL     1     -32.987   7.373   6.886  1.00 20.00    -0.195 NA
HETATM    9  C4  UNL     1     -34.017   4.218   5.842  1.00 20.00     0.059 C 
ENDBRANCH   4   6
ENDBRANCH   3   4
TORSDOF 2
