REMARK  1 active torsions:
REMARK  status: ('A' for Active; 'I' for Inactive)
REMARK    1  A    between atoms: C6_6  and  N10_10 
ROOT
HETATM    1  C1  UNL     1     -34.752   4.817   5.314  1.00 20.00     0.156 C 
HETATM    2  C2  UNL     1     -35.292   4.477   3.955  1.00 20.00     0.110 C 
HETATM    3  C3  UNL     1     -33.682   5.873   5.225  1.00 20.00     0.350 C 
HETATM    4  C5  UNL     1     -34.715   5.622   3.134  1.00 20.00     0.281 C 
HETATM    5  N10 UNL     1     -33.432   5.908   3.783  1.00 20.00     0.101 N 
HETATM    6  O11 UNL     1     -35.131   4.303   6.357  1.00 20.00    -0.296 OA
ENDROOT
BRANCH   5   7
HETATM    7  C6  UNL     1     -32.857   7.173   3.349  1.00 20.00     0.232 A 
HETATM    8  C4  UNL     1     -31.379   7.427   3.481  1.00 20.00     0.047 A 
HETATM    9  C7  UNL     1     -31.994   7.290   2.106  1.00 20.00    -0.015 A 
HETATM   10  C8  UNL     1     -31.654   6.061   1.303  1.00 20.00     0.017 C 
HETATM   11  C9  UNL     1     -32.147   8.538   1.275  1.00 20.00     0.017 C 
ENDBRANCH   5   7
TORSDOF 1
