REMARK  3 active torsions:
REMARK  status: ('A' for Active; 'I' for Inactive)
REMARK    1  A    between atoms: C2_2  and  N8_8 
REMARK    2  A    between atoms: C6_6  and  C7_7 
REMARK    3  A    between atoms: C6_6  and  N8_8 
ROOT
HETATM    1  N8  UNL     1     -34.005   7.232   3.525  1.00 20.00     0.097 N 
HETATM    2  H23 UNL     1     -34.844   7.069   2.974  1.00 20.00     0.316 HD
ENDROOT
BRANCH   1   3
HETATM    3  C2  UNL     1     -32.835   6.873   2.716  1.00 20.00     0.229 A 
HETATM    4  C1  UNL     1     -31.478   7.415   3.075  1.00 20.00     0.047 A 
HETATM    5  C3  UNL     1     -32.156   7.883   1.808  1.00 20.00    -0.015 A 
HETATM    6  C4  UNL     1     -31.618   7.381   0.494  1.00 20.00     0.017 C 
HETATM    7  C5  UNL     1     -32.655   9.304   1.764  1.00 20.00     0.017 C 
ENDBRANCH   1   3
BRANCH   1   8
HETATM    8  C6  UNL     1     -34.053   6.433   4.737  1.00 20.00     0.386 C 
BRANCH   8   9
HETATM    9  C7  UNL     1     -34.652   5.072   4.483  1.00 20.00     0.413 C 
HETATM   10  F9  UNL     1     -34.683   4.349   5.624  1.00 20.00    -0.169 F 
HETATM   11  F10 UNL     1     -35.919   5.169   4.026  1.00 20.00    -0.169 F 
HETATM   12  F11 UNL     1     -33.931   4.377   3.578  1.00 20.00    -0.169 F 
ENDBRANCH   8   9
ENDBRANCH   1   8
TORSDOF 3
