REMARK  2 active torsions:
REMARK  status: ('A' for Active; 'I' for Inactive)
REMARK    1  A    between atoms: C3_3  and  N10_10 
REMARK    2  A    between atoms: C8_8  and  N10_10 
ROOT
HETATM    1  C1  UNL     1     -34.221   6.767   4.658  1.00 20.00     0.094 C 
HETATM    2  C7  UNL     1     -33.625   5.273   2.789  1.00 20.00     0.059 C 
HETATM    3  C8  UNL     1     -33.663   6.707   3.301  1.00 20.00     0.322 C 
HETATM    4  N9  UNL     1     -34.665   6.816   5.729  1.00 20.00    -0.195 NA
ENDROOT
BRANCH   3   5
HETATM    5  N10 UNL     1     -32.333   7.292   3.286  1.00 20.00     0.106 N 
HETATM    6  H24 UNL     1     -31.659   6.618   3.637  1.00 20.00     0.318 HD
BRANCH   5   7
HETATM    7  C3  UNL     1     -31.952   7.672   1.922  1.00 20.00     0.230 A 
HETATM    8  C2  UNL     1     -30.862   8.686   1.700  1.00 20.00     0.047 A 
HETATM    9  C4  UNL     1     -32.291   9.038   1.352  1.00 20.00    -0.015 A 
HETATM   10  C5  UNL     1     -32.665   9.108  -0.105  1.00 20.00     0.017 C 
HETATM   11  C6  UNL     1     -32.992  10.055   2.215  1.00 20.00     0.017 C 
ENDBRANCH   5   7
ENDBRANCH   3   5
TORSDOF 2
