REMARK  0 active torsions:
REMARK  status: ('A' for Active; 'I' for Inactive)
ROOT
HETATM    1  C1  UNL     1     -34.482   4.984   3.101  1.00 20.00     0.035 A 
HETATM    2  C2  UNL     1     -34.998   4.626   4.350  1.00 20.00     0.026 A 
HETATM    3  C3  UNL     1     -33.627   6.303   5.440  1.00 20.00     0.045 A 
HETATM    4  C4  UNL     1     -33.524   6.017   3.009  1.00 20.00     0.077 A 
HETATM    5  C5  UNL     1     -33.114   6.658   4.182  1.00 20.00     0.039 A 
HETATM    6  C6  UNL     1     -34.575   5.278   5.503  1.00 20.00     0.035 A 
HETATM    7  C7  UNL     1     -32.087   7.444   2.135  1.00 20.00     0.253 A 
HETATM    8  N8  UNL     1     -32.927   6.479   1.845  1.00 20.00    -0.213 NA
HETATM    9  F9  UNL     1     -31.375   8.067   1.185  1.00 20.00    -0.176 F 
HETATM   10  S10 UNL     1     -31.949   7.866   3.786  1.00 20.00    -0.037 SA
HETATM   11 CL11 UNL     1     -35.227   4.820   7.031  1.00 20.00    -0.084 Cl
ENDROOT
TORSDOF 0
