REMARK  0 active torsions:
REMARK  status: ('A' for Active; 'I' for Inactive)
ROOT
HETATM    1  C1  UNL     1     -32.861   6.671   4.758  1.00 20.00     0.060 A 
HETATM    2  C2  UNL     1     -34.369   5.369   2.766  1.00 20.00     0.065 A 
HETATM    3  C3  UNL     1     -32.244   8.351   1.673  1.00 20.00     0.167 A 
HETATM    4  C4  UNL     1     -32.804   7.134   3.426  1.00 20.00     0.076 A 
HETATM    5  C5  UNL     1     -34.407   4.931   4.092  1.00 20.00     0.139 A 
HETATM    6  C6  UNL     1     -33.561   6.474   2.453  1.00 20.00     0.038 A 
HETATM    7  C7  UNL     1     -33.664   5.571   5.076  1.00 20.00     0.074 A 
HETATM    8  N8  UNL     1     -32.056   8.207   2.964  1.00 20.00    -0.253 NA
HETATM    9  F9  UNL     1     -35.177   3.877   4.401  1.00 20.00    -0.204 F 
HETATM   10  S10 UNL     1     -33.309   7.238   0.928  1.00 20.00    -0.080 SA
HETATM   11 CL11 UNL     1     -33.726   5.015   6.706  1.00 20.00    -0.081 Cl
ENDROOT
TORSDOF 0
