REMARK  1 active torsions:
REMARK  status: ('A' for Active; 'I' for Inactive)
REMARK    1  A    between atoms: C6_6  and  N7_7 
ROOT
HETATM    1  C1  UNL     1     -34.029   7.249   6.810  1.00 20.00     0.015 C 
HETATM    2  C2  UNL     1     -34.272   6.285   6.135  1.00 20.00    -0.084 C 
HETATM    3  C4  UNL     1     -34.745   3.863   6.182  1.00 20.00     0.055 C 
HETATM    4  C5  UNL     1     -35.804   5.339   4.442  1.00 20.00     0.055 C 
HETATM    5  C6  UNL     1     -34.572   5.104   5.311  1.00 20.00     0.112 C 
ENDROOT
BRANCH   5   6
HETATM    6  N7  UNL     1     -33.409   4.895   4.442  1.00 20.00    -0.224 NA
HETATM    7  C3  UNL     1     -33.170   5.797   3.732  1.00 20.00     0.333 C 
HETATM    8  O8  UNL     1     -32.925   6.699   3.018  1.00 20.00    -0.260 OA
ENDBRANCH   5   6
TORSDOF 1
