REMARK  0 active torsions:
REMARK  status: ('A' for Active; 'I' for Inactive)
ROOT
HETATM    1  C1  UNL     1     -32.802   5.959   2.499  1.00 20.00     0.042 C 
HETATM    2  C2  UNL     1     -34.454   4.150   5.465  1.00 20.00    -0.026 A 
HETATM    3  C3  UNL     1     -34.929   5.187   6.168  1.00 20.00    -0.026 A 
HETATM    4  C4  UNL     1     -33.484   5.742   3.766  1.00 20.00    -0.050 A 
HETATM    5  C5  UNL     1     -33.960   6.791   4.474  1.00 20.00    -0.067 A 
HETATM    6  C6  UNL     1     -32.371   7.185   2.179  1.00 20.00     0.079 C 
HETATM    7  C7  UNL     1     -33.684   4.308   4.187  1.00 20.00     0.065 A 
HETATM    8  C8  UNL     1     -34.738   6.616   5.755  1.00 20.00     0.061 A 
HETATM    9  C9  UNL     1     -33.749   8.221   4.009  1.00 20.00     0.074 C 
HETATM   10  C10 UNL     1     -31.977   8.974   0.984  1.00 20.00     0.345 C 
HETATM   11  C11 UNL     1     -32.550   8.358   3.067  1.00 20.00     0.184 C 
HETATM   12  O12 UNL     1     -31.887   7.542   0.942  1.00 20.00    -0.328 OA
HETATM   13  O13 UNL     1     -32.713   9.417   2.133  1.00 20.00    -0.354 OA
ENDROOT
TORSDOF 0
