REMARK  0 active torsions:
REMARK  status: ('A' for Active; 'I' for Inactive)
ROOT
HETATM    1  C1  UNL     1     -34.350   4.860   4.990  1.00 20.00     0.317 C 
HETATM    2  C2  UNL     1     -33.721   5.621   4.093  1.00 20.00     0.253 C 
HETATM    3  F3  UNL     1     -35.222   3.906   4.600  1.00 20.00    -0.169 F 
HETATM    4  F4  UNL     1     -34.112   5.047   6.305  1.00 20.00    -0.169 F 
HETATM    5  F5  UNL     1     -32.856   6.565   4.524  1.00 20.00    -0.187 F 
HETATM    6 CL6  UNL     1     -33.980   5.435   2.402  1.00 20.00    -0.046 Cl
ENDROOT
TORSDOF 0
