REMARK  0 active torsions:
REMARK  status: ('A' for Active; 'I' for Inactive)
ROOT
HETATM    1  C1  UNL     1     -35.635   5.344   4.315  1.00 20.00     0.089 C 
HETATM    2  C2  UNL     1     -34.276   5.450   4.984  1.00 20.00     0.251 C 
HETATM    3  F3  UNL     1     -33.964   4.240   5.521  1.00 20.00    -0.208 F 
HETATM    4 CL4  UNL     1     -34.320   6.659   6.286  1.00 20.00    -0.066 Cl
HETATM    5 CL5  UNL     1     -33.032   5.885   3.790  1.00 20.00    -0.066 Cl
ENDROOT
TORSDOF 0
