REMARK  1 active torsions:
REMARK  status: ('A' for Active; 'I' for Inactive)
REMARK    1  A    between atoms: C1_1  and  C2_2 
ROOT
HETATM    1  C2  UNL     1     -34.343   5.773   4.220  1.00 20.00     0.447 C 
HETATM    2  F5  UNL     1     -34.330   7.110   4.045  1.00 20.00    -0.166 F 
HETATM    3  F6  UNL     1     -33.068   5.332   4.165  1.00 20.00    -0.166 F 
HETATM    4  F7  UNL     1     -35.014   5.223   3.186  1.00 20.00    -0.166 F 
ENDROOT
BRANCH   1   5
HETATM    5  C1  UNL     1     -34.980   5.404   5.527  1.00 20.00     0.459 C 
HETATM    6  F3  UNL     1     -34.266   5.939   6.547  1.00 20.00    -0.205 F 
HETATM    7  F4  UNL     1     -34.948   4.059   5.686  1.00 20.00    -0.205 F 
ENDBRANCH   1   5
TORSDOF 1
