REMARK  0 active torsions:
REMARK  status: ('A' for Active; 'I' for Inactive)
ROOT
HETATM    1  C1  UNL     1     -32.900   7.395   2.831  1.00 20.00     0.085 C 
HETATM    2  C2  UNL     1     -33.609   6.500   5.026  1.00 20.00     0.067 C 
HETATM    3  C3  UNL     1     -34.525   5.529   2.896  1.00 20.00     0.067 C 
HETATM    4  C4  UNL     1     -34.240   5.314   5.752  1.00 20.00     0.170 C 
HETATM    5  C5  UNL     1     -35.103   4.399   3.744  1.00 20.00     0.170 C 
HETATM    6  C6  UNL     1     -33.300   6.179   3.556  1.00 20.00     0.129 C 
HETATM    7  N7  UNL     1     -32.585   8.354   2.258  1.00 20.00    -0.195 NA
HETATM    8  O8  UNL     1     -35.402   4.858   5.061  1.00 20.00    -0.391 OA
HETATM    9 CL9  UNL     1     -31.894   5.060   3.462  1.00 20.00    -0.103 Cl
ENDROOT
TORSDOF 0
