REMARK  2 active torsions:
REMARK  status: ('A' for Active; 'I' for Inactive)
REMARK    1  A    between atoms: C4_4  and  C5_5 
REMARK    2  A    between atoms: C4_4  and  C6_6 
ROOT
HETATM    1  C1  UNL     1     -32.313   7.236   3.315  1.00 20.00     0.079 C 
HETATM    2  C5  UNL     1     -32.965   6.619   4.476  1.00 20.00     0.189 C 
HETATM    3  N7  UNL     1     -31.797   7.720   2.395  1.00 20.00    -0.196 NA
HETATM    4 CL8  UNL     1     -32.637   7.674   5.886  1.00 20.00    -0.109 Cl
ENDROOT
BRANCH   2   5
HETATM    5  C4  UNL     1     -34.480   6.477   4.292  1.00 20.00     0.039 C 
BRANCH   5   6
HETATM    6  C6  UNL     1     -35.159   5.471   5.247  1.00 20.00    -0.020 C 
HETATM    7  C2  UNL     1     -34.607   4.053   5.090  1.00 20.00     0.009 C 
HETATM    8  C3  UNL     1     -34.983   5.935   6.696  1.00 20.00     0.009 C 
ENDBRANCH   5   6
ENDBRANCH   2   5
TORSDOF 2
