REMARK  1 active torsions:
REMARK  status: ('A' for Active; 'I' for Inactive)
REMARK    1  A    between atoms: C4_4  and  C5_5 
ROOT
HETATM    1  C1  UNL     1     -33.065   5.844   4.058  1.00 20.00     0.085 C 
HETATM    2  C3  UNL     1     -35.436   5.208   3.940  1.00 20.00     0.049 C 
HETATM    3  C5  UNL     1     -34.259   5.535   4.866  1.00 20.00     0.121 C 
HETATM    4  N6  UNL     1     -32.128   6.089   3.420  1.00 20.00    -0.195 NA
HETATM    5 CL7  UNL     1     -33.882   4.064   5.825  1.00 20.00    -0.103 Cl
ENDROOT
BRANCH   3   6
HETATM    6  C4  UNL     1     -34.634   6.708   5.794  1.00 20.00     0.036 C 
HETATM    7  C2  UNL     1     -33.567   7.121   6.806  1.00 20.00     0.008 C 
ENDBRANCH   3   6
TORSDOF 1
