REMARK  1 active torsions:
REMARK  status: ('A' for Active; 'I' for Inactive)
REMARK    1  A    between atoms: C5_5  and  C6_6 
ROOT
HETATM    1  C1  UNL     1     -32.665   6.877   3.397  1.00 20.00     0.080 C 
HETATM    2  C5  UNL     1     -33.441   5.677   3.752  1.00 20.00     0.196 C 
HETATM    3  N7  UNL     1     -32.049   7.820   3.118  1.00 20.00    -0.196 NA
HETATM    4 CL8  UNL     1     -34.225   5.117   2.239  1.00 20.00    -0.109 Cl
ENDROOT
BRANCH   2   5
HETATM    5  C6  UNL     1     -34.454   5.911   4.915  1.00 20.00    -0.022 C 
HETATM    6  C2  UNL     1     -33.704   6.322   6.201  1.00 20.00     0.017 C 
HETATM    7  C3  UNL     1     -35.409   7.069   4.549  1.00 20.00     0.017 C 
HETATM    8  C4  UNL     1     -35.303   4.661   5.226  1.00 20.00     0.017 C 
ENDBRANCH   2   5
TORSDOF 1
