REMARK  1 active torsions:
REMARK  status: ('A' for Active; 'I' for Inactive)
REMARK    1  A    between atoms: C5_5  and  C6_6 
ROOT
HETATM    1  C1  UNL     1     -32.739   7.327   2.471  1.00 20.00     0.080 C 
HETATM    2  C6  UNL     1     -33.306   5.985   2.645  1.00 20.00     0.195 C 
HETATM    3  N7  UNL     1     -32.288   8.387   2.331  1.00 20.00    -0.196 NA
HETATM    4 CL9  UNL     1     -31.955   4.847   2.901  1.00 20.00    -0.109 Cl
ENDROOT
BRANCH   2   5
HETATM    5  C5  UNL     1     -34.260   5.927   3.822  1.00 20.00     0.044 C 
HETATM    6  C2  UNL     1     -34.840   4.554   4.084  1.00 20.00     0.035 C 
HETATM    7  C3  UNL     1     -35.310   4.688   5.518  1.00 20.00     0.168 C 
HETATM    8  O8  UNL     1     -34.418   5.609   6.163  1.00 20.00    -0.391 OA
HETATM    9  C4  UNL     1     -33.605   6.234   5.158  1.00 20.00     0.174 C 
ENDBRANCH   2   5
TORSDOF 1
