REMARK  0 active torsions:
REMARK  status: ('A' for Active; 'I' for Inactive)
ROOT
HETATM    1  C1  UNL     1     -33.036   7.390   2.817  1.00 20.00     0.085 C 
HETATM    2  C2  UNL     1     -33.246   6.589   5.138  1.00 20.00     0.051 C 
HETATM    3  C3  UNL     1     -34.735   5.666   3.278  1.00 20.00     0.051 C 
HETATM    4  C4  UNL     1     -33.594   5.467   6.112  1.00 20.00     0.076 C 
HETATM    5  C5  UNL     1     -35.200   4.471   4.106  1.00 20.00     0.076 C 
HETATM    6  C6  UNL     1     -33.344   6.211   3.649  1.00 20.00     0.127 C 
HETATM    7  N7  UNL     1     -32.794   8.317   2.162  1.00 20.00    -0.195 NA
HETATM    8  S8  UNL     1     -35.289   4.865   5.874  1.00 20.00    -0.169 SA
HETATM    9 CL9  UNL     1     -32.081   4.994   3.242  1.00 20.00    -0.103 Cl
ENDROOT
TORSDOF 0
