REMARK  1 active torsions:
REMARK  status: ('A' for Active; 'I' for Inactive)
REMARK    1  A    between atoms: C5_5  and  C6_6 
ROOT
HETATM    1  C1  UNL     1     -32.434   7.764   2.815  1.00 20.00     0.084 C 
HETATM    2  C6  UNL     1     -32.196   6.472   3.497  1.00 20.00     0.222 C 
HETATM    3  N7  UNL     1     -32.621   8.767   2.264  1.00 20.00    -0.195 NA
HETATM    4 CL9  UNL     1     -32.186   5.191   2.238  1.00 20.00    -0.104 Cl
ENDROOT
BRANCH   2   5
HETATM    5  C5  UNL     1     -33.173   6.153   4.565  1.00 20.00    -0.019 A 
HETATM    6  C2  UNL     1     -33.353   6.942   5.738  1.00 20.00     0.017 A 
HETATM    7  C3  UNL     1     -34.323   6.423   6.566  1.00 20.00     0.050 A 
HETATM    8  S8  UNL     1     -35.012   4.990   5.930  1.00 20.00    -0.113 SA
HETATM    9  C4  UNL     1     -34.012   5.061   4.542  1.00 20.00     0.059 A 
ENDBRANCH   2   5
TORSDOF 1
