REMARK  1 active torsions:
REMARK  status: ('A' for Active; 'I' for Inactive)
REMARK    1  A    between atoms: C3_3  and  C8_8 
ROOT
HETATM    1  C1  UNL     1     -36.013   4.589   3.928  1.00 20.00    -0.029 C 
HETATM    2  C2  UNL     1     -35.748   3.656   4.850  1.00 20.00    -0.030 C 
HETATM    3  C4  UNL     1     -35.147   5.771   3.631  1.00 20.00     0.045 C 
HETATM    4  C5  UNL     1     -34.555   3.681   5.747  1.00 20.00     0.037 C 
HETATM    5  C6  UNL     1     -34.705   7.164   5.765  1.00 20.00     0.019 C 
HETATM    6  C7  UNL     1     -35.065   6.035   6.737  1.00 20.00     0.012 C 
HETATM    7  C8  UNL     1     -34.140   6.105   4.752  1.00 20.00     0.031 C 
HETATM    8  C9  UNL     1     -34.056   5.108   5.992  1.00 20.00    -0.026 C 
HETATM    9  C11 UNL     1     -32.706   5.069   6.726  1.00 20.00     0.016 C 
ENDROOT
BRANCH   7  10
HETATM   10  C3  UNL     1     -32.768   6.509   4.114  1.00 20.00     0.132 C 
HETATM   11  C10 UNL     1     -32.256   7.889   4.427  1.00 20.00     0.091 C 
HETATM   12  O12 UNL     1     -32.139   5.735   3.393  1.00 20.00    -0.298 OA
ENDBRANCH   7  10
TORSDOF 1
