REMARK  1 active torsions:
REMARK  status: ('A' for Active; 'I' for Inactive)
REMARK    1  A    between atoms: C2_2  and  C4_4 
ROOT
HETATM    1  C1  UNL     1     -33.674   5.817   2.981  1.00 20.00     0.076 A 
HETATM    2  C2  UNL     1     -32.968   6.551   3.844  1.00 20.00     0.053 A 
HETATM    3  C3  UNL     1     -34.528   5.146   5.345  1.00 20.00     0.255 A 
HETATM    4  O5  UNL     1     -35.121   4.640   6.286  1.00 20.00    -0.272 OA
HETATM    5  S7  UNL     1     -34.845   4.732   3.661  1.00 20.00    -0.051 SA
HETATM    6  S8  UNL     1     -33.270   6.366   5.529  1.00 20.00    -0.037 SA
ENDROOT
BRANCH   2   7
HETATM    7  C4  UNL     1     -31.955   7.498   3.399  1.00 20.00     0.278 C 
HETATM    8  O6  UNL     1     -31.687   7.680   2.213  1.00 20.00    -0.301 OA
ENDBRANCH   2   7
TORSDOF 1
