REMARK  2 active torsions:
REMARK  status: ('A' for Active; 'I' for Inactive)
REMARK    1  A    between atoms: C1_1  and  C3_3 
REMARK       I    between atoms: C1_1  and  N8_8 
REMARK    2  A    between atoms: N8_8  and  O10_10 
ROOT
HETATM    1  C1  UNL     1     -33.746   6.237   3.964  1.00 20.00     0.247 C 
HETATM    2  C6  UNL     1     -33.443   6.998   6.314  1.00 20.00     0.189 C 
HETATM    3  N8  UNL     1     -33.977   6.097   5.310  1.00 20.00    -0.231 N 
HETATM    4  O9  UNL     1     -34.195   5.476   3.105  1.00 20.00    -0.271 OA
ENDROOT
BRANCH   1   5
HETATM    5  C3  UNL     1     -32.870   7.399   3.562  1.00 20.00     0.084 A 
HETATM    6  C2  UNL     1     -31.396   7.210   3.618  1.00 20.00     0.019 A 
HETATM    7  C4  UNL     1     -32.101   7.280   2.293  1.00 20.00    -0.005 A 
HETATM    8  C5  UNL     1     -31.947   8.482   1.426  1.00 20.00     0.011 C 
ENDBRANCH   1   5
BRANCH   3   9
HETATM    9  O10 UNL     1     -34.758   5.063   5.861  1.00 20.00    -0.281 OA
HETATM   10  C7  UNL     1     -33.917   3.951   6.151  1.00 20.00     0.238 C 
ENDBRANCH   3   9
TORSDOF 2
