REMARK  0 active torsions:
REMARK  status: ('A' for Active; 'I' for Inactive)
ROOT
HETATM    1  C1  UNL     1     -35.066   5.934   2.646  1.00 20.00     0.022 A 
HETATM    2  C2  UNL     1     -32.386   6.632   4.098  1.00 20.00     0.120 C 
HETATM    3  C3  UNL     1     -32.805   6.010   1.934  1.00 20.00     0.101 C 
HETATM    4  C4  UNL     1     -33.983   5.205   2.359  1.00 20.00     0.025 A 
HETATM    5  C5  UNL     1     -33.456   5.977   4.596  1.00 20.00    -0.048 C 
HETATM    6  C6  UNL     1     -35.154   5.882   6.553  1.00 20.00     0.014 A 
HETATM    7  C7  UNL     1     -35.140   4.202   4.516  1.00 20.00     0.021 C 
HETATM    8  C8  UNL     1     -33.770   5.668   6.005  1.00 20.00     0.021 A 
HETATM    9  C9  UNL     1     -34.799   4.544   5.959  1.00 20.00    -0.005 A 
HETATM   10  C10 UNL     1     -34.425   5.258   3.737  1.00 20.00     0.004 A 
HETATM   11  N11 UNL     1     -32.064   6.705   2.751  1.00 20.00    -0.276 NA
ENDROOT
TORSDOF 0
