REMARK  1 active torsions:
REMARK  status: ('A' for Active; 'I' for Inactive)
REMARK    1  A    between atoms: C3_3  and  C8_8 
ROOT
HETATM    1  C1  UNL     1     -34.537   6.143   6.917  1.00 20.00    -0.028 C 
HETATM    2  C2  UNL     1     -34.943   4.935   6.495  1.00 20.00    -0.016 C 
HETATM    3  C4  UNL     1     -33.445   6.952   6.266  1.00 20.00     0.042 C 
HETATM    4  C5  UNL     1     -35.125   4.542   4.017  1.00 20.00     0.020 C 
HETATM    5  C6  UNL     1     -35.142   6.037   3.664  1.00 20.00     0.016 C 
HETATM    6  C7  UNL     1     -34.371   4.205   5.309  1.00 20.00     0.070 C 
HETATM    7  C8  UNL     1     -33.778   6.741   3.715  1.00 20.00     0.086 C 
HETATM    8  C9  UNL     1     -32.880   6.422   4.929  1.00 20.00     0.063 C 
HETATM    9  S11 UNL     1     -32.614   4.625   5.089  1.00 20.00    -0.154 SA
ENDROOT
BRANCH   7  10
HETATM   10  C3  UNL     1     -33.024   6.489   2.437  1.00 20.00     0.224 C 
HETATM   11  O10 UNL     1     -33.106   5.420   1.840  1.00 20.00    -0.279 OA
HETATM   12 CL12 UNL     1     -32.071   7.861   1.959  1.00 20.00    -0.043 Cl
ENDBRANCH   7  10
TORSDOF 1
