REMARK  2 active torsions:
REMARK  status: ('A' for Active; 'I' for Inactive)
REMARK    1  A    between atoms: C3_3  and  C8_8 
REMARK    2  A    between atoms: C8_8  and  C10_10 
ROOT
HETATM    1  C1  UNL     1     -35.185   5.378   6.414  1.00 20.00    -0.026 C 
HETATM    2  C2  UNL     1     -34.576   4.523   5.579  1.00 20.00    -0.024 C 
HETATM    3  C4  UNL     1     -33.056   6.180   6.061  1.00 20.00     0.018 C 
HETATM    4  C5  UNL     1     -34.808   7.320   4.913  1.00 20.00     0.025 C 
HETATM    5  C6  UNL     1     -34.473   6.705   6.295  1.00 20.00     0.010 C 
HETATM    6  C7  UNL     1     -33.477   5.292   4.877  1.00 20.00     0.024 C 
HETATM    7  C8  UNL     1     -34.121   6.333   3.911  1.00 20.00     0.020 C 
ENDROOT
BRANCH   7   8
HETATM    8  C3  UNL     1     -33.024   7.019   3.135  1.00 20.00     0.241 C 
HETATM    9  O11 UNL     1     -31.851   6.661   3.164  1.00 20.00    -0.306 OA
ENDBRANCH   7   8
BRANCH   7  10
HETATM   10  C10 UNL     1     -35.100   5.743   2.896  1.00 20.00     0.013 C 
HETATM   11  C9  UNL     1     -34.433   4.754   1.999  1.00 20.00     0.006 C 
ENDBRANCH   7  10
TORSDOF 2
