REMARK  2 active torsions:
REMARK  status: ('A' for Active; 'I' for Inactive)
REMARK    1  A    between atoms: C1_1  and  C5_5 
REMARK    2  A    between atoms: C5_5  and  C6_6 
ROOT
HETATM    1  C5  UNL     1     -34.004   6.540   3.935  1.00 20.00     0.190 C 
HETATM    2 CL9  UNL     1     -33.666   6.195   5.657  1.00 20.00    -0.114 Cl
ENDROOT
BRANCH   1   3
HETATM    3  C1  UNL     1     -32.644   6.807   3.306  1.00 20.00     0.144 C 
HETATM    4  C2  UNL     1     -32.593   7.853   2.222  1.00 20.00     0.092 C 
HETATM    5  O7  UNL     1     -31.633   6.188   3.637  1.00 20.00    -0.297 OA
ENDBRANCH   1   3
BRANCH   1   6
HETATM    6  C6  UNL     1     -34.771   5.394   3.250  1.00 20.00     0.119 C 
HETATM    7  C3  UNL     1     -35.028   4.234   4.214  1.00 20.00     0.053 C 
HETATM    8  C4  UNL     1     -36.101   5.857   2.653  1.00 20.00     0.053 C 
HETATM    9  F8  UNL     1     -34.013   4.908   2.222  1.00 20.00    -0.242 F 
ENDBRANCH   1   6
TORSDOF 2
