REMARK  2 active torsions:
REMARK  status: ('A' for Active; 'I' for Inactive)
REMARK    1  A    between atoms: C6_6  and  S8_8 
REMARK    2  A    between atoms: C7_7  and  S9_9 
ROOT
HETATM    1  C1  UNL     1     -34.551   6.894   4.179  1.00 20.00     0.011 C 
HETATM    2  C2  UNL     1     -33.227   5.892   2.473  1.00 20.00     0.020 C 
HETATM    3  C3  UNL     1     -34.924   4.575   3.786  1.00 20.00     0.020 C 
HETATM    4  C4  UNL     1     -34.663   5.894   3.032  1.00 20.00    -0.012 C 
HETATM    5  C5  UNL     1     -33.419   6.120   4.868  1.00 20.00     0.013 C 
HETATM    6  C6  UNL     1     -32.360   6.014   3.742  1.00 20.00     0.050 C 
HETATM    7  C7  UNL     1     -34.039   4.711   5.042  1.00 20.00     0.050 C 
ENDROOT
BRANCH   6   8
HETATM    8  S8  UNL     1     -31.265   7.470   3.685  1.00 20.00    -0.177 SA
HETATM    9  H20 UNL     1     -30.605   7.099   2.581  1.00 20.00     0.102 HD
ENDBRANCH   6   8
BRANCH   7  10
HETATM   10  S9  UNL     1     -35.007   4.569   6.579  1.00 20.00    -0.177 SA
HETATM   11  H21 UNL     1     -35.463   3.333   6.339  1.00 20.00     0.102 HD
ENDBRANCH   7  10
TORSDOF 2
