REMARK  0 active torsions:
REMARK  status: ('A' for Active; 'I' for Inactive)
ROOT
HETATM    1  C1  UNL     1     -34.858   5.400   5.793  1.00 20.00     0.096 A 
HETATM    2  C2  UNL     1     -34.945   4.543   3.706  1.00 20.00     0.096 A 
HETATM    3  C3  UNL     1     -33.914   6.043   5.033  1.00 20.00    -0.025 A 
HETATM    4  C4  UNL     1     -33.968   5.506   3.727  1.00 20.00    -0.025 A 
HETATM    5  C5  UNL     1     -32.927   7.105   5.293  1.00 20.00     0.114 A 
HETATM    6  C6  UNL     1     -33.033   6.051   2.727  1.00 20.00     0.114 A 
HETATM    7  N7  UNL     1     -35.482   4.487   4.972  1.00 20.00    -0.374 N 
HETATM    8  S8  UNL     1     -32.071   7.337   3.661  1.00 20.00    -0.160 SA
HETATM    9  H15 UNL     1     -36.225   3.865   5.259  1.00 20.00     0.164 HD
ENDROOT
TORSDOF 0
