REMARK  2 active torsions:
REMARK  status: ('A' for Active; 'I' for Inactive)
REMARK    1  A    between atoms: C1_1  and  C5_5 
REMARK    2  A    between atoms: C1_1  and  C6_6 
ROOT
HETATM    1  C1  UNL     1     -34.820   5.686   4.168  1.00 20.00     0.182 C 
HETATM    2  O7  UNL     1     -35.979   5.452   3.812  1.00 20.00    -0.293 OA
ENDROOT
BRANCH   1   3
HETATM    3  C5  UNL     1     -34.522   5.887   5.636  1.00 20.00     0.335 C 
HETATM    4  F8  UNL     1     -33.444   6.702   5.798  1.00 20.00    -0.225 F 
HETATM    5 CL9  UNL     1     -34.154   4.304   6.339  1.00 20.00    -0.081 Cl
ENDBRANCH   1   3
BRANCH   1   6
HETATM    6  C6  UNL     1     -33.659   5.746   3.154  1.00 20.00     0.014 C 
HETATM    7  C2  UNL     1     -32.324   6.016   3.858  1.00 20.00     0.023 C 
HETATM    8  C3  UNL     1     -33.916   6.884   2.149  1.00 20.00     0.023 C 
HETATM    9  C4  UNL     1     -33.598   4.417   2.388  1.00 20.00     0.023 C 
ENDBRANCH   1   6
TORSDOF 2
