REMARK  2 active torsions:
REMARK  status: ('A' for Active; 'I' for Inactive)
REMARK    1  A    between atoms: C1_1  and  C5_5 
REMARK    2  A    between atoms: C1_1  and  C6_6 
ROOT
HETATM    1  C1  UNL     1     -33.713   6.093   4.479  1.00 20.00     0.184 C 
HETATM    2  O7  UNL     1     -32.815   6.772   3.977  1.00 20.00    -0.293 OA
ENDROOT
BRANCH   1   3
HETATM    3  C5  UNL     1     -34.843   5.510   3.634  1.00 20.00     0.052 C 
HETATM    4  C2  UNL     1     -34.342   5.258   2.216  1.00 20.00     0.017 C 
HETATM    5  C3  UNL     1     -35.386   4.226   4.255  1.00 20.00     0.017 C 
ENDBRANCH   1   3
BRANCH   1   6
HETATM    6  C6  UNL     1     -33.733   5.791   5.969  1.00 20.00     0.235 C 
HETATM    7  C4  UNL     1     -32.971   4.517   6.287  1.00 20.00     0.079 C 
HETATM    8  F8  UNL     1     -35.002   5.652   6.442  1.00 20.00    -0.217 F 
HETATM    9 CL9  UNL     1     -32.987   7.186   6.786  1.00 20.00    -0.075 Cl
ENDBRANCH   1   6
TORSDOF 2
