REMARK  1 active torsions:
REMARK  status: ('A' for Active; 'I' for Inactive)
REMARK    1  A    between atoms: C6_6  and  C10_10 
ROOT
HETATM    1  C1  UNL     1     -32.153   7.225   2.715  1.00 20.00     0.059 C 
HETATM    2  C10 UNL     1     -32.160   6.389   3.902  1.00 20.00     0.133 C 
HETATM    3  N11 UNL     1     -32.100   7.888   1.763  1.00 20.00    -0.197 NA
ENDROOT
BRANCH   2   4
HETATM    4  C6  UNL     1     -33.654   6.331   4.293  1.00 20.00    -0.025 C 
HETATM    5  C4  UNL     1     -33.768   5.917   5.775  1.00 20.00     0.011 C 
HETATM    6  C2  UNL     1     -33.766   4.388   5.788  1.00 20.00     0.002 C 
HETATM    7  C3  UNL     1     -33.985   3.932   4.344  1.00 20.00     0.010 C 
HETATM    8  C5  UNL     1     -34.438   5.185   3.565  1.00 20.00    -0.040 C 
HETATM    9  C7  UNL     1     -34.104   5.044   2.072  1.00 20.00     0.015 C 
HETATM   10  C8  UNL     1     -35.972   5.325   3.688  1.00 20.00     0.015 C 
HETATM   11  C9  UNL     1     -34.243   7.733   4.075  1.00 20.00     0.017 C 
ENDBRANCH   2   4
TORSDOF 1
