REMARK  1 active torsions:
REMARK  status: ('A' for Active; 'I' for Inactive)
REMARK    1  A    between atoms: C1_1  and  C5_5 
ROOT
HETATM    1  C1  UNL     1     -33.634   6.798   3.754  1.00 20.00     0.141 A 
HETATM    2  C2  UNL     1     -32.646   8.184   2.398  1.00 20.00     0.187 A 
HETATM    3  N6  UNL     1     -33.814   7.647   2.676  1.00 20.00    -0.211 NA
HETATM    4  N7  UNL     1     -32.433   6.649   4.313  1.00 20.00    -0.193 NA
HETATM    5  S8  UNL     1     -31.400   7.640   3.445  1.00 20.00     0.046 SA
HETATM    6 CL9  UNL     1     -32.354   9.304   1.147  1.00 20.00    -0.053 Cl
ENDROOT
BRANCH   1   7
HETATM    7  C5  UNL     1     -34.837   6.017   4.310  1.00 20.00     0.058 A 
HETATM    8  C3  UNL     1     -34.905   5.756   5.796  1.00 20.00     0.013 A 
HETATM    9  C4  UNL     1     -34.607   4.628   4.859  1.00 20.00     0.013 A 
ENDBRANCH   1   7
TORSDOF 1
