REMARK  3 active torsions:
REMARK  status: ('A' for Active; 'I' for Inactive)
REMARK    1  A    between atoms: C4_4  and  N8_8 
REMARK    2  A    between atoms: C6_6  and  C7_7 
REMARK    3  A    between atoms: C6_6  and  N8_8 
ROOT
HETATM    1  C1  UNL     1     -34.359   5.392   3.453  1.00 20.00     0.047 C 
HETATM    2  C2  UNL     1     -34.800   4.248   4.352  1.00 20.00     0.076 C 
HETATM    3  C3  UNL     1     -33.649   6.343   5.582  1.00 20.00     0.109 C 
HETATM    4  C4  UNL     1     -33.181   6.058   4.160  1.00 20.00     0.232 C 
HETATM    5  S9  UNL     1     -34.628   4.884   6.044  1.00 20.00    -0.167 SA
ENDROOT
BRANCH   4   6
HETATM    6  N8  UNL     1     -32.758   7.281   3.488  1.00 20.00     0.090 N 
HETATM    7  C5  UNL     1     -31.390   7.635   3.870  1.00 20.00     0.310 C 
BRANCH   6   8
HETATM    8  C6  UNL     1     -32.856   7.132   2.034  1.00 20.00     0.287 C 
BRANCH   8   9
HETATM    9  C7  UNL     1     -32.066   8.192   1.284  1.00 20.00     0.144 C 
HETATM   10 CL10 UNL     1     -32.642   9.830   1.681  1.00 20.00    -0.129 Cl
ENDBRANCH   8   9
ENDBRANCH   6   8
ENDBRANCH   4   6
TORSDOF 3
