REMARK  3 active torsions:
REMARK  status: ('A' for Active; 'I' for Inactive)
REMARK    1  A    between atoms: C10_10  and  C12_12 
REMARK    2  A    between atoms: C11_11  and  C12_12 
REMARK    3  A    between atoms: C12_12  and  N13_13 
ROOT
HETATM    1  C1  UNL     1     -32.364   9.042   1.625  1.00 20.00     0.130 C 
HETATM    2  C2  UNL     1     -31.222   8.259   2.229  1.00 20.00     0.106 C 
HETATM    3  C3  UNL     1     -33.678   8.309   1.494  1.00 20.00     0.106 C 
HETATM    4  C8  UNL     1     -31.655   7.583   3.518  1.00 20.00     0.242 C 
HETATM    5  C9  UNL     1     -34.050   7.633   2.802  1.00 20.00     0.242 C 
HETATM    6  N13 UNL     1     -32.902   6.766   3.266  1.00 20.00    -0.065 N 
HETATM    7  O14 UNL     1     -32.204  10.173   1.170  1.00 20.00    -0.298 OA
HETATM    8  H34 UNL     1     -32.690   6.099   2.511  1.00 20.00     0.280 HD
ENDROOT
BRANCH   6   9
HETATM    9  C12 UNL     1     -33.278   5.944   4.468  1.00 20.00     0.196 C 
BRANCH   9  10
HETATM   10  C10 UNL     1     -34.167   4.799   4.009  1.00 20.00     0.017 A 
HETATM   11  C4  UNL     1     -34.268   3.543   4.830  1.00 20.00     0.007 A 
HETATM   12  C5  UNL     1     -35.437   4.484   4.749  1.00 20.00     0.007 A 
ENDBRANCH   9  10
BRANCH   9  13
HETATM   13  C11 UNL     1     -33.977   6.849   5.471  1.00 20.00     0.017 A 
HETATM   14  C6  UNL     1     -33.995   6.490   6.931  1.00 20.00     0.007 A 
HETATM   15  C7  UNL     1     -33.171   7.653   6.453  1.00 20.00     0.007 A 
ENDBRANCH   9  13
ENDBRANCH   6   9
TORSDOF 3
