REMARK  2 active torsions:
REMARK  status: ('A' for Active; 'I' for Inactive)
REMARK    1  A    between atoms: C4_4  and  C5_5 
REMARK    2  A    between atoms: C5_5  and  C6_6 
ROOT
HETATM    1  C1  UNL     1     -34.800   4.517   3.985  1.00 20.00     0.033 C 
HETATM    2  C2  UNL     1     -34.939   3.589   5.173  1.00 20.00     0.168 C 
HETATM    3  C3  UNL     1     -33.897   5.545   5.891  1.00 20.00     0.172 C 
HETATM    4  C4  UNL     1     -34.727   5.870   4.661  1.00 20.00     0.012 C 
HETATM    5  O7  UNL     1     -34.232   4.199   6.263  1.00 20.00    -0.391 OA
ENDROOT
BRANCH   4   6
HETATM    6  C5  UNL     1     -34.134   6.965   3.796  1.00 20.00     0.017 C 
BRANCH   6   7
HETATM    7  C6  UNL     1     -32.698   6.651   3.412  1.00 20.00     0.085 C 
HETATM    8 BR8  UNL     1     -31.998   8.055   2.259  1.00 20.00    -0.096 Br
ENDBRANCH   6   7
ENDBRANCH   4   6
TORSDOF 2
