REMARK  1 active torsions:
REMARK  status: ('A' for Active; 'I' for Inactive)
REMARK    1  A    between atoms: C2_2  and  C4_4 
ROOT
HETATM    1  C1  UNL     1     -35.137   4.499   6.323  1.00 20.00     0.095 A 
HETATM    2  C3  UNL     1     -34.937   5.825   7.003  1.00 20.00     0.122 A 
HETATM    3  C4  UNL     1     -33.544   5.241   4.922  1.00 20.00     0.255 A 
HETATM    4  N5  UNL     1     -34.469   4.155   5.266  1.00 20.00    -0.280 NA
HETATM    5  S7  UNL     1     -33.681   6.654   6.029  1.00 20.00    -0.128 SA
ENDROOT
BRANCH   3   6
HETATM    6  C2  UNL     1     -33.894   5.684   3.543  1.00 20.00     0.253 C 
HETATM    7  O6  UNL     1     -35.044   5.628   3.119  1.00 20.00    -0.277 OA
HETATM    8 CL8  UNL     1     -32.506   6.261   2.670  1.00 20.00    -0.041 Cl
ENDBRANCH   3   6
TORSDOF 1
