REMARK  2 active torsions:
REMARK  status: ('A' for Active; 'I' for Inactive)
REMARK    1  A    between atoms: C2_2  and  C6_6 
REMARK       I    between atoms: C2_2  and  N7_7 
REMARK    2  A    between atoms: C5_5  and  C6_6 
ROOT
HETATM    1  C1  UNL     1     -32.280   7.687   2.537  1.00 20.00     0.166 C 
HETATM    2  C2  UNL     1     -33.355   6.002   3.441  1.00 20.00     0.244 C 
HETATM    3  N7  UNL     1     -32.207   6.742   3.230  1.00 20.00    -0.199 NA
HETATM    4  O8  UNL     1     -34.028   5.436   2.580  1.00 20.00    -0.271 OA
HETATM    5  S9  UNL     1     -32.340   8.976   1.603  1.00 20.00    -0.055 SA
ENDROOT
BRANCH   2   6
HETATM    6  C6  UNL     1     -33.734   5.947   4.913  1.00 20.00     0.109 C 
BRANCH   6   7
HETATM    7  C5  UNL     1     -34.989   5.195   5.190  1.00 20.00    -0.006 A 
HETATM    8  C3  UNL     1     -34.943   3.716   5.458  1.00 20.00     0.005 A 
HETATM    9  C4  UNL     1     -35.269   4.672   6.571  1.00 20.00     0.005 A 
ENDBRANCH   6   7
ENDBRANCH   2   6
TORSDOF 2
