REMARK  1 active torsions:
REMARK  status: ('A' for Active; 'I' for Inactive)
REMARK    1  A    between atoms: C6_6  and  C8_8 
ROOT
HETATM    1  C1  UNL     1     -31.952   8.004   1.885  1.00 20.00     0.012 C 
HETATM    2  C2  UNL     1     -32.015   7.516   2.980  1.00 20.00    -0.117 C 
HETATM    3  C8  UNL     1     -32.087   6.919   4.319  1.00 20.00     0.099 C 
ENDROOT
BRANCH   3   4
HETATM    4  C6  UNL     1     -33.516   6.544   4.680  1.00 20.00     0.015 C 
HETATM    5  C4  UNL     1     -33.720   6.373   6.188  1.00 20.00     0.007 C 
HETATM    6  C3  UNL     1     -34.906   5.416   6.339  1.00 20.00     0.002 C 
HETATM    7  C5  UNL     1     -35.225   4.903   4.935  1.00 20.00     0.020 C 
HETATM    8  C7  UNL     1     -33.961   5.187   4.134  1.00 20.00     0.087 C 
HETATM    9 CL9  UNL     1     -34.275   5.212   2.391  1.00 20.00    -0.125 Cl
ENDBRANCH   3   4
TORSDOF 1
