REMARK  2 active torsions:
REMARK  status: ('A' for Active; 'I' for Inactive)
REMARK    1  A    between atoms: C4_4  and  C8_8 
REMARK    2  A    between atoms: C8_8  and  C9_9 
ROOT
HETATM    1  C1  UNL     1     -35.458   4.162   6.399  1.00 20.00     0.002 C 
HETATM    2  C2  UNL     1     -35.581   4.679   4.962  1.00 20.00     0.006 C 
HETATM    3  C3  UNL     1     -34.048   4.526   6.867  1.00 20.00     0.020 C 
HETATM    4  C4  UNL     1     -34.192   5.214   4.600  1.00 20.00     0.004 C 
HETATM    5  C5  UNL     1     -33.603   5.658   5.944  1.00 20.00     0.086 C 
HETATM    6 CL10 UNL     1     -34.259   7.215   6.525  1.00 20.00    -0.125 Cl
ENDROOT
BRANCH   4   7
HETATM    7  C8  UNL     1     -34.217   6.262   3.497  1.00 20.00     0.010 C 
BRANCH   7   8
HETATM    8  C9  UNL     1     -32.833   6.859   3.183  1.00 20.00    -0.022 C 
HETATM    9  C6  UNL     1     -31.831   5.799   2.725  1.00 20.00     0.009 C 
HETATM   10  C7  UNL     1     -32.966   7.943   2.111  1.00 20.00     0.009 C 
ENDBRANCH   7   8
ENDBRANCH   4   7
TORSDOF 2
