REMARK  4 active torsions:
REMARK  status: ('A' for Active; 'I' for Inactive)
REMARK    1  A    between atoms: C5_5  and  C6_6 
REMARK    2  A    between atoms: C5_5  and  C7_7 
REMARK    3  A    between atoms: C6_6  and  C8_8 
REMARK    4  A    between atoms: C7_7  and  C9_9 
ROOT
HETATM    1  C5  UNL     1     -32.381   6.614   2.806  1.00 20.00     0.002 C 
ENDROOT
BRANCH   1   2
HETATM    2  C6  UNL     1     -33.251   5.485   3.377  1.00 20.00     0.020 C 
BRANCH   2   3
HETATM    3  C8  UNL     1     -34.413   5.938   4.273  1.00 20.00     0.078 C 
HETATM    4  C1  UNL     1     -33.967   6.676   5.529  1.00 20.00     0.026 C 
HETATM    5 CL10 UNL     1     -35.439   4.545   4.731  1.00 20.00    -0.125 Cl
ENDBRANCH   2   3
ENDBRANCH   1   2
BRANCH   1   6
HETATM    6  C7  UNL     1     -33.229   7.593   1.982  1.00 20.00     0.008 C 
BRANCH   6   7
HETATM    7  C9  UNL     1     -32.473   8.819   1.402  1.00 20.00    -0.051 C 
HETATM    8  C2  UNL     1     -32.605   8.881  -0.129  1.00 20.00     0.014 C 
HETATM    9  C3  UNL     1     -32.993  10.133   2.009  1.00 20.00     0.014 C 
HETATM   10  C4  UNL     1     -30.981   8.674   1.758  1.00 20.00     0.014 C 
ENDBRANCH   6   7
ENDBRANCH   1   6
TORSDOF 4
