REMARK  1 active torsions:
REMARK  status: ('A' for Active; 'I' for Inactive)
REMARK    1  A    between atoms: C6_6  and  C8_8 
ROOT
HETATM    1  C1  UNL     1     -32.247   8.240   1.127  1.00 20.00     0.012 C 
HETATM    2  C2  UNL     1     -32.174   7.750   2.221  1.00 20.00    -0.117 C 
HETATM    3  C8  UNL     1     -32.078   7.154   3.558  1.00 20.00     0.098 C 
ENDROOT
BRANCH   3   4
HETATM    4  C6  UNL     1     -33.447   6.727   4.071  1.00 20.00     0.011 C 
HETATM    5  C4  UNL     1     -34.122   5.708   3.153  1.00 20.00     0.007 C 
HETATM    6  C3  UNL     1     -35.139   5.048   4.070  1.00 20.00     0.002 C 
HETATM    7  C5  UNL     1     -34.364   4.850   5.367  1.00 20.00     0.016 C 
HETATM    8  C7  UNL     1     -33.383   6.022   5.433  1.00 20.00     0.062 C 
HETATM    9 BR9  UNL     1     -33.897   7.258   6.854  1.00 20.00    -0.091 Br
ENDBRANCH   3   4
TORSDOF 1
