REMARK  0 active torsions:
REMARK  status: ('A' for Active; 'I' for Inactive)
ROOT
HETATM    1  C1  UNL     1     -32.896   7.535   4.513  1.00 20.00     0.019 A 
HETATM    2  C2  UNL     1     -33.478   6.285   4.741  1.00 20.00    -0.033 A 
HETATM    3  C3  UNL     1     -32.368   7.845   3.266  1.00 20.00    -0.021 A 
HETATM    4  C4  UNL     1     -33.525   5.385   3.671  1.00 20.00     0.042 A 
HETATM    5  C5  UNL     1     -32.448   6.884   2.276  1.00 20.00     0.132 A 
HETATM    6  C6  UNL     1     -34.086   5.971   6.080  1.00 20.00     0.040 C 
HETATM    7  C7  UNL     1     -34.107   4.007   3.839  1.00 20.00     0.060 C 
HETATM    8  C8  UNL     1     -34.356   4.481   6.284  1.00 20.00     0.005 C 
HETATM    9  C9  UNL     1     -35.026   3.884   5.052  1.00 20.00     0.006 C 
HETATM   10  C10 UNL     1     -31.747   9.180   3.041  1.00 20.00     0.051 C 
HETATM   11  N11 UNL     1     -33.009   5.666   2.447  1.00 20.00    -0.240 NA
HETATM   12 CL12 UNL     1     -31.831   7.142   0.691  1.00 20.00    -0.062 Cl
ENDROOT
TORSDOF 0
