REMARK  1 active torsions:
REMARK  status: ('A' for Active; 'I' for Inactive)
REMARK    1  A    between atoms: C4_4  and  C9_9 
ROOT
HETATM    1  C1  UNL     1     -33.838   6.659   2.204  1.00 20.00     0.006 C 
HETATM    2  C2  UNL     1     -34.448   5.605   3.134  1.00 20.00     0.021 C 
HETATM    3  C3  UNL     1     -32.075   6.850   4.005  1.00 20.00     0.010 C 
HETATM    4  C4  UNL     1     -32.839   7.595   2.906  1.00 20.00    -0.014 C 
HETATM    5  C5  UNL     1     -33.010   6.303   5.105  1.00 20.00     0.000 C 
HETATM    6  C6  UNL     1     -34.446   6.067   4.587  1.00 20.00     0.086 C 
HETATM    7  C7  UNL     1     -33.019   7.235   6.322  1.00 20.00     0.011 C 
HETATM    8 CL10 UNL     1     -35.291   4.861   5.606  1.00 20.00    -0.125 Cl
ENDROOT
BRANCH   4   9
HETATM    9  C9  UNL     1     -31.882   8.222   1.893  1.00 20.00     0.000 C 
HETATM   10  C8  UNL     1     -32.618   8.973   0.834  1.00 20.00     0.005 C 
ENDBRANCH   4   9
TORSDOF 1
