REMARK  2 active torsions:
REMARK  status: ('A' for Active; 'I' for Inactive)
REMARK    1  A    between atoms: C8_8  and  C9_9 
REMARK    2  A    between atoms: C9_9  and  N11_11 
ROOT
HETATM    1  C1  UNL     1     -31.340   8.077   3.855  1.00 20.00     0.071 C 
HETATM    2  C4  UNL     1     -32.981   8.853   2.105  1.00 20.00     0.028 A 
HETATM    3  C5  UNL     1     -31.722   8.457   1.392  1.00 20.00     0.028 A 
HETATM    4  C8  UNL     1     -32.107   7.760   2.678  1.00 20.00     0.075 A 
HETATM    5  N10 UNL     1     -30.723   8.333   4.803  1.00 20.00    -0.196 NA
ENDROOT
BRANCH   4   6
HETATM    6  C9  UNL     1     -32.596   6.354   2.595  1.00 20.00     0.296 C 
BRANCH   6   7
HETATM    7  N11 UNL     1     -33.792   6.160   3.422  1.00 20.00     0.090 N 
HETATM    8  C6  UNL     1     -34.549   4.989   2.975  1.00 20.00     0.272 C 
HETATM    9  C2  UNL     1     -35.436   4.680   4.172  1.00 20.00     0.032 C 
HETATM   10  C3  UNL     1     -34.699   5.259   5.376  1.00 20.00     0.032 C 
HETATM   11  C7  UNL     1     -33.424   5.865   4.807  1.00 20.00     0.272 C 
ENDBRANCH   6   7
ENDBRANCH   4   6
TORSDOF 2
