REMARK  2 active torsions:
REMARK  status: ('A' for Active; 'I' for Inactive)
REMARK    1  A    between atoms: C4_4  and  C8_8 
REMARK    2  A    between atoms: C8_8  and  C9_9 
ROOT
HETATM    1  C1  UNL     1     -34.259   4.527   5.864  1.00 20.00     0.002 C 
HETATM    2  C2  UNL     1     -34.239   6.018   5.516  1.00 20.00     0.006 C 
HETATM    3  C3  UNL     1     -34.964   3.819   4.708  1.00 20.00     0.020 C 
HETATM    4  C4  UNL     1     -34.824   6.141   4.104  1.00 20.00     0.004 C 
HETATM    5  C5  UNL     1     -35.733   4.913   3.975  1.00 20.00     0.086 C 
HETATM    6 CL10 UNL     1     -37.303   5.208   4.786  1.00 20.00    -0.125 Cl
ENDROOT
BRANCH   4   7
HETATM    7  C8  UNL     1     -33.718   6.144   3.046  1.00 20.00     0.010 C 
BRANCH   7   8
HETATM    8  C9  UNL     1     -33.078   7.526   2.828  1.00 20.00    -0.022 C 
HETATM    9  C6  UNL     1     -32.435   8.078   4.101  1.00 20.00     0.009 C 
HETATM   10  C7  UNL     1     -32.032   7.444   1.714  1.00 20.00     0.009 C 
ENDBRANCH   7   8
ENDBRANCH   4   7
TORSDOF 2
