REMARK  2 active torsions:
REMARK  status: ('A' for Active; 'I' for Inactive)
REMARK    1  A    between atoms: C4_4  and  C7_7 
REMARK    2  A    between atoms: C7_7  and  C8_8 
ROOT
HETATM    1  C1  UNL     1     -33.763   5.126   6.847  1.00 20.00     0.002 C 
HETATM    2  C2  UNL     1     -33.839   6.638   6.621  1.00 20.00     0.006 C 
HETATM    3  C3  UNL     1     -34.463   4.473   5.653  1.00 20.00     0.020 C 
HETATM    4  C4  UNL     1     -34.171   6.815   5.135  1.00 20.00     0.004 C 
HETATM    5  C5  UNL     1     -35.115   5.629   4.902  1.00 20.00     0.086 C 
HETATM    6 CL9  UNL     1     -35.422   5.241   3.202  1.00 20.00    -0.125 Cl
ENDROOT
BRANCH   4   7
HETATM    7  C7  UNL     1     -32.899   6.821   4.285  1.00 20.00     0.005 C 
BRANCH   7   8
HETATM    8  C8  UNL     1     -33.148   7.434   2.909  1.00 20.00    -0.004 C 
HETATM    9  C6  UNL     1     -31.877   7.464   2.075  1.00 20.00     0.005 C 
ENDBRANCH   7   8
ENDBRANCH   4   7
TORSDOF 2
