REMARK  3 active torsions:
REMARK  status: ('A' for Active; 'I' for Inactive)
REMARK    1  A    between atoms: C4_4  and  C7_7 
REMARK    2  A    between atoms: C7_7  and  C9_9 
REMARK    3  A    between atoms: C8_8  and  C9_9 
ROOT
HETATM    1  C1  UNL     1     -34.671   4.094   4.777  1.00 20.00     0.002 C 
HETATM    2  C2  UNL     1     -34.695   5.220   3.740  1.00 20.00     0.006 C 
HETATM    3  C3  UNL     1     -34.168   4.714   6.082  1.00 20.00     0.020 C 
HETATM    4  C4  UNL     1     -33.839   6.347   4.332  1.00 20.00     0.004 C 
HETATM    5  C5  UNL     1     -34.167   6.216   5.824  1.00 20.00     0.086 C 
HETATM    6 CL10 UNL     1     -33.084   7.092   6.916  1.00 20.00    -0.125 Cl
ENDROOT
BRANCH   4   7
HETATM    7  C7  UNL     1     -32.385   6.172   3.974  1.00 20.00     0.006 C 
BRANCH   7   8
HETATM    8  C9  UNL     1     -32.103   6.625   2.541  1.00 20.00     0.000 C 
BRANCH   8   9
HETATM    9  C8  UNL     1     -32.418   8.109   2.356  1.00 20.00    -0.005 C 
HETATM   10  C6  UNL     1     -32.108   8.572   0.941  1.00 20.00     0.005 C 
ENDBRANCH   8   9
ENDBRANCH   7   8
ENDBRANCH   4   7
TORSDOF 3
