REMARK  3 active torsions:
REMARK  status: ('A' for Active; 'I' for Inactive)
REMARK    1  A    between atoms: C4_4  and  C10_10 
REMARK    2  A    between atoms: C5_5  and  C11_11 
REMARK    3  A    between atoms: C6_6  and  C12_12 
ROOT
HETATM    1  C7  UNL     1     -32.691   7.997   4.172  1.00 20.00     0.009 C 
HETATM    2  C8  UNL     1     -32.928   6.768   5.044  1.00 20.00     0.010 C 
HETATM    3  C9  UNL     1     -33.921   6.612   2.397  1.00 20.00     0.017 C 
HETATM    4  C10 UNL     1     -32.813   7.647   2.679  1.00 20.00     0.008 C 
HETATM    5  C11 UNL     1     -34.349   6.183   4.873  1.00 20.00     0.015 C 
HETATM    6  C12 UNL     1     -34.980   6.592   3.510  1.00 20.00     0.015 C 
ENDROOT
BRANCH   4   7
HETATM    7  C4  UNL     1     -33.016   8.893   1.870  1.00 20.00    -0.032 C 
HETATM    8  C1  UNL     1     -32.151   9.338   0.952  1.00 20.00     0.007 C 
ENDBRANCH   4   7
BRANCH   6   9
HETATM    9  C6  UNL     1     -36.179   5.781   3.116  1.00 20.00    -0.031 C 
HETATM   10  C3  UNL     1     -37.282   5.665   3.862  1.00 20.00     0.007 C 
ENDBRANCH   6   9
BRANCH   5  11
HETATM   11  C5  UNL     1     -34.296   4.701   5.137  1.00 20.00    -0.031 C 
HETATM   12  C2  UNL     1     -34.905   4.102   6.166  1.00 20.00     0.007 C 
ENDBRANCH   5  11
TORSDOF 3
