REMARK  4 active torsions:
REMARK  status: ('A' for Active; 'I' for Inactive)
REMARK    1  A    between atoms: C6_6  and  C7_7 
REMARK    2  A    between atoms: C7_7  and  C9_9 
REMARK    3  A    between atoms: C8_8  and  C9_9 
REMARK    4  A    between atoms: C8_8  and  N11_11 
ROOT
HETATM    1  C1  UNL     1     -34.449   5.893   2.593  1.00 20.00     0.095 C 
HETATM    2  C8  UNL     1     -33.995   6.375   3.910  1.00 20.00     0.331 C 
HETATM    3  N10 UNL     1     -34.811   5.517   1.556  1.00 20.00    -0.195 NA
ENDROOT
BRANCH   2   4
HETATM    4  C9  UNL     1     -32.597   7.053   3.847  1.00 20.00     0.029 C 
HETATM    5  C3  UNL     1     -31.485   6.093   3.394  1.00 20.00     0.013 C 
BRANCH   4   6
HETATM    6  C7  UNL     1     -32.644   8.325   2.966  1.00 20.00     0.007 C 
BRANCH   6   7
HETATM    7  C6  UNL     1     -32.359   8.054   1.486  1.00 20.00    -0.004 C 
HETATM    8  C2  UNL     1     -32.342   9.345   0.680  1.00 20.00     0.005 C 
ENDBRANCH   6   7
ENDBRANCH   4   6
ENDBRANCH   2   4
BRANCH   2   9
HETATM    9  N11 UNL     1     -33.993   5.264   4.865  1.00 20.00     0.098 N 
HETATM   10  C4  UNL     1     -35.168   4.418   4.663  1.00 20.00     0.311 C 
HETATM   11  C5  UNL     1     -33.955   5.771   6.235  1.00 20.00     0.311 C 
ENDBRANCH   2   9
TORSDOF 4
