REMARK  2 active torsions:
REMARK  status: ('A' for Active; 'I' for Inactive)
REMARK    1  A    between atoms: C1_1  and  C7_7 
REMARK    2  A    between atoms: C7_7  and  N8_8 
ROOT
HETATM    1  C2  UNL     1     -34.751   5.321   2.766  1.00 20.00     0.040 C 
HETATM    2  C3  UNL     1     -33.302   5.742   2.507  1.00 20.00     0.273 C 
HETATM    3  C4  UNL     1     -32.710   6.837   4.636  1.00 20.00     0.283 C 
HETATM    4  C5  UNL     1     -34.963   4.317   3.893  1.00 20.00     0.075 C 
HETATM    5  C6  UNL     1     -33.933   6.411   5.450  1.00 20.00     0.104 C 
HETATM    6  N8  UNL     1     -32.942   6.990   3.193  1.00 20.00     0.095 N 
HETATM    7  S10 UNL     1     -34.136   4.609   5.482  1.00 20.00    -0.167 SA
ENDROOT
BRANCH   6   8
HETATM    8  C7  UNL     1     -31.747   7.572   2.569  1.00 20.00     0.341 C 
BRANCH   8   9
HETATM    9  C1  UNL     1     -32.167   8.294   1.320  1.00 20.00     0.261 C 
HETATM   10  O9  UNL     1     -32.476   9.482   1.315  1.00 20.00    -0.305 OA
ENDBRANCH   8   9
ENDBRANCH   6   8
TORSDOF 2
