REMARK  3 active torsions:
REMARK  status: ('A' for Active; 'I' for Inactive)
REMARK    1  A    between atoms: C1_1  and  C7_7 
REMARK    2  A    between atoms: C5_5  and  N8_8 
REMARK    3  A    between atoms: C7_7  and  N8_8 
ROOT
HETATM    1  C2  UNL     1     -34.682   4.622   3.800  1.00 20.00     0.047 C 
HETATM    2  C3  UNL     1     -34.876   3.493   4.800  1.00 20.00     0.076 C 
HETATM    3  C4  UNL     1     -34.744   5.974   5.827  1.00 20.00     0.109 C 
HETATM    4  C5  UNL     1     -33.949   5.733   4.549  1.00 20.00     0.233 C 
HETATM    5  S10 UNL     1     -35.247   4.317   6.375  1.00 20.00    -0.167 SA
ENDROOT
BRANCH   4   6
HETATM    6  N8  UNL     1     -33.842   6.951   3.755  1.00 20.00     0.096 N 
HETATM    7  C6  UNL     1     -35.083   7.198   3.017  1.00 20.00     0.310 C 
BRANCH   6   8
HETATM    8  C7  UNL     1     -32.710   6.868   2.830  1.00 20.00     0.341 C 
BRANCH   8   9
HETATM    9  C1  UNL     1     -32.337   8.260   2.409  1.00 20.00     0.261 C 
HETATM   10  O9  UNL     1     -32.375   8.630   1.238  1.00 20.00    -0.305 OA
ENDBRANCH   8   9
ENDBRANCH   6   8
ENDBRANCH   4   6
TORSDOF 3
