REMARK  0 active torsions:
REMARK  status: ('A' for Active; 'I' for Inactive)
ROOT
HETATM    1  C1  UNL     1     -33.405   5.695   3.003  1.00 20.00     0.055 A 
HETATM    2  C2  UNL     1     -34.019   5.205   4.130  1.00 20.00    -0.029 A 
HETATM    3  C3  UNL     1     -33.802   5.837   5.342  1.00 20.00     0.063 A 
HETATM    4  C4  UNL     1     -32.591   6.798   3.185  1.00 20.00     0.148 A 
HETATM    5  C5  UNL     1     -34.972   4.067   4.275  1.00 20.00     0.041 C 
HETATM    6  C6  UNL     1     -34.598   5.194   6.438  1.00 20.00     0.062 C 
HETATM    7  C7  UNL     1     -34.926   3.837   5.796  1.00 20.00     0.011 C 
HETATM    8  N8  UNL     1     -33.016   6.914   5.494  1.00 20.00    -0.153 NA
HETATM    9  N9  UNL     1     -32.391   7.399   4.389  1.00 20.00    -0.138 NA
HETATM   10 CL10 UNL     1     -31.756   7.517   1.873  1.00 20.00    -0.060 Cl
ENDROOT
TORSDOF 0
