REMARK  4 active torsions:
REMARK  status: ('A' for Active; 'I' for Inactive)
REMARK    1  A    between atoms: C2_2  and  C11_11 
REMARK    2  A    between atoms: C9_9  and  C10_10 
REMARK    3  A    between atoms: C10_10  and  C11_11 
REMARK    4  A    between atoms: C11_11  and  O12_12 
ROOT
HETATM    1  C11 UNL     1     -32.571   6.826   3.334  1.00 20.00     0.147 C 
ENDROOT
BRANCH   1   2
HETATM    2  C2  UNL     1     -33.466   6.161   4.337  1.00 20.00    -0.055 C 
HETATM    3  C1  UNL     1     -33.801   6.755   5.496  1.00 20.00    -0.021 C 
HETATM    4  C3  UNL     1     -34.663   6.112   6.542  1.00 20.00     0.027 C 
HETATM    5  C5  UNL     1     -34.855   4.611   6.326  1.00 20.00     0.004 C 
HETATM    6  C6  UNL     1     -35.118   4.299   4.858  1.00 20.00     0.005 C 
HETATM    7  C4  UNL     1     -33.968   4.786   3.973  1.00 20.00     0.036 C 
ENDBRANCH   1   2
BRANCH   1   8
HETATM    8  C10 UNL     1     -33.352   7.743   2.404  1.00 20.00     0.041 C 
BRANCH   8   9
HETATM    9  C9  UNL     1     -32.464   8.753   1.693  1.00 20.00    -0.012 A 
HETATM   10  C7  UNL     1     -31.840   8.413   0.368  1.00 20.00     0.005 A 
HETATM   11  C8  UNL     1     -32.943   9.433   0.441  1.00 20.00     0.005 A 
ENDBRANCH   8   9
ENDBRANCH   1   8
BRANCH   1  12
HETATM   12  O12 UNL     1     -31.667   7.605   4.101  1.00 20.00    -0.391 OA
HETATM   13  H30 UNL     1     -31.073   8.049   3.472  1.00 20.00     0.210 HD
ENDBRANCH   1  12
TORSDOF 4
