REMARK  2 active torsions:
REMARK  status: ('A' for Active; 'I' for Inactive)
REMARK    1  A    between atoms: C2_2  and  C3_3 
REMARK    2  A    between atoms: C3_3  and  C9_9 
ROOT
HETATM    1  C1  UNL     1     -32.894   5.560   4.515  1.00 20.00    -0.016 C 
HETATM    2  C2  UNL     1     -33.211   6.220   3.391  1.00 20.00    -0.016 C 
HETATM    3  C4  UNL     1     -33.820   4.568   5.157  1.00 20.00     0.028 C 
HETATM    4  C5  UNL     1     -34.521   6.070   2.677  1.00 20.00     0.042 C 
HETATM    5  C6  UNL     1     -34.991   4.160   4.258  1.00 20.00     0.004 C 
HETATM    6  C7  UNL     1     -35.580   5.366   3.530  1.00 20.00     0.005 C 
ENDROOT
BRANCH   2   7
HETATM    7  C3  UNL     1     -32.225   7.157   2.849  1.00 20.00     0.159 C 
HETATM    8  O12 UNL     1     -31.438   7.743   3.597  1.00 20.00    -0.292 OA
BRANCH   7   9
HETATM    9  C9  UNL     1     -32.197   7.374   1.358  1.00 20.00     0.064 A 
HETATM   10  C8  UNL     1     -31.105   8.214   0.793  1.00 20.00     0.018 A 
HETATM   11  C10 UNL     1     -32.520   8.719   0.803  1.00 20.00    -0.006 A 
HETATM   12  C11 UNL     1     -32.887   9.891   1.647  1.00 20.00     0.011 C 
ENDBRANCH   7   9
ENDBRANCH   2   7
TORSDOF 2
