REMARK  2 active torsions:
REMARK  status: ('A' for Active; 'I' for Inactive)
REMARK    1  A    between atoms: C2_2  and  C3_3 
REMARK    2  A    between atoms: C3_3  and  C11_11 
ROOT
HETATM    1  C7  UNL     1     -35.539   4.884   5.728  1.00 20.00     0.005 C 
HETATM    2  C8  UNL     1     -35.813   5.935   4.641  1.00 20.00     0.006 C 
HETATM    3  C9  UNL     1     -33.102   5.482   5.731  1.00 20.00     0.017 C 
HETATM    4  C10 UNL     1     -34.138   4.446   3.856  1.00 20.00     0.010 C 
HETATM    5  C11 UNL     1     -33.399   6.573   4.688  1.00 20.00     0.065 C 
HETATM    6  C12 UNL     1     -34.125   4.384   5.381  1.00 20.00    -0.013 C 
HETATM    7  C13 UNL     1     -34.507   5.932   3.826  1.00 20.00    -0.003 C 
ENDROOT
BRANCH   5   8
HETATM    8  C3  UNL     1     -32.185   6.904   3.876  1.00 20.00     0.159 C 
HETATM    9  O14 UNL     1     -31.096   6.378   4.090  1.00 20.00    -0.292 OA
BRANCH   8  10
HETATM   10  C2  UNL     1     -32.325   7.870   2.833  1.00 20.00    -0.016 C 
HETATM   11  C1  UNL     1     -32.097   7.667   1.530  1.00 20.00    -0.016 C 
HETATM   12  C4  UNL     1     -32.325   8.907   0.731  1.00 20.00     0.028 C 
HETATM   13  C6  UNL     1     -33.062   9.814   1.715  1.00 20.00     0.009 C 
HETATM   14  C5  UNL     1     -32.740   9.279   3.111  1.00 20.00     0.042 C 
ENDBRANCH   8  10
ENDBRANCH   5   8
TORSDOF 2
