REMARK  2 active torsions:
REMARK  status: ('A' for Active; 'I' for Inactive)
REMARK    1  A    between atoms: C2_2  and  C3_3 
REMARK    2  A    between atoms: C3_3  and  C8_8 
ROOT
HETATM    1  C3  UNL     1     -32.684   6.933   3.202  1.00 20.00     0.159 C 
HETATM    2  O11 UNL     1     -31.575   6.983   3.755  1.00 20.00    -0.292 OA
ENDROOT
BRANCH   1   3
HETATM    3  C2  UNL     1     -33.804   6.320   3.843  1.00 20.00    -0.016 C 
HETATM    4  C1  UNL     1     -34.822   5.700   3.236  1.00 20.00    -0.016 C 
HETATM    5  C4  UNL     1     -35.827   5.197   4.219  1.00 20.00     0.028 C 
HETATM    6  C6  UNL     1     -35.085   5.311   5.550  1.00 20.00     0.009 C 
HETATM    7  C5  UNL     1     -33.967   6.331   5.330  1.00 20.00     0.042 C 
ENDBRANCH   1   3
BRANCH   1   8
HETATM    8  C8  UNL     1     -32.875   7.519   1.818  1.00 20.00     0.064 A 
HETATM    9  C7  UNL     1     -31.744   7.415   0.863  1.00 20.00     0.018 A 
HETATM   10  C9  UNL     1     -32.094   8.745   1.476  1.00 20.00    -0.006 A 
HETATM   11  C10 UNL     1     -32.741   9.804   0.652  1.00 20.00     0.011 C 
ENDBRANCH   1   8
TORSDOF 2
