REMARK  2 active torsions:
REMARK  status: ('A' for Active; 'I' for Inactive)
REMARK    1  A    between atoms: C2_2  and  C3_3 
REMARK    2  A    between atoms: C3_3  and  C9_9 
ROOT
HETATM    1  C1  UNL     1     -33.854   5.358   3.004  1.00 20.00    -0.016 C 
HETATM    2  C2  UNL     1     -33.349   6.379   3.706  1.00 20.00    -0.016 C 
HETATM    3  C4  UNL     1     -34.734   4.493   3.844  1.00 20.00     0.028 C 
HETATM    4  C5  UNL     1     -33.812   6.358   5.128  1.00 20.00     0.042 C 
HETATM    5  C6  UNL     1     -34.411   4.957   5.264  1.00 20.00     0.009 C 
ENDROOT
BRANCH   2   6
HETATM    6  C3  UNL     1     -32.486   7.403   3.208  1.00 20.00     0.159 C 
HETATM    7  O10 UNL     1     -31.351   7.570   3.677  1.00 20.00    -0.292 OA
BRANCH   6   8
HETATM    8  C9  UNL     1     -32.984   8.282   2.080  1.00 20.00     0.060 A 
HETATM    9  C7  UNL     1     -32.561   9.702   2.072  1.00 20.00     0.013 A 
HETATM   10  C8  UNL     1     -31.997   8.737   1.073  1.00 20.00     0.013 A 
ENDBRANCH   6   8
ENDBRANCH   2   6
TORSDOF 2
