REMARK  4 active torsions:
REMARK  status: ('A' for Active; 'I' for Inactive)
REMARK    1  A    between atoms: C4_4  and  C6_6 
REMARK    2  A    between atoms: C5_5  and  C7_7 
REMARK    3  A    between atoms: C6_6  and  C7_7 
REMARK    4  A    between atoms: C7_7  and  N8_8 
ROOT
HETATM    1  C1  UNL     1     -33.684   6.571   5.701  1.00 20.00     0.158 C 
HETATM    2  N8  UNL     1     -32.855   6.785   4.899  1.00 20.00    -0.270 NA
HETATM    3  S9  UNL     1     -34.784   6.276   6.814  1.00 20.00    -0.055 SA
ENDROOT
BRANCH   2   4
HETATM    4  C7  UNL     1     -33.366   7.095   3.557  1.00 20.00     0.109 C 
BRANCH   4   5
HETATM    5  C5  UNL     1     -33.522   5.790   2.766  1.00 20.00     0.023 C 
HETATM    6  C3  UNL     1     -34.465   4.804   3.443  1.00 20.00     0.007 C 
ENDBRANCH   4   5
BRANCH   4   7
HETATM    7  C6  UNL     1     -32.390   8.049   2.855  1.00 20.00     0.027 C 
BRANCH   7   8
HETATM    8  C4  UNL     1     -33.051   8.823   1.710  1.00 20.00    -0.002 C 
HETATM    9  C2  UNL     1     -32.050   9.717   0.994  1.00 20.00     0.005 C 
ENDBRANCH   7   8
ENDBRANCH   4   7
ENDBRANCH   2   4
TORSDOF 4
