REMARK  3 active torsions:
REMARK  status: ('A' for Active; 'I' for Inactive)
REMARK    1  A    between atoms: C6_6  and  N10_10 
REMARK    2  A    between atoms: C7_7  and  C8_8 
REMARK    3  A    between atoms: C8_8  and  N10_10 
ROOT
HETATM    1  C1  UNL     1     -31.693   7.774   3.209  1.00 20.00     0.094 C 
HETATM    2  C2  UNL     1     -32.300   5.950   1.666  1.00 20.00     0.059 C 
HETATM    3  C6  UNL     1     -32.408   6.498   3.082  1.00 20.00     0.322 C 
HETATM    4  N9  UNL     1     -31.125   8.782   3.310  1.00 20.00    -0.195 NA
ENDROOT
BRANCH   3   5
HETATM    5  N10 UNL     1     -33.806   6.671   3.464  1.00 20.00     0.105 N 
HETATM    6  H26 UNL     1     -34.313   7.086   2.679  1.00 20.00     0.318 HD
BRANCH   5   7
HETATM    7  C8  UNL     1     -34.413   5.405   3.822  1.00 20.00     0.221 C 
HETATM    8  C5  UNL     1     -35.932   5.540   3.735  1.00 20.00     0.043 C 
BRANCH   7   9
HETATM    9  C7  UNL     1     -33.925   4.931   5.210  1.00 20.00     0.010 C 
HETATM   10  C3  UNL     1     -34.288   5.881   6.355  1.00 20.00     0.011 C 
HETATM   11  C4  UNL     1     -34.436   3.520   5.526  1.00 20.00     0.011 C 
ENDBRANCH   7   9
ENDBRANCH   5   7
ENDBRANCH   3   5
TORSDOF 3
