REMARK  1 active torsions:
REMARK  status: ('A' for Active; 'I' for Inactive)
REMARK    1  A    between atoms: C9_9  and  O11_11 
ROOT
HETATM    1  C1  UNL     1     -33.831   5.481   2.737  1.00 20.00     0.052 A 
HETATM    2  C2  UNL     1     -34.928   4.352   4.593  1.00 20.00     0.049 A 
HETATM    3  C3  UNL     1     -33.238   6.337   3.651  1.00 20.00    -0.020 A 
HETATM    4  C4  UNL     1     -33.479   6.200   5.025  1.00 20.00    -0.043 A 
HETATM    5  C5  UNL     1     -34.316   5.209   5.510  1.00 20.00    -0.052 A 
HETATM    6  C6  UNL     1     -34.687   4.487   3.216  1.00 20.00     0.117 A 
HETATM    7  C7  UNL     1     -32.692   7.204   5.809  1.00 20.00     0.042 C 
HETATM    8  C8  UNL     1     -32.353   8.228   4.718  1.00 20.00     0.041 C 
HETATM    9  C9  UNL     1     -32.262   7.445   3.398  1.00 20.00     0.152 C 
HETATM   10  C10 UNL     1     -34.566   5.045   6.969  1.00 20.00     0.049 C 
HETATM   11  F12 UNL     1     -35.278   3.648   2.355  1.00 20.00    -0.206 F 
ENDROOT
BRANCH   9  12
HETATM   12  O11 UNL     1     -32.646   8.252   2.302  1.00 20.00    -0.391 OA
HETATM   13  H23 UNL     1     -31.968   8.942   2.202  1.00 20.00     0.210 HD
ENDBRANCH   9  12
TORSDOF 1
