REMARK  3 active torsions:
REMARK  status: ('A' for Active; 'I' for Inactive)
REMARK    1  A    between atoms: C3_3  and  C5_5 
REMARK    2  A    between atoms: C5_5  and  C6_6 
REMARK    3  A    between atoms: C6_6  and  S9_9 
ROOT
HETATM    1  C1  UNL     1     -34.840   5.274   6.465  1.00 20.00     0.281 C 
HETATM    2  C2  UNL     1     -34.893   4.122   5.472  1.00 20.00     0.106 C 
HETATM    3  C3  UNL     1     -34.136   6.476   4.566  1.00 20.00     0.282 C 
HETATM    4  N7  UNL     1     -33.835   6.219   5.976  1.00 20.00     0.098 N 
HETATM    5  S8  UNL     1     -34.795   4.932   3.859  1.00 20.00    -0.132 SA
HETATM    6  H22 UNL     1     -33.865   7.086   6.511  1.00 20.00     0.317 HD
ENDROOT
BRANCH   3   7
HETATM    7  C5  UNL     1     -32.883   6.921   3.829  1.00 20.00     0.056 C 
BRANCH   7   8
HETATM    8  C6  UNL     1     -33.233   7.616   2.517  1.00 20.00     0.076 C 
BRANCH   8   9
HETATM    9  S9  UNL     1     -31.726   8.145   1.654  1.00 20.00    -0.173 SA
HETATM   10  C4  UNL     1     -32.505   8.936   0.228  1.00 20.00     0.089 C 
ENDBRANCH   8   9
ENDBRANCH   7   8
ENDBRANCH   3   7
TORSDOF 3
