REMARK  3 active torsions:
REMARK  status: ('A' for Active; 'I' for Inactive)
REMARK    1  A    between atoms: C3_3  and  C4_4 
REMARK    2  A    between atoms: C3_3  and  C5_5 
REMARK    3  A    between atoms: C5_5  and  C6_6 
ROOT
HETATM    1  C1  UNL     1     -32.871   9.728   1.985  1.00 20.00     0.012 C 
HETATM    2  C2  UNL     1     -32.477   8.667   2.386  1.00 20.00    -0.110 C 
HETATM    3  C4  UNL     1     -31.986   7.373   2.874  1.00 20.00     0.171 C 
ENDROOT
BRANCH   3   4
HETATM    4  C3  UNL     1     -33.109   6.457   3.328  1.00 20.00     0.146 C 
HETATM    5  O7  UNL     1     -33.650   5.651   2.572  1.00 20.00    -0.297 OA
BRANCH   4   6
HETATM    6  C5  UNL     1     -33.521   6.602   4.784  1.00 20.00     0.196 C 
BRANCH   6   7
HETATM    7  C6  UNL     1     -34.662   5.690   5.172  1.00 20.00     0.394 C 
HETATM    8  F8  UNL     1     -34.989   5.873   6.471  1.00 20.00    -0.171 F 
HETATM    9  F9  UNL     1     -35.766   5.937   4.436  1.00 20.00    -0.171 F 
HETATM   10  F10 UNL     1     -34.333   4.390   5.016  1.00 20.00    -0.171 F 
ENDBRANCH   6   7
ENDBRANCH   4   6
ENDBRANCH   3   4
TORSDOF 3
