REMARK  4 active torsions:
REMARK  status: ('A' for Active; 'I' for Inactive)
REMARK    1  A    between atoms: C2_2  and  C5_5 
REMARK    2  A    between atoms: C2_2  and  C9_9 
REMARK    3  A    between atoms: C7_7  and  C9_9 
REMARK    4  A    between atoms: C8_8  and  C9_9 
ROOT
HETATM    1  C1  UNL     1     -32.005   8.384   1.825  1.00 20.00     0.059 C 
HETATM    2  C7  UNL     1     -32.386   8.233   3.238  1.00 20.00     0.136 C 
HETATM    3  N10 UNL     1     -31.704   8.506   0.711  1.00 20.00    -0.197 NA
ENDROOT
BRANCH   2   4
HETATM    4  C9  UNL     1     -33.434   7.132   3.474  1.00 20.00     0.068 C 
BRANCH   4   5
HETATM    5  C2  UNL     1     -33.473   6.755   4.953  1.00 20.00     0.136 C 
HETATM    6  O11 UNL     1     -32.715   7.212   5.800  1.00 20.00    -0.297 OA
BRANCH   5   7
HETATM    7  C5  UNL     1     -34.500   5.745   5.346  1.00 20.00     0.056 A 
HETATM    8  C3  UNL     1     -34.039   4.424   5.864  1.00 20.00     0.013 A 
HETATM    9  C4  UNL     1     -34.660   5.422   6.794  1.00 20.00     0.013 A 
ENDBRANCH   5   7
ENDBRANCH   4   5
BRANCH   4  10
HETATM   10  C8  UNL     1     -33.199   5.906   2.572  1.00 20.00     0.008 C 
HETATM   11  C6  UNL     1     -31.856   5.237   2.837  1.00 20.00     0.006 C 
ENDBRANCH   4  10
ENDBRANCH   2   4
TORSDOF 4
