REMARK  4 active torsions:
REMARK  status: ('A' for Active; 'I' for Inactive)
REMARK    1  A    between atoms: C2_2  and  C6_6 
REMARK    2  A    between atoms: C6_6  and  C7_7 
REMARK    3  A    between atoms: C7_7  and  C8_8 
REMARK    4  A    between atoms: C8_8  and  O9_9 
ROOT
HETATM    1  C1  UNL     1     -32.182   8.040   1.812  1.00 20.00    -0.111 C 
HETATM    2  C2  UNL     1     -32.275   7.344   2.786  1.00 20.00    -0.107 C 
HETATM    3  C3  UNL     1     -32.073   8.888   0.626  1.00 20.00     0.112 C 
ENDROOT
BRANCH   2   4
HETATM    4  C6  UNL     1     -32.385   6.488   3.977  1.00 20.00     0.100 C 
BRANCH   4   5
HETATM    5  C7  UNL     1     -33.839   6.246   4.428  1.00 20.00     0.021 C 
HETATM    6  C4  UNL     1     -33.900   5.915   5.928  1.00 20.00     0.013 C 
BRANCH   5   7
HETATM    7  C8  UNL     1     -34.589   5.177   3.598  1.00 20.00     0.118 C 
HETATM    8  C5  UNL     1     -34.634   5.488   2.105  1.00 20.00     0.040 C 
BRANCH   7   9
HETATM    9  O9  UNL     1     -35.936   5.102   4.070  1.00 20.00    -0.396 OA
HETATM   10  H23 UNL     1     -36.360   4.391   3.568  1.00 20.00     0.210 HD
ENDBRANCH   7   9
ENDBRANCH   5   7
ENDBRANCH   4   5
ENDBRANCH   2   4
TORSDOF 4
