REMARK  4 active torsions:
REMARK  status: ('A' for Active; 'I' for Inactive)
REMARK    1  A    between atoms: C2_2  and  C7_7 
REMARK    2  A    between atoms: C7_7  and  N11_11 
REMARK    3  A    between atoms: C8_8  and  C9_9 
REMARK    4  A    between atoms: C8_8  and  N11_11 
ROOT
HETATM    1  C1  UNL     1     -32.509   8.730   1.750  1.00 20.00    -0.109 C 
HETATM    2  C2  UNL     1     -32.372   7.633   2.219  1.00 20.00    -0.079 C 
HETATM    3  C4  UNL     1     -32.678  10.065   1.178  1.00 20.00     0.112 C 
ENDROOT
BRANCH   2   4
HETATM    4  C7  UNL     1     -32.200   6.298   2.786  1.00 20.00     0.327 C 
BRANCH   4   5
HETATM    5  N11 UNL     1     -33.257   6.051   3.834  1.00 20.00    -0.064 N 
HETATM    6  C6  UNL     1     -32.952   6.805   5.105  1.00 20.00     0.270 C 
HETATM    7  H26 UNL     1     -34.131   6.459   3.462  1.00 20.00     0.280 HD
BRANCH   5   8
HETATM    8  C8  UNL     1     -33.497   4.605   4.072  1.00 20.00     0.254 C 
BRANCH   8   9
HETATM    9  C9  UNL     1     -34.934   4.331   4.527  1.00 20.00     0.114 C 
HETATM   10  C3  UNL     1     -35.113   4.634   5.960  1.00 20.00     0.065 C 
HETATM   11  N10 UNL     1     -35.255   4.872   7.088  1.00 20.00    -0.197 NA
HETATM   12  C5  UNL     1     -35.978   5.071   3.691  1.00 20.00     0.027 C 
ENDBRANCH   8   9
ENDBRANCH   5   8
ENDBRANCH   4   5
ENDBRANCH   2   4
TORSDOF 4
