REMARK  2 active torsions:
REMARK  status: ('A' for Active; 'I' for Inactive)
REMARK    1  A    between atoms: C2_2  and  C11_11 
REMARK    2  A    between atoms: C7_7  and  C11_11 
ROOT
HETATM    1  C1  UNL     1     -32.238   8.979   1.512  1.00 20.00    -0.111 C 
HETATM    2  C2  UNL     1     -32.264   7.853   1.930  1.00 20.00    -0.106 C 
HETATM    3  C9  UNL     1     -32.207  10.349   1.004  1.00 20.00     0.112 C 
ENDROOT
BRANCH   2   4
HETATM    4  C11 UNL     1     -32.288   6.477   2.433  1.00 20.00     0.106 C 
BRANCH   4   5
HETATM    5  C7  UNL     1     -33.437   6.273   3.417  1.00 20.00     0.067 C 
HETATM    6  C3  UNL     1     -33.114   6.864   4.786  1.00 20.00     0.132 C 
HETATM    7  C4  UNL     1     -34.119   6.592   5.884  1.00 20.00     0.079 C 
HETATM    8  O12 UNL     1     -32.148   7.600   4.982  1.00 20.00    -0.298 OA
HETATM    9  C5  UNL     1     -34.431   5.104   5.971  1.00 20.00     0.011 C 
HETATM   10  C8  UNL     1     -34.836   4.491   4.623  1.00 20.00    -0.017 C 
HETATM   11  C6  UNL     1     -33.761   4.782   3.563  1.00 20.00     0.017 C 
HETATM   12  C10 UNL     1     -36.224   4.954   4.177  1.00 20.00     0.010 C 
ENDBRANCH   4   5
ENDBRANCH   2   4
TORSDOF 2
