REMARK  3 active torsions:
REMARK  status: ('A' for Active; 'I' for Inactive)
REMARK    1  A    between atoms: C2_2  and  C9_9 
REMARK    2  A    between atoms: C6_6  and  C9_9 
REMARK    3  A    between atoms: C7_7  and  O10_10 
ROOT
HETATM    1  C1  UNL     1     -32.165   8.762   2.083  1.00 20.00    -0.111 C 
HETATM    2  C2  UNL     1     -32.206   7.978   2.993  1.00 20.00    -0.107 C 
HETATM    3  C8  UNL     1     -32.116   9.715   0.976  1.00 20.00     0.112 C 
ENDROOT
BRANCH   2   4
HETATM    4  C9  UNL     1     -32.250   7.022   4.105  1.00 20.00     0.101 C 
BRANCH   4   5
HETATM    5  C6  UNL     1     -33.673   6.564   4.381  1.00 20.00     0.025 C 
HETATM    6  C4  UNL     1     -34.307   5.827   3.204  1.00 20.00     0.008 C 
HETATM    7  C3  UNL     1     -35.443   5.009   3.820  1.00 20.00     0.003 C 
HETATM    8  C5  UNL     1     -35.170   4.958   5.323  1.00 20.00     0.032 C 
HETATM    9  C7  UNL     1     -33.769   5.532   5.501  1.00 20.00     0.123 C 
BRANCH   9  10
HETATM   10  O10 UNL     1     -33.614   6.138   6.770  1.00 20.00    -0.395 OA
HETATM   11  H24 UNL     1     -33.773   5.449   7.438  1.00 20.00     0.210 HD
ENDBRANCH   9  10
ENDBRANCH   4   5
ENDBRANCH   2   4
TORSDOF 3
