REMARK  2 active torsions:
REMARK  status: ('A' for Active; 'I' for Inactive)
REMARK    1  A    between atoms: C2_2  and  C11_11 
REMARK    2  A    between atoms: C7_7  and  C11_11 
ROOT
HETATM    1  C1  UNL     1     -32.649   8.026   1.256  1.00 20.00    -0.111 C 
HETATM    2  C2  UNL     1     -32.595   7.043   1.943  1.00 20.00    -0.106 C 
HETATM    3  C9  UNL     1     -32.716   9.223   0.419  1.00 20.00     0.112 C 
ENDROOT
BRANCH   2   4
HETATM    4  C11 UNL     1     -32.522   5.839   2.777  1.00 20.00     0.106 C 
BRANCH   4   5
HETATM    5  C7  UNL     1     -33.552   5.888   3.901  1.00 20.00     0.067 C 
HETATM    6  C3  UNL     1     -33.106   6.803   5.036  1.00 20.00     0.132 C 
HETATM    7  C4  UNL     1     -33.999   6.826   6.257  1.00 20.00     0.079 C 
HETATM    8  O12 UNL     1     -32.136   7.553   4.946  1.00 20.00    -0.298 OA
HETATM    9  C5  UNL     1     -34.264   5.411   6.752  1.00 20.00     0.011 C 
HETATM   10  C8  UNL     1     -34.803   4.509   5.633  1.00 20.00    -0.017 C 
HETATM   11  C6  UNL     1     -33.821   4.483   4.451  1.00 20.00     0.017 C 
HETATM   12  C10 UNL     1     -35.053   3.096   6.156  1.00 20.00     0.010 C 
ENDBRANCH   4   5
ENDBRANCH   2   4
TORSDOF 2
