REMARK  4 active torsions:
REMARK  status: ('A' for Active; 'I' for Inactive)
REMARK    1  A    between atoms: C1_1  and  C3_3 
REMARK    2  A    between atoms: C4_4  and  C10_10 
REMARK    3  A    between atoms: C8_8  and  C10_10 
REMARK    4  A    between atoms: C9_9  and  C10_10 
ROOT
HETATM    1  C2  UNL     1     -34.808   5.740   3.150  1.00 20.00     0.018 A 
HETATM    2  C3  UNL     1     -33.987   7.001   3.062  1.00 20.00     0.060 A 
HETATM    3  C4  UNL     1     -34.582   6.571   4.381  1.00 20.00     0.002 A 
ENDROOT
BRANCH   3   4
HETATM    4  C10 UNL     1     -33.720   6.027   5.525  1.00 20.00    -0.010 C 
BRANCH   4   5
HETATM    5  C8  UNL     1     -34.504   5.025   6.399  1.00 20.00     0.000 C 
HETATM    6  C6  UNL     1     -35.034   3.822   5.632  1.00 20.00     0.005 C 
ENDBRANCH   4   5
BRANCH   4   7
HETATM    7  C9  UNL     1     -33.183   7.163   6.420  1.00 20.00     0.000 C 
HETATM    8  C7  UNL     1     -32.337   8.187   5.675  1.00 20.00     0.005 C 
ENDBRANCH   4   7
ENDBRANCH   3   4
BRANCH   2   9
HETATM    9  C1  UNL     1     -32.543   6.905   2.818  1.00 20.00     0.127 C 
HETATM   10  C5  UNL     1     -31.932   7.971   1.950  1.00 20.00     0.091 C 
HETATM   11  O11 UNL     1     -31.866   5.999   3.301  1.00 20.00    -0.298 OA
ENDBRANCH   2   9
TORSDOF 4
