REMARK  3 active torsions:
REMARK  status: ('A' for Active; 'I' for Inactive)
REMARK    1  A    between atoms: C2_2  and  C10_10 
REMARK    2  A    between atoms: C7_7  and  N11_11 
REMARK    3  A    between atoms: C10_10  and  N11_11 
ROOT
HETATM    1  C1  UNL     1     -33.129   9.668   1.909  1.00 20.00    -0.109 C 
HETATM    2  C2  UNL     1     -32.907   8.616   2.444  1.00 20.00    -0.077 C 
HETATM    3  C8  UNL     1     -33.399  10.949   1.256  1.00 20.00     0.112 C 
ENDROOT
BRANCH   2   4
HETATM    4  C10 UNL     1     -32.630   7.334   3.099  1.00 20.00     0.363 C 
BRANCH   4   5
HETATM    5  N11 UNL     1     -33.805   6.480   3.086  1.00 20.00     0.103 N 
HETATM    6  H28 UNL     1     -33.894   6.034   2.177  1.00 20.00     0.318 HD
BRANCH   5   7
HETATM    7  C7  UNL     1     -33.696   5.452   4.096  1.00 20.00     0.155 C 
HETATM    8  C5  UNL     1     -34.935   4.549   4.100  1.00 20.00     0.041 C 
HETATM    9  C3  UNL     1     -34.990   3.954   5.504  1.00 20.00     0.003 C 
HETATM   10  C4  UNL     1     -34.226   4.922   6.407  1.00 20.00     0.003 C 
HETATM   11  C6  UNL     1     -33.746   6.056   5.504  1.00 20.00     0.041 C 
HETATM   12  C9  UNL     1     -32.410   4.652   3.866  1.00 20.00     0.049 C 
ENDBRANCH   5   7
ENDBRANCH   4   5
ENDBRANCH   2   4
TORSDOF 3
