REMARK  3 active torsions:
REMARK  status: ('A' for Active; 'I' for Inactive)
REMARK    1  A    between atoms: C2_2  and  C9_9 
REMARK    2  A    between atoms: C7_7  and  N10_10 
REMARK    3  A    between atoms: C9_9  and  N10_10 
ROOT
HETATM    1  C1  UNL     1     -32.384   8.517   1.793  1.00 20.00    -0.109 C 
HETATM    2  C2  UNL     1     -32.203   7.908   2.812  1.00 20.00    -0.077 C 
HETATM    3  C8  UNL     1     -32.605   9.258   0.552  1.00 20.00     0.112 C 
ENDROOT
BRANCH   2   4
HETATM    4  C9  UNL     1     -31.977   7.170   4.058  1.00 20.00     0.363 C 
BRANCH   4   5
HETATM    5  N10 UNL     1     -32.826   5.992   4.125  1.00 20.00     0.099 N 
HETATM    6  H26 UNL     1     -32.443   5.333   4.797  1.00 20.00     0.317 HD
BRANCH   5   7
HETATM    7  C7  UNL     1     -34.163   6.352   4.539  1.00 20.00     0.225 C 
HETATM    8  C3  UNL     1     -34.236   6.528   6.057  1.00 20.00     0.062 C 
HETATM    9  C5  UNL     1     -34.233   5.185   6.780  1.00 20.00     0.169 C 
HETATM   10  O11 UNL     1     -35.285   4.350   6.298  1.00 20.00    -0.391 OA
HETATM   11  C6  UNL     1     -35.139   4.046   4.911  1.00 20.00     0.169 C 
HETATM   12  C4  UNL     1     -35.187   5.317   4.068  1.00 20.00     0.062 C 
ENDBRANCH   5   7
ENDBRANCH   4   5
ENDBRANCH   2   4
TORSDOF 3
