REMARK  6 active torsions:
REMARK  status: ('A' for Active; 'I' for Inactive)
REMARK    1  A    between atoms: C2_2  and  C5_5 
REMARK    2  A    between atoms: C5_5  and  C7_7 
REMARK    3  A    between atoms: C6_6  and  C8_8 
REMARK    4  A    between atoms: C7_7  and  C9_9 
REMARK    5  A    between atoms: C8_8  and  C9_9 
REMARK    6  A    between atoms: C9_9  and  O10_10 
ROOT
HETATM    1  C1  UNL     1     -32.080   8.191   1.217  1.00 20.00    -0.111 C 
HETATM    2  C2  UNL     1     -31.899   7.460   2.152  1.00 20.00    -0.107 C 
HETATM    3  C3  UNL     1     -32.303   9.079   0.076  1.00 20.00     0.112 C 
ENDROOT
BRANCH   2   4
HETATM    4  C5  UNL     1     -31.676   6.564   3.294  1.00 20.00     0.096 C 
BRANCH   4   5
HETATM    5  C7  UNL     1     -32.905   5.715   3.617  1.00 20.00     0.044 C 
BRANCH   5   6
HETATM    6  C9  UNL     1     -34.158   6.495   4.046  1.00 20.00     0.119 C 
BRANCH   6   7
HETATM    7  C8  UNL     1     -35.450   5.672   3.960  1.00 20.00     0.031 C 
BRANCH   7   8
HETATM    8  C6  UNL     1     -35.231   4.207   4.354  1.00 20.00    -0.002 C 
HETATM    9  C4  UNL     1     -34.768   4.084   5.798  1.00 20.00     0.005 C 
ENDBRANCH   7   8
ENDBRANCH   6   7
BRANCH   6  10
HETATM   10  O10 UNL     1     -33.961   6.928   5.394  1.00 20.00    -0.396 OA
HETATM   11  H26 UNL     1     -33.172   7.490   5.386  1.00 20.00     0.210 HD
ENDBRANCH   6  10
ENDBRANCH   5   6
ENDBRANCH   4   5
ENDBRANCH   2   4
TORSDOF 6
