REMARK  2 active torsions:
REMARK  status: ('A' for Active; 'I' for Inactive)
REMARK    1  A    between atoms: C1_1  and  C5_5 
REMARK    2  A    between atoms: C6_6  and  C7_7 
ROOT
HETATM    1  C4  UNL     1     -31.861   6.576   2.996  1.00 20.00     0.021 A 
HETATM    2  C5  UNL     1     -33.345   6.366   2.849  1.00 20.00     0.091 A 
HETATM    3  C7  UNL     1     -32.750   7.752   2.690  1.00 20.00     0.005 A 
ENDROOT
BRANCH   2   4
HETATM    4  C1  UNL     1     -34.108   6.098   4.052  1.00 20.00     0.177 C 
HETATM    5  O8  UNL     1     -33.705   6.694   5.089  1.00 20.00    -0.648 OA
HETATM    6  O9  UNL     1     -35.076   5.302   3.899  1.00 20.00    -0.648 OA
ENDBRANCH   2   4
BRANCH   3   7
HETATM    7  C6  UNL     1     -32.722   8.475   1.352  1.00 20.00    -0.010 A 
HETATM    8  C2  UNL     1     -32.042   9.804   1.163  1.00 20.00     0.005 A 
HETATM    9  C3  UNL     1     -31.480   8.572   0.509  1.00 20.00     0.005 A 
ENDBRANCH   3   7
TORSDOF 2
