REMARK  3 active torsions:
REMARK  status: ('A' for Active; 'I' for Inactive)
REMARK    1  A    between atoms: C2_2  and  C7_7 
REMARK    2  A    between atoms: C3_3  and  C8_8 
REMARK    3  A    between atoms: C7_7  and  C8_8 
ROOT
HETATM    1  C1  UNL     1     -32.432   8.224   2.214  1.00 20.00    -0.111 C 
HETATM    2  C2  UNL     1     -32.620   7.232   2.865  1.00 20.00    -0.106 C 
HETATM    3  C4  UNL     1     -32.207   9.433   1.424  1.00 20.00     0.112 C 
ENDROOT
BRANCH   2   4
HETATM    4  C7  UNL     1     -32.848   6.018   3.664  1.00 20.00     0.105 C 
BRANCH   4   5
HETATM    5  C8  UNL     1     -34.172   6.044   4.441  1.00 20.00     0.062 C 
HETATM    6  C6  UNL     1     -35.372   5.747   3.540  1.00 20.00     0.018 C 
BRANCH   5   7
HETATM    7  C3  UNL     1     -34.140   5.111   5.654  1.00 20.00     0.127 C 
HETATM    8  C5  UNL     1     -33.950   3.640   5.381  1.00 20.00     0.091 C 
HETATM    9  O9  UNL     1     -34.246   5.525   6.808  1.00 20.00    -0.298 OA
ENDBRANCH   5   7
ENDBRANCH   4   5
ENDBRANCH   2   4
TORSDOF 3
