REMARK  4 active torsions:
REMARK  status: ('A' for Active; 'I' for Inactive)
REMARK    1  A    between atoms: C2_2  and  C7_7 
REMARK    2  A    between atoms: C5_5  and  C8_8 
REMARK    3  A    between atoms: C7_7  and  C8_8 
REMARK    4  A    between atoms: C8_8  and  O9_9 
ROOT
HETATM    1  C1  UNL     1     -32.064   7.708   1.918  1.00 20.00    -0.111 C 
HETATM    2  C2  UNL     1     -32.593   7.205   2.872  1.00 20.00    -0.104 C 
HETATM    3  C6  UNL     1     -31.421   8.319   0.756  1.00 20.00     0.112 C 
ENDROOT
BRANCH   2   4
HETATM    4  C7  UNL     1     -33.239   6.590   4.043  1.00 20.00     0.126 C 
BRANCH   4   5
HETATM    5  C8  UNL     1     -33.874   5.244   3.685  1.00 20.00     0.133 C 
BRANCH   5   6
HETATM    6  C5  UNL     1     -34.586   4.636   4.887  1.00 20.00     0.015 A 
HETATM    7  C3  UNL     1     -33.810   3.861   5.915  1.00 20.00     0.007 A 
HETATM    8  C4  UNL     1     -34.377   5.210   6.261  1.00 20.00     0.007 A 
ENDBRANCH   5   6
BRANCH   5   9
HETATM    9  O9  UNL     1     -34.831   5.450   2.647  1.00 20.00    -0.394 OA
HETATM   10  H21 UNL     1     -35.199   4.578   2.436  1.00 20.00     0.210 HD
ENDBRANCH   5   9
ENDBRANCH   4   5
ENDBRANCH   2   4
TORSDOF 4
