REMARK  4 active torsions:
REMARK  status: ('A' for Active; 'I' for Inactive)
REMARK    1  A    between atoms: C2_2  and  C7_7 
REMARK    2  A    between atoms: C7_7  and  N11_11 
REMARK    3  A    between atoms: C8_8  and  C9_9 
REMARK    4  A    between atoms: C8_8  and  N11_11 
ROOT
HETATM    1  C1  UNL     1     -32.101   9.498   0.933  1.00 20.00    -0.109 C 
HETATM    2  C2  UNL     1     -32.359   8.356   1.202  1.00 20.00    -0.077 C 
HETATM    3  C4  UNL     1     -31.788  10.888   0.605  1.00 20.00     0.112 C 
ENDROOT
BRANCH   2   4
HETATM    4  C7  UNL     1     -32.673   6.960   1.523  1.00 20.00     0.365 C 
BRANCH   4   5
HETATM    5  N11 UNL     1     -33.027   6.815   2.941  1.00 20.00     0.096 N 
HETATM    6  C6  UNL     1     -31.806   6.778   3.757  1.00 20.00     0.311 C 
BRANCH   5   7
HETATM    7  C8  UNL     1     -33.833   5.635   3.157  1.00 20.00     0.291 C 
BRANCH   7   8
HETATM    8  C9  UNL     1     -34.699   5.754   4.418  1.00 20.00     0.117 C 
HETATM    9  C3  UNL     1     -33.926   5.443   5.636  1.00 20.00     0.065 C 
HETATM   10  N10 UNL     1     -33.319   5.201   6.595  1.00 20.00    -0.197 NA
HETATM   11  C5  UNL     1     -35.952   4.883   4.341  1.00 20.00     0.027 C 
ENDBRANCH   7   8
ENDBRANCH   5   7
ENDBRANCH   4   5
ENDBRANCH   2   4
TORSDOF 4
