REMARK  3 active torsions:
REMARK  status: ('A' for Active; 'I' for Inactive)
REMARK    1  A    between atoms: C6_6  and  N10_10 
REMARK    2  A    between atoms: C7_7  and  C8_8 
REMARK    3  A    between atoms: C8_8  and  N10_10 
ROOT
HETATM    1  C1  UNL     1     -31.819   8.473   1.047  1.00 20.00     0.013 C 
HETATM    2  C2  UNL     1     -32.178   7.529   1.696  1.00 20.00    -0.087 C 
HETATM    3  C6  UNL     1     -32.615   6.373   2.484  1.00 20.00     0.364 C 
ENDROOT
BRANCH   3   4
HETATM    4  N10 UNL     1     -32.857   6.757   3.870  1.00 20.00     0.117 N 
HETATM    5  H22 UNL     1     -31.963   6.805   4.362  1.00 20.00     0.319 HD
BRANCH   4   6
HETATM    6  C8  UNL     1     -33.725   5.804   4.534  1.00 20.00     0.241 C 
HETATM    7  C3  UNL     1     -35.016   5.740   3.817  1.00 20.00     0.101 C 
HETATM    8  N9  UNL     1     -36.029   5.688   3.253  1.00 20.00    -0.195 NA
HETATM    9  C5  UNL     1     -33.060   4.420   4.482  1.00 20.00     0.066 C 
BRANCH   6  10
HETATM   10  C7  UNL     1     -33.942   6.205   6.011  1.00 20.00     0.052 C 
HETATM   11  C4  UNL     1     -34.824   5.250   6.811  1.00 20.00     0.009 C 
ENDBRANCH   6  10
ENDBRANCH   4   6
ENDBRANCH   3   4
TORSDOF 3
