REMARK  2 active torsions:
REMARK  status: ('A' for Active; 'I' for Inactive)
REMARK    1  A    between atoms: C1_1  and  C3_3 
REMARK    2  A    between atoms: C2_2  and  C4_4 
ROOT
HETATM    1  C1  UNL     1     -33.554   5.898   2.574  1.00 20.00    -0.015 C 
HETATM    2  C2  UNL     1     -34.599   5.344   3.204  1.00 20.00    -0.015 C 
ENDROOT
BRANCH   1   3
HETATM    3  C3  UNL     1     -32.527   6.740   3.257  1.00 20.00     0.141 C 
HETATM    4 CL5  UNL     1     -31.875   7.940   2.120  1.00 20.00    -0.126 Cl
ENDBRANCH   1   3
BRANCH   2   5
HETATM    5  C4  UNL     1     -34.862   5.501   4.666  1.00 20.00     0.141 C 
HETATM    6 CL6  UNL     1     -34.832   3.913   5.461  1.00 20.00    -0.126 Cl
ENDBRANCH   2   5
TORSDOF 2
