REMARK  1 active torsions:
REMARK  status: ('A' for Active; 'I' for Inactive)
REMARK    1  A    between atoms: C1_1  and  C6_6 
ROOT
HETATM    1  C2  UNL     1     -32.502   6.433   4.102  1.00 20.00     0.021 C 
HETATM    2  C3  UNL     1     -34.427   5.012   3.097  1.00 20.00     0.027 A 
HETATM    3  C4  UNL     1     -31.688   7.087   3.000  1.00 20.00     0.075 C 
HETATM    4  C5  UNL     1     -34.328   7.598   2.866  1.00 20.00     0.084 C 
HETATM    5  C6  UNL     1     -34.984   5.587   4.373  1.00 20.00     0.097 A 
HETATM    6  C7  UNL     1     -33.919   6.345   3.596  1.00 20.00    -0.017 A 
HETATM    7  S10 UNL     1     -32.768   8.393   2.366  1.00 20.00    -0.168 SA
ENDROOT
BRANCH   5   8
HETATM    8  C1  UNL     1     -34.618   4.941   5.619  1.00 20.00     0.177 C 
HETATM    9  O8  UNL     1     -34.123   5.702   6.496  1.00 20.00    -0.648 OA
HETATM   10  O9  UNL     1     -34.846   3.699   5.659  1.00 20.00    -0.648 OA
ENDBRANCH   5   8
TORSDOF 1
