REMARK  3 active torsions:
REMARK  status: ('A' for Active; 'I' for Inactive)
REMARK    1  A    between atoms: C2_2  and  C9_9 
REMARK    2  A    between atoms: C6_6  and  C9_9 
REMARK    3  A    between atoms: C7_7  and  O10_10 
ROOT
HETATM    1  C3  UNL     1     -33.357   5.609   6.892  1.00 20.00     0.003 C 
HETATM    2  C4  UNL     1     -33.990   6.638   5.955  1.00 20.00     0.008 C 
HETATM    3  C5  UNL     1     -34.060   4.281   6.611  1.00 20.00     0.032 C 
HETATM    4  C6  UNL     1     -34.646   5.819   4.843  1.00 20.00     0.022 C 
HETATM    5  C7  UNL     1     -35.171   4.608   5.619  1.00 20.00     0.122 C 
ENDROOT
BRANCH   4   6
HETATM    6  C9  UNL     1     -33.658   5.465   3.731  1.00 20.00     0.010 C 
HETATM    7  C8  UNL     1     -34.399   5.003   2.474  1.00 20.00     0.014 C 
BRANCH   6   8
HETATM    8  C2  UNL     1     -32.781   6.650   3.406  1.00 20.00    -0.032 C 
HETATM    9  C1  UNL     1     -31.448   6.652   3.529  1.00 20.00     0.007 C 
ENDBRANCH   6   8
ENDBRANCH   4   6
BRANCH   5  10
HETATM   10  O10 UNL     1     -35.462   3.496   4.796  1.00 20.00    -0.395 OA
HETATM   11  H26 UNL     1     -35.743   2.778   5.386  1.00 20.00     0.210 HD
ENDBRANCH   5  10
TORSDOF 3
