REMARK  1 active torsions:
REMARK  status: ('A' for Active; 'I' for Inactive)
REMARK    1  A    between atoms: C3_3  and  C8_8 
ROOT
HETATM    1  C1  UNL     1     -32.101   8.363   1.552  1.00 20.00     0.087 C 
HETATM    2  C2  UNL     1     -32.246   7.290   2.472  1.00 20.00     0.090 C 
HETATM    3  C3  UNL     1     -33.261   7.247   3.346  1.00 20.00    -0.011 C 
HETATM    4  N9  UNL     1     -31.978   9.237   0.799  1.00 20.00    -0.192 NA
ENDROOT
BRANCH   3   5
HETATM    5  C8  UNL     1     -33.460   6.126   4.347  1.00 20.00     0.013 C 
HETATM    6  C4  UNL     1     -33.422   6.725   5.748  1.00 20.00     0.035 C 
HETATM    7  C6  UNL     1     -33.858   5.690   6.779  1.00 20.00     0.168 C 
HETATM    8  O10 UNL     1     -35.151   5.174   6.461  1.00 20.00    -0.391 OA
HETATM    9  C7  UNL     1     -35.171   4.510   5.196  1.00 20.00     0.168 C 
HETATM   10  C5  UNL     1     -34.811   5.477   4.075  1.00 20.00     0.035 C 
ENDBRANCH   3   5
TORSDOF 1
