REMARK  2 active torsions:
REMARK  status: ('A' for Active; 'I' for Inactive)
REMARK    1  A    between atoms: C5_5  and  N8_8 
REMARK    2  A    between atoms: C7_7  and  N8_8 
ROOT
HETATM    1  C1  UNL     1     -32.252   9.003   1.132  1.00 20.00     0.013 C 
HETATM    2  C2  UNL     1     -32.290   8.236   2.054  1.00 20.00    -0.087 C 
HETATM    3  C7  UNL     1     -32.332   7.302   3.182  1.00 20.00     0.362 C 
ENDROOT
BRANCH   3   4
HETATM    4  N8  UNL     1     -33.449   6.383   3.046  1.00 20.00     0.099 N 
HETATM    5  H19 UNL     1     -33.351   5.851   2.185  1.00 20.00     0.317 HD
BRANCH   4   6
HETATM    6  C5  UNL     1     -33.488   5.447   4.174  1.00 20.00     0.225 A 
HETATM    7  C3  UNL     1     -34.064   5.876   5.498  1.00 20.00     0.042 A 
HETATM    8  C4  UNL     1     -34.801   4.879   4.648  1.00 20.00     0.016 A 
HETATM    9  C6  UNL     1     -34.890   3.454   5.073  1.00 20.00     0.012 C 
ENDBRANCH   4   6
ENDBRANCH   3   4
TORSDOF 2
