REMARK  3 active torsions:
REMARK  status: ('A' for Active; 'I' for Inactive)
REMARK    1  A    between atoms: C2_2  and  C8_8 
REMARK    2  A    between atoms: C5_5  and  N9_9 
REMARK    3  A    between atoms: C8_8  and  N9_9 
ROOT
HETATM    1  C1  UNL     1     -32.031   8.210   1.374  1.00 20.00    -0.109 C 
HETATM    2  C2  UNL     1     -31.802   7.519   2.329  1.00 20.00    -0.077 C 
HETATM    3  C6  UNL     1     -32.310   9.050   0.210  1.00 20.00     0.112 C 
ENDROOT
BRANCH   2   4
HETATM    4  C8  UNL     1     -31.516   6.675   3.493  1.00 20.00     0.363 C 
BRANCH   4   5
HETATM    5  N9  UNL     1     -32.646   6.652   4.408  1.00 20.00     0.099 N 
HETATM    6  H22 UNL     1     -32.643   7.495   4.976  1.00 20.00     0.317 HD
BRANCH   5   7
HETATM    7  C5  UNL     1     -33.909   6.590   3.666  1.00 20.00     0.225 A 
HETATM    8  C3  UNL     1     -34.192   5.439   2.736  1.00 20.00     0.042 A 
HETATM    9  C4  UNL     1     -34.992   5.594   4.000  1.00 20.00     0.016 A 
HETATM   10  C7  UNL     1     -34.852   4.600   5.101  1.00 20.00     0.012 C 
ENDBRANCH   5   7
ENDBRANCH   4   5
ENDBRANCH   2   4
TORSDOF 3
