REMARK  2 active torsions:
REMARK  status: ('A' for Active; 'I' for Inactive)
REMARK    1  A    between atoms: C4_4  and  N9_9 
REMARK    2  A    between atoms: C7_7  and  N9_9 
ROOT
HETATM    1  C1  UNL     1     -34.172   6.242   5.598  1.00 20.00     0.094 C 
HETATM    2  C6  UNL     1     -34.848   4.310   4.223  1.00 20.00     0.059 C 
HETATM    3  C7  UNL     1     -34.921   5.820   4.407  1.00 20.00     0.322 C 
HETATM    4  N8  UNL     1     -33.583   6.575   6.541  1.00 20.00    -0.195 NA
ENDROOT
BRANCH   3   5
HETATM    5  N9  UNL     1     -34.410   6.506   3.233  1.00 20.00     0.106 N 
HETATM    6  H21 UNL     1     -34.931   6.210   2.411  1.00 20.00     0.318 HD
BRANCH   5   7
HETATM    7  C4  UNL     1     -32.992   6.194   3.029  1.00 20.00     0.226 A 
HETATM    8  C2  UNL     1     -31.941   6.901   3.845  1.00 20.00     0.042 A 
HETATM    9  C3  UNL     1     -32.054   7.176   2.370  1.00 20.00     0.016 A 
HETATM   10  C5  UNL     1     -32.512   8.511   1.892  1.00 20.00     0.012 C 
ENDBRANCH   5   7
ENDBRANCH   3   5
TORSDOF 2
