REMARK  2 active torsions:
REMARK  status: ('A' for Active; 'I' for Inactive)
REMARK    1  A    between atoms: C4_4  and  N9_9 
REMARK    2  A    between atoms: C7_7  and  N9_9 
ROOT
HETATM    1  C1  UNL     1     -32.113   7.961   1.740  1.00 20.00     0.094 C 
HETATM    2  C6  UNL     1     -31.844   7.447   4.137  1.00 20.00     0.059 C 
HETATM    3  C7  UNL     1     -32.798   7.490   2.951  1.00 20.00     0.322 C 
HETATM    4  N8  UNL     1     -31.573   8.337   0.784  1.00 20.00    -0.195 NA
ENDROOT
BRANCH   3   5
HETATM    5  N9  UNL     1     -33.379   6.180   2.711  1.00 20.00     0.106 N 
HETATM    6  H21 UNL     1     -33.779   6.148   1.777  1.00 20.00     0.318 HD
BRANCH   5   7
HETATM    7  C4  UNL     1     -34.438   5.899   3.686  1.00 20.00     0.226 A 
HETATM    8  C2  UNL     1     -35.184   4.591   3.644  1.00 20.00     0.042 A 
HETATM    9  C3  UNL     1     -34.225   4.872   4.768  1.00 20.00     0.016 A 
HETATM   10  C5  UNL     1     -34.737   5.117   6.145  1.00 20.00     0.012 C 
ENDBRANCH   5   7
ENDBRANCH   3   5
TORSDOF 2
