REMARK  1 active torsions:
REMARK  status: ('A' for Active; 'I' for Inactive)
REMARK    1  A    between atoms: C4_4  and  N6_6 
ROOT
HETATM    1  C1  UNL     1     -32.679   6.531   3.390  1.00 20.00     0.158 C 
HETATM    2  N6  UNL     1     -33.181   5.811   4.176  1.00 20.00    -0.270 NA
HETATM    3  S7  UNL     1     -31.984   7.493   2.329  1.00 20.00    -0.055 SA
ENDROOT
BRANCH   2   4
HETATM    4  C4  UNL     1     -34.560   6.133   4.521  1.00 20.00     0.114 A 
HETATM    5  C2  UNL     1     -35.644   5.617   3.614  1.00 20.00     0.034 A 
HETATM    6  C3  UNL     1     -35.478   5.035   4.991  1.00 20.00     0.008 A 
HETATM    7  C5  UNL     1     -35.006   3.631   5.157  1.00 20.00     0.012 C 
ENDBRANCH   2   4
TORSDOF 1
