REMARK  1 active torsions:
REMARK  status: ('A' for Active; 'I' for Inactive)
REMARK    1  A    between atoms: C8_8  and  N10_10 
ROOT
HETATM    1  C1  UNL     1     -34.673   5.553   4.063  1.00 20.00     0.130 C 
HETATM    2  C2  UNL     1     -34.082   6.743   4.783  1.00 20.00     0.108 C 
HETATM    3  C3  UNL     1     -34.325   5.413   2.599  1.00 20.00     0.108 C 
HETATM    4  C5  UNL     1     -32.605   6.907   4.431  1.00 20.00     0.280 C 
HETATM    5  C6  UNL     1     -32.834   5.652   2.376  1.00 20.00     0.280 C 
HETATM    6  N10 UNL     1     -32.316   6.881   2.991  1.00 20.00     0.094 N 
HETATM    7  O11 UNL     1     -35.483   4.806   4.609  1.00 20.00    -0.298 OA
ENDROOT
BRANCH   6   8
HETATM    8  C8  UNL     1     -32.779   8.085   2.307  1.00 20.00     0.227 A 
HETATM    9  C4  UNL     1     -31.966   9.352   2.365  1.00 20.00     0.042 A 
HETATM   10  C7  UNL     1     -32.067   8.584   1.076  1.00 20.00     0.017 A 
HETATM   11  C9  UNL     1     -32.845   9.137  -0.067  1.00 20.00     0.012 C 
ENDBRANCH   6   8
TORSDOF 1
