REMARK  1 active torsions:
REMARK  status: ('A' for Active; 'I' for Inactive)
REMARK    1  A    between atoms: C5_5  and  C6_6 
ROOT
HETATM    1  C1  UNL     1     -34.536   4.294   3.016  1.00 20.00     0.014 A 
HETATM    2  C2  UNL     1     -34.857   5.315   5.414  1.00 20.00     0.275 C 
HETATM    3  C3  UNL     1     -35.394   4.945   4.068  1.00 20.00     0.021 A 
HETATM    4  C4  UNL     1     -34.710   5.793   3.062  1.00 20.00     0.034 A 
HETATM    5  C5  UNL     1     -33.775   6.701   3.808  1.00 20.00     0.331 C 
HETATM    6  N7  UNL     1     -33.626   6.068   5.131  1.00 20.00     0.097 N 
HETATM    7  H18 UNL     1     -33.448   6.764   5.852  1.00 20.00     0.316 HD
ENDROOT
BRANCH   5   8
HETATM    8  C6  UNL     1     -32.430   6.855   3.121  1.00 20.00     0.418 C 
HETATM    9  F8  UNL     1     -31.619   7.642   3.850  1.00 20.00    -0.169 F 
HETATM   10  F9  UNL     1     -31.840   5.656   2.971  1.00 20.00    -0.169 F 
HETATM   11  F10 UNL     1     -32.585   7.410   1.906  1.00 20.00    -0.169 F 
ENDBRANCH   5   8
TORSDOF 1
