REMARK  3 active torsions:
REMARK  status: ('A' for Active; 'I' for Inactive)
REMARK    1  A    between atoms: C4_4  and  C6_6 
REMARK    2  A    between atoms: C6_6  and  C7_7 
REMARK    3  A    between atoms: C7_7  and  C8_8 
ROOT
HETATM    1  C1  UNL     1     -34.744   4.392   5.636  1.00 20.00     0.029 C 
HETATM    2  C2  UNL     1     -33.783   5.552   5.693  1.00 20.00     0.034 C 
HETATM    3  C3  UNL     1     -35.354   4.558   4.260  1.00 20.00     0.168 C 
HETATM    4  C4  UNL     1     -33.261   5.583   4.267  1.00 20.00     0.121 C 
HETATM    5  O9  UNL     1     -34.356   5.171   3.431  1.00 20.00    -0.386 OA
ENDROOT
BRANCH   4   6
HETATM    6  C6  UNL     1     -32.768   6.950   3.833  1.00 20.00     0.033 C 
BRANCH   6   7
HETATM    7  C7  UNL     1     -32.284   6.932   2.379  1.00 20.00     0.022 C 
BRANCH   7   8
HETATM    8  C8  UNL     1     -31.791   8.299   1.886  1.00 20.00     0.078 C 
HETATM    9  C5  UNL     1     -31.338   8.227   0.432  1.00 20.00     0.026 C 
HETATM   10 CL10 UNL     1     -33.076   9.536   2.029  1.00 20.00    -0.125 Cl
ENDBRANCH   7   8
ENDBRANCH   6   7
ENDBRANCH   4   6
TORSDOF 3
