REMARK  3 active torsions:
REMARK  status: ('A' for Active; 'I' for Inactive)
REMARK    1  A    between atoms: C4_4  and  C6_6 
REMARK    2  A    between atoms: C6_6  and  C7_7 
REMARK    3  A    between atoms: C7_7  and  C8_8 
ROOT
HETATM    1  C1  UNL     1     -34.971   4.905   5.753  1.00 20.00     0.029 C 
HETATM    2  C2  UNL     1     -33.937   6.001   5.697  1.00 20.00     0.034 C 
HETATM    3  C3  UNL     1     -35.649   5.045   4.406  1.00 20.00     0.168 C 
HETATM    4  C4  UNL     1     -33.498   5.929   4.244  1.00 20.00     0.121 C 
HETATM    5  O9  UNL     1     -34.664   5.550   3.493  1.00 20.00    -0.386 OA
ENDROOT
BRANCH   4   6
HETATM    6  C6  UNL     1     -32.946   7.237   3.713  1.00 20.00     0.033 C 
BRANCH   6   7
HETATM    7  C7  UNL     1     -32.549   7.117   2.238  1.00 20.00     0.022 C 
BRANCH   7   8
HETATM    8  C8  UNL     1     -32.001   8.423   1.648  1.00 20.00     0.078 C 
HETATM    9  C5  UNL     1     -33.029   9.545   1.746  1.00 20.00     0.026 C 
HETATM   10 CL10 UNL     1     -31.542   8.210  -0.068  1.00 20.00    -0.125 Cl
ENDBRANCH   7   8
ENDBRANCH   6   7
ENDBRANCH   4   6
TORSDOF 3
