REMARK  5 active torsions:
REMARK  status: ('A' for Active; 'I' for Inactive)
REMARK    1  A    between atoms: C1_1  and  C7_7 
REMARK    2  A    between atoms: C1_1  and  C11_11 
REMARK    3  A    between atoms: C7_7  and  C10_10 
REMARK    4  A    between atoms: C8_8  and  C9_9 
REMARK    5  A    between atoms: C9_9  and  C10_10 
ROOT
HETATM    1  C1  UNL     1     -34.020   6.344   4.679  1.00 20.00     0.134 C 
HETATM    2  O12 UNL     1     -33.664   6.690   5.808  1.00 20.00    -0.297 OA
ENDROOT
BRANCH   1   3
HETATM    3  C7  UNL     1     -33.824   7.270   3.480  1.00 20.00     0.083 C 
BRANCH   3   4
HETATM    4  C10 UNL     1     -32.488   7.049   2.743  1.00 20.00    -0.012 C 
HETATM    5  C3  UNL     1     -31.308   7.262   3.699  1.00 20.00     0.010 C 
BRANCH   4   6
HETATM    6  C9  UNL     1     -32.417   7.997   1.527  1.00 20.00     0.004 C 
BRANCH   6   7
HETATM    7  C8  UNL     1     -32.025   9.432   1.890  1.00 20.00    -0.004 C 
HETATM    8  C2  UNL     1     -32.043  10.337   0.667  1.00 20.00     0.005 C 
ENDBRANCH   6   7
ENDBRANCH   4   6
ENDBRANCH   3   4
ENDBRANCH   1   3
BRANCH   1   9
HETATM    9  C11 UNL     1     -34.687   4.974   4.434  1.00 20.00     0.009 C 
HETATM   10  C4  UNL     1     -33.864   4.141   3.442  1.00 20.00     0.022 C 
HETATM   11  C5  UNL     1     -34.817   4.237   5.773  1.00 20.00     0.022 C 
HETATM   12  C6  UNL     1     -36.093   5.185   3.844  1.00 20.00     0.022 C 
ENDBRANCH   1   9
TORSDOF 5
