REMARK  5 active torsions:
REMARK  status: ('A' for Active; 'I' for Inactive)
REMARK    1  A    between atoms: C1_1  and  C6_6 
REMARK    2  A    between atoms: C1_1  and  C9_9 
REMARK    3  A    between atoms: C6_6  and  C10_10 
REMARK    4  A    between atoms: C7_7  and  C8_8 
REMARK    5  A    between atoms: C8_8  and  C10_10 
ROOT
HETATM    1  C6  UNL     1     -32.374   5.633   3.552  1.00 20.00     0.082 C 
ENDROOT
BRANCH   1   2
HETATM    2  C1  UNL     1     -33.712   5.856   4.249  1.00 20.00     0.130 C 
HETATM    3  O11 UNL     1     -34.695   6.287   3.646  1.00 20.00    -0.298 OA
BRANCH   2   4
HETATM    4  C9  UNL     1     -33.783   5.461   5.725  1.00 20.00     0.047 C 
HETATM    5  C3  UNL     1     -34.739   6.371   6.493  1.00 20.00     0.017 C 
HETATM    6  C4  UNL     1     -34.204   4.002   5.857  1.00 20.00     0.017 C 
ENDBRANCH   2   4
ENDBRANCH   1   2
BRANCH   1   7
HETATM    7  C10 UNL     1     -31.736   6.927   3.018  1.00 20.00    -0.012 C 
HETATM    8  C5  UNL     1     -31.422   7.901   4.159  1.00 20.00     0.010 C 
BRANCH   7   9
HETATM    9  C8  UNL     1     -32.616   7.583   1.933  1.00 20.00     0.004 C 
BRANCH   9  10
HETATM   10  C7  UNL     1     -31.879   8.522   0.973  1.00 20.00    -0.004 C 
HETATM   11  C2  UNL     1     -32.840   9.157  -0.022  1.00 20.00     0.005 C 
ENDBRANCH   9  10
ENDBRANCH   7   9
ENDBRANCH   1   7
TORSDOF 5
