REMARK  3 active torsions:
REMARK  status: ('A' for Active; 'I' for Inactive)
REMARK    1  A    between atoms: C1_1  and  C9_9 
REMARK    2  A    between atoms: C3_3  and  C8_8 
REMARK    3  A    between atoms: C9_9  and  N10_10 
ROOT
HETATM    1  C4  UNL     1     -33.597   6.137   6.443  1.00 20.00     0.028 C 
HETATM    2  C5  UNL     1     -35.097   5.892   6.297  1.00 20.00     0.015 C 
HETATM    3  C6  UNL     1     -32.975   6.609   5.139  1.00 20.00     0.235 C 
HETATM    4  C7  UNL     1     -34.733   5.384   3.830  1.00 20.00     0.246 C 
HETATM    5  C8  UNL     1     -35.431   4.981   5.120  1.00 20.00     0.073 C 
HETATM    6  N10 UNL     1     -33.253   5.592   4.060  1.00 20.00    -0.067 N 
HETATM    7  H27 UNL     1     -32.858   4.696   4.378  1.00 20.00     0.280 HD
ENDROOT
BRANCH   6   8
HETATM    8  C9  UNL     1     -32.538   5.932   2.781  1.00 20.00     0.263 C 
BRANCH   8   9
HETATM    9  C1  UNL     1     -33.000   7.221   2.183  1.00 20.00     0.012 C 
HETATM   10  C2  UNL     1     -32.186   8.254   1.949  1.00 20.00     0.082 C 
HETATM   11 CL12 UNL     1     -32.723   9.726   1.257  1.00 20.00    -0.097 Cl
ENDBRANCH   8   9
ENDBRANCH   6   8
BRANCH   5  12
HETATM   12  C3  UNL     1     -35.093   3.550   5.513  1.00 20.00     0.237 C 
HETATM   13  O11 UNL     1     -34.018   3.016   5.261  1.00 20.00    -0.306 OA
ENDBRANCH   5  12
TORSDOF 3
