REMARK  2 active torsions:
REMARK  status: ('A' for Active; 'I' for Inactive)
REMARK    1  A    between atoms: C1_1  and  C2_2 
REMARK    2  A    between atoms: C9_9  and  N10_10 
ROOT
HETATM    1  C1  UNL     1     -33.621   6.544   4.454  1.00 20.00     0.150 C 
HETATM    2  C3  UNL     1     -35.004   6.021   4.178  1.00 20.00     0.068 C 
HETATM    3  C4  UNL     1     -34.932   4.685   3.444  1.00 20.00     0.008 C 
HETATM    4  C5  UNL     1     -33.978   4.756   2.254  1.00 20.00     0.029 C 
HETATM    5  C6  UNL     1     -32.597   5.252   2.672  1.00 20.00     0.242 C 
HETATM    6  N10 UNL     1     -32.659   6.586   3.380  1.00 20.00    -0.038 N 
HETATM    7  H28 UNL     1     -31.716   6.738   3.768  1.00 20.00     0.286 HD
ENDROOT
BRANCH   6   8
HETATM    8  C9  UNL     1     -32.924   7.758   2.475  1.00 20.00     0.186 C 
HETATM    9  C7  UNL     1     -31.664   8.040   1.671  1.00 20.00     0.040 C 
HETATM   10  C8  UNL     1     -33.339   8.943   3.331  1.00 20.00     0.040 C 
ENDBRANCH   6   8
BRANCH   1  11
HETATM   11  C2  UNL     1     -33.221   6.948   5.669  1.00 20.00     0.291 C 
HETATM   12  O11 UNL     1     -33.813   6.997   6.779  1.00 20.00    -0.300 OA
ENDBRANCH   1  11
TORSDOF 2
