REMARK  4 active torsions:
REMARK  status: ('A' for Active; 'I' for Inactive)
REMARK    1  A    between atoms: C3_3  and  C8_8 
REMARK    2  A    between atoms: C3_3  and  O9_9 
REMARK    3  A    between atoms: C6_6  and  C7_7 
REMARK    4  A    between atoms: C7_7  and  C8_8 
ROOT
HETATM    1  C1  UNL     1     -35.254   4.404   5.385  1.00 20.00     0.041 A 
HETATM    2  C2  UNL     1     -33.804   4.176   5.713  1.00 20.00     0.041 A 
HETATM    3  C3  UNL     1     -34.278   5.546   5.308  1.00 20.00     0.061 A 
ENDROOT
BRANCH   3   4
HETATM    4  C8  UNL     1     -33.883   6.127   3.948  1.00 20.00     0.016 C 
HETATM    5  C5  UNL     1     -34.659   5.416   2.839  1.00 20.00     0.013 C 
BRANCH   4   6
HETATM    6  C7  UNL     1     -32.358   6.024   3.759  1.00 20.00     0.007 C 
BRANCH   6   7
HETATM    7  C6  UNL     1     -31.863   6.642   2.449  1.00 20.00    -0.004 C 
HETATM    8  C4  UNL     1     -32.268   8.105   2.339  1.00 20.00     0.005 C 
ENDBRANCH   6   7
ENDBRANCH   4   6
ENDBRANCH   3   4
BRANCH   3   9
HETATM    9  O9  UNL     1     -34.367   6.523   6.359  1.00 20.00    -0.389 OA
HETATM   10  H25 UNL     1     -34.206   6.042   7.181  1.00 20.00     0.210 HD
ENDBRANCH   3   9
TORSDOF 4
