REMARK  1 active torsions:
REMARK  status: ('A' for Active; 'I' for Inactive)
REMARK    1  A    between atoms: C1_1  and  C6_6 
ROOT
HETATM    1  C2  UNL     1     -34.667   5.466   6.745  1.00 20.00     0.027 C 
HETATM    2  C3  UNL     1     -33.778   6.184   5.741  1.00 20.00     0.017 C 
HETATM    3  C4  UNL     1     -35.053   4.075   6.245  1.00 20.00     0.167 C 
HETATM    4  C5  UNL     1     -35.483   5.145   4.164  1.00 20.00     0.181 C 
HETATM    5  C6  UNL     1     -34.468   6.271   4.376  1.00 20.00     0.096 C 
HETATM    6  O8  UNL     1     -35.047   3.958   4.821  1.00 20.00    -0.390 OA
ENDROOT
BRANCH   5   7
HETATM    7  C1  UNL     1     -33.424   6.222   3.300  1.00 20.00     0.225 C 
HETATM    8  O7  UNL     1     -33.435   5.358   2.429  1.00 20.00    -0.279 OA
HETATM    9 CL9  UNL     1     -32.258   7.500   3.462  1.00 20.00    -0.043 Cl
ENDBRANCH   5   7
TORSDOF 1
