REMARK  0 active torsions:
REMARK  status: ('A' for Active; 'I' for Inactive)
ROOT
HETATM    1  C1  UNL     1     -32.753   6.634   2.581  1.00 20.00    -0.006 C 
HETATM    2  C2  UNL     1     -33.523   5.661   2.082  1.00 20.00     0.112 C 
HETATM    3  C3  UNL     1     -34.642   5.239   4.026  1.00 20.00     0.023 C 
HETATM    4  C4  UNL     1     -33.947   6.398   6.193  1.00 20.00     0.136 C 
HETATM    5  C5  UNL     1     -32.805   6.976   4.031  1.00 20.00     0.046 C 
HETATM    6  C6  UNL     1     -35.630   4.406   4.812  1.00 20.00     0.056 C 
HETATM    7  C7  UNL     1     -34.939   5.533   6.937  1.00 20.00     0.079 C 
HETATM    8  C8  UNL     1     -35.120   4.200   6.228  1.00 20.00     0.013 C 
HETATM    9  C9  UNL     1     -34.114   6.513   4.680  1.00 20.00     0.106 C 
HETATM   10  N10 UNL     1     -34.381   4.879   2.805  1.00 20.00    -0.269 NA
HETATM   11  O11 UNL     1     -33.120   7.070   6.812  1.00 20.00    -0.297 OA
ENDROOT
TORSDOF 0
