REMARK  3 active torsions:
REMARK  status: ('A' for Active; 'I' for Inactive)
REMARK    1  A    between atoms: C2_2  and  C7_7 
REMARK    2  A    between atoms: C5_5  and  C7_7 
REMARK    3  A    between atoms: C6_6  and  C7_7 
ROOT
HETATM    1  C7  UNL     1     -33.345   5.531   4.238  1.00 20.00     0.016 C 
ENDROOT
BRANCH   1   2
HETATM    2  C2  UNL     1     -32.995   6.890   3.625  1.00 20.00     0.149 A 
HETATM    3  C1  UNL     1     -31.579   7.392   3.602  1.00 20.00     0.200 A 
HETATM    4  O8  UNL     1     -32.196   6.819   2.439  1.00 20.00    -0.381 OA
ENDBRANCH   1   2
BRANCH   1   5
HETATM    5  C5  UNL     1     -34.344   4.751   3.357  1.00 20.00     0.002 C 
HETATM    6  C3  UNL     1     -35.679   5.457   3.167  1.00 20.00     0.005 C 
ENDBRANCH   1   5
BRANCH   1   7
HETATM    7  C6  UNL     1     -33.937   5.683   5.655  1.00 20.00     0.002 C 
HETATM    8  C4  UNL     1     -34.278   4.360   6.326  1.00 20.00     0.005 C 
ENDBRANCH   1   7
TORSDOF 3
