REMARK  1 active torsions:
REMARK  status: ('A' for Active; 'I' for Inactive)
REMARK    1  A    between atoms: C4_4  and  C5_5 
ROOT
HETATM    1  C1  UNL     1     -35.128   4.249   6.216  1.00 20.00     0.007 A 
HETATM    2  C2  UNL     1     -34.964   5.718   6.490  1.00 20.00     0.007 A 
HETATM    3  C4  UNL     1     -35.013   5.218   5.072  1.00 20.00     0.017 A 
ENDROOT
BRANCH   3   4
HETATM    4  C5  UNL     1     -33.807   5.255   4.147  1.00 20.00     0.149 A 
HETATM    5  C3  UNL     1     -33.902   5.510   2.672  1.00 20.00     0.200 A 
HETATM    6  O6  UNL     1     -33.506   6.537   3.594  1.00 20.00    -0.381 OA
ENDBRANCH   3   4
TORSDOF 1
