REMARK  3 active torsions:
REMARK  status: ('A' for Active; 'I' for Inactive)
REMARK    1  A    between atoms: C2_2  and  C6_6 
REMARK    2  A    between atoms: C6_6  and  C7_7 
REMARK    3  A    between atoms: C7_7  and  C8_8 
ROOT
HETATM    1  C6  UNL     1     -34.229   7.345   3.848  1.00 20.00     0.040 C 
ENDROOT
BRANCH   1   2
HETATM    2  C2  UNL     1     -33.019   6.925   3.027  1.00 20.00     0.079 A 
HETATM    3  C1  UNL     1     -31.698   7.626   3.235  1.00 20.00     0.206 A 
HETATM    4  O9  UNL     1     -32.553   7.937   2.124  1.00 20.00    -0.375 OA
HETATM    5  C3  UNL     1     -33.040   5.553   2.435  1.00 20.00     0.048 C 
ENDBRANCH   1   2
BRANCH   1   6
HETATM    6  C7  UNL     1     -34.246   6.650   5.212  1.00 20.00     0.007 C 
BRANCH   6   7
HETATM    7  C8  UNL     1     -34.371   5.118   5.118  1.00 20.00    -0.023 C 
HETATM    8  C4  UNL     1     -35.672   4.747   4.403  1.00 20.00     0.009 C 
HETATM    9  C5  UNL     1     -34.326   4.443   6.489  1.00 20.00     0.009 C 
ENDBRANCH   6   7
ENDBRANCH   1   6
TORSDOF 3
