REMARK  3 active torsions:
REMARK  status: ('A' for Active; 'I' for Inactive)
REMARK    1  A    between atoms: C3_3  and  C4_4 
REMARK    2  A    between atoms: C4_4  and  C6_6 
REMARK    3  A    between atoms: C5_5  and  C6_6 
ROOT
HETATM    1  C2  UNL     1     -34.452   5.018   2.543  1.00 20.00     0.011 C 
HETATM    2  C6  UNL     1     -34.192   6.002   3.690  1.00 20.00    -0.005 C 
ENDROOT
BRANCH   2   3
HETATM    3  C4  UNL     1     -32.673   6.138   3.926  1.00 20.00     0.005 C 
BRANCH   3   4
HETATM    4  C3  UNL     1     -31.910   6.671   2.711  1.00 20.00    -0.004 C 
HETATM    5  C1  UNL     1     -32.417   8.044   2.298  1.00 20.00     0.005 C 
ENDBRANCH   3   4
ENDBRANCH   2   3
BRANCH   2   6
HETATM    6  C5  UNL     1     -35.003   5.626   4.941  1.00 20.00     0.119 C 
HETATM    7 CL7  UNL     1     -34.624   4.008   5.577  1.00 20.00    -0.130 Cl
ENDBRANCH   2   6
TORSDOF 3
