REMARK  1 active torsions:
REMARK  status: ('A' for Active; 'I' for Inactive)
REMARK    1  A    between atoms: C1_1  and  C2_2 
ROOT
HETATM    1  C1  UNL     1     -33.690   6.229   4.170  1.00 20.00     0.437 C 
HETATM    2  F3  UNL     1     -34.592   7.198   3.893  1.00 20.00    -0.166 F 
HETATM    3  F4  UNL     1     -33.903   5.218   3.298  1.00 20.00    -0.166 F 
HETATM    4  F5  UNL     1     -32.463   6.735   3.908  1.00 20.00    -0.166 F 
ENDROOT
BRANCH   1   5
HETATM    5  C2  UNL     1     -33.802   5.757   5.610  1.00 20.00     0.286 C 
HETATM    6 CL6  UNL     1     -35.436   5.098   5.909  1.00 20.00    -0.074 Cl
HETATM    7 CL7  UNL     1     -32.593   4.481   5.930  1.00 20.00    -0.074 Cl
HETATM    8 CL8  UNL     1     -33.514   7.124   6.724  1.00 20.00    -0.074 Cl
ENDBRANCH   1   5
TORSDOF 1
