REMARK  1 active torsions:
REMARK  status: ('A' for Active; 'I' for Inactive)
REMARK    1  A    between atoms: C7_7  and  C8_8 
ROOT
HETATM    1  C1  UNL     1     -34.582   4.518   5.086  1.00 20.00     0.132 C 
HETATM    2  C2  UNL     1     -35.036   4.637   6.521  1.00 20.00     0.079 C 
HETATM    3  C3  UNL     1     -35.100   6.097   6.954  1.00 20.00     0.008 C 
HETATM    4  C4  UNL     1     -33.731   6.769   6.864  1.00 20.00     0.006 C 
HETATM    5  C5  UNL     1     -33.452   5.390   4.679  1.00 20.00     0.073 A 
HETATM    6  C6  UNL     1     -33.049   6.556   5.547  1.00 20.00     0.011 A 
HETATM    7  C7  UNL     1     -33.748   6.805   4.233  1.00 20.00     0.110 A 
HETATM    8  O9  UNL     1     -35.056   3.710   4.298  1.00 20.00    -0.298 OA
ENDROOT
BRANCH   7   9
HETATM    9  C8  UNL     1     -32.997   7.396   3.090  1.00 20.00     0.392 C 
HETATM   10  F10 UNL     1     -32.973   8.749   3.158  1.00 20.00    -0.171 F 
HETATM   11  F11 UNL     1     -31.711   6.971   3.066  1.00 20.00    -0.171 F 
HETATM   12  F12 UNL     1     -33.556   7.062   1.902  1.00 20.00    -0.171 F 
ENDBRANCH   7   9
TORSDOF 1
