REMARK  0 active torsions:
REMARK  status: ('A' for Active; 'I' for Inactive)
ROOT
HETATM    1  C1  UNL     1     -35.997   5.274   4.007  1.00 20.00     0.013 C 
HETATM    2  C2  UNL     1     -35.732   6.785   4.168  1.00 20.00     0.013 C 
HETATM    3  C3  UNL     1     -34.501   4.357   5.859  1.00 20.00     0.280 C 
HETATM    4  C4  UNL     1     -34.082   6.749   6.113  1.00 20.00     0.280 C 
HETATM    5  C5  UNL     1     -34.654   4.598   4.345  1.00 20.00     0.086 C 
HETATM    6  C6  UNL     1     -34.254   6.887   4.588  1.00 20.00     0.086 C 
HETATM    7  C7  UNL     1     -33.665   5.663   3.909  1.00 20.00     0.254 C 
HETATM    8  N8  UNL     1     -34.732   5.557   6.676  1.00 20.00     0.084 N 
HETATM    9  F9  UNL     1     -32.403   5.402   4.287  1.00 20.00    -0.205 F 
HETATM   10  F10 UNL     1     -33.669   5.807   2.565  1.00 20.00    -0.205 F 
HETATM   11  H21 UNL     1     -35.737   5.728   6.718  1.00 20.00     0.315 HD
ENDROOT
TORSDOF 0
