REMARK  3 active torsions:
REMARK  status: ('A' for Active; 'I' for Inactive)
REMARK    1  A    between atoms: C3_3  and  C4_4 
REMARK    2  A    between atoms: C3_3  and  C5_5 
REMARK    3  A    between atoms: C4_4  and  O6_6 
ROOT
HETATM    1  C1  UNL     1     -33.609   6.937   6.290  1.00 20.00     0.022 A 
HETATM    2  C2  UNL     1     -33.199   5.492   6.318  1.00 20.00     0.022 A 
HETATM    3  C3  UNL     1     -34.211   5.966   5.301  1.00 20.00     0.079 A 
ENDROOT
BRANCH   3   4
HETATM    4  C4  UNL     1     -35.646   5.562   5.495  1.00 20.00     0.182 C 
BRANCH   4   5
HETATM    5  O6  UNL     1     -35.896   4.351   4.789  1.00 20.00    -0.400 OA
HETATM    6  H16 UNL     1     -36.828   4.128   4.940  1.00 20.00     0.209 HD
ENDBRANCH   4   5
ENDBRANCH   3   4
BRANCH   3   7
HETATM    7  C5  UNL     1     -33.776   6.061   3.865  1.00 20.00     0.397 C 
HETATM    8  F7  UNL     1     -32.445   5.867   3.749  1.00 20.00    -0.170 F 
HETATM    9  F8  UNL     1     -34.398   5.132   3.109  1.00 20.00    -0.170 F 
HETATM   10  F9  UNL     1     -34.065   7.276   3.352  1.00 20.00    -0.170 F 
ENDBRANCH   3   7
TORSDOF 3
