REMARK  0 active torsions:
REMARK  status: ('A' for Active; 'I' for Inactive)
ROOT
HETATM    1  C1  UNL     1     -35.157   4.262   6.260  1.00 20.00     0.027 C 
HETATM    2  C2  UNL     1     -34.503   5.612   6.548  1.00 20.00     0.027 C 
HETATM    3  C3  UNL     1     -33.409   5.017   2.799  1.00 20.00     0.009 C 
HETATM    4  C4  UNL     1     -33.538   3.251   4.568  1.00 20.00     0.030 C 
HETATM    5  C5  UNL     1     -35.649   4.454   3.764  1.00 20.00     0.030 C 
HETATM    6  C6  UNL     1     -32.438   5.508   5.053  1.00 20.00     0.030 C 
HETATM    7  C7  UNL     1     -34.548   6.711   4.246  1.00 20.00     0.030 C 
HETATM    8  C8  UNL     1     -32.705   4.413   4.015  1.00 20.00    -0.010 C 
HETATM    9  C9  UNL     1     -34.762   5.584   3.230  1.00 20.00    -0.010 C 
HETATM   10  C10 UNL     1     -35.000   3.615   4.878  1.00 20.00     0.038 C 
HETATM   11  C11 UNL     1     -33.685   6.313   5.456  1.00 20.00     0.038 C 
HETATM   12 CL12 UNL     1     -35.930   2.047   4.974  1.00 20.00    -0.119 Cl
HETATM   13 CL13 UNL     1     -33.094   7.862   6.220  1.00 20.00    -0.119 Cl
ENDROOT
TORSDOF 0
