REMARK  3 active torsions:
REMARK  status: ('A' for Active; 'I' for Inactive)
REMARK    1  A    between atoms: C1_1  and  C4_4 
REMARK       I    between atoms: C1_1  and  N10_10 
REMARK    2  A    between atoms: C8_8  and  C9_9 
REMARK    3  A    between atoms: C9_9  and  N10_10 
ROOT
HETATM    1  C1  UNL     1     -31.790   7.557   2.922  1.00 20.00     0.222 C 
HETATM    2  N10 UNL     1     -32.949   6.878   2.618  1.00 20.00    -0.352 N 
HETATM    3  O11 UNL     1     -31.039   7.340   3.866  1.00 20.00    -0.273 OA
HETATM    4  H28 UNL     1     -33.477   7.162   1.804  1.00 20.00     0.163 HD
ENDROOT
BRANCH   2   5
HETATM    5  C9  UNL     1     -33.446   5.770   3.417  1.00 20.00     0.025 C 
HETATM    6  C6  UNL     1     -34.750   5.264   2.781  1.00 20.00     0.038 C 
HETATM    7  C7  UNL     1     -32.414   4.634   3.404  1.00 20.00     0.038 C 
BRANCH   5   8
HETATM    8  C8  UNL     1     -33.748   6.246   4.858  1.00 20.00     0.026 C 
HETATM    9  C5  UNL     1     -34.312   5.176   5.786  1.00 20.00     0.007 C 
ENDBRANCH   5   8
ENDBRANCH   2   5
BRANCH   1  10
HETATM   10  C4  UNL     1     -31.469   8.657   1.965  1.00 20.00     0.078 A 
HETATM   11  C2  UNL     1     -31.816   8.473   0.525  1.00 20.00     0.015 A 
HETATM   12  C3  UNL     1     -32.597   9.433   1.371  1.00 20.00     0.015 A 
ENDBRANCH   1  10
TORSDOF 3
