REMARK  1 active torsions:
REMARK  status: ('A' for Active; 'I' for Inactive)
REMARK    1  A    between atoms: C7_7  and  C8_8 
ROOT
HETATM    1  C1  UNL     1     -34.983   3.948   5.786  1.00 20.00     0.005 C 
HETATM    2  C2  UNL     1     -34.656   3.438   4.375  1.00 20.00     0.005 C 
HETATM    3  C3  UNL     1     -35.695   5.562   4.188  1.00 20.00     0.010 C 
HETATM    4  C4  UNL     1     -33.683   6.050   5.359  1.00 20.00     0.010 C 
HETATM    5  C5  UNL     1     -35.090   5.469   5.588  1.00 20.00    -0.014 C 
HETATM    6  C6  UNL     1     -34.578   4.735   3.549  1.00 20.00    -0.009 C 
HETATM    7  C7  UNL     1     -33.300   5.501   3.968  1.00 20.00     0.004 C 
ENDROOT
BRANCH   7   8
HETATM    8  C8  UNL     1     -32.928   6.610   2.990  1.00 20.00     0.119 C 
HETATM    9 CL9  UNL     1     -31.548   7.535   3.611  1.00 20.00    -0.130 Cl
ENDBRANCH   7   8
TORSDOF 1
