REMARK  2 active torsions:
REMARK  status: ('A' for Active; 'I' for Inactive)
REMARK    1  A    between atoms: C1_1  and  C9_9 
REMARK    2  A    between atoms: C2_2  and  C8_8 
ROOT
HETATM    1  C1  UNL     1     -32.918   6.187   5.040  1.00 20.00    -0.016 C 
HETATM    2  C2  UNL     1     -32.423   6.888   3.998  1.00 20.00    -0.087 C 
HETATM    3  C3  UNL     1     -31.014   7.430   4.072  1.00 20.00     0.043 C 
ENDROOT
BRANCH   1   4
HETATM    4  C9  UNL     1     -34.277   5.528   5.259  1.00 20.00    -0.033 C 
HETATM    5  C5  UNL     1     -34.919   6.167   6.514  1.00 20.00     0.018 C 
HETATM    6  C6  UNL     1     -35.256   5.751   4.093  1.00 20.00     0.018 C 
HETATM    7  C7  UNL     1     -34.106   4.025   5.535  1.00 20.00     0.018 C 
ENDBRANCH   1   4
BRANCH   2   8
HETATM    8  C8  UNL     1     -33.126   7.163   2.690  1.00 20.00     0.029 C 
HETATM    9  C4  UNL     1     -32.280   7.987   1.729  1.00 20.00     0.010 C 
ENDBRANCH   2   8
TORSDOF 2
