REMARK  1 active torsions:
REMARK  status: ('A' for Active; 'I' for Inactive)
REMARK    1  A    between atoms: C1_1  and  C5_5 
ROOT
HETATM    1  C2  UNL     1     -35.157   4.813   6.608  1.00 20.00     0.002 C 
HETATM    2  C3  UNL     1     -34.533   4.016   5.449  1.00 20.00     0.016 C 
HETATM    3  C4  UNL     1     -34.542   6.085   6.000  1.00 20.00     0.016 C 
HETATM    4  C5  UNL     1     -34.451   5.342   4.629  1.00 20.00     0.009 C 
HETATM    5  C6  UNL     1     -35.665   5.577   3.727  1.00 20.00     0.023 C 
ENDROOT
BRANCH   4   6
HETATM    6  C1  UNL     1     -33.126   5.556   3.846  1.00 20.00     0.240 C 
HETATM    7  O7  UNL     1     -32.378   6.510   4.032  1.00 20.00    -0.306 OA
ENDBRANCH   4   6
TORSDOF 1
