REMARK  3 active torsions:
REMARK  status: ('A' for Active; 'I' for Inactive)
REMARK    1  A    between atoms: C4_4  and  C7_7 
REMARK    2  A    between atoms: C6_6  and  C7_7 
REMARK    3  A    between atoms: C7_7  and  O9_9 
ROOT
HETATM    1  C1  UNL     1     -35.637   5.255   4.864  1.00 20.00     0.035 C 
HETATM    2  C2  UNL     1     -35.112   4.622   6.137  1.00 20.00     0.168 C 
HETATM    3  C3  UNL     1     -34.078   6.694   5.867  1.00 20.00     0.174 C 
HETATM    4  C4  UNL     1     -34.544   6.236   4.494  1.00 20.00     0.040 C 
HETATM    5  O8  UNL     1     -34.250   5.584   6.761  1.00 20.00    -0.391 OA
ENDROOT
BRANCH   4   6
HETATM    6  C7  UNL     1     -33.418   5.567   3.707  1.00 20.00     0.124 C 
BRANCH   6   7
HETATM    7  C6  UNL     1     -32.341   6.579   3.301  1.00 20.00     0.027 C 
HETATM    8  C5  UNL     1     -32.901   7.721   2.463  1.00 20.00     0.007 C 
ENDBRANCH   6   7
BRANCH   6   9
HETATM    9  O9  UNL     1     -33.961   4.973   2.529  1.00 20.00    -0.395 OA
HETATM   10  H23 UNL     1     -33.218   4.563   2.061  1.00 20.00     0.210 HD
ENDBRANCH   6   9
ENDBRANCH   4   6
TORSDOF 3
