REMARK  3 active torsions:
REMARK  status: ('A' for Active; 'I' for Inactive)
REMARK    1  A    between atoms: C4_4  and  C7_7 
REMARK    2  A    between atoms: C6_6  and  C7_7 
REMARK    3  A    between atoms: C7_7  and  O9_9 
ROOT
HETATM    1  C1  UNL     1     -33.811   6.802   5.628  1.00 20.00     0.035 C 
HETATM    2  C2  UNL     1     -33.935   5.570   6.502  1.00 20.00     0.168 C 
HETATM    3  C3  UNL     1     -35.504   5.413   4.785  1.00 20.00     0.174 C 
HETATM    4  C4  UNL     1     -34.403   6.347   4.311  1.00 20.00     0.040 C 
HETATM    5  O8  UNL     1     -35.049   4.814   6.008  1.00 20.00    -0.391 OA
ENDROOT
BRANCH   4   6
HETATM    6  C7  UNL     1     -33.377   5.620   3.442  1.00 20.00     0.124 C 
BRANCH   6   7
HETATM    7  C6  UNL     1     -32.204   6.536   3.076  1.00 20.00     0.027 C 
HETATM    8  C5  UNL     1     -32.653   7.791   2.340  1.00 20.00     0.007 C 
ENDBRANCH   6   7
BRANCH   6   9
HETATM    9  O9  UNL     1     -34.011   5.179   2.242  1.00 20.00    -0.395 OA
HETATM   10  H23 UNL     1     -33.330   4.726   1.723  1.00 20.00     0.210 HD
ENDBRANCH   6   9
ENDBRANCH   4   6
TORSDOF 3
