REMARK  3 active torsions:
REMARK  status: ('A' for Active; 'I' for Inactive)
REMARK    1  A    between atoms: C4_4  and  C7_7 
REMARK    2  A    between atoms: C6_6  and  C7_7 
REMARK    3  A    between atoms: C7_7  and  O9_9 
ROOT
HETATM    1  C1  UNL     1     -33.889   6.227   5.913  1.00 20.00     0.035 C 
HETATM    2  C2  UNL     1     -34.466   5.213   6.879  1.00 20.00     0.168 C 
HETATM    3  C3  UNL     1     -35.136   4.637   4.723  1.00 20.00     0.174 C 
HETATM    4  C4  UNL     1     -33.848   5.435   4.625  1.00 20.00     0.040 C 
HETATM    5  O8  UNL     1     -35.342   4.367   6.119  1.00 20.00    -0.391 OA
ENDROOT
BRANCH   4   6
HETATM    6  C7  UNL     1     -33.750   6.287   3.374  1.00 20.00     0.124 C 
BRANCH   6   7
HETATM    7  C6  UNL     1     -32.460   7.114   3.359  1.00 20.00     0.027 C 
HETATM    8  C5  UNL     1     -32.315   7.944   2.090  1.00 20.00     0.007 C 
ENDBRANCH   6   7
BRANCH   6   9
HETATM    9  O9  UNL     1     -33.767   5.437   2.228  1.00 20.00    -0.395 OA
HETATM   10  H23 UNL     1     -34.606   4.953   2.257  1.00 20.00     0.210 HD
ENDBRANCH   6   9
ENDBRANCH   4   6
TORSDOF 3
