REMARK  2 active torsions:
REMARK  status: ('A' for Active; 'I' for Inactive)
REMARK    1  A    between atoms: C8_8  and  C11_11 
REMARK    2  A    between atoms: C10_10  and  C11_11 
ROOT
HETATM    1  C11 UNL     1     -31.915   6.970   3.162  1.00 20.00     0.046 C 
ENDROOT
BRANCH   1   2
HETATM    2  C8  UNL     1     -32.055   7.810   1.948  1.00 20.00    -0.076 A 
HETATM    3  C4  UNL     1     -31.731   7.502   0.683  1.00 20.00     0.003 A 
HETATM    4  C3  UNL     1     -32.036   8.616  -0.176  1.00 20.00    -0.003 A 
HETATM    5  C5  UNL     1     -32.549   9.618   0.552  1.00 20.00    -0.022 A 
HETATM    6  C9  UNL     1     -32.616   9.206   1.995  1.00 20.00     0.061 A 
ENDBRANCH   1   2
BRANCH   1   7
HETATM    7  C10 UNL     1     -33.259   6.769   3.838  1.00 20.00     0.034 A 
HETATM    8  C6  UNL     1     -33.151   5.932   5.088  1.00 20.00    -0.018 A 
HETATM    9  C1  UNL     1     -33.908   4.834   4.960  1.00 20.00    -0.004 A 
HETATM   10  C2  UNL     1     -34.555   4.841   3.674  1.00 20.00    -0.004 A 
HETATM   11  C7  UNL     1     -34.203   5.944   2.999  1.00 20.00    -0.018 A 
ENDBRANCH   1   7
TORSDOF 2
