REMARK  1 active torsions:
REMARK  status: ('A' for Active; 'I' for Inactive)
REMARK    1  A    between atoms: C1_1  and  C4_4 
ROOT
HETATM    1  C1  UNL     1     -33.912   6.204   4.078  1.00 20.00     0.172 C 
HETATM    2  C2  UNL     1     -34.455   6.175   6.268  1.00 20.00     0.160 C 
HETATM    3  C3  UNL     1     -35.356   5.058   5.763  1.00 20.00     0.103 C 
HETATM    4  N5  UNL     1     -33.448   6.516   5.242  1.00 20.00    -0.278 NA
HETATM    5  S9  UNL     1     -35.459   5.402   3.997  1.00 20.00    -0.104 SA
ENDROOT
BRANCH   1   6
HETATM    6  C4  UNL     1     -33.180   6.456   2.804  1.00 20.00     0.440 C 
HETATM    7  F6  UNL     1     -33.874   5.995   1.741  1.00 20.00    -0.164 F 
HETATM    8  F7  UNL     1     -32.968   7.776   2.612  1.00 20.00    -0.164 F 
HETATM    9  F8  UNL     1     -31.974   5.845   2.799  1.00 20.00    -0.164 F 
ENDBRANCH   1   6
TORSDOF 1
