REMARK  2 active torsions:
REMARK  status: ('A' for Active; 'I' for Inactive)
REMARK    1  A    between atoms: C2_2  and  C3_3 
REMARK    2  A    between atoms: C2_2  and  C4_4 
ROOT
HETATM    1  C2  UNL     1     -34.136   6.069   4.760  1.00 20.00     0.154 C 
ENDROOT
BRANCH   1   2
HETATM    2  C3  UNL     1     -34.284   4.636   5.261  1.00 20.00     0.174 C 
HETATM    3  C1  UNL     1     -34.940   4.579   6.629  1.00 20.00     0.045 C 
HETATM    4  F5  UNL     1     -35.074   3.948   4.390  1.00 20.00    -0.250 F 
ENDBRANCH   1   2
BRANCH   1   5
HETATM    5  C4  UNL     1     -33.473   6.129   3.399  1.00 20.00     0.390 C 
HETATM    6  F6  UNL     1     -33.337   7.411   2.996  1.00 20.00    -0.171 F 
HETATM    7  F7  UNL     1     -34.202   5.482   2.465  1.00 20.00    -0.171 F 
HETATM    8  F8  UNL     1     -32.243   5.575   3.427  1.00 20.00    -0.171 F 
ENDBRANCH   1   5
TORSDOF 2
