REMARK  1 active torsions:
REMARK  status: ('A' for Active; 'I' for Inactive)
REMARK    1  A    between atoms: C4_4  and  C6_6 
ROOT
HETATM    1  C1  UNL     1     -33.083   6.218   2.090  1.00 20.00     0.135 A 
HETATM    2  C2  UNL     1     -34.185   5.524   2.539  1.00 20.00     0.136 A 
HETATM    3  C3  UNL     1     -32.454   6.619   4.252  1.00 20.00     0.144 A 
HETATM    4  C4  UNL     1     -33.557   5.926   4.701  1.00 20.00     0.065 A 
HETATM    5  N7  UNL     1     -32.198   6.777   2.938  1.00 20.00    -0.270 NA
HETATM    6  N8  UNL     1     -34.442   5.366   3.853  1.00 20.00    -0.261 NA
ENDROOT
BRANCH   4   7
HETATM    7  C6  UNL     1     -33.808   5.771   6.160  1.00 20.00     0.107 C 
HETATM    8  C5  UNL     1     -34.030   7.073   6.883  1.00 20.00     0.029 C 
HETATM    9 BR9  UNL     1     -35.348   4.587   6.450  1.00 20.00    -0.085 Br
ENDBRANCH   4   7
TORSDOF 1
