REMARK  0 active torsions:
REMARK  status: ('A' for Active; 'I' for Inactive)
ROOT
HETATM    1  C1  UNL     1     -33.202   6.539   4.656  1.00 20.00     0.025 A 
HETATM    2  C2  UNL     1     -33.250   6.435   3.319  1.00 20.00     0.091 A 
HETATM    3  C3  UNL     1     -34.015   5.534   5.391  1.00 20.00     0.227 A 
HETATM    4  C4  UNL     1     -32.443   7.531   5.478  1.00 20.00     0.055 C 
HETATM    5  O5  UNL     1     -34.100   5.485   6.609  1.00 20.00    -0.279 OA
HETATM    6  S6  UNL     1     -34.208   5.202   2.578  1.00 20.00    -0.036 SA
HETATM    7  S7  UNL     1     -34.846   4.408   4.341  1.00 20.00    -0.009 SA
HETATM    8 CL8  UNL     1     -32.386   7.494   2.264  1.00 20.00    -0.075 Cl
ENDROOT
TORSDOF 0
