REMARK  1 active torsions:
REMARK  status: ('A' for Active; 'I' for Inactive)
REMARK    1  A    between atoms: C3_3  and  C5_5 
ROOT
HETATM    1  C1  UNL     1     -37.295   5.757   3.780  1.00 20.00     0.012 C 
HETATM    2  C2  UNL     1     -36.185   6.199   3.902  1.00 20.00    -0.111 C 
HETATM    3  C4  UNL     1     -34.859   6.726   4.047  1.00 20.00     0.088 A 
HETATM    4  C5  UNL     1     -33.707   5.980   3.411  1.00 20.00     0.112 A 
HETATM    5  C6  UNL     1     -33.836   6.024   4.923  1.00 20.00    -0.018 A 
HETATM    6  C7  UNL     1     -32.913   6.902   5.736  1.00 20.00     0.017 C 
HETATM    7  C8  UNL     1     -34.189   4.731   5.620  1.00 20.00     0.017 C 
ENDROOT
BRANCH   4   8
HETATM    8  C3  UNL     1     -32.674   6.766   2.762  1.00 20.00     0.179 C 
HETATM    9  O9  UNL     1     -31.497   6.541   3.159  1.00 20.00    -0.648 OA
HETATM   10  O10 UNL     1     -33.093   7.572   1.885  1.00 20.00    -0.648 OA
ENDBRANCH   4   8
TORSDOF 1
