REMARK  1 active torsions:
REMARK  status: ('A' for Active; 'I' for Inactive)
REMARK    1  A    between atoms: C1_1  and  C2_2 
ROOT
HETATM    1  C2  UNL     1     -33.190   5.742   4.191  1.00 20.00     0.064 A 
HETATM    2  C3  UNL     1     -34.682   6.034   4.156  1.00 20.00    -0.030 A 
HETATM    3  C4  UNL     1     -34.028   5.473   5.431  1.00 20.00    -0.030 A 
HETATM    4  C5  UNL     1     -35.547   5.128   3.306  1.00 20.00     0.016 C 
HETATM    5  C6  UNL     1     -35.176   7.464   4.138  1.00 20.00     0.016 C 
HETATM    6  C7  UNL     1     -33.888   6.360   6.649  1.00 20.00     0.016 C 
HETATM    7  C8  UNL     1     -34.263   4.027   5.811  1.00 20.00     0.016 C 
ENDROOT
BRANCH   1   8
HETATM    8  C1  UNL     1     -32.200   6.828   4.161  1.00 20.00     0.237 C 
HETATM    9  O9  UNL     1     -31.812   7.360   3.126  1.00 20.00    -0.306 OA
ENDBRANCH   1   8
TORSDOF 1
