REMARK  2 active torsions:
REMARK  status: ('A' for Active; 'I' for Inactive)
REMARK    1  A    between atoms: C1_1  and  C4_4 
REMARK    2  A    between atoms: C4_4  and  C5_5 
ROOT
HETATM    1  C4  UNL     1     -33.532   5.805   4.930  1.00 20.00     0.137 C 
ENDROOT
BRANCH   1   2
HETATM    2  C1  UNL     1     -33.123   5.811   3.454  1.00 20.00     0.174 C 
HETATM    3  O6  UNL     1     -31.999   6.335   3.210  1.00 20.00    -0.648 OA
HETATM    4  O7  UNL     1     -33.969   5.311   2.661  1.00 20.00    -0.648 OA
ENDBRANCH   1   2
BRANCH   1   5
HETATM    5  C5  UNL     1     -34.931   5.233   5.211  1.00 20.00     0.039 C 
HETATM    6  C2  UNL     1     -35.274   5.259   6.703  1.00 20.00     0.032 C 
HETATM    7  C3  UNL     1     -36.019   5.953   4.407  1.00 20.00     0.032 C 
HETATM    8 CL8  UNL     1     -34.921   3.503   4.684  1.00 20.00    -0.119 Cl
ENDBRANCH   1   5
TORSDOF 2
