REMARK  0 active torsions:
REMARK  status: ('A' for Active; 'I' for Inactive)
ROOT
HETATM    1  C1  UNL     1     -32.800   6.264   3.820  1.00 20.00     0.064 C 
HETATM    2  C2  UNL     1     -34.362   6.515   5.739  1.00 20.00     0.030 C 
HETATM    3  C3  UNL     1     -34.023   5.197   6.422  1.00 20.00     0.075 C 
HETATM    4  C4  UNL     1     -34.949   5.017   3.903  1.00 20.00     0.093 C 
HETATM    5  C5  UNL     1     -34.216   6.314   4.231  1.00 20.00     0.103 C 
HETATM    6  N6  UNL     1     -31.686   6.224   3.497  1.00 20.00    -0.197 NA
HETATM    7  S7  UNL     1     -34.679   3.912   5.323  1.00 20.00    -0.168 SA
ENDROOT
TORSDOF 0
