REMARK  2 active torsions:
REMARK  status: ('A' for Active; 'I' for Inactive)
REMARK    1  A    between atoms: C8_8  and  C9_9 
REMARK    2  A    between atoms: C8_8  and  N10_10 
ROOT
HETATM    1  C1  UNL     1     -35.058   4.893   4.267  1.00 20.00     0.039 C 
HETATM    2  C2  UNL     1     -33.938   6.542   5.793  1.00 20.00     0.039 C 
HETATM    3  C3  UNL     1     -33.994   5.211   3.212  1.00 20.00     0.273 C 
HETATM    4  C4  UNL     1     -32.912   6.804   4.686  1.00 20.00     0.273 C 
HETATM    5  C5  UNL     1     -34.567   5.134   5.710  1.00 20.00    -0.044 C 
HETATM    6  C6  UNL     1     -35.763   5.053   6.676  1.00 20.00     0.015 C 
HETATM    7  C7  UNL     1     -33.546   4.057   6.125  1.00 20.00     0.015 C 
HETATM    8  N10 UNL     1     -33.497   6.584   3.358  1.00 20.00     0.089 N 
ENDROOT
BRANCH   8   9
HETATM    9  C8  UNL     1     -32.521   6.890   2.311  1.00 20.00     0.287 C 
BRANCH   9  10
HETATM   10  C9  UNL     1     -32.396   8.381   2.048  1.00 20.00     0.144 C 
HETATM   11 CL11 UNL     1     -31.206   8.715   0.766  1.00 20.00    -0.129 Cl
ENDBRANCH   9  10
ENDBRANCH   8   9
TORSDOF 2
