REMARK  1 active torsions:
REMARK  status: ('A' for Active; 'I' for Inactive)
REMARK    1  A    between atoms: C2_2  and  C8_8 
ROOT
HETATM    1  C1  UNL     1     -32.621   5.617   2.712  1.00 20.00     0.203 C 
HETATM    2  C2  UNL     1     -32.609   6.859   3.613  1.00 20.00     0.244 C 
HETATM    3  C3  UNL     1     -34.094   5.396   4.879  1.00 20.00     0.245 C 
HETATM    4  C4  UNL     1     -34.775   4.982   3.554  1.00 20.00     0.150 C 
HETATM    5  C5  UNL     1     -35.028   5.341   6.087  1.00 20.00     0.045 C 
HETATM    6  C6  UNL     1     -36.118   5.657   3.282  1.00 20.00     0.042 C 
HETATM    7  N9  UNL     1     -33.507   6.734   4.772  1.00 20.00     0.097 N 
HETATM    8  O10 UNL     1     -33.956   5.236   2.399  1.00 20.00    -0.382 OA
HETATM    9  H27 UNL     1     -32.986   6.955   5.631  1.00 20.00     0.317 HD
ENDROOT
BRANCH   2  10
HETATM   10  C8  UNL     1     -32.974   8.117   2.818  1.00 20.00     0.033 C 
HETATM   11  C7  UNL     1     -32.040   8.338   1.673  1.00 20.00     0.007 C 
ENDBRANCH   2  10
TORSDOF 1
