REMARK  3 active torsions:
REMARK  status: ('A' for Active; 'I' for Inactive)
REMARK    1  A    between atoms: C3_3  and  C7_7 
REMARK    2  A    between atoms: C5_5  and  C6_6 
REMARK    3  A    between atoms: C6_6  and  C7_7 
ROOT
HETATM    1  C1  UNL     1     -31.921   8.655   1.090  1.00 20.00     0.012 C 
HETATM    2  C2  UNL     1     -32.002   7.897   2.017  1.00 20.00    -0.117 C 
HETATM    3  C5  UNL     1     -32.094   6.970   3.154  1.00 20.00     0.093 C 
ENDROOT
BRANCH   3   4
HETATM    4  C6  UNL     1     -33.436   6.230   3.193  1.00 20.00     0.023 C 
BRANCH   4   5
HETATM    5  C7  UNL     1     -33.600   5.287   4.397  1.00 20.00     0.044 C 
HETATM    6  C4  UNL     1     -34.703   4.265   4.130  1.00 20.00     0.017 C 
BRANCH   5   7
HETATM    7  C3  UNL     1     -33.951   6.019   5.681  1.00 20.00     0.235 C 
HETATM    8  O8  UNL     1     -34.979   5.851   6.328  1.00 20.00    -0.306 OA
ENDBRANCH   5   7
ENDBRANCH   4   5
ENDBRANCH   3   4
TORSDOF 3
