REMARK  2 active torsions:
REMARK  status: ('A' for Active; 'I' for Inactive)
REMARK    1  A    between atoms: C4_4  and  C5_5 
REMARK    2  A    between atoms: C5_5  and  N6_6 
ROOT
HETATM    1  C1  UNL     1     -35.824   4.161   5.256  1.00 20.00     0.158 C 
HETATM    2  N6  UNL     1     -34.700   4.445   5.419  1.00 20.00    -0.264 NA
HETATM    3  S7  UNL     1     -37.346   3.739   5.049  1.00 20.00    -0.055 SA
ENDROOT
BRANCH   2   4
HETATM    4  C5  UNL     1     -34.352   5.818   5.019  1.00 20.00     0.060 C 
HETATM    5  C2  UNL     1     -35.627   6.484   4.489  1.00 20.00     0.041 C 
HETATM    6  C3  UNL     1     -33.864   6.563   6.264  1.00 20.00     0.041 C 
BRANCH   4   7
HETATM    7  C4  UNL     1     -33.296   5.770   3.904  1.00 20.00     0.147 C 
HETATM    8 CL8  UNL     1     -32.835   7.383   3.295  1.00 20.00    -0.128 Cl
ENDBRANCH   4   7
ENDBRANCH   2   4
TORSDOF 2
