REMARK  1 active torsions:
REMARK  status: ('A' for Active; 'I' for Inactive)
REMARK    1  A    between atoms: C1_1  and  C2_2 
ROOT
HETATM    1  C1  UNL     1     -34.551   4.898   4.149  1.00 20.00     0.417 C 
HETATM    2  F3  UNL     1     -33.730   5.746   3.481  1.00 20.00    -0.208 F 
HETATM    3  F4  UNL     1     -35.821   5.286   3.885  1.00 20.00    -0.208 F 
ENDROOT
BRANCH   1   4
HETATM    4  C2  UNL     1     -34.284   5.001   5.625  1.00 20.00     0.417 C 
HETATM    5  F5  UNL     1     -34.553   6.257   6.053  1.00 20.00    -0.208 F 
HETATM    6  F6  UNL     1     -35.117   4.166   6.295  1.00 20.00    -0.208 F 
ENDBRANCH   1   4
TORSDOF 1
