REMARK  2 active torsions:
REMARK  status: ('A' for Active; 'I' for Inactive)
REMARK    1  A    between atoms: C1_1  and  C2_2 
REMARK    2  A    between atoms: C2_2  and  C3_3 
ROOT
HETATM    1  C2  UNL     1     -34.535   5.899   4.135  1.00 20.00     0.365 C 
HETATM    2  F5  UNL     1     -34.875   4.727   3.527  1.00 20.00    -0.193 F 
HETATM    3  F6  UNL     1     -35.671   6.649   4.158  1.00 20.00    -0.193 F 
ENDROOT
BRANCH   1   4
HETATM    4  C1  UNL     1     -33.508   6.598   3.257  1.00 20.00     0.345 C 
HETATM    5  F4  UNL     1     -33.254   7.821   3.805  1.00 20.00    -0.226 F 
HETATM    6 CL9  UNL     1     -31.973   5.715   3.141  1.00 20.00    -0.083 Cl
ENDBRANCH   1   4
BRANCH   1   7
HETATM    7  C3  UNL     1     -34.140   5.592   5.571  1.00 20.00     0.388 C 
HETATM    8  F7  UNL     1     -33.050   4.779   5.556  1.00 20.00    -0.181 F 
HETATM    9  F8  UNL     1     -35.121   4.897   6.196  1.00 20.00    -0.181 F 
HETATM   10 CL10 UNL     1     -33.758   7.047   6.505  1.00 20.00    -0.042 Cl
ENDBRANCH   1   7
TORSDOF 2
