REMARK  2 active torsions:
REMARK  status: ('A' for Active; 'I' for Inactive)
REMARK    1  A    between atoms: C1_1  and  C2_2 
REMARK    2  A    between atoms: C2_2  and  C3_3 
ROOT
HETATM    1  C2  UNL     1     -33.869   6.230   4.053  1.00 20.00     0.396 C 
HETATM    2  F6  UNL     1     -34.266   5.374   3.078  1.00 20.00    -0.190 F 
HETATM    3  F7  UNL     1     -34.779   7.236   4.087  1.00 20.00    -0.190 F 
ENDROOT
BRANCH   1   4
HETATM    4  C1  UNL     1     -33.883   5.506   5.378  1.00 20.00     0.434 C 
HETATM    5  F4  UNL     1     -35.135   5.043   5.620  1.00 20.00    -0.207 F 
HETATM    6  F5  UNL     1     -33.582   6.363   6.383  1.00 20.00    -0.207 F 
ENDBRANCH   1   4
BRANCH   1   7
HETATM    7  C3  UNL     1     -32.523   6.799   3.688  1.00 20.00     0.460 C 
HETATM    8  F8  UNL     1     -31.597   5.819   3.603  1.00 20.00    -0.165 F 
HETATM    9  F9  UNL     1     -32.099   7.686   4.614  1.00 20.00    -0.165 F 
HETATM   10  F10 UNL     1     -32.562   7.432   2.497  1.00 20.00    -0.165 F 
ENDBRANCH   1   7
TORSDOF 2
