REMARK  0 active torsions:
REMARK  status: ('A' for Active; 'I' for Inactive)
ROOT
HETATM    1  C1  UNL     1     -33.904   5.796   6.739  1.00 20.00    -0.030 A 
HETATM    2  C2  UNL     1     -34.710   4.866   6.215  1.00 20.00    -0.030 A 
HETATM    3  C3  UNL     1     -33.071   6.731   5.916  1.00 20.00     0.036 A 
HETATM    4  C4  UNL     1     -34.878   4.646   4.744  1.00 20.00     0.036 A 
HETATM    5  C5  UNL     1     -34.648   7.084   3.887  1.00 20.00     0.020 A 
HETATM    6  C6  UNL     1     -33.279   6.705   4.411  1.00 20.00    -0.032 A 
HETATM    7  C7  UNL     1     -34.203   5.639   3.811  1.00 20.00    -0.032 A 
HETATM    8  C8  UNL     1     -32.083   7.201   3.636  1.00 20.00     0.016 C 
HETATM    9  C9  UNL     1     -33.928   5.074   2.439  1.00 20.00     0.016 C 
ENDROOT
TORSDOF 0
