REMARK  4 active torsions:
REMARK  status: ('A' for Active; 'I' for Inactive)
REMARK    1  A    between atoms: C2_2  and  C8_8 
REMARK    2  A    between atoms: C3_3  and  C9_9 
REMARK    3  A    between atoms: C8_8  and  C9_9 
REMARK    4  A    between atoms: C9_9  and  C10_10 
ROOT
HETATM    1  C9  UNL     1     -33.113   5.578   4.650  1.00 20.00     0.062 C 
ENDROOT
BRANCH   1   2
HETATM    2  C3  UNL     1     -34.521   5.633   4.046  1.00 20.00     0.127 C 
HETATM    3  C5  UNL     1     -35.026   6.991   3.628  1.00 20.00     0.091 C 
HETATM    4  O11 UNL     1     -35.228   4.633   3.925  1.00 20.00    -0.298 OA
ENDBRANCH   1   2
BRANCH   1   5
HETATM    5  C8  UNL     1     -32.197   6.650   4.022  1.00 20.00     0.045 C 
BRANCH   5   6
HETATM    6  C2  UNL     1     -32.101   6.564   2.512  1.00 20.00    -0.092 C 
HETATM    7  C1  UNL     1     -32.269   5.402   1.862  1.00 20.00     0.014 C 
HETATM    8  C4  UNL     1     -31.762   7.827   1.773  1.00 20.00     0.042 C 
ENDBRANCH   5   6
ENDBRANCH   1   5
BRANCH   1   9
HETATM    9  C10 UNL     1     -33.215   5.652   6.197  1.00 20.00    -0.011 C 
HETATM   10  C6  UNL     1     -33.969   4.443   6.761  1.00 20.00     0.010 C 
HETATM   11  C7  UNL     1     -33.853   6.944   6.715  1.00 20.00     0.010 C 
ENDBRANCH   1   9
TORSDOF 4
