REMARK  6 active torsions:
REMARK  status: ('A' for Active; 'I' for Inactive)
REMARK    1  A    between atoms: C1_1  and  C10_10 
REMARK    2  A    between atoms: C7_7  and  C8_8 
REMARK    3  A    between atoms: C8_8  and  C12_12 
REMARK    4  A    between atoms: C9_9  and  C10_10 
REMARK    5  A    between atoms: C9_9  and  C12_12 
REMARK    6  A    between atoms: C10_10  and  C11_11 
ROOT
HETATM    1  C10 UNL     1     -33.883   5.280   4.402  1.00 20.00     0.058 C 
ENDROOT
BRANCH   1   2
HETATM    2  C1  UNL     1     -34.269   6.506   5.232  1.00 20.00     0.127 C 
HETATM    3  C2  UNL     1     -33.289   6.948   6.289  1.00 20.00     0.091 C 
HETATM    4  O13 UNL     1     -35.315   7.126   5.043  1.00 20.00    -0.298 OA
ENDBRANCH   1   2
BRANCH   1   5
HETATM    5  C9  UNL     1     -33.743   5.672   2.914  1.00 20.00     0.016 C 
BRANCH   5   6
HETATM    6  C12 UNL     1     -32.390   6.323   2.526  1.00 20.00    -0.018 C 
HETATM    7  C6  UNL     1     -31.267   5.627   3.307  1.00 20.00     0.010 C 
BRANCH   6   8
HETATM    8  C8  UNL     1     -32.393   7.846   2.778  1.00 20.00     0.004 C 
BRANCH   8   9
HETATM    9  C7  UNL     1     -33.085   8.701   1.710  1.00 20.00    -0.004 C 
HETATM   10  C3  UNL     1     -32.995  10.195   1.977  1.00 20.00     0.005 C 
ENDBRANCH   8   9
ENDBRANCH   6   8
ENDBRANCH   5   6
ENDBRANCH   1   5
BRANCH   1  11
HETATM   11  C11 UNL     1     -34.864   4.094   4.610  1.00 20.00    -0.012 C 
HETATM   12  C4  UNL     1     -34.834   3.582   6.054  1.00 20.00     0.010 C 
HETATM   13  C5  UNL     1     -36.310   4.374   4.192  1.00 20.00     0.010 C 
ENDBRANCH   1  11
TORSDOF 6
