REMARK  2 active torsions:
REMARK  status: ('A' for Active; 'I' for Inactive)
REMARK    1  A    between atoms: C3_3  and  C8_8 
REMARK    2  A    between atoms: C4_4  and  C7_7 
ROOT
HETATM    1  C1  UNL     1     -32.363   8.752   1.432  1.00 20.00     0.065 C 
HETATM    2  C8  UNL     1     -32.384   8.399   2.865  1.00 20.00     0.183 C 
HETATM    3  N9  UNL     1     -32.349   9.020   0.303  1.00 20.00    -0.197 NA
ENDROOT
BRANCH   2   4
HETATM    4  C3  UNL     1     -33.015   7.081   3.080  1.00 20.00     0.055 A 
HETATM    5  C2  UNL     1     -33.005   6.029   2.188  1.00 20.00     0.079 A 
HETATM    6  S11 UNL     1     -33.858   4.700   2.857  1.00 20.00    -0.084 SA
HETATM    7  C4  UNL     1     -34.165   5.636   4.263  1.00 20.00     0.079 A 
HETATM    8  N10 UNL     1     -33.680   6.858   4.270  1.00 20.00    -0.249 NA
BRANCH   7   9
HETATM    9  C7  UNL     1     -34.964   5.074   5.451  1.00 20.00     0.045 A 
HETATM   10  C5  UNL     1     -34.719   5.654   6.825  1.00 20.00     0.012 A 
HETATM   11  C6  UNL     1     -34.230   4.276   6.504  1.00 20.00     0.012 A 
ENDBRANCH   7   9
ENDBRANCH   2   4
TORSDOF 2
