REMARK  2 active torsions:
REMARK  status: ('A' for Active; 'I' for Inactive)
REMARK    1  A    between atoms: C5_5  and  C6_6 
REMARK    2  A    between atoms: C5_5  and  C7_7 
ROOT
HETATM    1  C1  UNL     1     -32.390   8.151   1.453  1.00 20.00     0.079 C 
HETATM    2  C6  UNL     1     -32.699   7.538   2.750  1.00 20.00     0.189 C 
HETATM    3  N8  UNL     1     -32.150   8.634   0.426  1.00 20.00    -0.196 NA
HETATM    4 CL9  UNL     1     -31.138   7.447   3.637  1.00 20.00    -0.109 Cl
ENDROOT
BRANCH   2   5
HETATM    5  C5  UNL     1     -33.286   6.124   2.627  1.00 20.00     0.043 C 
BRANCH   5   6
HETATM    6  C7  UNL     1     -34.169   5.609   3.803  1.00 20.00    -0.049 C 
HETATM    7  C2  UNL     1     -33.665   4.278   4.380  1.00 20.00     0.014 C 
HETATM    8  C3  UNL     1     -34.244   6.650   4.934  1.00 20.00     0.014 C 
HETATM    9  C4  UNL     1     -35.596   5.385   3.258  1.00 20.00     0.014 C 
ENDBRANCH   5   6
ENDBRANCH   2   5
TORSDOF 2
