REMARK  3 active torsions:
REMARK  status: ('A' for Active; 'I' for Inactive)
REMARK    1  A    between atoms: C3_3  and  C4_4 
REMARK    2  A    between atoms: C4_4  and  C5_5 
REMARK    3  A    between atoms: C4_4  and  O6_6 
ROOT
HETATM    1  C1  UNL     1     -31.676   8.185   1.523  1.00 20.00     0.012 C 
HETATM    2  C2  UNL     1     -31.901   7.549   2.516  1.00 20.00    -0.115 C 
HETATM    3  C3  UNL     1     -32.172   6.769   3.735  1.00 20.00     0.133 C 
ENDROOT
BRANCH   3   4
HETATM    4  C4  UNL     1     -33.654   6.404   3.844  1.00 20.00     0.236 C 
BRANCH   4   5
HETATM    5  C5  UNL     1     -34.026   5.997   5.257  1.00 20.00     0.413 C 
HETATM    6  F7  UNL     1     -35.321   5.619   5.330  1.00 20.00    -0.168 F 
HETATM    7  F8  UNL     1     -33.269   4.969   5.695  1.00 20.00    -0.168 F 
HETATM    8  F9  UNL     1     -33.857   7.029   6.114  1.00 20.00    -0.168 F 
ENDBRANCH   4   5
BRANCH   4   9
HETATM    9  O6  UNL     1     -33.921   5.305   2.975  1.00 20.00    -0.386 OA
HETATM   10  H14 UNL     1     -33.697   5.602   2.080  1.00 20.00     0.210 HD
ENDBRANCH   4   9
ENDBRANCH   3   4
TORSDOF 3
