REMARK  1 active torsions:
REMARK  status: ('A' for Active; 'I' for Inactive)
REMARK    1  A    between atoms: C8_8  and  N10_10 
ROOT
HETATM    1  C1  UNL     1     -32.249   7.667   1.997  1.00 20.00     0.065 C 
HETATM    2  C4  UNL     1     -33.241   5.387   2.161  1.00 20.00     0.051 C 
HETATM    3  C5  UNL     1     -34.346   5.095   3.168  1.00 20.00     0.274 C 
HETATM    4  C6  UNL     1     -33.050   6.746   4.157  1.00 20.00     0.292 C 
HETATM    5  C7  UNL     1     -32.369   6.459   2.820  1.00 20.00     0.122 C 
HETATM    6  N9  UNL     1     -32.154   8.623   1.346  1.00 20.00    -0.197 NA
HETATM    7  N10 UNL     1     -33.752   5.492   4.445  1.00 20.00     0.094 N 
ENDROOT
BRANCH   7   8
HETATM    8  C8  UNL     1     -34.744   5.619   5.533  1.00 20.00     0.223 A 
HETATM    9  C2  UNL     1     -35.245   4.397   6.252  1.00 20.00     0.038 A 
HETATM   10  C3  UNL     1     -34.348   5.369   6.962  1.00 20.00     0.038 A 
ENDBRANCH   7   8
TORSDOF 1
