REMARK  1 active torsions:
REMARK  status: ('A' for Active; 'I' for Inactive)
REMARK    1  A    between atoms: C8_8  and  N10_10 
ROOT
HETATM    1  C1  UNL     1     -32.140   8.383   1.725  1.00 20.00     0.065 C 
HETATM    2  C4  UNL     1     -31.440   7.464   3.934  1.00 20.00     0.051 C 
HETATM    3  C5  UNL     1     -32.463   6.870   4.893  1.00 20.00     0.274 C 
HETATM    4  C6  UNL     1     -33.317   6.467   2.774  1.00 20.00     0.292 C 
HETATM    5  C7  UNL     1     -31.982   7.168   2.533  1.00 20.00     0.122 C 
HETATM    6  N9  UNL     1     -32.265   9.344   1.086  1.00 20.00    -0.197 NA
HETATM    7  N10 UNL     1     -33.130   5.846   4.088  1.00 20.00     0.094 N 
ENDROOT
BRANCH   7   8
HETATM    8  C8  UNL     1     -34.391   5.364   4.688  1.00 20.00     0.223 A 
HETATM    9  C2  UNL     1     -34.976   4.042   4.273  1.00 20.00     0.038 A 
HETATM   10  C3  UNL     1     -34.388   4.203   5.644  1.00 20.00     0.038 A 
ENDBRANCH   7   8
TORSDOF 1
