REMARK  1 active torsions:
REMARK  status: ('A' for Active; 'I' for Inactive)
REMARK    1  A    between atoms: C2_2  and  C7_7 
ROOT
HETATM    1  C1  UNL     1     -35.036   5.747   4.510  1.00 20.00     0.310 C 
HETATM    2  C2  UNL     1     -33.046   6.337   3.588  1.00 20.00     0.356 C 
HETATM    3  C3  UNL     1     -33.925   5.403   5.499  1.00 20.00     0.083 C 
HETATM    4  C4  UNL     1     -34.029   3.965   5.996  1.00 20.00     0.047 C 
HETATM    5  C5  UNL     1     -33.864   6.372   6.685  1.00 20.00     0.047 C 
HETATM    6  N8  UNL     1     -34.436   6.798   3.688  1.00 20.00     0.115 N 
HETATM    7  O9  UNL     1     -32.711   5.545   4.739  1.00 20.00    -0.345 OA
HETATM    8  H24 UNL     1     -34.874   6.835   2.770  1.00 20.00     0.319 HD
ENDROOT
BRANCH   2   9
HETATM    9  C7  UNL     1     -32.068   7.496   3.476  1.00 20.00     0.059 C 
HETATM   10  C6  UNL     1     -32.305   8.312   2.244  1.00 20.00     0.009 C 
ENDBRANCH   2   9
TORSDOF 1
