REMARK  1 active torsions:
REMARK  status: ('A' for Active; 'I' for Inactive)
REMARK    1  A    between atoms: C3_3  and  C7_7 
ROOT
HETATM    1  C1  UNL     1     -35.316   4.461   4.053  1.00 20.00     0.304 C 
HETATM    2  C2  UNL     1     -34.132   4.720   4.966  1.00 20.00     0.148 C 
HETATM    3  C3  UNL     1     -34.200   6.308   3.326  1.00 20.00     0.360 C 
HETATM    4  C4  UNL     1     -34.467   4.605   6.440  1.00 20.00     0.041 C 
HETATM    5  N8  UNL     1     -34.871   5.109   2.826  1.00 20.00     0.115 N 
HETATM    6  O9  UNL     1     -33.724   6.062   4.660  1.00 20.00    -0.350 OA
HETATM    7  H24 UNL     1     -34.185   4.505   2.371  1.00 20.00     0.319 HD
ENDROOT
BRANCH   3   8
HETATM    8  C7  UNL     1     -33.028   6.682   2.435  1.00 20.00     0.036 C 
HETATM    9  C5  UNL     1     -32.616   8.138   2.662  1.00 20.00     0.014 C 
HETATM   10  C6  UNL     1     -31.841   5.750   2.679  1.00 20.00     0.014 C 
ENDBRANCH   3   8
TORSDOF 1
