REMARK  1 active torsions:
REMARK  status: ('A' for Active; 'I' for Inactive)
REMARK    1  A    between atoms: C3_3  and  C5_5 
ROOT
HETATM    1  C1  UNL     1     -32.952   6.937   4.102  1.00 20.00     0.030 A 
HETATM    2  C2  UNL     1     -33.726   6.094   4.925  1.00 20.00    -0.044 A 
HETATM    3  C3  UNL     1     -33.085   6.572   2.771  1.00 20.00     0.043 A 
HETATM    4  C4  UNL     1     -34.400   5.144   4.207  1.00 20.00    -0.010 A 
HETATM    5  C6  UNL     1     -34.004   5.969   6.376  1.00 20.00     0.040 C 
HETATM    6  C7  UNL     1     -35.227   4.236   5.036  1.00 20.00     0.047 C 
HETATM    7  C8  UNL     1     -34.685   4.565   6.462  1.00 20.00     0.010 C 
HETATM    8  S10 UNL     1     -34.143   5.219   2.557  1.00 20.00    -0.091 SA
ENDROOT
BRANCH   3   9
HETATM    9  C5  UNL     1     -32.478   7.157   1.619  1.00 20.00     0.277 C 
HETATM   10  O9  UNL     1     -31.701   8.134   1.657  1.00 20.00    -0.301 OA
ENDBRANCH   3   9
TORSDOF 1
