REMARK  0 active torsions:
REMARK  status: ('A' for Active; 'I' for Inactive)
ROOT
HETATM    1  C1  UNL     1     -32.548   8.337   2.151  1.00 20.00     0.107 C 
HETATM    2  C2  UNL     1     -33.582   6.169   2.787  1.00 20.00     0.038 A 
HETATM    3  C3  UNL     1     -33.038   7.395   3.101  1.00 20.00     0.086 A 
HETATM    4  C4  UNL     1     -33.985   5.445   3.949  1.00 20.00    -0.043 A 
HETATM    5  C5  UNL     1     -33.721   6.158   5.103  1.00 20.00    -0.010 A 
HETATM    6  C6  UNL     1     -34.594   4.077   3.980  1.00 20.00     0.040 C 
HETATM    7  C7  UNL     1     -34.043   5.698   6.490  1.00 20.00     0.046 C 
HETATM    8  C8  UNL     1     -35.243   3.773   5.339  1.00 20.00     0.005 C 
HETATM    9  C9  UNL     1     -34.335   4.189   6.505  1.00 20.00     0.005 C 
HETATM   10  N10 UNL     1     -32.149   9.104   1.377  1.00 20.00    -0.191 NA
HETATM   11  S11 UNL     1     -33.012   7.674   4.791  1.00 20.00    -0.083 SA
ENDROOT
TORSDOF 0
