REMARK  2 active torsions:
REMARK  status: ('A' for Active; 'I' for Inactive)
REMARK    1  A    between atoms: C1_1  and  C9_9 
REMARK    2  A    between atoms: C8_8  and  C9_9 
ROOT
HETATM    1  C2  UNL     1     -35.258   5.191   5.615  1.00 20.00     0.005 C 
HETATM    2  C3  UNL     1     -33.904   4.465   5.607  1.00 20.00     0.005 C 
HETATM    3  C4  UNL     1     -34.674   4.654   3.371  1.00 20.00     0.009 C 
HETATM    4  C5  UNL     1     -34.375   6.920   4.027  1.00 20.00     0.010 C 
HETATM    5  C6  UNL     1     -35.361   5.748   4.185  1.00 20.00    -0.014 C 
HETATM    6  C7  UNL     1     -33.380   4.731   4.183  1.00 20.00    -0.010 C 
HETATM    7  C8  UNL     1     -32.996   6.227   4.078  1.00 20.00    -0.004 C 
ENDROOT
BRANCH   7   8
HETATM    8  C9  UNL     1     -32.148   6.536   2.849  1.00 20.00     0.074 C 
BRANCH   8   9
HETATM    9  C1  UNL     1     -31.839   8.003   2.719  1.00 20.00     0.231 C 
HETATM   10  O10 UNL     1     -32.176   8.712   1.776  1.00 20.00    -0.307 OA
ENDBRANCH   8   9
ENDBRANCH   7   8
TORSDOF 2
