REMARK  2 active torsions:
REMARK  status: ('A' for Active; 'I' for Inactive)
REMARK    1  A    between atoms: C1_1  and  C3_3 
REMARK    2  A    between atoms: C3_3  and  C5_5 
ROOT
HETATM    1  C3  UNL     1     -34.750   5.965   4.330  1.00 20.00     0.168 C 
HETATM    2  O6  UNL     1     -35.447   5.272   3.593  1.00 20.00    -0.292 OA
ENDROOT
BRANCH   1   3
HETATM    3  C1  UNL     1     -33.899   7.063   3.784  1.00 20.00     0.063 C 
HETATM    4  C2  UNL     1     -32.966   6.797   2.868  1.00 20.00     0.088 C 
HETATM    5 CL7  UNL     1     -31.955   8.010   2.201  1.00 20.00    -0.097 Cl
ENDBRANCH   1   3
BRANCH   1   6
HETATM    6  C5  UNL     1     -34.661   5.743   5.830  1.00 20.00     0.152 C 
HETATM    7  C4  UNL     1     -34.114   4.360   6.135  1.00 20.00     0.035 C 
HETATM    8 CL8  UNL     1     -33.597   6.991   6.530  1.00 20.00    -0.117 Cl
ENDBRANCH   1   6
TORSDOF 2
