REMARK  2 active torsions:
REMARK  status: ('A' for Active; 'I' for Inactive)
REMARK    1  A    between atoms: C4_4  and  C6_6 
REMARK    2  A    between atoms: C6_6  and  N7_7 
ROOT
HETATM    1  C1  UNL     1     -32.739   7.074   3.322  1.00 20.00     0.332 C 
HETATM    2  N7  UNL     1     -33.824   6.946   3.735  1.00 20.00    -0.242 NA
HETATM    3  O8  UNL     1     -31.647   7.219   2.908  1.00 20.00    -0.260 OA
ENDROOT
BRANCH   2   4
HETATM    4  C6  UNL     1     -34.318   5.554   3.688  1.00 20.00     0.112 C 
HETATM    5  C5  UNL     1     -35.825   5.602   3.406  1.00 20.00     0.035 C 
BRANCH   4   6
HETATM    6  C4  UNL     1     -33.989   4.850   4.958  1.00 20.00     0.010 A 
HETATM    7  C2  UNL     1     -34.548   5.342   6.264  1.00 20.00     0.007 A 
HETATM    8  C3  UNL     1     -35.042   4.050   5.675  1.00 20.00     0.007 A 
ENDBRANCH   4   6
ENDBRANCH   2   4
TORSDOF 2
