REMARK  1 active torsions:
REMARK  status: ('A' for Active; 'I' for Inactive)
REMARK    1  A    between atoms: C11_11  and  N13_13 
ROOT
HETATM    1  C1  UNL     1     -32.404   8.753   0.690  1.00 20.00     0.086 C 
HETATM    2  C11 UNL     1     -31.655   8.029   1.713  1.00 20.00     0.357 C 
HETATM    3  N12 UNL     1     -32.995   9.330  -0.125  1.00 20.00    -0.196 NA
ENDROOT
BRANCH   2   4
HETATM    4  N13 UNL     1     -32.548   7.748   2.890  1.00 20.00    -0.059 N 
HETATM    5  C8  UNL     1     -33.496   6.609   2.610  1.00 20.00     0.236 C 
HETATM    6  C6  UNL     1     -34.449   6.433   3.787  1.00 20.00     0.037 C 
HETATM    7  C10 UNL     1     -33.720   6.248   5.138  1.00 20.00    -0.037 C 
HETATM    8  C4  UNL     1     -34.724   6.196   6.303  1.00 20.00     0.010 C 
HETATM    9  C5  UNL     1     -33.061   4.861   5.260  1.00 20.00     0.010 C 
HETATM   10  C7  UNL     1     -32.708   7.390   5.331  1.00 20.00     0.037 C 
HETATM   11  C2  UNL     1     -35.273   4.773   6.293  1.00 20.00     0.001 C 
HETATM   12  C3  UNL     1     -34.196   3.910   5.638  1.00 20.00     0.001 C 
HETATM   13  C9  UNL     1     -31.753   7.534   4.154  1.00 20.00     0.236 C 
HETATM   14  H32 UNL     1     -33.120   8.593   3.029  1.00 20.00     0.281 HD
ENDBRANCH   2   4
TORSDOF 1
