REMARK  3 active torsions:
REMARK  status: ('A' for Active; 'I' for Inactive)
REMARK    1  A    between atoms: C3_3  and  C4_4 
REMARK    2  A    between atoms: C4_4  and  C6_6 
REMARK    3  A    between atoms: C5_5  and  C6_6 
ROOT
HETATM    1  C1  UNL     1     -33.509   6.418   5.570  1.00 20.00     0.065 C 
HETATM    2  C6  UNL     1     -33.767   5.606   4.363  1.00 20.00     0.106 C 
HETATM    3  N7  UNL     1     -33.305   7.055   6.518  1.00 20.00    -0.197 NA
ENDROOT
BRANCH   2   4
HETATM    4  C4  UNL     1     -33.745   6.471   3.088  1.00 20.00     0.020 C 
BRANCH   4   5
HETATM    5  C3  UNL     1     -32.402   7.181   2.878  1.00 20.00    -0.003 C 
HETATM    6  C2  UNL     1     -32.419   8.042   1.625  1.00 20.00     0.005 C 
ENDBRANCH   4   5
ENDBRANCH   2   4
BRANCH   2   7
HETATM    7  C5  UNL     1     -35.077   4.817   4.511  1.00 20.00     0.133 C 
HETATM    8 CL8  UNL     1     -35.084   3.703   5.905  1.00 20.00    -0.129 Cl
ENDBRANCH   2   7
TORSDOF 3
