REMARK  3 active torsions:
REMARK  status: ('A' for Active; 'I' for Inactive)
REMARK    1  A    between atoms: C5_5  and  C7_7 
REMARK    2  A    between atoms: C6_6  and  C7_7 
REMARK    3  A    between atoms: C7_7  and  O8_8 
ROOT
HETATM    1  C1  UNL     1     -32.349   8.175   2.461  1.00 20.00     0.012 C 
HETATM    2  C2  UNL     1     -32.474   7.154   3.080  1.00 20.00    -0.115 C 
HETATM    3  C5  UNL     1     -32.620   5.898   3.834  1.00 20.00     0.130 C 
ENDROOT
BRANCH   3   4
HETATM    4  C7  UNL     1     -33.920   5.834   4.664  1.00 20.00     0.064 C 
HETATM    5  C4  UNL     1     -35.130   5.957   3.728  1.00 20.00     0.046 C 
BRANCH   4   6
HETATM    6  C6  UNL     1     -34.042   4.583   5.561  1.00 20.00     0.034 C 
HETATM    7  C3  UNL     1     -35.264   4.542   6.467  1.00 20.00     0.008 C 
ENDBRANCH   4   6
BRANCH   4   8
HETATM    8  O8  UNL     1     -33.957   6.970   5.542  1.00 20.00    -0.389 OA
HETATM    9  H20 UNL     1     -34.798   6.911   6.016  1.00 20.00     0.210 HD
ENDBRANCH   4   8
ENDBRANCH   3   4
TORSDOF 3
