REMARK  3 active torsions:
REMARK  status: ('A' for Active; 'I' for Inactive)
REMARK    1  A    between atoms: C4_4  and  C6_6 
REMARK    2  A    between atoms: C4_4  and  C7_7 
REMARK    3  A    between atoms: C5_5  and  C6_6 
ROOT
HETATM    1  C1  UNL     1     -33.729   6.278   5.559  1.00 20.00     0.065 C 
HETATM    2  C6  UNL     1     -33.679   5.295   4.458  1.00 20.00     0.107 C 
HETATM    3  N8  UNL     1     -33.765   7.050   6.425  1.00 20.00    -0.197 NA
ENDROOT
BRANCH   2   4
HETATM    4  C4  UNL     1     -34.784   4.228   4.604  1.00 20.00     0.024 C 
BRANCH   4   5
HETATM    5  C7  UNL     1     -34.459   3.072   5.577  1.00 20.00    -0.021 C 
HETATM    6  C2  UNL     1     -34.211   3.635   6.980  1.00 20.00     0.009 C 
HETATM    7  C3  UNL     1     -35.571   2.023   5.636  1.00 20.00     0.009 C 
ENDBRANCH   4   5
ENDBRANCH   2   4
BRANCH   2   8
HETATM    8  C5  UNL     1     -33.732   6.005   3.095  1.00 20.00     0.133 C 
HETATM    9 CL9  UNL     1     -32.391   7.152   2.830  1.00 20.00    -0.129 Cl
ENDBRANCH   2   8
TORSDOF 3
