REMARK  3 active torsions:
REMARK  status: ('A' for Active; 'I' for Inactive)
REMARK    1  A    between atoms: C6_6  and  N10_10 
REMARK    2  A    between atoms: C7_7  and  C8_8 
REMARK    3  A    between atoms: C8_8  and  N10_10 
ROOT
HETATM    1  C1  UNL     1     -31.599   9.326   0.420  1.00 20.00     0.013 C 
HETATM    2  C2  UNL     1     -32.217   8.763   1.282  1.00 20.00    -0.087 C 
HETATM    3  C6  UNL     1     -32.974   8.080   2.333  1.00 20.00     0.364 C 
ENDROOT
BRANCH   3   4
HETATM    4  N10 UNL     1     -32.230   6.919   2.837  1.00 20.00     0.100 N 
HETATM    5  C5  UNL     1     -31.207   7.361   3.794  1.00 20.00     0.311 C 
BRANCH   4   6
HETATM    6  C8  UNL     1     -33.121   5.952   3.439  1.00 20.00     0.232 C 
HETATM    7  C4  UNL     1     -33.832   5.154   2.351  1.00 20.00     0.044 C 
BRANCH   6   8
HETATM    8  C7  UNL     1     -34.134   6.640   4.362  1.00 20.00     0.159 C 
HETATM    9  C3  UNL     1     -34.679   5.712   5.366  1.00 20.00     0.061 C 
HETATM   10  N9  UNL     1     -35.110   4.982   6.159  1.00 20.00    -0.197 NA
ENDBRANCH   6   8
ENDBRANCH   4   6
ENDBRANCH   3   4
TORSDOF 3
