REMARK  2 active torsions:
REMARK  status: ('A' for Active; 'I' for Inactive)
REMARK    1  A    between atoms: C9_9  and  C10_10 
REMARK    2  A    between atoms: C10_10  and  N12_12 
ROOT
HETATM    1  C1  UNL     1     -32.626   7.608   2.201  1.00 20.00     0.061 C 
HETATM    2  C9  UNL     1     -32.014   6.371   2.711  1.00 20.00     0.159 C 
HETATM    3  N11 UNL     1     -33.107   8.585   1.799  1.00 20.00    -0.197 NA
ENDROOT
BRANCH   2   4
HETATM    4  C10 UNL     1     -33.064   5.402   3.270  1.00 20.00     0.233 C 
HETATM    5  C8  UNL     1     -34.069   5.011   2.191  1.00 20.00     0.044 C 
BRANCH   4   6
HETATM    6  N12 UNL     1     -33.760   5.984   4.405  1.00 20.00     0.102 N 
HETATM    7  C4  UNL     1     -32.866   6.737   5.281  1.00 20.00     0.274 C 
HETATM    8  C2  UNL     1     -33.768   7.036   6.459  1.00 20.00     0.033 C 
HETATM    9  C3  UNL     1     -34.545   5.741   6.644  1.00 20.00     0.043 C 
HETATM   10  C5  UNL     1     -34.545   5.062   5.254  1.00 20.00     0.153 C 
HETATM   11  C6  UNL     1     -35.975   4.996   4.698  1.00 20.00     0.049 C 
HETATM   12  C7  UNL     1     -33.983   3.635   5.375  1.00 20.00     0.049 C 
ENDBRANCH   4   6
ENDBRANCH   2   4
TORSDOF 2
