REMARK  0 active torsions:
REMARK  status: ('A' for Active; 'I' for Inactive)
ROOT
HETATM    1  C1  UNL     1     -34.577   6.062   6.537  1.00 20.00     0.006 C 
HETATM    2  C2  UNL     1     -34.754   4.539   6.549  1.00 20.00     0.006 C 
HETATM    3  C3  UNL     1     -34.066   6.418   5.144  1.00 20.00     0.079 C 
HETATM    4  C4  UNL     1     -34.341   4.052   5.163  1.00 20.00     0.079 C 
HETATM    5  C5  UNL     1     -34.548   5.268   4.288  1.00 20.00     0.243 C 
HETATM    6  F6  UNL     1     -33.875   5.180   3.128  1.00 20.00    -0.206 F 
HETATM    7  F7  UNL     1     -35.860   5.418   3.997  1.00 20.00    -0.206 F 
ENDROOT
TORSDOF 0
