REMARK  0 active torsions:
REMARK  status: ('A' for Active; 'I' for Inactive)
ROOT
HETATM    1  C1  UNL     1     -33.014   7.239   5.002  1.00 20.00     0.059 C 
HETATM    2  C2  UNL     1     -33.778   6.373   5.685  1.00 20.00     0.059 C 
HETATM    3  C3  UNL     1     -32.942   6.849   3.562  1.00 20.00     0.332 C 
HETATM    4  C4  UNL     1     -34.300   5.308   4.776  1.00 20.00     0.332 C 
HETATM    5  C5  UNL     1     -34.192   6.003   3.434  1.00 20.00     0.379 C 
HETATM    6  F6  UNL     1     -32.952   7.879   2.692  1.00 20.00    -0.195 F 
HETATM    7  F7  UNL     1     -31.835   6.108   3.315  1.00 20.00    -0.195 F 
HETATM    8  F8  UNL     1     -33.508   4.210   4.811  1.00 20.00    -0.195 F 
HETATM    9  F9  UNL     1     -35.565   4.915   5.027  1.00 20.00    -0.195 F 
HETATM   10  F10 UNL     1     -34.156   5.154   2.396  1.00 20.00    -0.192 F 
HETATM   11  F11 UNL     1     -35.268   6.815   3.261  1.00 20.00    -0.192 F 
ENDROOT
TORSDOF 0
