REMARK  1 active torsions:
REMARK  status: ('A' for Active; 'I' for Inactive)
REMARK    1  A    between atoms: C2_2  and  C4_4 
ROOT
HETATM    1  C3  UNL     1     -32.475   5.128   3.389  1.00 20.00     0.102 C 
HETATM    2  C4  UNL     1     -32.191   6.653   3.480  1.00 20.00     0.035 C 
HETATM    3  C5  UNL     1     -33.931   5.397   3.821  1.00 20.00     0.295 C 
HETATM    4  C6  UNL     1     -33.457   6.756   4.428  1.00 20.00     0.254 C 
HETATM    5  C7  UNL     1     -30.822   6.984   4.066  1.00 20.00     0.025 C 
HETATM    6  F8  UNL     1     -34.455   4.504   4.690  1.00 20.00    -0.201 F 
HETATM    7  F9  UNL     1     -34.819   5.508   2.805  1.00 20.00    -0.201 F 
HETATM    8  F10 UNL     1     -34.289   7.793   4.141  1.00 20.00    -0.218 F 
HETATM    9 CL11 UNL     1     -33.188   6.743   6.205  1.00 20.00    -0.075 Cl
ENDROOT
BRANCH   2  10
HETATM   10  C2  UNL     1     -32.379   7.371   2.181  1.00 20.00    -0.023 C 
HETATM   11  C1  UNL     1     -32.761   8.649   2.081  1.00 20.00     0.008 C 
ENDBRANCH   2  10
TORSDOF 1
