REMARK  3 active torsions:
REMARK  status: ('A' for Active; 'I' for Inactive)
REMARK    1  A    between atoms: C2_2  and  C3_3 
REMARK    2  A    between atoms: C2_2  and  C4_4 
REMARK    3  A    between atoms: C3_3  and  N5_5 
ROOT
HETATM    1  C1  UNL     1     -32.339   8.038   2.333  1.00 20.00     0.332 C 
HETATM    2  N5  UNL     1     -31.992   7.032   2.830  1.00 20.00    -0.247 NA
HETATM    3  O6  UNL     1     -32.683   9.047   1.837  1.00 20.00    -0.260 OA
ENDROOT
BRANCH   2   4
HETATM    4  C3  UNL     1     -33.064   6.056   3.029  1.00 20.00     0.162 C 
BRANCH   4   5
HETATM    5  C2  UNL     1     -33.670   6.263   4.410  1.00 20.00     0.139 C 
BRANCH   5   6
HETATM    6  C4  UNL     1     -34.789   5.285   4.689  1.00 20.00     0.389 C 
HETATM    7  F7  UNL     1     -35.344   5.504   5.900  1.00 20.00    -0.171 F 
HETATM    8  F8  UNL     1     -35.765   5.404   3.763  1.00 20.00    -0.171 F 
HETATM    9  F9  UNL     1     -34.347   4.010   4.657  1.00 20.00    -0.171 F 
ENDBRANCH   5   6
ENDBRANCH   4   5
ENDBRANCH   2   4
TORSDOF 3
