REMARK  2 active torsions:
REMARK  status: ('A' for Active; 'I' for Inactive)
REMARK    1  A    between atoms: C1_1  and  C3_3 
REMARK    2  A    between atoms: C3_3  and  C4_4 
ROOT
HETATM    1  C1  UNL     1     -34.349   5.530   4.577  1.00 20.00     0.162 C 
HETATM    2  C2  UNL     1     -34.207   5.270   5.880  1.00 20.00     0.301 C 
HETATM    3  F5  UNL     1     -34.813   4.536   3.783  1.00 20.00    -0.205 F 
HETATM    4  F6  UNL     1     -34.502   4.050   6.376  1.00 20.00    -0.170 F 
HETATM    5  F7  UNL     1     -33.766   6.239   6.710  1.00 20.00    -0.170 F 
ENDROOT
BRANCH   1   6
HETATM    6  C3  UNL     1     -34.046   6.853   3.938  1.00 20.00     0.086 C 
BRANCH   6   7
HETATM    7  C4  UNL     1     -32.944   6.715   2.889  1.00 20.00     0.086 C 
HETATM    8  I8  UNL     1     -32.544   8.604   1.965  1.00 20.00    -0.090 I 
ENDBRANCH   6   7
ENDBRANCH   1   6
TORSDOF 2
