REMARK  0 active torsions:
REMARK  status: ('A' for Active; 'I' for Inactive)
ROOT
HETATM    1  C1  UNL     1     -34.306   5.878   4.278  1.00 20.00     0.219 C 
HETATM    2  C2  UNL     1     -34.402   5.856   5.614  1.00 20.00     0.153 C 
HETATM    3  F3  UNL     1     -35.019   4.986   3.550  1.00 20.00    -0.190 F 
HETATM    4 CL4  UNL     1     -33.312   6.993   3.410  1.00 20.00    -0.049 Cl
HETATM    5 CL5  UNL     1     -33.501   6.986   6.569  1.00 20.00    -0.067 Cl
HETATM    6 CL6  UNL     1     -35.400   4.739   6.478  1.00 20.00    -0.067 Cl
ENDROOT
TORSDOF 0
