REMARK  1 active torsions:
REMARK  status: ('A' for Active; 'I' for Inactive)
REMARK    1  A    between atoms: C1_1  and  C2_2 
ROOT
HETATM    1  C2  UNL     1     -34.802   5.583   5.517  1.00 20.00     0.294 C 
HETATM    2  F4  UNL     1     -33.868   6.260   6.237  1.00 20.00    -0.230 F 
HETATM    3 CL5  UNL     1     -35.075   3.997   6.263  1.00 20.00    -0.087 Cl
ENDROOT
BRANCH   1   4
HETATM    4  C1  UNL     1     -34.311   5.442   4.094  1.00 20.00     0.275 C 
HETATM    5  F3  UNL     1     -34.095   6.677   3.568  1.00 20.00    -0.251 F 
ENDBRANCH   1   4
TORSDOF 1
