REMARK  1 active torsions:
REMARK  status: ('A' for Active; 'I' for Inactive)
REMARK    1  A    between atoms: C2_2  and  C3_3 
ROOT
HETATM    1  C1  UNL     1     -34.345   4.135   5.782  1.00 20.00     0.071 C 
HETATM    2  C3  UNL     1     -34.290   5.392   4.925  1.00 20.00     0.187 C 
HETATM    3  F4  UNL     1     -35.438   5.464   4.195  1.00 20.00    -0.225 F 
HETATM    4 CL6  UNL     1     -34.237   6.824   6.000  1.00 20.00    -0.082 Cl
ENDROOT
BRANCH   2   5
HETATM    5  C2  UNL     1     -33.099   5.450   3.973  1.00 20.00     0.174 C 
HETATM    6 CL5  UNL     1     -33.060   6.965   3.034  1.00 20.00    -0.126 Cl
ENDBRANCH   2   5
TORSDOF 1
