REMARK  0 active torsions:
REMARK  status: ('A' for Active; 'I' for Inactive)
ROOT
HETATM    1  C1  UNL     1     -33.933   6.806   6.185  1.00 20.00     0.101 C 
HETATM    2  C2  UNL     1     -32.966   7.287   4.168  1.00 20.00     0.055 C 
HETATM    3  C3  UNL     1     -34.188   5.216   4.254  1.00 20.00     0.145 C 
HETATM    4  C4  UNL     1     -32.826   8.290   3.285  1.00 20.00     0.112 C 
HETATM    5  C5  UNL     1     -34.605   5.558   5.667  1.00 20.00     0.092 C 
HETATM    6  C6  UNL     1     -32.867   5.818   3.800  1.00 20.00     0.105 C 
HETATM    7  C7  UNL     1     -34.283   4.391   6.592  1.00 20.00     0.023 C 
HETATM    8  C8  UNL     1     -32.581   5.484   2.336  1.00 20.00     0.025 C 
HETATM    9  N9  UNL     1     -33.178   7.601   5.493  1.00 20.00    -0.267 NA
HETATM   10  O10 UNL     1     -34.848   4.440   3.564  1.00 20.00    -0.296 OA
HETATM   11 CL11 UNL     1     -32.515   8.030   1.628  1.00 20.00    -0.095 Cl
ENDROOT
TORSDOF 0
