REMARK  0 active torsions:
REMARK  status: ('A' for Active; 'I' for Inactive)
ROOT
HETATM    1  C1  UNL     1     -33.838   6.823   5.635  1.00 20.00    -0.011 C 
HETATM    2  C2  UNL     1     -34.400   5.656   5.286  1.00 20.00    -0.015 C 
HETATM    3  C3  UNL     1     -33.101   7.705   4.667  1.00 20.00     0.036 C 
HETATM    4  C4  UNL     1     -34.368   5.117   3.883  1.00 20.00     0.047 C 
HETATM    5  C5  UNL     1     -33.900   6.151   2.850  1.00 20.00     0.014 C 
HETATM    6  C6  UNL     1     -32.710   7.004   3.342  1.00 20.00    -0.044 C 
HETATM    7  C7  UNL     1     -32.374   8.069   2.284  1.00 20.00     0.015 C 
HETATM    8  C8  UNL     1     -31.460   6.124   3.548  1.00 20.00     0.015 C 
HETATM    9 BR9  UNL     1     -35.294   4.582   6.527  1.00 20.00    -0.056 Br
ENDROOT
TORSDOF 0
