REMARK  0 active torsions:
REMARK  status: ('A' for Active; 'I' for Inactive)
ROOT
HETATM    1  C1  UNL     1     -34.013   4.981   2.131  1.00 20.00     0.009 C 
HETATM    2  C2  UNL     1     -35.582   6.785   2.901  1.00 20.00     0.009 C 
HETATM    3  C3  UNL     1     -35.282   4.711   4.275  1.00 20.00     0.013 C 
HETATM    4  C4  UNL     1     -32.801   5.098   4.316  1.00 20.00     0.014 C 
HETATM    5  C5  UNL     1     -34.375   6.907   5.087  1.00 20.00     0.014 C 
HETATM    6  C6  UNL     1     -35.346   5.266   2.843  1.00 20.00    -0.013 C 
HETATM    7  C7  UNL     1     -32.853   5.663   2.883  1.00 20.00    -0.009 C 
HETATM    8  C8  UNL     1     -34.428   7.473   3.655  1.00 20.00    -0.009 C 
HETATM    9  C9  UNL     1     -33.108   7.190   2.897  1.00 20.00    -0.010 C 
HETATM   10  C10 UNL     1     -34.128   5.380   5.059  1.00 20.00    -0.043 C 
HETATM   11  C11 UNL     1     -31.923   7.983   3.453  1.00 20.00     0.010 C 
HETATM   12  C12 UNL     1     -34.066   4.826   6.485  1.00 20.00     0.015 C 
ENDROOT
TORSDOF 0
