REMARK  1 active torsions:
REMARK  status: ('A' for Active; 'I' for Inactive)
REMARK    1  A    between atoms: C5_5  and  N7_7 
ROOT
HETATM    1  C1  UNL     1     -32.277   6.667   3.171  1.00 20.00     0.160 C 
HETATM    2  N7  UNL     1     -32.538   5.661   3.712  1.00 20.00    -0.237 NA
HETATM    3  S9  UNL     1     -31.891   8.019   2.423  1.00 20.00    -0.055 SA
ENDROOT
BRANCH   2   4
HETATM    4  C5  UNL     1     -33.785   5.689   4.487  1.00 20.00     0.152 C 
HETATM    5  C3  UNL     1     -33.993   4.317   5.131  1.00 20.00     0.065 C 
HETATM    6  C2  UNL     1     -34.744   4.643   6.398  1.00 20.00     0.031 C 
HETATM    7  C4  UNL     1     -34.124   5.963   6.790  1.00 20.00     0.171 C 
HETATM    8  O8  UNL     1     -33.828   6.648   5.567  1.00 20.00    -0.359 OA
HETATM    9  C6  UNL     1     -34.920   6.049   3.527  1.00 20.00     0.073 C 
ENDBRANCH   2   4
TORSDOF 1
