REMARK  1 active torsions:
REMARK  status: ('A' for Active; 'I' for Inactive)
REMARK    1  A    between atoms: C3_3  and  C4_4 
ROOT
HETATM    1  C1  UNL     1     -33.993   5.385   5.570  1.00 20.00     0.175 C 
HETATM    2  C2  UNL     1     -34.998   3.690   4.965  1.00 20.00     0.175 C 
HETATM    3  C3  UNL     1     -35.262   5.182   4.734  1.00 20.00     0.047 C 
HETATM    4  O5  UNL     1     -33.965   3.984   5.936  1.00 20.00    -0.390 OA
ENDROOT
BRANCH   3   5
HETATM    5  C4  UNL     1     -35.216   5.667   3.301  1.00 20.00     0.123 C 
HETATM    6 CL6  UNL     1     -33.634   5.312   2.573  1.00 20.00    -0.130 Cl
ENDBRANCH   3   5
TORSDOF 1
