REMARK  2 active torsions:
REMARK  status: ('A' for Active; 'I' for Inactive)
REMARK    1  A    between atoms: C1_1  and  C5_5 
REMARK    2  A    between atoms: C5_5  and  C7_7 
ROOT
HETATM    1  C2  UNL     1     -32.285   7.360   3.106  1.00 20.00     0.002 C 
HETATM    2  C3  UNL     1     -32.277   5.915   3.633  1.00 20.00     0.020 C 
HETATM    3  C4  UNL     1     -33.747   7.470   3.572  1.00 20.00     0.020 C 
HETATM    4  C5  UNL     1     -33.488   6.280   4.549  1.00 20.00     0.048 C 
ENDROOT
BRANCH   4   5
HETATM    5  C1  UNL     1     -34.618   5.215   4.610  1.00 20.00     0.181 C 
HETATM    6  O8  UNL     1     -35.528   5.345   3.746  1.00 20.00    -0.647 OA
HETATM    7  O9  UNL     1     -34.481   4.350   5.520  1.00 20.00    -0.647 OA
ENDBRANCH   4   5
BRANCH   4   8
HETATM    8  C7  UNL     1     -33.077   6.724   5.955  1.00 20.00     0.016 C 
HETATM    9  C6  UNL     1     -34.222   7.326   6.703  1.00 20.00     0.006 C 
ENDBRANCH   4   8
TORSDOF 2
