REMARK  2 active torsions:
REMARK  status: ('A' for Active; 'I' for Inactive)
REMARK    1  A    between atoms: C1_1  and  C3_3 
REMARK    2  A    between atoms: C4_4  and  O10_10 
ROOT
HETATM    1  C3  UNL     1     -33.480   6.056   4.255  1.00 20.00     0.048 A 
HETATM    2  C4  UNL     1     -34.245   6.009   5.554  1.00 20.00     0.135 A 
HETATM    3  C5  UNL     1     -34.669   5.121   4.401  1.00 20.00    -0.012 A 
HETATM    4  C8  UNL     1     -34.376   3.642   4.462  1.00 20.00     0.018 C 
HETATM    5  C9  UNL     1     -35.983   5.444   3.732  1.00 20.00     0.018 C 
ENDROOT
BRANCH   1   6
HETATM    6  C1  UNL     1     -33.565   7.252   3.429  1.00 20.00    -0.017 C 
HETATM    7  C2  UNL     1     -32.585   7.823   2.702  1.00 20.00    -0.091 C 
HETATM    8  C6  UNL     1     -32.839   9.068   1.897  1.00 20.00     0.042 C 
HETATM    9  C7  UNL     1     -31.183   7.290   2.625  1.00 20.00     0.042 C 
ENDBRANCH   1   6
BRANCH   2  10
HETATM   10  O10 UNL     1     -33.569   5.379   6.656  1.00 20.00    -0.394 OA
HETATM   11  H26 UNL     1     -32.762   5.891   6.797  1.00 20.00     0.210 HD
ENDBRANCH   2  10
TORSDOF 2
