REMARK  0 active torsions:
REMARK  status: ('A' for Active; 'I' for Inactive)
ROOT
HETATM    1  C1  UNL     1     -34.483   5.270   5.505  1.00 20.00    -0.054 C 
HETATM    2  C2  UNL     1     -34.364   5.729   4.244  1.00 20.00     0.091 C 
HETATM    3  C3  UNL     1     -34.968   3.872   5.787  1.00 20.00     0.046 C 
HETATM    4  C4  UNL     1     -34.173   6.074   6.738  1.00 20.00     0.046 C 
HETATM    5  C5  UNL     1     -33.860   7.076   3.838  1.00 20.00     0.082 C 
HETATM    6  F6  UNL     1     -34.703   4.893   3.231  1.00 20.00    -0.211 F 
ENDROOT
TORSDOF 0
