REMARK  1 active torsions:
REMARK  status: ('A' for Active; 'I' for Inactive)
REMARK    1  A    between atoms: C1_1  and  C3_3 
ROOT
HETATM    1  C1  UNL     1     -33.491   6.319   5.253  1.00 20.00     0.249 C 
HETATM    2  C2  UNL     1     -32.862   6.440   4.077  1.00 20.00     0.229 C 
HETATM    3  F4  UNL     1     -33.011   7.004   6.318  1.00 20.00    -0.197 F 
HETATM    4  F5  UNL     1     -31.773   7.232   3.971  1.00 20.00    -0.189 F 
HETATM    5 CL9  UNL     1     -33.407   5.603   2.672  1.00 20.00    -0.049 Cl
ENDROOT
BRANCH   1   6
HETATM    6  C3  UNL     1     -34.697   5.477   5.486  1.00 20.00     0.448 C 
HETATM    7  F6  UNL     1     -35.109   5.555   6.777  1.00 20.00    -0.164 F 
HETATM    8  F7  UNL     1     -35.760   5.819   4.715  1.00 20.00    -0.164 F 
HETATM    9  F8  UNL     1     -34.438   4.168   5.237  1.00 20.00    -0.164 F 
ENDBRANCH   1   6
TORSDOF 1
