REMARK  1 active torsions:
REMARK  status: ('A' for Active; 'I' for Inactive)
REMARK    1  A    between atoms: C2_2  and  C3_3 
ROOT
HETATM    1  C3  UNL     1     -34.286   5.177   4.154  1.00 20.00     0.351 C 
HETATM    2  F5  UNL     1     -35.271   5.822   3.475  1.00 20.00    -0.185 F 
HETATM    3  F6  UNL     1     -34.449   3.852   3.898  1.00 20.00    -0.185 F 
HETATM    4 BR7  UNL     1     -32.555   5.756   3.478  1.00 20.00    -0.003 Br
ENDROOT
BRANCH   1   5
HETATM    5  C2  UNL     1     -34.329   5.440   5.620  1.00 20.00     0.167 C 
HETATM    6  C1  UNL     1     -34.486   4.495   6.553  1.00 20.00     0.059 C 
HETATM    7  F4  UNL     1     -34.164   6.716   6.043  1.00 20.00    -0.204 F 
ENDBRANCH   1   5
TORSDOF 1
