REMARK  1 active torsions:
REMARK  status: ('A' for Active; 'I' for Inactive)
REMARK    1  A    between atoms: C2_2  and  C4_4 
ROOT
HETATM    1  C1  UNL     1     -33.822   6.260   5.681  1.00 20.00     0.116 C 
HETATM    2  C2  UNL     1     -33.616   6.056   4.369  1.00 20.00     0.151 C 
HETATM    3  C3  UNL     1     -33.042   7.161   6.586  1.00 20.00     0.084 C 
HETATM    4  F5  UNL     1     -34.842   5.587   6.269  1.00 20.00    -0.209 F 
HETATM    5 CL9  UNL     1     -32.344   6.857   3.501  1.00 20.00    -0.076 Cl
ENDROOT
BRANCH   2   6
HETATM    6  C4  UNL     1     -34.432   5.141   3.514  1.00 20.00     0.430 C 
HETATM    7  F6  UNL     1     -33.997   5.133   2.227  1.00 20.00    -0.165 F 
HETATM    8  F7  UNL     1     -34.413   3.848   3.931  1.00 20.00    -0.165 F 
HETATM    9  F8  UNL     1     -35.738   5.513   3.483  1.00 20.00    -0.165 F 
ENDBRANCH   2   6
TORSDOF 1
