REMARK  0 active torsions:
REMARK  status: ('A' for Active; 'I' for Inactive)
ROOT
HETATM    1  C1  UNL     1     -34.507   6.191   4.298  1.00 20.00     0.238 C 
HETATM    2  C2  UNL     1     -34.408   5.610   5.492  1.00 20.00     0.189 C 
HETATM    3  F3  UNL     1     -34.648   5.467   3.172  1.00 20.00    -0.216 F 
HETATM    4  F4  UNL     1     -34.269   6.395   6.584  1.00 20.00    -0.196 F 
HETATM    5 BR5  UNL     1     -34.453   3.766   5.726  1.00 20.00    -0.015 Br
ENDROOT
TORSDOF 0
