REMARK  0 active torsions:
REMARK  status: ('A' for Active; 'I' for Inactive)
ROOT
HETATM    1  C1  UNL     1     -33.586   6.748   3.892  1.00 20.00     0.145 C 
HETATM    2  C2  UNL     1     -34.446   6.277   4.787  1.00 20.00    -0.034 C 
HETATM    3  C3  UNL     1     -34.524   6.257   6.262  1.00 20.00     0.038 C 
HETATM    4  C4  UNL     1     -35.034   4.822   6.498  1.00 20.00     0.007 C 
HETATM    5  C5  UNL     1     -34.895   4.076   5.153  1.00 20.00     0.034 C 
HETATM    6  C6  UNL     1     -35.155   5.164   4.132  1.00 20.00     0.161 C 
HETATM    7  N7  UNL     1     -33.641   6.032   2.721  1.00 20.00    -0.167 NA
HETATM    8  N8  UNL     1     -34.437   5.047   2.848  1.00 20.00    -0.183 NA
ENDROOT
TORSDOF 0
