REMARK  0 active torsions:
REMARK  status: ('A' for Active; 'I' for Inactive)
ROOT
HETATM    1  C1  UNL     1     -34.106   5.386   6.438  1.00 20.00     0.009 C 
HETATM    2  C2  UNL     1     -34.539   4.399   5.350  1.00 20.00     0.035 C 
HETATM    3  C3  UNL     1     -33.527   6.716   5.918  1.00 20.00     0.082 C 
HETATM    4  C4  UNL     1     -35.285   5.103   4.262  1.00 20.00     0.157 A 
HETATM    5  C5  UNL     1     -34.676   6.372   3.740  1.00 20.00     0.223 A 
HETATM    6  C6  UNL     1     -33.415   6.803   4.402  1.00 20.00     0.271 C 
HETATM    7  O7  UNL     1     -34.617   5.152   2.997  1.00 20.00    -0.369 OA
HETATM    8  F8  UNL     1     -33.118   8.077   4.041  1.00 20.00    -0.203 F 
HETATM    9  F9  UNL     1     -32.375   6.034   3.982  1.00 20.00    -0.203 F 
ENDROOT
TORSDOF 0
