REMARK  0 active torsions:
REMARK  status: ('A' for Active; 'I' for Inactive)
ROOT
HETATM    1  C1  UNL     1     -33.573   5.948   4.258  1.00 20.00     0.164 C 
HETATM    2  C2  UNL     1     -33.718   6.436   5.678  1.00 20.00     0.107 C 
HETATM    3  C3  UNL     1     -34.113   5.273   6.571  1.00 20.00     0.175 C 
HETATM    4  C4  UNL     1     -35.050   4.017   4.801  1.00 20.00     0.212 C 
HETATM    5  C5  UNL     1     -34.677   5.051   3.751  1.00 20.00     0.263 C 
HETATM    6  O6  UNL     1     -32.674   6.349   3.522  1.00 20.00    -0.295 OA
HETATM    7  O7  UNL     1     -35.289   4.635   6.068  1.00 20.00    -0.388 OA
HETATM    8  F8  UNL     1     -35.783   5.791   3.460  1.00 20.00    -0.239 F 
ENDROOT
TORSDOF 0
