REMARK  1 active torsions:
REMARK  status: ('A' for Active; 'I' for Inactive)
REMARK    1  A    between atoms: C6_6  and  C8_8 
ROOT
HETATM    1  C1  UNL     1     -34.224   4.877   6.728  1.00 20.00     0.000 C 
HETATM    2  C2  UNL     1     -34.328   3.852   5.604  1.00 20.00     0.001 C 
HETATM    3  C3  UNL     1     -34.439   6.299   6.222  1.00 20.00     0.001 C 
HETATM    4  C4  UNL     1     -33.387   4.184   4.447  1.00 20.00     0.010 C 
HETATM    5  C5  UNL     1     -33.497   6.635   5.066  1.00 20.00     0.010 C 
HETATM    6  C6  UNL     1     -33.565   5.619   3.902  1.00 20.00    -0.032 C 
HETATM    7  C7  UNL     1     -34.902   5.749   3.148  1.00 20.00     0.016 C 
ENDROOT
BRANCH   6   8
HETATM    8  C8  UNL     1     -32.429   5.921   2.907  1.00 20.00     0.123 C 
HETATM    9 CL9  UNL     1     -32.620   7.556   2.263  1.00 20.00    -0.130 Cl
ENDBRANCH   6   8
TORSDOF 1
