REMARK  1 active torsions:
REMARK  status: ('A' for Active; 'I' for Inactive)
REMARK    1  A    between atoms: C6_6  and  C7_7 
ROOT
HETATM    1  C1  UNL     1     -34.429   4.205   6.194  1.00 20.00     0.005 C 
HETATM    2  C2  UNL     1     -33.677   3.971   4.880  1.00 20.00     0.011 C 
HETATM    3  C3  UNL     1     -34.289   6.342   5.009  1.00 20.00     0.015 C 
HETATM    4  C4  UNL     1     -35.813   5.058   4.366  1.00 20.00     0.015 C 
HETATM    5  C5  UNL     1     -35.272   5.411   5.787  1.00 20.00    -0.013 C 
HETATM    6  C6  UNL     1     -34.281   5.108   4.046  1.00 20.00    -0.031 C 
ENDROOT
BRANCH   6   7
HETATM    7  C7  UNL     1     -33.796   5.240   2.632  1.00 20.00     0.094 C 
HETATM    8 BR8  UNL     1     -31.881   5.600   2.610  1.00 20.00    -0.096 Br
ENDBRANCH   6   7
TORSDOF 1
