REMARK  1 active torsions:
REMARK  status: ('A' for Active; 'I' for Inactive)
REMARK    1  A    between atoms: C1_1  and  C3_3 
ROOT
HETATM    1  C1  UNL     1     -33.507   6.215   4.911  1.00 20.00     0.143 C 
HETATM    2  C2  UNL     1     -32.991   6.243   3.677  1.00 20.00     0.190 C 
HETATM    3  F4  UNL     1     -33.540   5.498   2.693  1.00 20.00    -0.193 F 
HETATM    4 CL8  UNL     1     -31.621   7.221   3.307  1.00 20.00    -0.051 Cl
ENDROOT
BRANCH   1   5
HETATM    5  C3  UNL     1     -34.685   5.405   5.328  1.00 20.00     0.411 C 
HETATM    6  F5  UNL     1     -35.012   5.553   6.637  1.00 20.00    -0.167 F 
HETATM    7  F6  UNL     1     -34.469   4.081   5.126  1.00 20.00    -0.167 F 
HETATM    8  F7  UNL     1     -35.789   5.735   4.610  1.00 20.00    -0.167 F 
ENDBRANCH   1   5
TORSDOF 1
