REMARK  3 active torsions:
REMARK  status: ('A' for Active; 'I' for Inactive)
REMARK    1  A    between atoms: C3_3  and  C5_5 
REMARK    2  A    between atoms: C5_5  and  C6_6 
REMARK    3  A    between atoms: C6_6  and  S9_9 
ROOT
HETATM    1  C1  UNL     1     -34.488   5.360   6.542  1.00 20.00     0.179 C 
HETATM    2  C2  UNL     1     -34.811   3.947   6.092  1.00 20.00     0.103 C 
HETATM    3  C3  UNL     1     -34.301   5.730   4.264  1.00 20.00     0.183 C 
HETATM    4  O7  UNL     1     -33.675   5.970   5.532  1.00 20.00    -0.375 OA
HETATM    5  S8  UNL     1     -35.214   4.166   4.351  1.00 20.00    -0.135 SA
ENDROOT
BRANCH   3   6
HETATM    6  C5  UNL     1     -33.229   5.686   3.190  1.00 20.00     0.057 C 
BRANCH   6   7
HETATM    7  C6  UNL     1     -32.734   7.071   2.749  1.00 20.00     0.043 C 
HETATM    8  C4  UNL     1     -31.726   7.631   3.750  1.00 20.00     0.021 C 
BRANCH   7   9
HETATM    9  S9  UNL     1     -31.952   7.021   1.097  1.00 20.00    -0.178 SA
HETATM   10  H21 UNL     1     -31.719   8.337   1.025  1.00 20.00     0.102 HD
ENDBRANCH   7   9
ENDBRANCH   6   7
ENDBRANCH   3   6
TORSDOF 3
