REMARK  1 active torsions:
REMARK  status: ('A' for Active; 'I' for Inactive)
REMARK    1  A    between atoms: C2_2  and  C5_5 
ROOT
HETATM    1  C1  UNL     1     -34.056   6.484   5.818  1.00 20.00     0.077 C 
HETATM    2  C3  UNL     1     -34.686   4.192   4.977  1.00 20.00     0.034 A 
HETATM    3  C4  UNL     1     -35.723   5.149   4.478  1.00 20.00     0.034 A 
HETATM    4  C5  UNL     1     -34.303   5.628   4.689  1.00 20.00     0.109 A 
HETATM    5  N7  UNL     1     -33.858   7.174   6.730  1.00 20.00    -0.196 NA
ENDROOT
BRANCH   4   6
HETATM    6  C2  UNL     1     -33.484   5.890   3.490  1.00 20.00     0.145 C 
HETATM    7  C6  UNL     1     -32.488   7.014   3.584  1.00 20.00     0.093 C 
HETATM    8  O8  UNL     1     -33.608   5.222   2.466  1.00 20.00    -0.296 OA
ENDBRANCH   4   6
TORSDOF 1
