REMARK  2 active torsions:
REMARK  status: ('A' for Active; 'I' for Inactive)
REMARK    1  A    between atoms: C1_1  and  C4_4 
REMARK    2  A    between atoms: C4_4  and  C5_5 
ROOT
HETATM    1  C2  UNL     1     -34.695   4.586   4.056  1.00 20.00     0.020 A 
HETATM    2  C3  UNL     1     -35.641   5.742   3.938  1.00 20.00     0.020 A 
HETATM    3  C4  UNL     1     -34.229   5.977   4.434  1.00 20.00     0.039 A 
ENDROOT
BRANCH   3   4
HETATM    4  C1  UNL     1     -33.292   6.648   3.500  1.00 20.00     0.243 C 
HETATM    5  O6  UNL     1     -32.191   6.195   3.205  1.00 20.00    -0.306 OA
ENDBRANCH   3   4
BRANCH   3   6
HETATM    6  C5  UNL     1     -34.057   6.266   5.904  1.00 20.00     0.238 C 
HETATM    7  F7  UNL     1     -35.008   5.588   6.600  1.00 20.00    -0.254 F 
ENDBRANCH   3   6
TORSDOF 2
