REMARK  1 active torsions:
REMARK  status: ('A' for Active; 'I' for Inactive)
REMARK    1  A    between atoms: C3_3  and  C4_4 
ROOT
HETATM    1  C1  UNL     1     -34.447   5.226   3.415  1.00 20.00     0.149 A 
HETATM    2  C2  UNL     1     -34.273   5.459   4.763  1.00 20.00     0.093 A 
HETATM    3  C3  UNL     1     -32.958   6.831   3.282  1.00 20.00     0.089 A 
HETATM    4  N5  UNL     1     -33.694   6.012   2.564  1.00 20.00    -0.255 NA
HETATM    5  S6  UNL     1     -33.121   6.710   4.986  1.00 20.00    -0.060 SA
HETATM    6 CL7  UNL     1     -35.022   4.694   6.093  1.00 20.00    -0.075 Cl
ENDROOT
BRANCH   3   7
HETATM    7  C4  UNL     1     -32.020   7.826   2.718  1.00 20.00     0.181 C 
HETATM    8 CL8  UNL     1     -32.897   9.224   2.045  1.00 20.00    -0.123 Cl
ENDBRANCH   3   7
TORSDOF 1
