REMARK  1 active torsions:
REMARK  status: ('A' for Active; 'I' for Inactive)
REMARK    1  A    between atoms: C2_2  and  C3_3 
ROOT
HETATM    1  C1  UNL     1     -32.810   6.816   3.614  1.00 20.00     0.018 C 
HETATM    2  C2  UNL     1     -33.739   5.853   3.572  1.00 20.00     0.188 C 
HETATM    3  C4  UNL     1     -31.989   7.238   2.440  1.00 20.00     0.039 C 
HETATM    4  F7  UNL     1     -33.965   5.208   2.404  1.00 20.00    -0.199 F 
ENDROOT
BRANCH   2   5
HETATM    5  C3  UNL     1     -34.565   5.445   4.803  1.00 20.00     0.238 C 
HETATM    6  O5  UNL     1     -34.289   6.099   5.851  1.00 20.00    -0.642 OA
HETATM    7  O6  UNL     1     -35.413   4.523   4.641  1.00 20.00    -0.642 OA
ENDBRANCH   2   5
TORSDOF 1
