REMARK  0 active torsions:
REMARK  status: ('A' for Active; 'I' for Inactive)
ROOT
HETATM    1  C1  UNL     1     -33.069   6.376   2.547  1.00 20.00     0.052 A 
HETATM    2  C2  UNL     1     -32.708   7.566   4.973  1.00 20.00     0.126 A 
HETATM    3  C3  UNL     1     -33.607   5.766   3.684  1.00 20.00    -0.047 A 
HETATM    4  C4  UNL     1     -33.409   6.363   4.937  1.00 20.00    -0.034 A 
HETATM    5  C5  UNL     1     -32.380   7.568   2.702  1.00 20.00     0.126 A 
HETATM    6  C6  UNL     1     -34.333   4.452   3.547  1.00 20.00     0.039 C 
HETATM    7  C7  UNL     1     -33.978   5.779   6.200  1.00 20.00     0.040 C 
HETATM    8  C8  UNL     1     -35.178   4.102   4.771  1.00 20.00     0.005 C 
HETATM    9  C9  UNL     1     -34.377   4.311   6.051  1.00 20.00     0.005 C 
HETATM   10  N10 UNL     1     -32.187   8.182   3.888  1.00 20.00    -0.248 NA
HETATM   11 CL11 UNL     1     -31.694   8.376   1.352  1.00 20.00    -0.062 Cl
ENDROOT
TORSDOF 0
