REMARK  2 active torsions:
REMARK  status: ('A' for Active; 'I' for Inactive)
REMARK    1  A    between atoms: C5_5  and  C6_6 
REMARK    2  A    between atoms: C6_6  and  C7_7 
ROOT
HETATM    1  C1  UNL     1     -35.182   5.079   3.548  1.00 20.00     0.012 C 
HETATM    2  C6  UNL     1     -34.549   6.150   4.457  1.00 20.00     0.002 C 
ENDROOT
BRANCH   2   3
HETATM    3  C5  UNL     1     -33.362   6.821   3.731  1.00 20.00     0.119 C 
HETATM    4 CL8  UNL     1     -32.356   5.642   2.842  1.00 20.00    -0.130 Cl
ENDBRANCH   2   3
BRANCH   2   5
HETATM    5  C7  UNL     1     -34.151   5.597   5.880  1.00 20.00    -0.047 C 
HETATM    6  C2  UNL     1     -35.385   4.986   6.582  1.00 20.00     0.015 C 
HETATM    7  C3  UNL     1     -33.639   6.740   6.785  1.00 20.00     0.015 C 
HETATM    8  C4  UNL     1     -33.056   4.516   5.804  1.00 20.00     0.015 C 
ENDBRANCH   2   5
TORSDOF 2
