REMARK  1 active torsions:
REMARK  status: ('A' for Active; 'I' for Inactive)
REMARK    1  A    between atoms: C4_4  and  C9_9 
ROOT
HETATM    1  C1  UNL     1     -32.644   8.332   2.249  1.00 20.00     0.017 C 
HETATM    2  C2  UNL     1     -32.878   7.676   3.227  1.00 20.00    -0.089 C 
HETATM    3  C3  UNL     1     -33.141   6.911   4.399  1.00 20.00     0.066 C 
HETATM    4  C4  UNL     1     -33.895   5.791   4.431  1.00 20.00    -0.068 C 
HETATM    5  C5  UNL     1     -34.555   5.245   3.177  1.00 20.00     0.044 C 
ENDROOT
BRANCH   4   6
HETATM    6  C9  UNL     1     -34.143   4.984   5.734  1.00 20.00    -0.028 C 
HETATM    7  C6  UNL     1     -35.041   3.760   5.447  1.00 20.00     0.019 C 
HETATM    8  C7  UNL     1     -32.851   4.441   6.393  1.00 20.00     0.019 C 
HETATM    9  C8  UNL     1     -34.839   5.882   6.778  1.00 20.00     0.019 C 
ENDBRANCH   4   6
TORSDOF 1
