REMARK  2 active torsions:
REMARK  status: ('A' for Active; 'I' for Inactive)
REMARK    1  A    between atoms: C3_3  and  O10_10 
REMARK    2  A    between atoms: C8_8  and  O10_10 
ROOT
HETATM    1  C1  UNL     1     -32.868   6.799   4.668  1.00 20.00     0.069 C 
HETATM    2  C2  UNL     1     -33.788   5.639   5.113  1.00 20.00     0.173 C 
HETATM    3  C3  UNL     1     -33.727   6.979   3.397  1.00 20.00     0.134 C 
HETATM    4  C4  UNL     1     -34.311   5.545   3.635  1.00 20.00     0.008 C 
HETATM    5  C5  UNL     1     -35.815   5.460   3.363  1.00 20.00     0.020 C 
HETATM    6  C6  UNL     1     -33.581   4.430   2.868  1.00 20.00     0.020 C 
HETATM    7  O9  UNL     1     -34.744   6.048   6.062  1.00 20.00    -0.234 OA
ENDROOT
BRANCH   3   8
HETATM    8  O10 UNL     1     -33.009   7.187   2.167  1.00 20.00    -0.385 OA
BRANCH   8   9
HETATM    9  C8  UNL     1     -32.587   8.532   2.051  1.00 20.00     0.163 C 
HETATM   10  C7  UNL     1     -31.839   8.704   0.746  1.00 20.00     0.033 C 
ENDBRANCH   8   9
ENDBRANCH   3   8
TORSDOF 2
