REMARK  0 active torsions:
REMARK  status: ('A' for Active; 'I' for Inactive)
ROOT
HETATM    1  C1  UNL     1     -34.780   6.778   6.101  1.00 20.00     0.001 C 
HETATM    2  C2  UNL     1     -34.823   5.437   6.274  1.00 20.00     0.001 C 
HETATM    3  C3  UNL     1     -31.746   6.299   2.667  1.00 20.00     0.001 C 
HETATM    4  C4  UNL     1     -31.791   4.837   2.858  1.00 20.00     0.001 C 
HETATM    5  C5  UNL     1     -32.607   7.259   3.077  1.00 20.00     0.009 C 
HETATM    6  C6  UNL     1     -32.707   4.069   3.492  1.00 20.00     0.009 C 
HETATM    7  C7  UNL     1     -33.988   7.460   5.077  1.00 20.00     0.009 C 
HETATM    8  C8  UNL     1     -34.083   4.468   5.464  1.00 20.00     0.009 C 
HETATM    9  C9  UNL     1     -33.827   6.974   3.826  1.00 20.00    -0.039 C 
HETATM   10  C10 UNL     1     -33.902   4.609   4.132  1.00 20.00    -0.039 C 
HETATM   11  C11 UNL     1     -34.513   5.730   3.342  1.00 20.00     0.123 C 
HETATM   12 BR12 UNL     1     -36.455   5.797   3.383  1.00 20.00    -0.081 Br
ENDROOT
TORSDOF 0
