REMARK  2 active torsions:
REMARK  status: ('A' for Active; 'I' for Inactive)
REMARK    1  A    between atoms: C3_3  and  C4_4 
REMARK    2  A    between atoms: C3_3  and  C5_5 
ROOT
HETATM    1  C3  UNL     1     -33.683   6.517   4.712  1.00 20.00     0.157 C 
ENDROOT
BRANCH   1   2
HETATM    2  C4  UNL     1     -34.439   5.275   5.174  1.00 20.00     0.245 C 
HETATM    3  C1  UNL     1     -34.660   5.248   6.672  1.00 20.00     0.090 C 
HETATM    4  F6  UNL     1     -33.757   4.159   4.814  1.00 20.00    -0.207 F 
HETATM    5  F7  UNL     1     -35.646   5.214   4.556  1.00 20.00    -0.207 F 
ENDBRANCH   1   2
BRANCH   1   6
HETATM    6  C5  UNL     1     -33.060   6.337   3.331  1.00 20.00     0.245 C 
HETATM    7  C2  UNL     1     -31.751   5.576   3.374  1.00 20.00     0.090 C 
HETATM    8  F8  UNL     1     -33.923   5.674   2.519  1.00 20.00    -0.207 F 
HETATM    9  F9  UNL     1     -32.840   7.550   2.763  1.00 20.00    -0.207 F 
ENDBRANCH   1   6
TORSDOF 2
