REMARK  1 active torsions:
REMARK  status: ('A' for Active; 'I' for Inactive)
REMARK    1  A    between atoms: C4_4  and  C10_10 
ROOT
HETATM    1  C1  UNL     1     -34.630   4.877   6.457  1.00 20.00    -0.004 C 
HETATM    2  C2  UNL     1     -33.854   6.033   6.086  1.00 20.00     0.003 C 
HETATM    3  C3  UNL     1     -35.227   4.110   5.536  1.00 20.00    -0.026 C 
HETATM    4  C4  UNL     1     -33.557   6.305   4.804  1.00 20.00    -0.072 C 
HETATM    5  C5  UNL     1     -35.121   4.393   4.066  1.00 20.00     0.031 C 
HETATM    6  C6  UNL     1     -34.035   5.415   3.680  1.00 20.00     0.038 C 
ENDROOT
BRANCH   4   7
HETATM    7  C10 UNL     1     -32.721   7.486   4.412  1.00 20.00    -0.028 C 
HETATM    8  C7  UNL     1     -33.531   8.391   3.471  1.00 20.00     0.019 C 
HETATM    9  C8  UNL     1     -31.449   7.008   3.692  1.00 20.00     0.019 C 
HETATM   10  C9  UNL     1     -32.321   8.280   5.666  1.00 20.00     0.019 C 
ENDBRANCH   4   7
TORSDOF 1
