REMARK  4 active torsions:
REMARK  status: ('A' for Active; 'I' for Inactive)
REMARK    1  A    between atoms: C5_5  and  C8_8 
REMARK    2  A    between atoms: C7_7  and  N10_10 
REMARK    3  A    between atoms: C8_8  and  N10_10 
REMARK    4  A    between atoms: C9_9  and  N10_10 
ROOT
HETATM    1  C1  UNL     1     -34.952   3.793   5.434  1.00 20.00     0.013 C 
HETATM    2  C2  UNL     1     -34.557   4.919   5.300  1.00 20.00    -0.087 C 
HETATM    3  C7  UNL     1     -34.073   6.292   5.142  1.00 20.00     0.364 C 
ENDROOT
BRANCH   3   4
HETATM    4  N10 UNL     1     -34.041   6.669   3.729  1.00 20.00     0.099 N 
BRANCH   4   5
HETATM    5  C8  UNL     1     -33.557   8.040   3.577  1.00 20.00     0.278 C 
BRANCH   5   6
HETATM    6  C5  UNL     1     -33.518   8.440   2.141  1.00 20.00     0.014 A 
HETATM    7  C3  UNL     1     -33.059   9.818   1.750  1.00 20.00     0.007 A 
HETATM    8  C4  UNL     1     -32.199   8.624   1.442  1.00 20.00     0.007 A 
ENDBRANCH   5   6
ENDBRANCH   4   5
BRANCH   4   9
HETATM    9  C9  UNL     1     -33.198   5.743   2.973  1.00 20.00     0.269 C 
HETATM   10  C6  UNL     1     -31.799   5.747   3.486  1.00 20.00     0.037 C 
ENDBRANCH   4   9
ENDBRANCH   3   4
TORSDOF 4
