REMARK  2 active torsions:
REMARK  status: ('A' for Active; 'I' for Inactive)
REMARK    1  A    between atoms: C5_5  and  C6_6 
REMARK    2  A    between atoms: C6_6  and  C7_7 
ROOT
HETATM    1  C1  UNL     1     -34.810   4.701   3.569  1.00 20.00     0.031 C 
HETATM    2  C2  UNL     1     -33.695   6.246   5.203  1.00 20.00     0.031 C 
HETATM    3  C3  UNL     1     -35.142   3.802   4.754  1.00 20.00     0.168 C 
HETATM    4  C4  UNL     1     -34.090   5.260   6.296  1.00 20.00     0.168 C 
HETATM    5  C5  UNL     1     -33.552   5.530   3.855  1.00 20.00    -0.010 C 
HETATM    6  O8  UNL     1     -35.290   4.572   5.947  1.00 20.00    -0.391 OA
ENDROOT
BRANCH   5   7
HETATM    7  C6  UNL     1     -33.281   6.525   2.729  1.00 20.00     0.020 C 
BRANCH   7   8
HETATM    8  C7  UNL     1     -31.866   7.085   2.749  1.00 20.00     0.115 C 
HETATM    9 CL9  UNL     1     -31.594   8.260   1.441  1.00 20.00    -0.130 Cl
ENDBRANCH   7   8
ENDBRANCH   5   7
TORSDOF 2
