REMARK  1 active torsions:
REMARK  status: ('A' for Active; 'I' for Inactive)
REMARK    1  A    between atoms: C4_4  and  C8_8 
ROOT
HETATM    1  C5  UNL     1     -34.842   5.495   6.411  1.00 20.00     0.002 C 
HETATM    2  C6  UNL     1     -34.075   6.678   5.814  1.00 20.00     0.011 C 
HETATM    3  C7  UNL     1     -34.713   4.349   5.409  1.00 20.00     0.021 C 
HETATM    4  C8  UNL     1     -33.311   6.111   4.603  1.00 20.00     0.039 C 
HETATM    5  C9  UNL     1     -34.257   5.000   4.105  1.00 20.00     0.090 C 
HETATM    6 CL11 UNL     1     -35.674   5.649   3.219  1.00 20.00    -0.124 Cl
ENDROOT
BRANCH   4   7
HETATM    7  C4  UNL     1     -32.820   7.098   3.564  1.00 20.00    -0.028 A 
HETATM    8  C1  UNL     1     -32.991   8.503   3.575  1.00 20.00     0.034 A 
HETATM    9  C2  UNL     1     -32.381   8.971   2.435  1.00 20.00     0.142 A 
HETATM   10  O10 UNL     1     -31.846   7.944   1.724  1.00 20.00    -0.334 OA
HETATM   11  C3  UNL     1     -32.117   6.807   2.418  1.00 20.00     0.148 A 
ENDBRANCH   4   7
TORSDOF 1
