REMARK  1 active torsions:
REMARK  status: ('A' for Active; 'I' for Inactive)
REMARK    1  A    between atoms: C4_4  and  C9_9 
ROOT
HETATM    1  C5  UNL     1     -34.503   5.057   4.401  1.00 20.00     0.135 C 
HETATM    2  C6  UNL     1     -34.470   4.409   5.762  1.00 20.00     0.079 C 
HETATM    3  C7  UNL     1     -34.484   5.618   6.689  1.00 20.00     0.008 C 
HETATM    4  C8  UNL     1     -33.739   6.700   5.916  1.00 20.00     0.017 C 
HETATM    5  C9  UNL     1     -34.248   6.549   4.477  1.00 20.00     0.090 C 
HETATM    6  O10 UNL     1     -34.708   4.438   3.364  1.00 20.00    -0.297 OA
ENDROOT
BRANCH   5   7
HETATM    7  C4  UNL     1     -33.296   7.072   3.433  1.00 20.00    -0.023 A 
HETATM    8  C1  UNL     1     -33.563   8.060   2.456  1.00 20.00     0.034 A 
HETATM    9  C2  UNL     1     -32.402   8.207   1.734  1.00 20.00     0.142 A 
HETATM   10  O11 UNL     1     -31.438   7.372   2.205  1.00 20.00    -0.334 OA
HETATM   11  C3  UNL     1     -31.991   6.685   3.239  1.00 20.00     0.149 A 
ENDBRANCH   5   7
TORSDOF 1
