REMARK  1 active torsions:
REMARK  status: ('A' for Active; 'I' for Inactive)
REMARK    1  A    between atoms: C4_4  and  C8_8 
ROOT
HETATM    1  C5  UNL     1     -32.198   7.897   2.673  1.00 20.00     0.002 C 
HETATM    2  C6  UNL     1     -31.621   6.937   3.722  1.00 20.00     0.011 C 
HETATM    3  C7  UNL     1     -33.326   7.149   1.966  1.00 20.00     0.021 C 
HETATM    4  C8  UNL     1     -32.497   5.670   3.696  1.00 20.00     0.039 C 
HETATM    5  C9  UNL     1     -33.036   5.683   2.254  1.00 20.00     0.090 C 
HETATM    6 CL11 UNL     1     -34.440   4.648   1.949  1.00 20.00    -0.124 Cl
ENDROOT
BRANCH   4   7
HETATM    7  C4  UNL     1     -33.540   5.611   4.801  1.00 20.00    -0.028 A 
HETATM    8  C1  UNL     1     -34.480   4.579   5.032  1.00 20.00     0.034 A 
HETATM    9  C2  UNL     1     -35.206   4.963   6.135  1.00 20.00     0.142 A 
HETATM   10  O10 UNL     1     -34.773   6.165   6.597  1.00 20.00    -0.334 OA
HETATM   11  C3  UNL     1     -33.758   6.552   5.780  1.00 20.00     0.148 A 
ENDBRANCH   4   7
TORSDOF 1
