REMARK  1 active torsions:
REMARK  status: ('A' for Active; 'I' for Inactive)
REMARK    1  A    between atoms: C4_4  and  C9_9 
ROOT
HETATM    1  C5  UNL     1     -34.289   5.749   6.130  1.00 20.00     0.135 C 
HETATM    2  C6  UNL     1     -34.373   4.261   6.353  1.00 20.00     0.079 C 
HETATM    3  C7  UNL     1     -34.401   3.726   4.929  1.00 20.00     0.008 C 
HETATM    4  C8  UNL     1     -35.120   4.803   4.124  1.00 20.00     0.017 C 
HETATM    5  C9  UNL     1     -34.649   6.141   4.712  1.00 20.00     0.090 C 
HETATM    6  O10 UNL     1     -33.978   6.549   7.005  1.00 20.00    -0.297 OA
ENDROOT
BRANCH   5   7
HETATM    7  C4  UNL     1     -33.517   6.775   3.941  1.00 20.00    -0.023 A 
HETATM    8  C1  UNL     1     -32.208   7.040   4.411  1.00 20.00     0.034 A 
HETATM    9  C2  UNL     1     -31.535   7.621   3.362  1.00 20.00     0.142 A 
HETATM   10  O11 UNL     1     -32.345   7.730   2.277  1.00 20.00    -0.334 OA
HETATM   11  C3  UNL     1     -33.549   7.213   2.637  1.00 20.00     0.149 A 
ENDBRANCH   5   7
TORSDOF 1
