REMARK  3 active torsions:
REMARK  status: ('A' for Active; 'I' for Inactive)
REMARK    1  A    between atoms: C5_5  and  C6_6 
REMARK    2  A    between atoms: C6_6  and  C7_7 
REMARK    3  A    between atoms: C7_7  and  C8_8 
ROOT
HETATM    1  C1  UNL     1     -34.340   5.061   6.030  1.00 20.00     0.004 C 
HETATM    2  C2  UNL     1     -35.163   4.317   4.987  1.00 20.00     0.026 C 
HETATM    3  C3  UNL     1     -34.342   6.558   5.739  1.00 20.00     0.032 C 
HETATM    4  C4  UNL     1     -34.719   4.690   3.580  1.00 20.00     0.168 C 
HETATM    5  C5  UNL     1     -33.971   6.866   4.286  1.00 20.00     0.121 C 
HETATM    6  O9  UNL     1     -34.769   6.101   3.377  1.00 20.00    -0.386 OA
ENDROOT
BRANCH   5   7
HETATM    7  C6  UNL     1     -32.480   6.701   3.996  1.00 20.00     0.033 C 
BRANCH   7   8
HETATM    8  C7  UNL     1     -32.151   7.056   2.547  1.00 20.00     0.017 C 
BRANCH   8   9
HETATM    9  C8  UNL     1     -32.557   8.489   2.229  1.00 20.00     0.115 C 
HETATM   10 CL10 UNL     1     -32.151   8.890   0.544  1.00 20.00    -0.130 Cl
ENDBRANCH   8   9
ENDBRANCH   7   8
ENDBRANCH   5   7
TORSDOF 3
