REMARK  4 active torsions:
REMARK  status: ('A' for Active; 'I' for Inactive)
REMARK    1  A    between atoms: C1_1  and  C2_2 
REMARK    2  A    between atoms: C1_1  and  N9_9 
REMARK    3  A    between atoms: C7_7  and  C8_8 
REMARK    4  A    between atoms: C8_8  and  N9_9 
ROOT
HETATM    1  C4  UNL     1     -35.026   3.388   5.485  1.00 20.00     0.038 C 
HETATM    2  C5  UNL     1     -32.861   4.252   6.387  1.00 20.00     0.038 C 
HETATM    3  C8  UNL     1     -34.200   4.656   5.756  1.00 20.00     0.024 C 
ENDROOT
BRANCH   3   4
HETATM    4  C7  UNL     1     -35.010   5.587   6.690  1.00 20.00     0.026 C 
HETATM    5  C3  UNL     1     -34.318   6.896   7.053  1.00 20.00     0.007 C 
ENDBRANCH   3   4
BRANCH   3   6
HETATM    6  N9  UNL     1     -33.951   5.318   4.486  1.00 20.00    -0.383 N 
HETATM    7  C6  UNL     1     -34.669   4.793   3.330  1.00 20.00     0.150 C 
BRANCH   6   8
HETATM    8  C1  UNL     1     -32.935   6.221   4.337  1.00 20.00     0.127 C 
BRANCH   8   9
HETATM    9  C2  UNL     1     -32.453   6.745   3.196  1.00 20.00     0.275 C 
HETATM   10  O10 UNL     1     -31.530   7.572   2.978  1.00 20.00    -0.301 OA
ENDBRANCH   8   9
ENDBRANCH   6   8
ENDBRANCH   3   6
TORSDOF 4
