REMARK  3 active torsions:
REMARK  status: ('A' for Active; 'I' for Inactive)
REMARK    1  A    between atoms: C4_4  and  C8_8 
REMARK    2  A    between atoms: C8_8  and  N10_10 
REMARK    3  A    between atoms: C9_9  and  N10_10 
ROOT
HETATM    1  C1  UNL     1     -33.447   6.732   6.368  1.00 20.00     0.015 C 
HETATM    2  C2  UNL     1     -33.866   6.093   5.442  1.00 20.00    -0.076 C 
HETATM    3  C6  UNL     1     -33.684   3.944   4.262  1.00 20.00     0.063 C 
HETATM    4  C7  UNL     1     -35.895   5.114   4.448  1.00 20.00     0.063 C 
HETATM    5  C9  UNL     1     -34.382   5.307   4.302  1.00 20.00     0.212 C 
ENDROOT
BRANCH   5   6
HETATM    6  N10 UNL     1     -34.110   6.025   3.072  1.00 20.00     0.115 N 
HETATM    7  H23 UNL     1     -34.464   5.489   2.277  1.00 20.00     0.319 HD
BRANCH   6   8
HETATM    8  C8  UNL     1     -32.679   6.245   2.895  1.00 20.00     0.365 C 
BRANCH   8   9
HETATM    9  C4  UNL     1     -32.431   7.352   1.966  1.00 20.00    -0.077 C 
HETATM   10  C3  UNL     1     -32.222   8.258   1.206  1.00 20.00    -0.109 C 
HETATM   11  C5  UNL     1     -31.967   9.361   0.280  1.00 20.00     0.112 C 
ENDBRANCH   8   9
ENDBRANCH   6   8
ENDBRANCH   5   6
TORSDOF 3
