REMARK  3 active torsions:
REMARK  status: ('A' for Active; 'I' for Inactive)
REMARK    1  A    between atoms: C2_2  and  C3_3 
REMARK    2  A    between atoms: C3_3  and  C11_11 
REMARK    3  A    between atoms: C11_11  and  C12_12 
ROOT
HETATM    1  C3  UNL     1     -32.640   6.991   3.673  1.00 20.00     0.159 C 
HETATM    2  O13 UNL     1     -31.819   7.601   4.355  1.00 20.00    -0.292 OA
ENDROOT
BRANCH   1   3
HETATM    3  C2  UNL     1     -33.582   6.078   4.324  1.00 20.00    -0.016 C 
HETATM    4  C1  UNL     1     -33.946   6.352   5.585  1.00 20.00    -0.016 C 
HETATM    5  C4  UNL     1     -34.897   5.484   6.358  1.00 20.00     0.028 C 
HETATM    6  C6  UNL     1     -35.153   4.126   5.697  1.00 20.00     0.004 C 
HETATM    7  C7  UNL     1     -35.331   4.267   4.187  1.00 20.00     0.005 C 
HETATM    8  C5  UNL     1     -34.100   4.909   3.541  1.00 20.00     0.042 C 
ENDBRANCH   1   3
BRANCH   1   9
HETATM    9  C11 UNL     1     -32.748   7.141   2.156  1.00 20.00     0.059 C 
HETATM   10  C8  UNL     1     -31.955   6.033   1.460  1.00 20.00     0.018 C 
BRANCH   9  11
HETATM   11  C12 UNL     1     -32.360   8.578   1.724  1.00 20.00    -0.012 C 
HETATM   12  C9  UNL     1     -32.408   8.795   0.208  1.00 20.00     0.010 C 
HETATM   13  C10 UNL     1     -33.229   9.626   2.424  1.00 20.00     0.010 C 
ENDBRANCH   9  11
ENDBRANCH   1   9
TORSDOF 3
