REMARK  3 active torsions:
REMARK  status: ('A' for Active; 'I' for Inactive)
REMARK    1  A    between atoms: C7_7  and  C8_8 
REMARK    2  A    between atoms: C8_8  and  N11_11 
REMARK    3  A    between atoms: C9_9  and  N11_11 
ROOT
HETATM    1  C1  UNL     1     -35.486   5.079   5.031  1.00 20.00     0.015 C 
HETATM    2  C2  UNL     1     -34.557   5.789   5.306  1.00 20.00    -0.076 C 
HETATM    3  C5  UNL     1     -33.653   7.311   7.014  1.00 20.00     0.063 C 
HETATM    4  C6  UNL     1     -32.124   5.837   5.679  1.00 20.00     0.063 C 
HETATM    5  C9  UNL     1     -33.415   6.661   5.646  1.00 20.00     0.213 C 
ENDROOT
BRANCH   5   6
HETATM    6  N11 UNL     1     -33.294   7.695   4.635  1.00 20.00     0.122 N 
HETATM    7  H25 UNL     1     -32.751   8.476   5.009  1.00 20.00     0.319 HD
BRANCH   6   8
HETATM    8  C8  UNL     1     -32.630   7.188   3.439  1.00 20.00     0.327 C 
HETATM    9  C3  UNL     1     -33.382   6.060   2.871  1.00 20.00     0.095 C 
HETATM   10  N10 UNL     1     -33.973   5.166   2.423  1.00 20.00    -0.195 NA
BRANCH   8  11
HETATM   11  C7  UNL     1     -32.392   8.306   2.416  1.00 20.00     0.046 C 
HETATM   12  C4  UNL     1     -31.611   7.878   1.177  1.00 20.00     0.008 C 
ENDBRANCH   8  11
ENDBRANCH   6   8
ENDBRANCH   5   6
TORSDOF 3
