REMARK  4 active torsions:
REMARK  status: ('A' for Active; 'I' for Inactive)
REMARK    1  A    between atoms: C4_4  and  C6_6 
REMARK    2  A    between atoms: C6_6  and  C8_8 
REMARK    3  A    between atoms: C7_7  and  C8_8 
REMARK    4  A    between atoms: C8_8  and  N9_9 
ROOT
HETATM    1  C1  UNL     1     -33.645   6.430   5.615  1.00 20.00     0.158 C 
HETATM    2  N9  UNL     1     -32.753   6.591   4.871  1.00 20.00    -0.270 NA
HETATM    3  S10 UNL     1     -34.833   6.203   6.651  1.00 20.00    -0.055 SA
ENDROOT
BRANCH   2   4
HETATM    4  C8  UNL     1     -33.152   6.992   3.514  1.00 20.00     0.109 C 
BRANCH   4   5
HETATM    5  C6  UNL     1     -32.043   7.867   2.917  1.00 20.00     0.032 C 
BRANCH   5   6
HETATM    6  C4  UNL     1     -32.540   8.735   1.767  1.00 20.00    -0.013 A 
HETATM    7  C2  UNL     1     -33.088  10.109   2.037  1.00 20.00     0.005 A 
HETATM    8  C3  UNL     1     -31.762   9.950   1.346  1.00 20.00     0.005 A 
ENDBRANCH   5   6
ENDBRANCH   4   5
BRANCH   4   9
HETATM    9  C7  UNL     1     -33.364   5.728   2.673  1.00 20.00     0.023 C 
HETATM   10  C5  UNL     1     -34.418   4.826   3.245  1.00 20.00     0.007 C 
ENDBRANCH   4   9
ENDBRANCH   2   4
TORSDOF 4
