REMARK  3 active torsions:
REMARK  status: ('A' for Active; 'I' for Inactive)
REMARK    1  A    between atoms: C2_2  and  C6_6 
REMARK    2  A    between atoms: C2_2  and  C7_7 
REMARK    3  A    between atoms: C7_7  and  C8_8 
ROOT
HETATM    1  C1  UNL     1     -32.146   7.838   2.168  1.00 20.00     0.066 C 
HETATM    2  C6  UNL     1     -32.073   6.519   2.805  1.00 20.00     0.202 C 
HETATM    3  N9  UNL     1     -32.201   8.881   1.662  1.00 20.00    -0.197 NA
ENDROOT
BRANCH   2   4
HETATM    4  C2  UNL     1     -32.821   6.470   4.125  1.00 20.00     0.143 C 
HETATM    5  O10 UNL     1     -32.568   7.233   5.059  1.00 20.00    -0.297 OA
BRANCH   4   6
HETATM    6  C7  UNL     1     -33.942   5.433   4.226  1.00 20.00     0.055 C 
HETATM    7  C3  UNL     1     -35.211   6.080   3.669  1.00 20.00     0.018 C 
BRANCH   6   8
HETATM    8  C8  UNL     1     -34.096   4.920   5.680  1.00 20.00    -0.012 C 
HETATM    9  C4  UNL     1     -34.800   3.557   5.708  1.00 20.00     0.010 C 
HETATM   10  C5  UNL     1     -34.876   5.900   6.563  1.00 20.00     0.010 C 
ENDBRANCH   6   8
ENDBRANCH   4   6
ENDBRANCH   2   4
TORSDOF 3
