REMARK  1 active torsions:
REMARK  status: ('A' for Active; 'I' for Inactive)
REMARK    1  A    between atoms: C10_10  and  N11_11 
ROOT
HETATM    1  C1  UNL     1     -33.529   9.261   2.402  1.00 20.00     0.015 C 
HETATM    2  C2  UNL     1     -32.834   8.556   3.082  1.00 20.00    -0.076 C 
HETATM    3  C8  UNL     1     -30.706   7.326   3.146  1.00 20.00     0.063 C 
HETATM    4  C9  UNL     1     -31.611   8.419   5.214  1.00 20.00     0.063 C 
HETATM    5  C10 UNL     1     -31.979   7.689   3.918  1.00 20.00     0.214 C 
ENDROOT
BRANCH   5   6
HETATM    6  N11 UNL     1     -32.715   6.468   4.247  1.00 20.00     0.110 N 
HETATM    7  C6  UNL     1     -33.083   5.747   3.018  1.00 20.00     0.282 C 
HETATM    8  C4  UNL     1     -33.770   4.423   3.335  1.00 20.00     0.108 C 
HETATM    9  C3  UNL     1     -34.928   4.641   4.279  1.00 20.00     0.130 C 
HETATM   10  C5  UNL     1     -34.651   5.528   5.470  1.00 20.00     0.108 C 
HETATM   11  O12 UNL     1     -35.994   4.043   4.149  1.00 20.00    -0.298 OA
HETATM   12  C7  UNL     1     -33.915   6.791   5.035  1.00 20.00     0.282 C 
ENDBRANCH   5   6
TORSDOF 1
