REMARK  4 active torsions:
REMARK  status: ('A' for Active; 'I' for Inactive)
REMARK    1  A    between atoms: C4_4  and  C6_6 
REMARK    2  A    between atoms: C6_6  and  C8_8 
REMARK    3  A    between atoms: C7_7  and  C8_8 
REMARK    4  A    between atoms: C8_8  and  N9_9 
ROOT
HETATM    1  C1  UNL     1     -32.109   8.282   2.097  1.00 20.00     0.158 C 
HETATM    2  N9  UNL     1     -32.026   7.446   2.915  1.00 20.00    -0.270 NA
HETATM    3  S10 UNL     1     -32.187   9.420   0.986  1.00 20.00    -0.055 SA
ENDROOT
BRANCH   2   4
HETATM    4  C8  UNL     1     -33.313   6.892   3.359  1.00 20.00     0.109 C 
BRANCH   4   5
HETATM    5  C6  UNL     1     -33.045   5.827   4.429  1.00 20.00     0.032 C 
BRANCH   5   6
HETATM    6  C4  UNL     1     -34.263   5.558   5.303  1.00 20.00    -0.013 A 
HETATM    7  C2  UNL     1     -35.260   4.504   4.909  1.00 20.00     0.005 A 
HETATM    8  C3  UNL     1     -34.361   4.283   6.093  1.00 20.00     0.005 A 
ENDBRANCH   5   6
ENDBRANCH   4   5
BRANCH   4   9
HETATM    9  C7  UNL     1     -34.027   6.281   2.147  1.00 20.00     0.023 C 
HETATM   10  C5  UNL     1     -33.243   5.168   1.517  1.00 20.00     0.007 C 
ENDBRANCH   4   9
ENDBRANCH   2   4
TORSDOF 4
