REMARK  2 active torsions:
REMARK  status: ('A' for Active; 'I' for Inactive)
REMARK    1  A    between atoms: C7_7  and  N9_9 
REMARK    2  A    between atoms: C8_8  and  N9_9 
ROOT
HETATM    1  C1  UNL     1     -34.038   3.913   5.547  1.00 20.00     0.015 C 
HETATM    2  C2  UNL     1     -34.006   5.112   5.487  1.00 20.00    -0.076 C 
HETATM    3  C5  UNL     1     -35.218   7.097   4.689  1.00 20.00     0.063 C 
HETATM    4  C6  UNL     1     -33.908   7.175   6.827  1.00 20.00     0.063 C 
HETATM    5  C8  UNL     1     -33.967   6.587   5.414  1.00 20.00     0.212 C 
ENDROOT
BRANCH   5   6
HETATM    6  N9  UNL     1     -32.785   6.992   4.680  1.00 20.00     0.108 N 
HETATM    7  H24 UNL     1     -31.997   6.398   4.945  1.00 20.00     0.318 HD
BRANCH   6   8
HETATM    8  C7  UNL     1     -32.995   6.884   3.240  1.00 20.00     0.214 C 
HETATM    9  C3  UNL     1     -33.297   5.435   2.888  1.00 20.00     0.042 C 
HETATM   10  C4  UNL     1     -31.753   7.391   2.521  1.00 20.00     0.042 C 
ENDBRANCH   6   8
ENDBRANCH   5   6
TORSDOF 2
