REMARK  3 active torsions:
REMARK  status: ('A' for Active; 'I' for Inactive)
REMARK    1  A    between atoms: C4_4  and  C6_6 
REMARK    2  A    between atoms: C6_6  and  C7_7 
REMARK    3  A    between atoms: C7_7  and  N8_8 
ROOT
HETATM    1  C1  UNL     1     -32.340   8.106   2.327  1.00 20.00     0.158 C 
HETATM    2  N8  UNL     1     -32.451   7.421   3.273  1.00 20.00    -0.271 NA
HETATM    3  S9  UNL     1     -32.157   9.041   1.051  1.00 20.00    -0.055 SA
ENDROOT
BRANCH   2   4
HETATM    4  C7  UNL     1     -33.776   6.813   3.439  1.00 20.00     0.106 C 
HETATM    5  C5  UNL     1     -33.785   5.489   2.685  1.00 20.00     0.034 C 
BRANCH   4   6
HETATM    6  C6  UNL     1     -34.052   6.603   4.930  1.00 20.00     0.031 C 
BRANCH   6   7
HETATM    7  C4  UNL     1     -35.145   5.572   5.181  1.00 20.00    -0.013 A 
HETATM    8  C2  UNL     1     -34.794   4.118   5.332  1.00 20.00     0.005 A 
HETATM    9  C3  UNL     1     -35.262   4.905   6.524  1.00 20.00     0.005 A 
ENDBRANCH   6   7
ENDBRANCH   4   6
ENDBRANCH   2   4
TORSDOF 3
