REMARK  3 active torsions:
REMARK  status: ('A' for Active; 'I' for Inactive)
REMARK    1  A    between atoms: C1_1  and  C7_7 
REMARK       I    between atoms: C1_1  and  N9_9 
REMARK    2  A    between atoms: C7_7  and  C8_8 
REMARK    3  A    between atoms: N9_9  and  O11_11 
ROOT
HETATM    1  C1  UNL     1     -33.611   5.595   4.058  1.00 20.00     0.247 C 
HETATM    2  C5  UNL     1     -33.976   3.932   5.879  1.00 20.00     0.189 C 
HETATM    3  N9  UNL     1     -34.123   5.251   5.287  1.00 20.00    -0.231 N 
HETATM    4  O10 UNL     1     -32.980   4.801   3.355  1.00 20.00    -0.271 OA
ENDROOT
BRANCH   1   5
HETATM    5  C7  UNL     1     -33.840   7.042   3.591  1.00 20.00     0.079 C 
HETATM    6  C2  UNL     1     -35.198   7.162   2.891  1.00 20.00     0.020 C 
BRANCH   5   7
HETATM    7  C8  UNL     1     -32.642   7.528   2.730  1.00 20.00    -0.010 C 
HETATM    8  C3  UNL     1     -31.323   7.422   3.501  1.00 20.00     0.010 C 
HETATM    9  C4  UNL     1     -32.812   8.952   2.191  1.00 20.00     0.010 C 
ENDBRANCH   5   7
ENDBRANCH   1   5
BRANCH   3  10
HETATM   10  O11 UNL     1     -34.846   6.137   6.106  1.00 20.00    -0.281 OA
HETATM   11  C6  UNL     1     -33.939   6.823   6.965  1.00 20.00     0.238 C 
ENDBRANCH   3  10
TORSDOF 3
