REMARK  1 active torsions:
REMARK  status: ('A' for Active; 'I' for Inactive)
REMARK    1  A    between atoms: C7_7  and  N9_9 
ROOT
HETATM    1  C1  UNL     1     -32.638   8.293   2.020  1.00 20.00     0.089 C 
HETATM    2  C7  UNL     1     -32.777   6.862   2.287  1.00 20.00     0.396 C 
HETATM    3  N8  UNL     1     -32.526   9.427   1.805  1.00 20.00    -0.195 NA
ENDROOT
BRANCH   2   4
HETATM    4  N9  UNL     1     -33.439   6.634   3.572  1.00 20.00     0.107 N 
HETATM    5  C2  UNL     1     -32.493   6.786   4.679  1.00 20.00     0.284 C 
HETATM    6  C3  UNL     1     -33.218   6.904   6.019  1.00 20.00     0.104 C 
HETATM    7  S10 UNL     1     -34.354   5.532   6.380  1.00 20.00    -0.165 SA
HETATM    8  C4  UNL     1     -34.083   4.540   4.885  1.00 20.00     0.109 C 
HETATM    9  C5  UNL     1     -34.171   5.350   3.578  1.00 20.00     0.229 C 
HETATM   10  C6  UNL     1     -35.634   5.636   3.210  1.00 20.00     0.043 C 
ENDBRANCH   2   4
TORSDOF 1
