REMARK  1 active torsions:
REMARK  status: ('A' for Active; 'I' for Inactive)
REMARK    1  A    between atoms: C4_4  and  S9_9 
ROOT
HETATM    1  C1  UNL     1     -33.598   5.641   2.882  1.00 20.00     0.041 C 
HETATM    2  C2  UNL     1     -33.188   6.461   5.215  1.00 20.00     0.052 C 
HETATM    3  C3  UNL     1     -34.959   5.094   3.305  1.00 20.00     0.170 C 
HETATM    4  C4  UNL     1     -33.213   6.844   3.731  1.00 20.00     0.049 C 
HETATM    5  C5  UNL     1     -34.362   5.531   5.609  1.00 20.00     0.054 C 
HETATM    6  C6  UNL     1     -35.039   6.065   6.880  1.00 20.00     0.045 C 
HETATM    7  C7  UNL     1     -33.882   4.098   5.890  1.00 20.00     0.045 C 
HETATM    8  O8  UNL     1     -35.375   5.534   4.596  1.00 20.00    -0.381 OA
ENDROOT
BRANCH   4   9
HETATM    9  S9  UNL     1     -31.595   7.507   3.217  1.00 20.00    -0.177 SA
HETATM   10  H23 UNL     1     -31.564   8.497   4.117  1.00 20.00     0.102 HD
ENDBRANCH   4   9
TORSDOF 1
