REMARK  3 active torsions:
REMARK  status: ('A' for Active; 'I' for Inactive)
REMARK    1  A    between atoms: C4_4  and  N8_8 
REMARK    2  A    between atoms: C6_6  and  C7_7 
REMARK    3  A    between atoms: C6_6  and  N8_8 
ROOT
HETATM    1  C1  UNL     1     -33.592   5.917   5.582  1.00 20.00     0.064 C 
HETATM    2  C2  UNL     1     -34.632   4.819   5.594  1.00 20.00     0.170 C 
HETATM    3  C3  UNL     1     -34.646   5.800   3.481  1.00 20.00     0.203 C 
HETATM    4  C4  UNL     1     -33.283   6.033   4.107  1.00 20.00     0.248 C 
HETATM    5  O9  UNL     1     -35.378   4.949   4.376  1.00 20.00    -0.389 OA
ENDROOT
BRANCH   4   6
HETATM    6  N8  UNL     1     -32.701   7.292   3.745  1.00 20.00     0.092 N 
HETATM    7  C5  UNL     1     -31.443   7.496   4.462  1.00 20.00     0.310 C 
BRANCH   6   8
HETATM    8  C6  UNL     1     -32.484   7.357   2.301  1.00 20.00     0.287 C 
BRANCH   8   9
HETATM    9  C7  UNL     1     -32.416   8.784   1.785  1.00 20.00     0.144 C 
HETATM   10 CL10 UNL     1     -32.157   8.825   0.023  1.00 20.00    -0.129 Cl
ENDBRANCH   8   9
ENDBRANCH   6   8
ENDBRANCH   4   6
TORSDOF 3
