REMARK  1 active torsions:
REMARK  status: ('A' for Active; 'I' for Inactive)
REMARK    1  A    between atoms: C5_5  and  C8_8 
ROOT
HETATM    1  C1  UNL     1     -34.674   4.413   4.416  1.00 20.00     0.046 C 
HETATM    2  C2  UNL     1     -33.110   6.183   5.243  1.00 20.00     0.057 C 
HETATM    3  C3  UNL     1     -34.710   5.143   3.082  1.00 20.00     0.170 C 
HETATM    4  C4  UNL     1     -34.385   5.395   5.544  1.00 20.00     0.087 C 
HETATM    5  C5  UNL     1     -33.141   6.825   3.840  1.00 20.00     0.058 C 
HETATM    6  C6  UNL     1     -34.067   8.023   3.779  1.00 20.00     0.046 C 
HETATM    7  O9  UNL     1     -33.498   5.855   2.840  1.00 20.00    -0.380 OA
HETATM    8 CL10 UNL     1     -34.219   4.523   7.093  1.00 20.00    -0.125 Cl
ENDROOT
BRANCH   5   9
HETATM    9  C8  UNL     1     -31.720   7.289   3.476  1.00 20.00     0.033 C 
HETATM   10  C7  UNL     1     -31.684   7.921   2.126  1.00 20.00     0.008 C 
ENDBRANCH   5   9
TORSDOF 1
