REMARK  0 active torsions:
REMARK  status: ('A' for Active; 'I' for Inactive)
ROOT
HETATM    1  C1  UNL     1     -32.458   7.012   2.521  1.00 20.00     0.088 C 
HETATM    2  C2  UNL     1     -34.160   5.700   3.609  1.00 20.00    -0.066 C 
HETATM    3  C3  UNL     1     -33.247   5.841   2.638  1.00 20.00     0.096 C 
HETATM    4  C4  UNL     1     -35.014   4.473   3.765  1.00 20.00     0.061 C 
HETATM    5  C5  UNL     1     -34.408   6.742   4.664  1.00 20.00     0.066 C 
HETATM    6  C6  UNL     1     -34.892   3.945   5.190  1.00 20.00     0.172 C 
HETATM    7  C7  UNL     1     -34.344   6.120   6.065  1.00 20.00     0.121 C 
HETATM    8  C8  UNL     1     -32.921   5.815   6.530  1.00 20.00     0.040 C 
HETATM    9  N9  UNL     1     -31.809   7.969   2.420  1.00 20.00    -0.192 NA
HETATM   10  O10 UNL     1     -35.189   4.962   6.152  1.00 20.00    -0.386 OA
ENDROOT
TORSDOF 0
