REMARK  1 active torsions:
REMARK  status: ('A' for Active; 'I' for Inactive)
REMARK    1  A    between atoms: C6_6  and  C8_8 
ROOT
HETATM    1  C3  UNL     1     -34.306   4.883   4.747  1.00 20.00     0.046 C 
HETATM    2  C4  UNL     1     -34.147   7.369   4.248  1.00 20.00     0.058 C 
HETATM    3  C5  UNL     1     -34.453   4.894   3.235  1.00 20.00     0.170 C 
HETATM    4  C7  UNL     1     -34.449   6.300   5.302  1.00 20.00     0.087 C 
HETATM    5  C8  UNL     1     -33.130   6.933   3.166  1.00 20.00     0.062 C 
HETATM    6  C9  UNL     1     -31.698   6.907   3.721  1.00 20.00     0.046 C 
HETATM    7  O10 UNL     1     -33.388   5.623   2.632  1.00 20.00    -0.380 OA
HETATM    8 CL11 UNL     1     -33.429   6.504   6.757  1.00 20.00    -0.125 Cl
ENDROOT
BRANCH   5   9
HETATM    9  C6  UNL     1     -33.190   7.907   2.005  1.00 20.00     0.020 A 
HETATM   10  C1  UNL     1     -32.005   8.774   1.682  1.00 20.00     0.008 A 
HETATM   11  C2  UNL     1     -32.388   7.650   0.760  1.00 20.00     0.008 A 
ENDBRANCH   5   9
TORSDOF 1
