REMARK  1 active torsions:
REMARK  status: ('A' for Active; 'I' for Inactive)
REMARK    1  A    between atoms: C4_4  and  S9_9 
ROOT
HETATM    1  C1  UNL     1     -34.174   5.274   2.295  1.00 20.00     0.041 C 
HETATM    2  C2  UNL     1     -32.841   5.507   4.404  1.00 20.00     0.052 C 
HETATM    3  C3  UNL     1     -35.450   5.639   3.049  1.00 20.00     0.170 C 
HETATM    4  C4  UNL     1     -32.917   5.871   2.917  1.00 20.00     0.049 C 
HETATM    5  C5  UNL     1     -34.213   5.502   5.125  1.00 20.00     0.054 C 
HETATM    6  C6  UNL     1     -34.106   6.292   6.437  1.00 20.00     0.045 C 
HETATM    7  C7  UNL     1     -34.670   4.074   5.463  1.00 20.00     0.045 C 
HETATM    8  O8  UNL     1     -35.212   6.173   4.349  1.00 20.00    -0.381 OA
ENDROOT
BRANCH   4   9
HETATM    9  S9  UNL     1     -32.861   7.687   2.678  1.00 20.00    -0.177 SA
HETATM   10  H23 UNL     1     -31.695   7.869   3.310  1.00 20.00     0.102 HD
ENDBRANCH   4   9
TORSDOF 1
