REMARK  1 active torsions:
REMARK  status: ('A' for Active; 'I' for Inactive)
REMARK    1  A    between atoms: C5_5  and  C7_7 
ROOT
HETATM    1  C1  UNL     1     -35.040   4.586   4.014  1.00 20.00     0.046 C 
HETATM    2  C2  UNL     1     -33.648   6.450   4.956  1.00 20.00     0.052 C 
HETATM    3  C3  UNL     1     -34.730   5.146   2.630  1.00 20.00     0.169 C 
HETATM    4  C4  UNL     1     -34.974   5.698   5.058  1.00 20.00     0.086 C 
HETATM    5  C5  UNL     1     -33.417   6.918   3.515  1.00 20.00     0.122 C 
HETATM    6  O8  UNL     1     -33.462   5.801   2.620  1.00 20.00    -0.386 OA
HETATM    7 CL9  UNL     1     -35.177   5.021   6.696  1.00 20.00    -0.125 Cl
ENDROOT
BRANCH   5   8
HETATM    8  C7  UNL     1     -32.055   7.580   3.365  1.00 20.00     0.027 C 
HETATM    9  C6  UNL     1     -31.797   8.010   1.957  1.00 20.00     0.007 C 
ENDBRANCH   5   8
TORSDOF 1
