REMARK  2 active torsions:
REMARK  status: ('A' for Active; 'I' for Inactive)
REMARK    1  A    between atoms: C6_6  and  C8_8 
REMARK    2  A    between atoms: C7_7  and  O11_11 
ROOT
HETATM    1  C3  UNL     1     -34.843   4.714   4.789  1.00 20.00     0.058 C 
HETATM    2  C4  UNL     1     -33.319   6.691   4.831  1.00 20.00     0.069 C 
HETATM    3  C5  UNL     1     -35.130   5.032   3.332  1.00 20.00     0.171 C 
HETATM    4  C7  UNL     1     -34.458   5.976   5.550  1.00 20.00     0.123 C 
HETATM    5  C8  UNL     1     -33.613   6.921   3.334  1.00 20.00     0.063 C 
HETATM    6  C9  UNL     1     -34.674   8.015   3.123  1.00 20.00     0.046 C 
HETATM    7  O10 UNL     1     -34.028   5.693   2.714  1.00 20.00    -0.380 OA
ENDROOT
BRANCH   5   8
HETATM    8  C6  UNL     1     -32.334   7.347   2.637  1.00 20.00     0.020 A 
HETATM    9  C1  UNL     1     -32.308   7.522   1.144  1.00 20.00     0.008 A 
HETATM   10  C2  UNL     1     -32.219   8.723   2.043  1.00 20.00     0.008 A 
ENDBRANCH   5   8
BRANCH   4  11
HETATM   11  O11 UNL     1     -34.033   5.637   6.866  1.00 20.00    -0.395 OA
HETATM   12  H27 UNL     1     -33.800   6.470   7.306  1.00 20.00     0.210 HD
ENDBRANCH   4  11
TORSDOF 2
