REMARK  0 active torsions:
REMARK  status: ('A' for Active; 'I' for Inactive)
ROOT
HETATM    1  C1  UNL     1     -33.613   6.209   2.805  1.00 20.00     0.046 C 
HETATM    2  C2  UNL     1     -33.203   6.661   5.233  1.00 20.00     0.057 C 
HETATM    3  C3  UNL     1     -34.527   5.068   3.229  1.00 20.00     0.170 C 
HETATM    4  C4  UNL     1     -32.548   6.457   3.867  1.00 20.00     0.087 C 
HETATM    5  C5  UNL     1     -34.180   5.520   5.579  1.00 20.00     0.055 C 
HETATM    6  C6  UNL     1     -35.023   5.931   6.795  1.00 20.00     0.045 C 
HETATM    7  C7  UNL     1     -33.448   4.214   5.921  1.00 20.00     0.045 C 
HETATM    8  O8  UNL     1     -35.112   5.315   4.506  1.00 20.00    -0.381 OA
HETATM    9 CL9  UNL     1     -31.568   7.886   3.434  1.00 20.00    -0.125 Cl
ENDROOT
TORSDOF 0
