REMARK  2 active torsions:
REMARK  status: ('A' for Active; 'I' for Inactive)
REMARK    1  A    between atoms: C4_4  and  S10_10 
REMARK    2  A    between atoms: C5_5  and  C8_8 
ROOT
HETATM    1  C1  UNL     1     -34.468   4.612   6.429  1.00 20.00     0.041 C 
HETATM    2  C2  UNL     1     -33.963   4.305   3.994  1.00 20.00     0.052 C 
HETATM    3  C3  UNL     1     -34.806   6.064   6.117  1.00 20.00     0.170 C 
HETATM    4  C4  UNL     1     -34.712   3.736   5.202  1.00 20.00     0.049 C 
HETATM    5  C5  UNL     1     -34.277   5.800   3.773  1.00 20.00     0.058 C 
HETATM    6  C6  UNL     1     -35.697   6.020   3.229  1.00 20.00     0.046 C 
HETATM    7  O9  UNL     1     -34.077   6.539   4.988  1.00 20.00    -0.381 OA
ENDROOT
BRANCH   5   8
HETATM    8  C8  UNL     1     -33.279   6.379   2.760  1.00 20.00     0.033 C 
HETATM    9  C7  UNL     1     -31.876   6.253   3.247  1.00 20.00     0.008 C 
ENDBRANCH   5   8
BRANCH   4  10
HETATM   10  S10 UNL     1     -34.173   2.024   5.528  1.00 20.00    -0.177 SA
HETATM   11  H26 UNL     1     -34.507   1.547   4.322  1.00 20.00     0.102 HD
ENDBRANCH   4  10
TORSDOF 2
