REMARK  1 active torsions:
REMARK  status: ('A' for Active; 'I' for Inactive)
REMARK    1  A    between atoms: C6_6  and  C7_7 
ROOT
HETATM    1  C3  UNL     1     -35.487   5.378   5.792  1.00 20.00     0.046 C 
HETATM    2  C4  UNL     1     -34.778   5.625   3.395  1.00 20.00     0.052 C 
HETATM    3  C5  UNL     1     -34.026   5.457   6.238  1.00 20.00     0.169 C 
HETATM    4  C7  UNL     1     -33.557   6.284   4.058  1.00 20.00     0.126 C 
HETATM    5  C8  UNL     1     -35.586   4.789   4.391  1.00 20.00     0.086 C 
HETATM    6  O9  UNL     1     -33.103   5.477   5.146  1.00 20.00    -0.385 OA
HETATM    7 CL10 UNL     1     -37.287   4.668   3.873  1.00 20.00    -0.125 Cl
ENDROOT
BRANCH   4   8
HETATM    8  C6  UNL     1     -32.429   6.470   3.088  1.00 20.00     0.015 A 
HETATM    9  C1  UNL     1     -32.427   7.641   2.144  1.00 20.00     0.007 A 
HETATM   10  C2  UNL     1     -31.443   7.588   3.279  1.00 20.00     0.007 A 
ENDBRANCH   4   8
TORSDOF 1
