REMARK  0 active torsions:
REMARK  status: ('A' for Active; 'I' for Inactive)
ROOT
HETATM    1  C1  UNL     1     -35.027   5.773   6.535  1.00 20.00     0.000 C 
HETATM    2  C2  UNL     1     -34.858   4.487   5.740  1.00 20.00     0.000 C 
HETATM    3  C3  UNL     1     -33.750   6.576   6.749  1.00 20.00     0.003 C 
HETATM    4  C4  UNL     1     -34.903   4.721   4.234  1.00 20.00     0.003 C 
HETATM    5  C5  UNL     1     -32.706   6.582   5.631  1.00 20.00     0.038 C 
HETATM    6  C6  UNL     1     -33.646   5.345   3.630  1.00 20.00     0.038 C 
HETATM    7  C7  UNL     1     -33.682   8.710   2.065  1.00 20.00     0.046 C 
HETATM    8  C8  UNL     1     -32.044   7.295   3.323  1.00 20.00     0.058 C 
HETATM    9  C9  UNL     1     -34.780   8.068   2.900  1.00 20.00     0.170 C 
HETATM   10  C10 UNL     1     -32.495   7.763   1.939  1.00 20.00     0.087 C 
HETATM   11  C11 UNL     1     -33.217   6.732   4.176  1.00 20.00     0.062 C 
HETATM   12  O12 UNL     1     -34.295   7.678   4.182  1.00 20.00    -0.380 OA
HETATM   13 CL13 UNL     1     -31.147   8.576   1.094  1.00 20.00    -0.125 Cl
ENDROOT
TORSDOF 0
