REMARK  2 active torsions:
REMARK  status: ('A' for Active; 'I' for Inactive)
REMARK    1  A    between atoms: C4_4  and  O10_10 
REMARK    2  A    between atoms: C5_5  and  C8_8 
ROOT
HETATM    1  C1  UNL     1     -34.914   4.546   6.061  1.00 20.00     0.058 C 
HETATM    2  C2  UNL     1     -33.915   5.260   3.872  1.00 20.00     0.069 C 
HETATM    3  C3  UNL     1     -34.623   5.946   6.580  1.00 20.00     0.171 C 
HETATM    4  C4  UNL     1     -35.087   4.547   4.547  1.00 20.00     0.123 C 
HETATM    5  C5  UNL     1     -33.543   6.613   4.521  1.00 20.00     0.059 C 
HETATM    6  C6  UNL     1     -34.480   7.735   4.121  1.00 20.00     0.046 C 
HETATM    7  O9  UNL     1     -33.471   6.502   5.952  1.00 20.00    -0.380 OA
ENDROOT
BRANCH   5   8
HETATM    8  C8  UNL     1     -32.121   6.996   4.068  1.00 20.00     0.033 C 
HETATM    9  C7  UNL     1     -32.040   7.129   2.586  1.00 20.00     0.008 C 
ENDBRANCH   5   8
BRANCH   4  10
HETATM   10  O10 UNL     1     -36.307   5.186   4.190  1.00 20.00    -0.395 OA
HETATM   11  H26 UNL     1     -37.020   4.680   4.613  1.00 20.00     0.210 HD
ENDBRANCH   4  10
TORSDOF 2
