REMARK  2 active torsions:
REMARK  status: ('A' for Active; 'I' for Inactive)
REMARK    1  A    between atoms: C5_5  and  C8_8 
REMARK    2  A    between atoms: C5_5  and  O10_10 
ROOT
HETATM    1  C1  UNL     1     -34.099   5.397   3.135  1.00 20.00     0.064 C 
HETATM    2  C2  UNL     1     -32.852   5.311   5.313  1.00 20.00     0.069 C 
HETATM    3  C3  UNL     1     -35.311   4.854   3.884  1.00 20.00     0.171 C 
HETATM    4  C4  UNL     1     -34.097   4.675   5.951  1.00 20.00     0.120 C 
HETATM    5  C5  UNL     1     -33.162   6.163   4.074  1.00 20.00     0.062 C 
HETATM    6  C6  UNL     1     -34.917   5.629   6.816  1.00 20.00     0.039 C 
HETATM    7  O9  UNL     1     -34.912   4.025   4.972  1.00 20.00    -0.386 OA
ENDROOT
BRANCH   5   8
HETATM    8  C8  UNL     1     -31.875   6.558   3.346  1.00 20.00     0.033 C 
HETATM    9  C7  UNL     1     -32.157   7.431   2.170  1.00 20.00     0.008 C 
ENDBRANCH   5   8
BRANCH   5  10
HETATM   10  O10 UNL     1     -33.815   7.371   4.469  1.00 20.00    -0.390 OA
HETATM   11  H26 UNL     1     -33.201   7.831   5.059  1.00 20.00     0.210 HD
ENDBRANCH   5  10
TORSDOF 2
