REMARK  0 active torsions:
REMARK  status: ('A' for Active; 'I' for Inactive)
ROOT
HETATM    1  C1  UNL     1     -32.595   8.436   2.260  1.00 20.00     0.085 C 
HETATM    2  C2  UNL     1     -32.097   6.044   2.592  1.00 20.00     0.067 C 
HETATM    3  C3  UNL     1     -34.107   7.093   3.682  1.00 20.00     0.078 C 
HETATM    4  C4  UNL     1     -32.359   4.816   3.452  1.00 20.00     0.171 C 
HETATM    5  C5  UNL     1     -32.656   7.323   3.225  1.00 20.00     0.130 C 
HETATM    6  C6  UNL     1     -34.372   5.750   4.404  1.00 20.00     0.056 C 
HETATM    7  C7  UNL     1     -35.884   5.462   4.355  1.00 20.00     0.045 C 
HETATM    8  C8  UNL     1     -33.957   5.752   5.882  1.00 20.00     0.045 C 
HETATM    9  N9  UNL     1     -32.547   9.312   1.501  1.00 20.00    -0.195 NA
HETATM   10  O10 UNL     1     -33.752   4.660   3.708  1.00 20.00    -0.381 OA
HETATM   11 CL11 UNL     1     -31.622   7.836   4.599  1.00 20.00    -0.103 Cl
ENDROOT
TORSDOF 0
