REMARK  1 active torsions:
REMARK  status: ('A' for Active; 'I' for Inactive)
REMARK    1  A    between atoms: C5_5  and  C9_9 
ROOT
HETATM    1  C1  UNL     1     -35.324   4.531   6.374  1.00 20.00     0.046 C 
HETATM    2  C2  UNL     1     -34.613   4.243   3.980  1.00 20.00     0.058 C 
HETATM    3  C3  UNL     1     -34.932   5.994   6.242  1.00 20.00     0.170 C 
HETATM    4  C4  UNL     1     -35.681   3.914   5.026  1.00 20.00     0.087 C 
HETATM    5  C5  UNL     1     -34.096   5.705   3.989  1.00 20.00     0.061 C 
HETATM    6  C6  UNL     1     -35.042   6.681   3.268  1.00 20.00     0.046 C 
HETATM    7  O10 UNL     1     -33.850   6.154   5.329  1.00 20.00    -0.380 OA
HETATM    8 CL11 UNL     1     -37.304   4.441   4.495  1.00 20.00    -0.125 Cl
ENDROOT
BRANCH   5   9
HETATM    9  C9  UNL     1     -32.754   5.744   3.273  1.00 20.00     0.012 C 
HETATM   10  C7  UNL     1     -32.902   5.232   1.846  1.00 20.00     0.012 C 
HETATM   11  C8  UNL     1     -32.189   7.159   3.288  1.00 20.00     0.012 C 
ENDBRANCH   5   9
TORSDOF 1
