REMARK  2 active torsions:
REMARK  status: ('A' for Active; 'I' for Inactive)
REMARK    1  A    between atoms: C5_5  and  C8_8 
REMARK    2  A    between atoms: C8_8  and  C9_9 
ROOT
HETATM    1  C1  UNL     1     -35.298   5.343   4.216  1.00 20.00     0.046 C 
HETATM    2  C2  UNL     1     -33.353   6.857   4.659  1.00 20.00     0.057 C 
HETATM    3  C3  UNL     1     -34.775   5.180   2.795  1.00 20.00     0.170 C 
HETATM    4  C4  UNL     1     -34.150   5.656   5.170  1.00 20.00     0.087 C 
HETATM    5  C5  UNL     1     -32.917   6.677   3.191  1.00 20.00     0.058 C 
HETATM    6  C6  UNL     1     -31.796   5.637   3.042  1.00 20.00     0.046 C 
HETATM    7  O10 UNL     1     -34.045   6.330   2.372  1.00 20.00    -0.380 OA
HETATM    8 CL11 UNL     1     -34.782   5.988   6.806  1.00 20.00    -0.125 Cl
ENDROOT
BRANCH   5   9
HETATM    9  C8  UNL     1     -32.403   8.018   2.650  1.00 20.00     0.037 C 
BRANCH   9  10
HETATM   10  C9  UNL     1     -32.389   8.023   1.129  1.00 20.00    -0.002 C 
HETATM   11  C7  UNL     1     -31.902   9.360   0.593  1.00 20.00     0.005 C 
ENDBRANCH   9  10
ENDBRANCH   5   9
TORSDOF 2
