REMARK  2 active torsions:
REMARK  status: ('A' for Active; 'I' for Inactive)
REMARK    1  A    between atoms: C5_5  and  C8_8 
REMARK    2  A    between atoms: C8_8  and  C9_9 
ROOT
HETATM    1  C1  UNL     1     -34.949   5.522   4.847  1.00 20.00     0.046 C 
HETATM    2  C2  UNL     1     -32.743   6.436   4.093  1.00 20.00     0.052 C 
HETATM    3  C3  UNL     1     -35.318   5.353   3.380  1.00 20.00     0.169 C 
HETATM    4  C4  UNL     1     -33.945   6.659   5.008  1.00 20.00     0.086 C 
HETATM    5  C5  UNL     1     -33.168   6.161   2.646  1.00 20.00     0.123 C 
HETATM    6  O10 UNL     1     -34.164   5.132   2.572  1.00 20.00    -0.386 OA
HETATM    7 CL11 UNL     1     -33.414   6.776   6.708  1.00 20.00    -0.125 Cl
ENDROOT
BRANCH   5   8
HETATM    8  C8  UNL     1     -33.597   7.394   1.901  1.00 20.00     0.035 C 
BRANCH   8   9
HETATM    9  C9  UNL     1     -32.524   8.496   1.867  1.00 20.00    -0.020 C 
HETATM   10  C6  UNL     1     -31.233   8.031   1.191  1.00 20.00     0.009 C 
HETATM   11  C7  UNL     1     -33.071   9.729   1.144  1.00 20.00     0.009 C 
ENDBRANCH   8   9
ENDBRANCH   5   8
TORSDOF 2
