REMARK  0 active torsions:
REMARK  status: ('A' for Active; 'I' for Inactive)
ROOT
HETATM    1  C1  UNL     1     -31.705   7.675   3.128  1.00 20.00     0.088 C 
HETATM    2  C2  UNL     1     -33.463   6.033   3.246  1.00 20.00    -0.065 C 
HETATM    3  C3  UNL     1     -32.851   7.032   2.596  1.00 20.00     0.096 C 
HETATM    4  C4  UNL     1     -34.679   5.327   2.716  1.00 20.00     0.061 C 
HETATM    5  C5  UNL     1     -33.013   5.523   4.589  1.00 20.00     0.072 C 
HETATM    6  C6  UNL     1     -35.777   5.344   3.773  1.00 20.00     0.173 C 
HETATM    7  C7  UNL     1     -34.188   5.504   5.589  1.00 20.00     0.057 C 
HETATM    8  C8  UNL     1     -34.585   6.916   6.048  1.00 20.00     0.046 C 
HETATM    9  C9  UNL     1     -33.782   4.691   6.826  1.00 20.00     0.046 C 
HETATM   10  N10 UNL     1     -30.766   8.206   3.557  1.00 20.00    -0.192 NA
HETATM   11  O11 UNL     1     -35.316   4.812   5.018  1.00 20.00    -0.380 OA
ENDROOT
TORSDOF 0
