REMARK  0 active torsions:
REMARK  status: ('A' for Active; 'I' for Inactive)
ROOT
HETATM    1  C1  UNL     1     -33.841   5.525   2.548  1.00 20.00     0.046 C 
HETATM    2  C2  UNL     1     -33.149   6.508   4.743  1.00 20.00     0.057 C 
HETATM    3  C3  UNL     1     -35.131   5.005   3.178  1.00 20.00     0.170 C 
HETATM    4  C4  UNL     1     -33.364   6.783   3.254  1.00 20.00     0.087 C 
HETATM    5  C5  UNL     1     -34.275   5.638   5.353  1.00 20.00     0.055 C 
HETATM    6  C6  UNL     1     -33.772   4.230   5.710  1.00 20.00     0.045 C 
HETATM    7  C7  UNL     1     -34.802   6.298   6.635  1.00 20.00     0.045 C 
HETATM    8  O8  UNL     1     -35.398   5.559   4.465  1.00 20.00    -0.381 OA
HETATM    9 CL9  UNL     1     -31.860   7.389   2.511  1.00 20.00    -0.125 Cl
ENDROOT
TORSDOF 0
