REMARK  3 active torsions:
REMARK  status: ('A' for Active; 'I' for Inactive)
REMARK    1  A    between atoms: C1_1  and  C7_7 
REMARK    2  A    between atoms: C1_1  and  C9_9 
REMARK    3  A    between atoms: C8_8  and  C9_9 
ROOT
HETATM    1  C1  UNL     1     -33.214   6.821   3.260  1.00 20.00     0.141 C 
HETATM    2  O10 UNL     1     -32.091   6.319   3.237  1.00 20.00    -0.297 OA
ENDROOT
BRANCH   1   3
HETATM    3  C7  UNL     1     -34.361   6.108   3.892  1.00 20.00     0.116 C 
HETATM    4  C3  UNL     1     -34.584   4.725   3.299  1.00 20.00     0.024 C 
HETATM    5  C2  UNL     1     -35.275   3.899   4.374  1.00 20.00     0.012 C 
HETATM    6  C6  UNL     1     -34.459   4.075   5.643  1.00 20.00     0.075 C 
HETATM    7  S11 UNL     1     -33.968   5.821   5.641  1.00 20.00    -0.157 SA
ENDBRANCH   1   3
BRANCH   1   8
HETATM    8  C9  UNL     1     -33.522   8.180   2.660  1.00 20.00     0.084 C 
BRANCH   8   9
HETATM    9  C8  UNL     1     -32.295   8.847   2.065  1.00 20.00    -0.007 A 
HETATM   10  C4  UNL     1     -31.927   8.613   0.626  1.00 20.00     0.005 A 
HETATM   11  C5  UNL     1     -32.448   9.954   1.059  1.00 20.00     0.005 A 
ENDBRANCH   8   9
ENDBRANCH   1   8
TORSDOF 3
