REMARK  0 active torsions:
REMARK  status: ('A' for Active; 'I' for Inactive)
ROOT
HETATM    1  C1  UNL     1     -35.361   5.709   4.234  1.00 20.00     0.066 C 
HETATM    2  C2  UNL     1     -33.208   6.610   5.217  1.00 20.00     0.071 C 
HETATM    3  C3  UNL     1     -34.544   5.322   3.006  1.00 20.00     0.171 C 
HETATM    4  C4  UNL     1     -35.009   5.606   6.817  1.00 20.00     0.207 A 
HETATM    5  C5  UNL     1     -32.521   6.160   3.923  1.00 20.00     0.120 C 
HETATM    6  C6  UNL     1     -34.460   5.810   5.427  1.00 20.00     0.086 A 
HETATM    7  C7  UNL     1     -31.340   7.060   3.587  1.00 20.00     0.039 C 
HETATM    8  O8  UNL     1     -33.448   6.225   2.828  1.00 20.00    -0.386 OA
HETATM    9  O9  UNL     1     -34.268   4.579   6.136  1.00 20.00    -0.375 OA
ENDROOT
TORSDOF 0
