REMARK  2 active torsions:
REMARK  status: ('A' for Active; 'I' for Inactive)
REMARK    1  A    between atoms: C3_3  and  C7_7 
REMARK    2  A    between atoms: C3_3  and  C10_10 
ROOT
HETATM    1  C1  UNL     1     -31.492   8.492   0.694  1.00 20.00     0.012 C 
HETATM    2  C2  UNL     1     -31.706   7.986   1.762  1.00 20.00    -0.110 C 
HETATM    3  C10 UNL     1     -31.962   7.373   3.070  1.00 20.00     0.171 C 
ENDROOT
BRANCH   3   4
HETATM    4  C3  UNL     1     -32.908   6.192   2.983  1.00 20.00     0.144 C 
HETATM    5  O11 UNL     1     -33.381   5.785   1.922  1.00 20.00    -0.297 OA
BRANCH   4   6
HETATM    6  C7  UNL     1     -33.249   5.526   4.281  1.00 20.00     0.087 C 
HETATM    7  C6  UNL     1     -33.628   4.057   4.060  1.00 20.00     0.046 C 
HETATM    8  C8  UNL     1     -35.057   4.016   4.602  1.00 20.00     0.122 C 
HETATM    9  C4  UNL     1     -35.067   4.160   6.124  1.00 20.00     0.034 C 
HETATM   10  O12 UNL     1     -35.549   5.312   4.193  1.00 20.00    -0.380 OA
HETATM   11  C5  UNL     1     -34.723   5.640   6.309  1.00 20.00     0.035 C 
HETATM   12  C9  UNL     1     -34.541   6.107   4.866  1.00 20.00     0.133 C 
ENDBRANCH   4   6
ENDBRANCH   3   4
TORSDOF 2
