REMARK  1 active torsions:
REMARK  status: ('A' for Active; 'I' for Inactive)
REMARK    1  A    between atoms: C4_4  and  C5_5 
ROOT
HETATM    1  C1  UNL     1     -35.045   4.516   3.763  1.00 20.00     0.011 C 
HETATM    2  C2  UNL     1     -34.954   6.016   3.514  1.00 20.00     0.016 C 
HETATM    3  C3  UNL     1     -35.146   4.333   5.267  1.00 20.00     0.074 C 
HETATM    4  C4  UNL     1     -33.880   6.571   4.447  1.00 20.00     0.057 C 
HETATM    5  S6  UNL     1     -34.051   5.593   5.977  1.00 20.00    -0.164 SA
ENDROOT
BRANCH   4   6
HETATM    6  C5  UNL     1     -32.470   6.418   3.888  1.00 20.00     0.100 C 
HETATM    7 BR7  UNL     1     -32.344   7.327   2.176  1.00 20.00    -0.095 Br
ENDBRANCH   4   6
TORSDOF 1
