REMARK  1 active torsions:
REMARK  status: ('A' for Active; 'I' for Inactive)
REMARK    1  A    between atoms: C4_4  and  C5_5 
ROOT
HETATM    1  C1  UNL     1     -34.135   6.111   5.995  1.00 20.00     0.016 C 
HETATM    2  C2  UNL     1     -34.090   4.596   6.120  1.00 20.00     0.074 C 
HETATM    3  C3  UNL     1     -35.127   5.552   3.831  1.00 20.00     0.079 C 
HETATM    4  C4  UNL     1     -34.103   6.462   4.506  1.00 20.00     0.005 C 
HETATM    5  S6  UNL     1     -35.076   3.974   4.733  1.00 20.00    -0.169 SA
ENDROOT
BRANCH   4   6
HETATM    6  C5  UNL     1     -32.725   6.332   3.907  1.00 20.00     0.090 C 
HETATM    7 BR7  UNL     1     -32.653   7.324   2.243  1.00 20.00    -0.096 Br
ENDBRANCH   4   6
TORSDOF 1
