REMARK  0 active torsions:
REMARK  status: ('A' for Active; 'I' for Inactive)
ROOT
HETATM    1  C1  UNL     1     -33.966   6.793   5.366  1.00 20.00     0.066 C 
HETATM    2  C2  UNL     1     -34.923   5.138   3.709  1.00 20.00     0.071 C 
HETATM    3  C3  UNL     1     -34.276   5.776   6.456  1.00 20.00     0.171 C 
HETATM    4  C4  UNL     1     -32.998   6.719   2.951  1.00 20.00     0.207 A 
HETATM    5  C5  UNL     1     -35.248   4.223   4.896  1.00 20.00     0.120 C 
HETATM    6  C6  UNL     1     -33.823   6.096   4.050  1.00 20.00     0.086 A 
HETATM    7  C7  UNL     1     -34.248   3.082   5.072  1.00 20.00     0.039 C 
HETATM    8  O8  UNL     1     -35.410   4.979   6.105  1.00 20.00    -0.386 OA
HETATM    9  O9  UNL     1     -32.501   5.634   3.751  1.00 20.00    -0.375 OA
ENDROOT
TORSDOF 0
