REMARK  1 active torsions:
REMARK  status: ('A' for Active; 'I' for Inactive)
REMARK    1  A    between atoms: C4_4  and  C5_5 
ROOT
HETATM    1  C1  UNL     1     -35.367   5.349   4.075  1.00 20.00     0.016 C 
HETATM    2  C2  UNL     1     -35.136   4.017   4.770  1.00 20.00     0.074 C 
HETATM    3  C3  UNL     1     -34.117   6.180   5.999  1.00 20.00     0.079 C 
HETATM    4  C4  UNL     1     -34.235   6.294   4.480  1.00 20.00     0.009 C 
HETATM    5  S6  UNL     1     -34.475   4.444   6.403  1.00 20.00    -0.169 SA
ENDROOT
BRANCH   4   6
HETATM    6  C5  UNL     1     -32.919   5.977   3.766  1.00 20.00     0.120 C 
HETATM    7 CL7  UNL     1     -31.846   7.389   3.801  1.00 20.00    -0.130 Cl
ENDBRANCH   4   6
TORSDOF 1
