REMARK  1 active torsions:
REMARK  status: ('A' for Active; 'I' for Inactive)
REMARK    1  A    between atoms: C1_1  and  C5_5 
ROOT
HETATM    1  C2  UNL     1     -34.646   4.731   3.959  1.00 20.00     0.022 C 
HETATM    2  C3  UNL     1     -35.064   4.136   5.292  1.00 20.00     0.075 C 
HETATM    3  C4  UNL     1     -33.655   6.421   5.415  1.00 20.00     0.085 C 
HETATM    4  C5  UNL     1     -33.370   5.523   4.220  1.00 20.00     0.057 C 
HETATM    5  S7  UNL     1     -34.709   5.431   6.512  1.00 20.00    -0.168 SA
ENDROOT
BRANCH   4   6
HETATM    6  C1  UNL     1     -32.996   6.346   3.029  1.00 20.00     0.236 C 
HETATM    7  O6  UNL     1     -32.420   7.426   3.108  1.00 20.00    -0.306 OA
ENDBRANCH   4   6
TORSDOF 1
