REMARK  4 active torsions:
REMARK  status: ('A' for Active; 'I' for Inactive)
REMARK    1  A    between atoms: C5_5  and  C7_7 
REMARK    2  A    between atoms: C5_5  and  S9_9 
REMARK    3  A    between atoms: C6_6  and  C7_7 
REMARK    4  A    between atoms: C8_8  and  S9_9 
ROOT
HETATM    1  C5  UNL     1     -34.049   5.239   4.046  1.00 20.00     0.080 C 
ENDROOT
BRANCH   1   2
HETATM    2  C7  UNL     1     -34.848   4.791   5.284  1.00 20.00     0.004 C 
HETATM    3  C1  UNL     1     -35.197   3.302   5.153  1.00 20.00     0.012 C 
BRANCH   2   4
HETATM    4  C6  UNL     1     -34.166   5.083   6.632  1.00 20.00     0.119 C 
HETATM    5 CL10 UNL     1     -33.765   6.801   6.871  1.00 20.00    -0.130 Cl
ENDBRANCH   2   4
ENDBRANCH   1   2
BRANCH   1   6
HETATM    6  S9  UNL     1     -34.012   7.043   3.824  1.00 20.00    -0.160 SA
BRANCH   6   7
HETATM    7  C8  UNL     1     -32.563   7.143   2.749  1.00 20.00    -0.003 C 
HETATM    8  C2  UNL     1     -32.477   5.857   1.921  1.00 20.00     0.026 C 
HETATM    9  C3  UNL     1     -32.727   8.357   1.830  1.00 20.00     0.026 C 
HETATM   10  C4  UNL     1     -31.315   7.301   3.621  1.00 20.00     0.026 C 
ENDBRANCH   6   7
ENDBRANCH   1   6
TORSDOF 4
