REMARK  0 active torsions:
REMARK  status: ('A' for Active; 'I' for Inactive)
ROOT
HETATM    1  C1  UNL     1     -32.992   6.693   3.279  1.00 20.00     0.087 C 
HETATM    2  C2  UNL     1     -34.657   5.984   6.652  1.00 20.00     0.029 C 
HETATM    3  C3  UNL     1     -33.957   6.782   5.554  1.00 20.00     0.045 C 
HETATM    4  C4  UNL     1     -34.062   4.587   6.760  1.00 20.00     0.167 C 
HETATM    5  C5  UNL     1     -33.356   4.573   4.495  1.00 20.00     0.208 C 
HETATM    6  C6  UNL     1     -33.863   5.997   4.238  1.00 20.00     0.146 C 
HETATM    7  N7  UNL     1     -32.305   7.241   2.522  1.00 20.00    -0.195 NA
HETATM    8  O8  UNL     1     -34.123   3.913   5.505  1.00 20.00    -0.388 OA
HETATM    9 CL9  UNL     1     -35.488   5.910   3.468  1.00 20.00    -0.101 Cl
ENDROOT
TORSDOF 0
