REMARK  1 active torsions:
REMARK  status: ('A' for Active; 'I' for Inactive)
REMARK    1  A    between atoms: C1_1  and  C5_5 
ROOT
HETATM    1  C2  UNL     1     -35.323   4.660   4.310  1.00 20.00     0.022 C 
HETATM    2  C3  UNL     1     -34.647   3.737   5.312  1.00 20.00     0.075 C 
HETATM    3  C4  UNL     1     -34.279   6.369   5.728  1.00 20.00     0.085 C 
HETATM    4  C5  UNL     1     -34.551   5.973   4.284  1.00 20.00     0.057 C 
HETATM    5  S7  UNL     1     -34.074   4.816   6.650  1.00 20.00    -0.168 SA
ENDROOT
BRANCH   4   6
HETATM    6  C1  UNL     1     -33.275   5.863   3.499  1.00 20.00     0.236 C 
HETATM    7  O6  UNL     1     -32.270   6.519   3.748  1.00 20.00    -0.306 OA
ENDBRANCH   4   6
TORSDOF 1
