REMARK  0 active torsions:
REMARK  status: ('A' for Active; 'I' for Inactive)
ROOT
HETATM    1  C1  UNL     1     -33.035   7.048   3.670  1.00 20.00     0.087 C 
HETATM    2  C2  UNL     1     -35.223   4.288   5.169  1.00 20.00     0.029 C 
HETATM    3  C3  UNL     1     -34.333   4.998   4.152  1.00 20.00     0.045 C 
HETATM    4  C4  UNL     1     -34.708   4.515   6.583  1.00 20.00     0.167 C 
HETATM    5  C5  UNL     1     -33.667   6.569   6.010  1.00 20.00     0.208 C 
HETATM    6  C6  UNL     1     -34.071   6.462   4.535  1.00 20.00     0.146 C 
HETATM    7  N7  UNL     1     -32.219   7.511   2.988  1.00 20.00    -0.195 NA
HETATM    8  O8  UNL     1     -34.604   5.909   6.864  1.00 20.00    -0.388 OA
HETATM    9 CL9  UNL     1     -35.561   7.435   4.263  1.00 20.00    -0.101 Cl
ENDROOT
TORSDOF 0
