REMARK  0 active torsions:
REMARK  status: ('A' for Active; 'I' for Inactive)
ROOT
HETATM    1  C1  UNL     1     -32.586   7.053   2.598  1.00 20.00     0.088 C 
HETATM    2  C2  UNL     1     -34.190   5.797   3.883  1.00 20.00    -0.046 C 
HETATM    3  C3  UNL     1     -33.537   6.010   2.732  1.00 20.00     0.098 C 
HETATM    4  C4  UNL     1     -35.203   4.698   4.052  1.00 20.00     0.039 C 
HETATM    5  C5  UNL     1     -33.950   6.617   5.120  1.00 20.00     0.202 C 
HETATM    6  C6  UNL     1     -34.895   3.900   5.319  1.00 20.00     0.030 C 
HETATM    7  C7  UNL     1     -34.671   4.829   6.510  1.00 20.00     0.168 C 
HETATM    8  N8  UNL     1     -31.807   7.904   2.480  1.00 20.00    -0.192 NA
HETATM    9  O9  UNL     1     -33.628   5.765   6.223  1.00 20.00    -0.387 OA
ENDROOT
TORSDOF 0
