REMARK  4 active torsions:
REMARK  status: ('A' for Active; 'I' for Inactive)
REMARK    1  A    between atoms: C5_5  and  C7_7 
REMARK    2  A    between atoms: C5_5  and  O9_9 
REMARK    3  A    between atoms: C6_6  and  C7_7 
REMARK    4  A    between atoms: C8_8  and  O9_9 
ROOT
HETATM    1  C5  UNL     1     -33.474   6.861   3.694  1.00 20.00     0.174 C 
ENDROOT
BRANCH   1   2
HETATM    2  C7  UNL     1     -32.295   7.286   2.809  1.00 20.00     0.019 C 
HETATM    3  C1  UNL     1     -30.969   7.022   3.525  1.00 20.00     0.013 C 
BRANCH   2   4
HETATM    4  C6  UNL     1     -32.411   8.737   2.313  1.00 20.00     0.121 C 
HETATM    5 CL10 UNL     1     -31.142   9.197   1.153  1.00 20.00    -0.130 Cl
ENDBRANCH   2   4
ENDBRANCH   1   2
BRANCH   1   6
HETATM    6  O9  UNL     1     -33.412   5.472   3.991  1.00 20.00    -0.381 OA
BRANCH   6   7
HETATM    7  C8  UNL     1     -34.499   5.065   4.811  1.00 20.00     0.050 C 
HETATM    8  C2  UNL     1     -35.803   5.354   4.069  1.00 20.00     0.045 C 
HETATM    9  C3  UNL     1     -34.347   3.566   5.066  1.00 20.00     0.045 C 
HETATM   10  C4  UNL     1     -34.436   5.842   6.125  1.00 20.00     0.045 C 
ENDBRANCH   6   7
ENDBRANCH   1   6
TORSDOF 4
