REMARK  6 active torsions:
REMARK  status: ('A' for Active; 'I' for Inactive)
REMARK    1  A    between atoms: C5_5  and  C8_8 
REMARK    2  A    between atoms: C6_6  and  C9_9 
REMARK    3  A    between atoms: C7_7  and  C10_10 
REMARK    4  A    between atoms: C8_8  and  N11_11 
REMARK    5  A    between atoms: C9_9  and  N11_11 
REMARK    6  A    between atoms: C10_10  and  N11_11 
ROOT
HETATM    1  C1  UNL     1     -32.475   9.978   0.923  1.00 20.00     0.012 C 
HETATM    2  C2  UNL     1     -32.480   9.005   1.626  1.00 20.00    -0.116 C 
HETATM    3  C5  UNL     1     -32.481   7.813   2.489  1.00 20.00     0.123 C 
ENDROOT
BRANCH   3   4
HETATM    4  C8  UNL     1     -33.894   7.301   2.753  1.00 20.00     0.284 C 
BRANCH   4   5
HETATM    5  N11 UNL     1     -33.864   6.095   3.579  1.00 20.00     0.089 N 
BRANCH   5   6
HETATM    6  C9  UNL     1     -35.222   5.612   3.827  1.00 20.00     0.272 C 
BRANCH   6   7
HETATM    7  C6  UNL     1     -35.243   4.353   4.686  1.00 20.00     0.026 C 
HETATM    8  C3  UNL     1     -34.472   3.201   4.059  1.00 20.00     0.007 C 
ENDBRANCH   6   7
ENDBRANCH   5   6
BRANCH   5   9
HETATM    9  C10 UNL     1     -33.176   6.357   4.843  1.00 20.00     0.272 C 
BRANCH   9  10
HETATM   10  C7  UNL     1     -33.854   7.452   5.657  1.00 20.00     0.026 C 
HETATM   11  C4  UNL     1     -33.132   7.746   6.964  1.00 20.00     0.007 C 
ENDBRANCH   9  10
ENDBRANCH   5   9
ENDBRANCH   4   5
ENDBRANCH   3   4
TORSDOF 6
