REMARK  3 active torsions:
REMARK  status: ('A' for Active; 'I' for Inactive)
REMARK    1  A    between atoms: C2_2  and  C5_5 
REMARK    2  A    between atoms: C5_5  and  N7_7 
REMARK    3  A    between atoms: C6_6  and  N7_7 
ROOT
HETATM    1  C1  UNL     1     -35.196   5.818   4.210  1.00 20.00     0.052 A 
HETATM    2  C2  UNL     1     -33.738   5.545   3.963  1.00 20.00     0.055 A 
HETATM    3  C3  UNL     1     -34.351   5.217   5.306  1.00 20.00     0.119 A 
HETATM    4 CL8  UNL     1     -33.998   6.207   6.715  1.00 20.00    -0.101 Cl
HETATM    5 CL9  UNL     1     -34.601   3.516   5.697  1.00 20.00    -0.101 Cl
ENDROOT
BRANCH   2   6
HETATM    6  C5  UNL     1     -32.792   6.680   3.763  1.00 20.00     0.277 C 
BRANCH   6   7
HETATM    7  N7  UNL     1     -32.860   7.180   2.418  1.00 20.00     0.083 N 
HETATM    8  H20 UNL     1     -33.808   7.512   2.209  1.00 20.00     0.315 HD
BRANCH   7   9
HETATM    9  C6  UNL     1     -31.927   8.288   2.204  1.00 20.00     0.265 C 
HETATM   10  C4  UNL     1     -31.980   8.771   0.794  1.00 20.00     0.037 C 
ENDBRANCH   7   9
ENDBRANCH   6   7
ENDBRANCH   2   6
TORSDOF 3
