REMARK  3 active torsions:
REMARK  status: ('A' for Active; 'I' for Inactive)
REMARK    1  A    between atoms: C2_2  and  C5_5 
REMARK    2  A    between atoms: C5_5  and  N7_7 
REMARK    3  A    between atoms: C6_6  and  N7_7 
ROOT
HETATM    1  C1  UNL     1     -33.805   6.017   5.521  1.00 20.00     0.052 A 
HETATM    2  C2  UNL     1     -33.191   5.277   4.364  1.00 20.00     0.055 A 
HETATM    3  C3  UNL     1     -34.572   4.903   4.853  1.00 20.00     0.119 A 
HETATM    4 CL8  UNL     1     -34.745   3.383   5.732  1.00 20.00    -0.101 Cl
HETATM    5 CL9  UNL     1     -35.998   5.327   3.915  1.00 20.00    -0.101 Cl
ENDROOT
BRANCH   2   6
HETATM    6  C5  UNL     1     -32.955   5.980   3.071  1.00 20.00     0.277 C 
BRANCH   6   7
HETATM    7  N7  UNL     1     -31.764   6.781   3.127  1.00 20.00     0.083 N 
HETATM    8  H20 UNL     1     -31.690   7.246   4.039  1.00 20.00     0.315 HD
BRANCH   7   9
HETATM    9  C6  UNL     1     -31.754   7.809   2.085  1.00 20.00     0.265 C 
HETATM   10  C4  UNL     1     -32.897   8.752   2.249  1.00 20.00     0.037 C 
ENDBRANCH   7   9
ENDBRANCH   6   7
ENDBRANCH   2   6
TORSDOF 3
