REMARK  3 active torsions:
REMARK  status: ('A' for Active; 'I' for Inactive)
REMARK    1  A    between atoms: C1_1  and  C3_3 
REMARK       I    between atoms: C1_1  and  N9_9 
REMARK    2  A    between atoms: C7_7  and  C8_8 
REMARK    3  A    between atoms: C8_8  and  N9_9 
ROOT
HETATM    1  C1  UNL     1     -33.351   6.379   3.391  1.00 20.00     0.222 C 
HETATM    2  N9  UNL     1     -32.501   7.450   3.191  1.00 20.00    -0.361 N 
HETATM    3  O10 UNL     1     -33.558   5.458   2.609  1.00 20.00    -0.273 OA
HETATM    4  H25 UNL     1     -32.421   8.147   3.924  1.00 20.00     0.162 HD
ENDROOT
BRANCH   1   5
HETATM    5  C3  UNL     1     -34.043   6.400   4.684  1.00 20.00     0.082 A 
HETATM    6  C2  UNL     1     -33.237   6.506   5.951  1.00 20.00     0.019 A 
HETATM    7  C4  UNL     1     -33.912   5.205   5.608  1.00 20.00    -0.005 A 
HETATM    8  C5  UNL     1     -35.086   4.738   6.397  1.00 20.00     0.011 C 
ENDBRANCH   1   5
BRANCH   2   9
HETATM    9  C8  UNL     1     -31.719   7.624   1.987  1.00 20.00     0.122 C 
BRANCH   9  10
HETATM   10  C7  UNL     1     -32.462   8.425   0.924  1.00 20.00     0.015 C 
HETATM   11  C6  UNL     1     -32.817   9.831   1.387  1.00 20.00     0.006 C 
ENDBRANCH   9  10
ENDBRANCH   2   9
TORSDOF 3
