REMARK  3 active torsions:
REMARK  status: ('A' for Active; 'I' for Inactive)
REMARK    1  A    between atoms: C1_1  and  C7_7 
REMARK       I    between atoms: C1_1  and  N9_9 
REMARK    2  A    between atoms: C4_4  and  C8_8 
REMARK    3  A    between atoms: C8_8  and  N9_9 
ROOT
HETATM    1  C1  UNL     1     -33.833   6.053   4.812  1.00 20.00     0.219 C 
HETATM    2  C6  UNL     1     -33.762   5.372   2.404  1.00 20.00     0.152 C 
HETATM    3  N9  UNL     1     -33.209   6.068   3.560  1.00 20.00    -0.356 N 
HETATM    4  O10 UNL     1     -33.382   6.635   5.803  1.00 20.00    -0.273 OA
ENDROOT
BRANCH   3   5
HETATM    5  C8  UNL     1     -31.958   6.781   3.317  1.00 20.00     0.130 C 
BRANCH   5   6
HETATM    6  C4  UNL     1     -32.214   8.184   2.883  1.00 20.00     0.004 A 
HETATM    7  C2  UNL     1     -31.146   8.962   2.166  1.00 20.00     0.007 A 
HETATM    8  C3  UNL     1     -32.372   8.508   1.424  1.00 20.00     0.007 A 
ENDBRANCH   5   6
ENDBRANCH   3   5
BRANCH   1   9
HETATM    9  C7  UNL     1     -35.131   5.264   4.907  1.00 20.00     0.098 C 
HETATM   10  C5  UNL     1     -34.906   3.806   5.276  1.00 20.00     0.014 C 
ENDBRANCH   1   9
TORSDOF 3
