REMARK  4 active torsions:
REMARK  status: ('A' for Active; 'I' for Inactive)
REMARK    1  A    between atoms: C1_1  and  C7_7 
REMARK    2  A    between atoms: C1_1  and  O10_10 
REMARK    3  A    between atoms: C4_4  and  C7_7 
REMARK    4  A    between atoms: C8_8  and  O10_10 
ROOT
HETATM    1  C1  UNL     1     -33.265   6.680   3.250  1.00 20.00     0.259 C 
HETATM    2  O9  UNL     1     -32.268   6.108   2.830  1.00 20.00    -0.265 OA
ENDROOT
BRANCH   1   3
HETATM    3  C7  UNL     1     -33.560   8.152   3.083  1.00 20.00     0.115 C 
BRANCH   3   4
HETATM    4  C4  UNL     1     -32.453   8.876   2.337  1.00 20.00    -0.005 A 
HETATM    5  C2  UNL     1     -32.494   8.983   0.838  1.00 20.00     0.005 A 
HETATM    6  C3  UNL     1     -32.723  10.204   1.685  1.00 20.00     0.005 A 
ENDBRANCH   3   4
ENDBRANCH   1   3
BRANCH   1   7
HETATM    7  O10 UNL     1     -34.291   6.099   3.941  1.00 20.00    -0.317 OA
BRANCH   7   8
HETATM    8  C8  UNL     1     -33.926   5.480   5.179  1.00 20.00     0.123 C 
HETATM    9  C5  UNL     1     -34.003   6.510   6.296  1.00 20.00     0.040 C 
HETATM   10  C6  UNL     1     -34.845   4.296   5.437  1.00 20.00     0.040 C 
ENDBRANCH   7   8
ENDBRANCH   1   7
TORSDOF 4
