REMARK  2 active torsions:
REMARK  status: ('A' for Active; 'I' for Inactive)
REMARK    1  A    between atoms: C1_1  and  C3_3 
REMARK       I    between atoms: C1_1  and  N9_9 
REMARK    2  A    between atoms: C8_8  and  N9_9 
ROOT
HETATM    1  C1  UNL     1     -34.578   6.179   4.299  1.00 20.00     0.222 C 
HETATM    2  N9  UNL     1     -33.504   6.947   3.895  1.00 20.00    -0.357 N 
HETATM    3  O10 UNL     1     -35.178   5.353   3.621  1.00 20.00    -0.273 OA
HETATM    4  H25 UNL     1     -33.097   7.597   4.562  1.00 20.00     0.162 HD
ENDROOT
BRANCH   1   5
HETATM    5  C3  UNL     1     -34.995   6.416   5.686  1.00 20.00     0.082 A 
HETATM    6  C2  UNL     1     -33.977   6.313   6.793  1.00 20.00     0.019 A 
HETATM    7  C4  UNL     1     -35.065   5.283   6.681  1.00 20.00    -0.005 A 
HETATM    8  C5  UNL     1     -34.728   3.879   6.311  1.00 20.00     0.011 C 
ENDBRANCH   1   5
BRANCH   2   9
HETATM    9  C8  UNL     1     -32.931   6.871   2.571  1.00 20.00     0.076 C 
HETATM   10  C6  UNL     1     -31.847   5.803   2.557  1.00 20.00     0.032 C 
HETATM   11  C7  UNL     1     -32.379   8.238   2.193  1.00 20.00     0.032 C 
ENDBRANCH   2   9
TORSDOF 2
