REMARK  1 active torsions:
REMARK  status: ('A' for Active; 'I' for Inactive)
REMARK       I    between atoms: C1_1  and  N9_9 
REMARK    1  A    between atoms: C6_6  and  N9_9 
ROOT
HETATM    1  C2  UNL     1     -35.478   4.611   5.017  1.00 20.00     0.002 C 
HETATM    2  C3  UNL     1     -34.527   5.266   6.017  1.00 20.00     0.002 C 
HETATM    3  C4  UNL     1     -35.274   5.344   3.694  1.00 20.00     0.031 C 
HETATM    4  C5  UNL     1     -33.793   6.364   5.251  1.00 20.00     0.031 C 
HETATM    5  C6  UNL     1     -33.864   5.940   3.779  1.00 20.00     0.029 C 
HETATM    6  C8  UNL     1     -32.788   4.905   3.434  1.00 20.00     0.038 C 
ENDROOT
BRANCH   5   7
HETATM    7  N9  UNL     1     -33.727   7.081   2.902  1.00 20.00    -0.353 N 
HETATM    8  C1  UNL     1     -32.558   7.801   2.788  1.00 20.00     0.214 C 
HETATM    9  C7  UNL     1     -32.642   8.937   1.823  1.00 20.00     0.117 C 
HETATM   10  O10 UNL     1     -31.508   7.592   3.385  1.00 20.00    -0.274 OA
HETATM   11  H25 UNL     1     -34.525   7.363   2.348  1.00 20.00     0.163 HD
ENDBRANCH   5   7
TORSDOF 1
