REMARK  3 active torsions:
REMARK  status: ('A' for Active; 'I' for Inactive)
REMARK    1  A    between atoms: C5_5  and  S11_11 
REMARK    2  A    between atoms: C8_8  and  C9_9 
REMARK    3  A    between atoms: C8_8  and  S11_11 
ROOT
HETATM    1  C1  UNL     1     -32.459   8.674   0.445  1.00 20.00     0.128 C 
HETATM    2  C2  UNL     1     -32.707   9.691   1.530  1.00 20.00     0.079 C 
HETATM    3  C3  UNL     1     -32.069   7.327   1.003  1.00 20.00     0.093 C 
HETATM    4  C4  UNL     1     -32.736   8.816   2.779  1.00 20.00     0.023 C 
HETATM    5  C5  UNL     1     -31.762   7.684   2.456  1.00 20.00     0.054 C 
HETATM    6  O10 UNL     1     -32.565   8.912  -0.751  1.00 20.00    -0.298 OA
ENDROOT
BRANCH   5   7
HETATM    7  S11 UNL     1     -31.954   6.264   3.565  1.00 20.00    -0.164 SA
BRANCH   7   8
HETATM    8  C8  UNL     1     -33.751   6.316   3.728  1.00 20.00     0.078 C 
BRANCH   8   9
HETATM    9  C9  UNL     1     -34.401   5.028   4.262  1.00 20.00    -0.013 C 
HETATM   10  C6  UNL     1     -33.899   4.645   5.656  1.00 20.00     0.010 C 
HETATM   11  C7  UNL     1     -35.930   5.082   4.237  1.00 20.00     0.010 C 
ENDBRANCH   8   9
ENDBRANCH   7   8
ENDBRANCH   5   7
TORSDOF 3
