REMARK  0 active torsions:
REMARK  status: ('A' for Active; 'I' for Inactive)
ROOT
HETATM    1  C1  UNL     1     -35.197   5.272   6.376  1.00 20.00     0.003 C 
HETATM    2  C2  UNL     1     -35.324   4.741   4.942  1.00 20.00     0.037 C 
HETATM    3  C3  UNL     1     -34.160   6.405   6.328  1.00 20.00     0.017 C 
HETATM    4  C4  UNL     1     -32.900   5.755   2.200  1.00 20.00     0.280 C 
HETATM    5  C5  UNL     1     -32.537   7.191   2.589  1.00 20.00     0.104 C 
HETATM    6  C6  UNL     1     -34.069   5.261   4.245  1.00 20.00     0.234 C 
HETATM    7  C7  UNL     1     -33.955   6.662   4.840  1.00 20.00     0.080 C 
HETATM    8  N8  UNL     1     -34.156   5.277   2.790  1.00 20.00     0.089 N 
HETATM    9  S9  UNL     1     -32.375   7.412   4.392  1.00 20.00    -0.160 SA
HETATM   10  H22 UNL     1     -34.919   5.888   2.499  1.00 20.00     0.316 HD
ENDROOT
TORSDOF 0
