REMARK  4 active torsions:
REMARK  status: ('A' for Active; 'I' for Inactive)
REMARK    1  A    between atoms: C1_1  and  C6_6 
REMARK       I    between atoms: C1_1  and  N10_10 
REMARK    2  A    between atoms: C7_7  and  C8_8 
REMARK    3  A    between atoms: C7_7  and  C9_9 
REMARK    4  A    between atoms: C8_8  and  N10_10 
ROOT
HETATM    1  C1  UNL     1     -33.443   6.509   4.869  1.00 20.00     0.218 C 
HETATM    2  C5  UNL     1     -34.855   5.754   2.923  1.00 20.00     0.152 C 
HETATM    3  N10 UNL     1     -33.644   6.372   3.477  1.00 20.00    -0.356 N 
HETATM    4  O11 UNL     1     -32.442   7.021   5.378  1.00 20.00    -0.273 OA
ENDROOT
BRANCH   3   5
HETATM    5  C8  UNL     1     -32.675   6.829   2.520  1.00 20.00     0.125 C 
BRANCH   5   6
HETATM    6  C7  UNL     1     -32.410   8.329   2.627  1.00 20.00     0.024 C 
BRANCH   6   7
HETATM    7  C9  UNL     1     -31.399   8.887   1.606  1.00 20.00    -0.021 C 
HETATM    8  C3  UNL     1     -31.909   8.637   0.184  1.00 20.00     0.009 C 
HETATM    9  C4  UNL     1     -30.007   8.277   1.769  1.00 20.00     0.009 C 
ENDBRANCH   6   7
ENDBRANCH   5   6
ENDBRANCH   3   5
BRANCH   1  10
HETATM   10  C6  UNL     1     -34.565   5.972   5.745  1.00 20.00     0.098 C 
HETATM   11  C2  UNL     1     -34.379   4.506   6.104  1.00 20.00     0.014 C 
ENDBRANCH   1  10
TORSDOF 4
