REMARK  3 active torsions:
REMARK  status: ('A' for Active; 'I' for Inactive)
REMARK    1  A    between atoms: C5_5  and  C9_9 
REMARK    2  A    between atoms: C6_6  and  C10_10 
REMARK    3  A    between atoms: C6_6  and  O11_11 
ROOT
HETATM    1  C1  UNL     1     -34.740   5.113   2.779  1.00 20.00     0.003 C 
HETATM    2  C2  UNL     1     -34.604   4.553   4.191  1.00 20.00     0.005 C 
HETATM    3  C3  UNL     1     -33.561   6.014   2.413  1.00 20.00     0.038 C 
HETATM    4  C4  UNL     1     -33.245   6.575   4.872  1.00 20.00     0.042 C 
HETATM    5  C5  UNL     1     -34.435   5.668   5.230  1.00 20.00    -0.012 C 
HETATM    6  C6  UNL     1     -33.322   7.133   3.440  1.00 20.00     0.058 C 
ENDROOT
BRANCH   6   7
HETATM    7  C10 UNL     1     -32.057   7.919   3.093  1.00 20.00     0.033 C 
HETATM    8  C8  UNL     1     -32.156   8.551   1.744  1.00 20.00     0.008 C 
ENDBRANCH   6   7
BRANCH   6   9
HETATM    9  O11 UNL     1     -34.432   8.034   3.360  1.00 20.00    -0.390 OA
HETATM   10  H31 UNL     1     -34.262   8.729   4.012  1.00 20.00     0.210 HD
ENDBRANCH   6   9
BRANCH   5  11
HETATM   11  C9  UNL     1     -34.262   5.079   6.630  1.00 20.00     0.000 C 
HETATM   12  C7  UNL     1     -35.423   4.224   7.016  1.00 20.00     0.005 C 
ENDBRANCH   5  11
TORSDOF 3
