REMARK  1 active torsions:
REMARK  status: ('A' for Active; 'I' for Inactive)
REMARK    1  A    between atoms: C8_8  and  C10_10 
ROOT
HETATM    1  C1  UNL     1     -32.269   8.243   1.425  1.00 20.00     0.088 C 
HETATM    2  C2  UNL     1     -32.986   6.929   3.313  1.00 20.00    -0.070 C 
HETATM    3  C3  UNL     1     -32.563   8.096   2.804  1.00 20.00     0.096 C 
HETATM    4  C4  UNL     1     -33.176   5.709   2.459  1.00 20.00     0.035 C 
HETATM    5  C5  UNL     1     -33.349   6.784   4.772  1.00 20.00     0.039 C 
HETATM    6  C6  UNL     1     -34.610   5.175   2.537  1.00 20.00     0.005 C 
HETATM    7  C7  UNL     1     -35.368   5.580   3.806  1.00 20.00     0.005 C 
HETATM    8  C8  UNL     1     -34.462   5.746   5.033  1.00 20.00    -0.011 C 
HETATM    9  N11 UNL     1     -32.027   8.372   0.298  1.00 20.00    -0.192 NA
ENDROOT
BRANCH   8  10
HETATM   10  C10 UNL     1     -33.891   4.402   5.497  1.00 20.00     0.000 C 
HETATM   11  C9  UNL     1     -34.973   3.421   5.807  1.00 20.00     0.005 C 
ENDBRANCH   8  10
TORSDOF 1
