REMARK  3 active torsions:
REMARK  status: ('A' for Active; 'I' for Inactive)
REMARK    1  A    between atoms: C1_1  and  C6_6 
REMARK    2  A    between atoms: C1_1  and  C10_10 
REMARK    3  A    between atoms: C7_7  and  C11_11 
ROOT
HETATM    1  C2  UNL     1     -33.949   6.059   6.316  1.00 20.00     0.001 C 
HETATM    2  C3  UNL     1     -33.016   6.541   5.208  1.00 20.00     0.012 C 
HETATM    3  C4  UNL     1     -34.757   4.839   5.880  1.00 20.00     0.005 C 
HETATM    4  C5  UNL     1     -34.583   5.585   3.471  1.00 20.00     0.016 C 
HETATM    5  C6  UNL     1     -33.785   6.806   3.919  1.00 20.00     0.055 C 
HETATM    6  C7  UNL     1     -35.530   5.103   4.580  1.00 20.00    -0.014 C 
ENDROOT
BRANCH   5   7
HETATM    7  C1  UNL     1     -32.770   7.115   2.835  1.00 20.00     0.130 C 
HETATM    8  O12 UNL     1     -31.913   6.292   2.515  1.00 20.00    -0.298 OA
BRANCH   7   9
HETATM    9  C10 UNL     1     -32.881   8.482   2.185  1.00 20.00     0.074 C 
HETATM   10  C8  UNL     1     -31.811   8.719   1.135  1.00 20.00     0.013 C 
ENDBRANCH   7   9
ENDBRANCH   5   7
BRANCH   6  11
HETATM   11  C11 UNL     1     -36.286   3.852   4.138  1.00 20.00     0.000 C 
HETATM   12  C9  UNL     1     -37.243   3.387   5.186  1.00 20.00     0.005 C 
ENDBRANCH   6  11
TORSDOF 3
