REMARK  3 active torsions:
REMARK  status: ('A' for Active; 'I' for Inactive)
REMARK    1  A    between atoms: C5_5  and  C8_8 
REMARK    2  A    between atoms: C6_6  and  C9_9 
REMARK    3  A    between atoms: C9_9  and  C10_10 
ROOT
HETATM    1  C1  UNL     1     -32.724   7.267   5.296  1.00 20.00     0.001 C 
HETATM    2  C2  UNL     1     -33.818   6.220   5.482  1.00 20.00     0.005 C 
HETATM    3  C3  UNL     1     -31.936   7.038   4.008  1.00 20.00     0.005 C 
HETATM    4  C4  UNL     1     -33.954   5.916   2.975  1.00 20.00     0.009 C 
HETATM    5  C5  UNL     1     -34.753   6.148   4.267  1.00 20.00    -0.014 C 
HETATM    6  C6  UNL     1     -32.832   6.945   2.765  1.00 20.00    -0.013 C 
ENDROOT
BRANCH   6   7
HETATM    7  C9  UNL     1     -33.386   8.315   2.362  1.00 20.00     0.020 C 
BRANCH   7   8
HETATM    8  C10 UNL     1     -32.299   9.349   2.116  1.00 20.00     0.115 C 
HETATM    9 CL11 UNL     1     -32.971  10.937   1.680  1.00 20.00    -0.130 Cl
ENDBRANCH   7   8
ENDBRANCH   6   7
BRANCH   5  10
HETATM   10  C8  UNL     1     -35.796   5.047   4.457  1.00 20.00     0.000 C 
HETATM   11  C7  UNL     1     -35.160   3.701   4.580  1.00 20.00     0.005 C 
ENDBRANCH   5  10
TORSDOF 3
