REMARK  4 active torsions:
REMARK  status: ('A' for Active; 'I' for Inactive)
REMARK    1  A    between atoms: C1_1  and  C6_6 
REMARK    2  A    between atoms: C1_1  and  C11_11 
REMARK    3  A    between atoms: C7_7  and  C12_12 
REMARK    4  A    between atoms: C11_11  and  C13_13 
ROOT
HETATM    1  C2  UNL     1     -33.754   7.533   6.040  1.00 20.00     0.001 C 
HETATM    2  C3  UNL     1     -32.316   7.374   5.549  1.00 20.00     0.012 C 
HETATM    3  C4  UNL     1     -34.530   6.222   5.964  1.00 20.00     0.005 C 
HETATM    4  C5  UNL     1     -33.060   5.445   4.061  1.00 20.00     0.016 C 
HETATM    5  C6  UNL     1     -32.213   6.711   4.180  1.00 20.00     0.056 C 
HETATM    6  C7  UNL     1     -34.505   5.637   4.547  1.00 20.00    -0.014 C 
ENDROOT
BRANCH   5   7
HETATM    7  C1  UNL     1     -32.632   7.668   3.074  1.00 20.00     0.131 C 
HETATM    8  O14 UNL     1     -33.805   7.739   2.711  1.00 20.00    -0.298 OA
BRANCH   7   9
HETATM    9  C11 UNL     1     -31.531   8.540   2.492  1.00 20.00     0.082 C 
BRANCH   9  10
HETATM   10  C13 UNL     1     -32.004   9.462   1.358  1.00 20.00    -0.016 C 
HETATM   11  C9  UNL     1     -33.098  10.420   1.836  1.00 20.00     0.010 C 
HETATM   12  C10 UNL     1     -32.525   8.627   0.186  1.00 20.00     0.010 C 
ENDBRANCH   9  10
ENDBRANCH   7   9
ENDBRANCH   5   7
BRANCH   6  13
HETATM   13  C12 UNL     1     -35.268   4.314   4.498  1.00 20.00     0.000 C 
HETATM   14  C8  UNL     1     -34.651   3.288   5.390  1.00 20.00     0.005 C 
ENDBRANCH   6  13
TORSDOF 4
