REMARK  0 active torsions:
REMARK  status: ('A' for Active; 'I' for Inactive)
ROOT
HETATM    1  C1  UNL     1     -35.602   5.539   3.979  1.00 20.00     0.066 C 
HETATM    2  C2  UNL     1     -33.541   6.872   4.599  1.00 20.00     0.077 C 
HETATM    3  C3  UNL     1     -35.026   5.428   2.575  1.00 20.00     0.171 C 
HETATM    4  C4  UNL     1     -34.679   5.382   6.405  1.00 20.00     0.207 A 
HETATM    5  C5  UNL     1     -34.499   5.776   4.960  1.00 20.00     0.087 A 
HETATM    6  C6  UNL     1     -33.086   6.759   3.129  1.00 20.00     0.056 C 
HETATM    7  C7  UNL     1     -32.458   8.092   2.697  1.00 20.00     0.045 C 
HETATM    8  C8  UNL     1     -32.042   5.650   2.929  1.00 20.00     0.045 C 
HETATM    9  O9  UNL     1     -33.897   4.592   5.495  1.00 20.00    -0.375 OA
HETATM   10  O10 UNL     1     -34.218   6.564   2.261  1.00 20.00    -0.381 OA
ENDROOT
TORSDOF 0
