REMARK  3 active torsions:
REMARK  status: ('A' for Active; 'I' for Inactive)
REMARK    1  A    between atoms: C1_1  and  C9_9 
REMARK    2  A    between atoms: C6_6  and  C9_9 
REMARK    3  A    between atoms: C7_7  and  C10_10 
ROOT
HETATM    1  C2  UNL     1     -31.660   8.040   4.572  1.00 20.00     0.001 C 
HETATM    2  C3  UNL     1     -32.557   6.805   4.555  1.00 20.00     0.005 C 
HETATM    3  C4  UNL     1     -31.162   8.393   3.173  1.00 20.00     0.005 C 
HETATM    4  C5  UNL     1     -33.220   7.323   2.171  1.00 20.00     0.009 C 
HETATM    5  C6  UNL     1     -33.728   6.971   3.577  1.00 20.00    -0.008 C 
HETATM    6  C7  UNL     1     -32.323   8.569   2.187  1.00 20.00    -0.014 C 
ENDROOT
BRANCH   5   7
HETATM    7  C9  UNL     1     -34.583   5.705   3.540  1.00 20.00     0.074 C 
BRANCH   7   8
HETATM    8  C1  UNL     1     -35.133   5.348   4.894  1.00 20.00     0.231 C 
HETATM    9  O11 UNL     1     -34.899   4.307   5.499  1.00 20.00    -0.307 OA
ENDBRANCH   7   8
ENDBRANCH   5   7
BRANCH   6  10
HETATM   10  C10 UNL     1     -31.797   8.872   0.785  1.00 20.00     0.000 C 
HETATM   11  C8  UNL     1     -32.911   9.085  -0.187  1.00 20.00     0.005 C 
ENDBRANCH   6  10
TORSDOF 3
