REMARK  3 active torsions:
REMARK  status: ('A' for Active; 'I' for Inactive)
REMARK    1  A    between atoms: C5_5  and  C8_8 
REMARK    2  A    between atoms: C6_6  and  C9_9 
REMARK    3  A    between atoms: C9_9  and  C10_10 
ROOT
HETATM    1  C1  UNL     1     -34.479   5.143   2.204  1.00 20.00     0.001 C 
HETATM    2  C2  UNL     1     -35.002   4.870   3.611  1.00 20.00     0.005 C 
HETATM    3  C3  UNL     1     -32.958   5.272   2.182  1.00 20.00     0.005 C 
HETATM    4  C4  UNL     1     -32.990   6.048   4.588  1.00 20.00     0.009 C 
HETATM    5  C5  UNL     1     -34.521   5.925   4.615  1.00 20.00    -0.014 C 
HETATM    6  C6  UNL     1     -32.428   6.308   3.182  1.00 20.00    -0.013 C 
ENDROOT
BRANCH   6   7
HETATM    7  C9  UNL     1     -32.707   7.740   2.715  1.00 20.00     0.020 C 
BRANCH   7   8
HETATM    8  C10 UNL     1     -31.994   8.095   1.419  1.00 20.00     0.115 C 
HETATM    9 CL11 UNL     1     -32.312   9.771   0.917  1.00 20.00    -0.130 Cl
ENDBRANCH   7   8
ENDBRANCH   6   7
BRANCH   5  10
HETATM   10  C8  UNL     1     -35.008   5.586   6.024  1.00 20.00     0.000 C 
HETATM   11  C7  UNL     1     -34.463   4.278   6.494  1.00 20.00     0.005 C 
ENDBRANCH   5  10
TORSDOF 3
