REMARK  3 active torsions:
REMARK  status: ('A' for Active; 'I' for Inactive)
REMARK    1  A    between atoms: C5_5  and  C9_9 
REMARK    2  A    between atoms: C6_6  and  C10_10 
REMARK    3  A    between atoms: C10_10  and  O11_11 
ROOT
HETATM    1  C1  UNL     1     -33.792   5.712   2.287  1.00 20.00     0.001 C 
HETATM    2  C2  UNL     1     -32.392   6.184   1.902  1.00 20.00     0.005 C 
HETATM    3  C3  UNL     1     -33.920   5.497   3.793  1.00 20.00     0.007 C 
HETATM    4  C4  UNL     1     -32.110   7.216   4.193  1.00 20.00     0.011 C 
HETATM    5  C5  UNL     1     -31.942   7.428   2.681  1.00 20.00    -0.014 C 
HETATM    6  C6  UNL     1     -33.520   6.747   4.585  1.00 20.00     0.014 C 
ENDROOT
BRANCH   6   7
HETATM    7  C10 UNL     1     -33.596   6.477   6.088  1.00 20.00     0.118 C 
HETATM    8  C8  UNL     1     -33.242   7.713   6.895  1.00 20.00     0.040 C 
BRANCH   7   9
HETATM    9  O11 UNL     1     -34.915   6.058   6.412  1.00 20.00    -0.396 OA
HETATM   10  H31 UNL     1     -34.930   5.896   7.369  1.00 20.00     0.210 HD
ENDBRANCH   7   9
ENDBRANCH   6   7
BRANCH   5  11
HETATM   11  C9  UNL     1     -32.664   8.689   2.200  1.00 20.00     0.000 C 
HETATM   12  C7  UNL     1     -32.456   8.921   0.740  1.00 20.00     0.005 C 
ENDBRANCH   5  11
TORSDOF 3
