REMARK  2 active torsions:
REMARK  status: ('A' for Active; 'I' for Inactive)
REMARK    1  A    between atoms: C8_8  and  C12_12 
REMARK    2  A    between atoms: C11_11  and  N13_13 
ROOT
HETATM    1  C1  UNL     1     -32.893   9.854   1.788  1.00 20.00     0.013 C 
HETATM    2  C2  UNL     1     -32.652   8.680   1.855  1.00 20.00    -0.087 C 
HETATM    3  C11 UNL     1     -32.353   7.248   1.933  1.00 20.00     0.364 C 
ENDROOT
BRANCH   3   4
HETATM    4  N13 UNL     1     -33.187   6.601   2.946  1.00 20.00     0.099 N 
HETATM    5  C6  UNL     1     -32.654   6.820   4.292  1.00 20.00     0.273 C 
HETATM    6  C3  UNL     1     -33.680   6.610   5.424  1.00 20.00     0.031 C 
HETATM    7  C4  UNL     1     -35.103   6.273   4.964  1.00 20.00     0.007 C 
HETATM    8  C8  UNL     1     -35.264   4.861   4.366  1.00 20.00    -0.010 C 
HETATM    9  C5  UNL     1     -33.994   4.302   3.704  1.00 20.00     0.035 C 
HETATM   10  C7  UNL     1     -33.387   5.186   2.609  1.00 20.00     0.274 C 
BRANCH   8  11
HETATM   11  C12 UNL     1     -35.737   3.881   5.446  1.00 20.00    -0.019 C 
HETATM   12  C9  UNL     1     -35.004   4.141   6.758  1.00 20.00     0.010 C 
HETATM   13  C10 UNL     1     -37.246   3.991   5.638  1.00 20.00     0.010 C 
ENDBRANCH   8  11
ENDBRANCH   3   4
TORSDOF 2
