REMARK  0 active torsions:
REMARK  status: ('A' for Active; 'I' for Inactive)
ROOT
HETATM    1  C1  UNL     1     -32.486   8.287   2.432  1.00 20.00     0.064 C 
HETATM    2  C2  UNL     1     -32.860   5.877   2.802  1.00 20.00     0.020 C 
HETATM    3  C3  UNL     1     -33.938   7.601   4.305  1.00 20.00     0.020 C 
HETATM    4  C4  UNL     1     -33.162   4.789   3.833  1.00 20.00     0.010 C 
HETATM    5  C5  UNL     1     -34.241   6.513   5.336  1.00 20.00     0.010 C 
HETATM    6  C6  UNL     1     -32.710   7.254   3.457  1.00 20.00     0.093 C 
HETATM    7  C7  UNL     1     -34.389   5.105   4.718  1.00 20.00    -0.048 C 
HETATM    8  C8  UNL     1     -34.468   4.066   5.853  1.00 20.00     0.015 C 
HETATM    9  C9  UNL     1     -35.689   5.008   3.896  1.00 20.00     0.015 C 
HETATM   10  N10 UNL     1     -32.310   9.102   1.624  1.00 20.00    -0.197 NA
ENDROOT
TORSDOF 0
