REMARK  4 active torsions:
REMARK  status: ('A' for Active; 'I' for Inactive)
REMARK    1  A    between atoms: C7_7  and  C10_10 
REMARK    2  A    between atoms: C8_8  and  N11_11 
REMARK    3  A    between atoms: C9_9  and  N11_11 
REMARK    4  A    between atoms: C10_10  and  N11_11 
ROOT
HETATM    1  C1  UNL     1     -35.204   3.832   6.084  1.00 20.00     0.013 C 
HETATM    2  C2  UNL     1     -35.017   4.304   4.997  1.00 20.00    -0.087 C 
HETATM    3  C9  UNL     1     -34.793   4.879   3.668  1.00 20.00     0.365 C 
ENDROOT
BRANCH   3   4
HETATM    4  N11 UNL     1     -33.580   5.695   3.655  1.00 20.00     0.104 N 
BRANCH   4   5
HETATM    5  C8  UNL     1     -33.692   6.791   4.618  1.00 20.00     0.224 A 
HETATM    6  C5  UNL     1     -33.446   6.546   6.081  1.00 20.00     0.038 A 
HETATM    7  C6  UNL     1     -32.465   7.352   5.282  1.00 20.00     0.038 A 
ENDBRANCH   4   5
BRANCH   4   8
HETATM    8  C10 UNL     1     -33.329   6.219   2.313  1.00 20.00     0.278 C 
BRANCH   8   9
HETATM    9  C7  UNL     1     -32.375   7.364   2.351  1.00 20.00     0.014 A 
HETATM   10  C3  UNL     1     -32.302   8.328   1.200  1.00 20.00     0.007 A 
HETATM   11  C4  UNL     1     -32.886   8.769   2.513  1.00 20.00     0.007 A 
ENDBRANCH   8   9
ENDBRANCH   4   8
ENDBRANCH   3   4
TORSDOF 4
