REMARK  0 active torsions:
REMARK  status: ('A' for Active; 'I' for Inactive)
ROOT
HETATM    1  C1  UNL     1     -34.979   5.166   2.965  1.00 20.00     0.004 C 
HETATM    2  C2  UNL     1     -33.512   5.539   2.757  1.00 20.00     0.040 C 
HETATM    3  C3  UNL     1     -35.515   5.478   4.365  1.00 20.00     0.009 C 
HETATM    4  C4  UNL     1     -33.262   6.295   5.201  1.00 20.00     0.049 C 
HETATM    5  C5  UNL     1     -31.990   7.565   3.324  1.00 20.00     0.207 A 
HETATM    6  C6  UNL     1     -33.057   6.575   3.734  1.00 20.00     0.083 A 
HETATM    7  C7  UNL     1     -34.462   5.355   5.486  1.00 20.00    -0.045 C 
HETATM    8  C8  UNL     1     -33.988   3.894   5.626  1.00 20.00     0.015 C 
HETATM    9  C9  UNL     1     -35.112   5.761   6.824  1.00 20.00     0.015 C 
HETATM   10  O10 UNL     1     -33.380   7.920   3.344  1.00 20.00    -0.375 OA
ENDROOT
TORSDOF 0
