REMARK  3 active torsions:
REMARK  status: ('A' for Active; 'I' for Inactive)
REMARK    1  A    between atoms: C6_6  and  C10_10 
REMARK    2  A    between atoms: C7_7  and  N11_11 
REMARK    3  A    between atoms: C9_9  and  N11_11 
ROOT
HETATM    1  C1  UNL     1     -32.363  10.356   0.953  1.00 20.00     0.013 C 
HETATM    2  C2  UNL     1     -32.096   9.255   1.350  1.00 20.00    -0.087 C 
HETATM    3  C9  UNL     1     -31.767   7.911   1.831  1.00 20.00     0.362 C 
ENDROOT
BRANCH   3   4
HETATM    4  N11 UNL     1     -32.422   7.646   3.106  1.00 20.00     0.098 N 
HETATM    5  H28 UNL     1     -31.884   8.087   3.854  1.00 20.00     0.317 HD
BRANCH   4   6
HETATM    6  C7  UNL     1     -32.519   6.209   3.360  1.00 20.00     0.222 C 
HETATM    7  C4  UNL     1     -33.682   5.592   2.586  1.00 20.00     0.036 C 
HETATM    8  C3  UNL     1     -34.928   5.842   3.440  1.00 20.00     0.007 C 
HETATM    9  C6  UNL     1     -34.421   6.145   4.859  1.00 20.00    -0.013 C 
HETATM   10  C5  UNL     1     -32.908   5.905   4.807  1.00 20.00     0.040 C 
BRANCH   9  11
HETATM   11  C10 UNL     1     -35.110   5.312   5.929  1.00 20.00     0.000 C 
HETATM   12  C8  UNL     1     -34.921   3.846   5.699  1.00 20.00     0.005 C 
ENDBRANCH   9  11
ENDBRANCH   4   6
ENDBRANCH   3   4
TORSDOF 3
