REMARK  3 active torsions:
REMARK  status: ('A' for Active; 'I' for Inactive)
REMARK    1  A    between atoms: C4_4  and  C5_5 
REMARK    2  A    between atoms: C4_4  and  C6_6 
REMARK    3  A    between atoms: C5_5  and  C7_7 
ROOT
HETATM    1  C5  UNL     1     -33.169   5.793   3.716  1.00 20.00     0.009 C 
ENDROOT
BRANCH   1   2
HETATM    2  C4  UNL     1     -33.456   7.255   3.349  1.00 20.00     0.016 C 
BRANCH   2   3
HETATM    3  C6  UNL     1     -32.511   7.733   2.251  1.00 20.00     0.114 C 
HETATM    4 CL8  UNL     1     -32.840   9.433   1.844  1.00 20.00    -0.130 Cl
ENDBRANCH   2   3
ENDBRANCH   1   2
BRANCH   1   5
HETATM    5  C7  UNL     1     -34.110   5.167   4.780  1.00 20.00    -0.051 C 
HETATM    6  C1  UNL     1     -33.994   5.901   6.126  1.00 20.00     0.014 C 
HETATM    7  C2  UNL     1     -35.574   5.193   4.313  1.00 20.00     0.014 C 
HETATM    8  C3  UNL     1     -33.689   3.699   4.987  1.00 20.00     0.014 C 
ENDBRANCH   1   5
TORSDOF 3
