REMARK  1 active torsions:
REMARK  status: ('A' for Active; 'I' for Inactive)
REMARK    1  A    between atoms: C2_2  and  C3_3 
ROOT
HETATM    1  C1  UNL     1     -34.587   4.765   4.576  1.00 20.00    -0.020 C 
HETATM    2  C2  UNL     1     -33.827   5.847   4.374  1.00 20.00    -0.062 C 
HETATM    3  C5  UNL     1     -35.067   4.683   5.986  1.00 20.00     0.028 C 
HETATM    4  C6  UNL     1     -33.678   6.661   5.620  1.00 20.00     0.038 C 
HETATM    5  C7  UNL     1     -34.193   5.711   6.702  1.00 20.00     0.008 C 
ENDROOT
BRANCH   2   6
HETATM    6  C3  UNL     1     -33.223   6.238   3.139  1.00 20.00     0.002 C 
HETATM    7  C4  UNL     1     -32.467   7.339   2.996  1.00 20.00    -0.030 C 
HETATM    8  C8  UNL     1     -31.837   7.754   1.707  1.00 20.00     0.036 C 
ENDBRANCH   2   6
TORSDOF 1
