REMARK  0 active torsions:
REMARK  status: ('A' for Active; 'I' for Inactive)
ROOT
HETATM    1  C1  UNL     1     -34.743   6.124   6.549  1.00 20.00     0.035 C 
HETATM    2  C2  UNL     1     -33.631   6.565   5.594  1.00 20.00     0.011 C 
HETATM    3  C3  UNL     1     -34.423   5.091   3.695  1.00 20.00     0.043 C 
HETATM    4  C4  UNL     1     -35.457   4.895   6.097  1.00 20.00     0.151 A 
HETATM    5  C5  UNL     1     -35.331   4.415   4.676  1.00 20.00     0.151 A 
HETATM    6  C6  UNL     1     -34.049   6.535   4.104  1.00 20.00    -0.045 C 
HETATM    7  C7  UNL     1     -32.859   7.003   3.246  1.00 20.00     0.015 C 
HETATM    8  C8  UNL     1     -35.232   7.487   3.842  1.00 20.00     0.015 C 
HETATM    9  O9  UNL     1     -34.625   3.783   5.763  1.00 20.00    -0.375 OA
ENDROOT
TORSDOF 0
