REMARK  3 active torsions:
REMARK  status: ('A' for Active; 'I' for Inactive)
REMARK    1  A    between atoms: C4_4  and  C6_6 
REMARK    2  A    between atoms: C5_5  and  C6_6 
REMARK    3  A    between atoms: C5_5  and  O8_8 
ROOT
HETATM    1  C1  UNL     1     -33.342   6.536   5.733  1.00 20.00     0.066 C 
HETATM    2  C6  UNL     1     -33.608   5.831   4.461  1.00 20.00     0.116 C 
HETATM    3  N7  UNL     1     -33.133   7.086   6.733  1.00 20.00    -0.197 NA
ENDROOT
BRANCH   2   4
HETATM    4  C4  UNL     1     -34.966   5.112   4.508  1.00 20.00     0.017 C 
HETATM    5  C2  UNL     1     -35.060   4.085   5.630  1.00 20.00     0.006 C 
ENDBRANCH   2   4
BRANCH   2   6
HETATM    6  C5  UNL     1     -33.581   6.831   3.299  1.00 20.00     0.186 C 
BRANCH   6   7
HETATM    7  O8  UNL     1     -32.314   7.479   3.256  1.00 20.00    -0.395 OA
HETATM    8  C3  UNL     1     -32.243   8.411   2.186  1.00 20.00     0.201 C 
ENDBRANCH   6   7
ENDBRANCH   2   6
TORSDOF 3
