REMARK  0 active torsions:
REMARK  status: ('A' for Active; 'I' for Inactive)
ROOT
HETATM    1  C1  UNL     1     -34.121   6.778   6.065  1.00 20.00     0.035 C 
HETATM    2  C2  UNL     1     -33.343   6.647   4.756  1.00 20.00     0.011 C 
HETATM    3  C3  UNL     1     -33.834   4.165   4.524  1.00 20.00     0.043 C 
HETATM    4  C4  UNL     1     -34.295   5.462   6.747  1.00 20.00     0.151 A 
HETATM    5  C5  UNL     1     -34.188   4.174   5.979  1.00 20.00     0.151 A 
HETATM    6  C6  UNL     1     -33.887   5.543   3.819  1.00 20.00    -0.045 C 
HETATM    7  C7  UNL     1     -35.319   5.870   3.351  1.00 20.00     0.015 C 
HETATM    8  C8  UNL     1     -32.994   5.485   2.561  1.00 20.00     0.015 C 
HETATM    9  O9  UNL     1     -35.458   4.732   6.315  1.00 20.00    -0.375 OA
ENDROOT
TORSDOF 0
