REMARK  1 active torsions:
REMARK  status: ('A' for Active; 'I' for Inactive)
REMARK    1  A    between atoms: C8_8  and  N10_10 
ROOT
HETATM    1  C1  UNL     1     -32.860   7.916   2.558  1.00 20.00     0.177 C 
HETATM    2  N9  UNL     1     -32.651   8.974   2.130  1.00 20.00    -0.172 NA
HETATM    3  N10 UNL     1     -33.098   6.689   3.052  1.00 20.00    -0.324 N 
HETATM    4  H22 UNL     1     -32.378   5.957   2.987  1.00 20.00     0.172 HD
ENDROOT
BRANCH   3   5
HETATM    5  C8  UNL     1     -34.070   6.418   4.135  1.00 20.00     0.096 C 
HETATM    6  C5  UNL     1     -34.614   4.981   4.039  1.00 20.00     0.031 C 
HETATM    7  C6  UNL     1     -34.205   4.367   5.392  1.00 20.00    -0.012 C 
HETATM    8  C2  UNL     1     -35.040   5.016   6.510  1.00 20.00     0.005 C 
HETATM    9  C4  UNL     1     -32.833   4.997   5.622  1.00 20.00     0.011 C 
HETATM   10  C3  UNL     1     -34.450   6.432   6.605  1.00 20.00     0.007 C 
HETATM   11  C7  UNL     1     -33.368   6.428   5.510  1.00 20.00     0.009 C 
ENDBRANCH   3   5
TORSDOF 1
