REMARK  2 active torsions:
REMARK  status: ('A' for Active; 'I' for Inactive)
REMARK    1  A    between atoms: C2_2  and  C9_9 
REMARK    2  A    between atoms: C9_9  and  N11_11 
ROOT
HETATM    1  C1  UNL     1     -31.971   8.615   1.816  1.00 20.00    -0.109 C 
HETATM    2  C2  UNL     1     -31.816   7.712   2.592  1.00 20.00    -0.077 C 
HETATM    3  C8  UNL     1     -32.158   9.715   0.870  1.00 20.00     0.112 C 
ENDROOT
BRANCH   2   4
HETATM    4  C9  UNL     1     -31.621   6.611   3.541  1.00 20.00     0.367 C 
BRANCH   4   5
HETATM    5  N11 UNL     1     -32.872   5.901   3.778  1.00 20.00     0.117 N 
HETATM    6  C6  UNL     1     -33.418   5.328   2.548  1.00 20.00     0.275 C 
HETATM    7  C4  UNL     1     -34.824   4.960   2.975  1.00 20.00     0.033 C 
HETATM    8  C5  UNL     1     -35.240   6.117   3.873  1.00 20.00     0.053 C 
HETATM    9  C7  UNL     1     -33.926   6.759   4.341  1.00 20.00     0.329 C 
HETATM   10  C3  UNL     1     -33.848   6.804   5.807  1.00 20.00     0.095 C 
HETATM   11  N10 UNL     1     -33.786   6.840   6.965  1.00 20.00    -0.195 NA
ENDBRANCH   4   5
ENDBRANCH   2   4
TORSDOF 2
