REMARK  3 active torsions:
REMARK  status: ('A' for Active; 'I' for Inactive)
REMARK    1  A    between atoms: C6_6  and  C10_10 
REMARK    2  A    between atoms: C7_7  and  N11_11 
REMARK    3  A    between atoms: C9_9  and  N11_11 
ROOT
HETATM    1  C1  UNL     1     -34.092   4.479   6.531  1.00 20.00     0.013 C 
HETATM    2  C2  UNL     1     -34.641   4.563   5.466  1.00 20.00    -0.087 C 
HETATM    3  C9  UNL     1     -35.315   4.661   4.169  1.00 20.00     0.362 C 
ENDROOT
BRANCH   3   4
HETATM    4  N11 UNL     1     -34.883   5.851   3.455  1.00 20.00     0.098 N 
HETATM    5  H28 UNL     1     -35.569   6.087   2.741  1.00 20.00     0.317 HD
BRANCH   4   6
HETATM    6  C7  UNL     1     -33.606   5.630   2.820  1.00 20.00     0.222 C 
HETATM    7  C4  UNL     1     -32.460   5.760   3.823  1.00 20.00     0.036 C 
HETATM    8  C3  UNL     1     -32.056   7.225   3.728  1.00 20.00     0.007 C 
HETATM    9  C6  UNL     1     -32.120   7.493   2.227  1.00 20.00    -0.013 C 
HETATM   10  C5  UNL     1     -33.338   6.693   1.744  1.00 20.00     0.040 C 
BRANCH   9  11
HETATM   11  C10 UNL     1     -32.201   8.972   1.890  1.00 20.00     0.000 C 
HETATM   12  C8  UNL     1     -32.283   9.206   0.414  1.00 20.00     0.005 C 
ENDBRANCH   9  11
ENDBRANCH   4   6
ENDBRANCH   3   4
TORSDOF 3
