REMARK  1 active torsions:
REMARK  status: ('A' for Active; 'I' for Inactive)
REMARK    1  A    between atoms: C4_4  and  C9_9 
ROOT
HETATM    1  C1  UNL     1     -33.572   4.757   5.480  1.00 20.00     0.006 C 
HETATM    2  C2  UNL     1     -34.532   3.660   5.948  1.00 20.00     0.016 C 
HETATM    3  C3  UNL     1     -35.571   5.021   4.207  1.00 20.00     0.021 C 
HETATM    4  C4  UNL     1     -34.467   5.837   4.878  1.00 20.00    -0.006 C 
HETATM    5  C5  UNL     1     -35.843   3.894   5.197  1.00 20.00     0.058 C 
HETATM    6 BR10 UNL     1     -37.248   4.431   6.449  1.00 20.00    -0.091 Br
ENDROOT
BRANCH   4   7
HETATM    7  C9  UNL     1     -33.732   6.753   3.914  1.00 20.00    -0.048 C 
HETATM    8  C6  UNL     1     -32.604   7.499   4.651  1.00 20.00     0.015 C 
HETATM    9  C7  UNL     1     -34.708   7.785   3.319  1.00 20.00     0.015 C 
HETATM   10  C8  UNL     1     -33.118   5.927   2.767  1.00 20.00     0.015 C 
ENDBRANCH   4   7
TORSDOF 1
