REMARK  1 active torsions:
REMARK  status: ('A' for Active; 'I' for Inactive)
REMARK    1  A    between atoms: C9_9  and  C10_10 
ROOT
HETATM    1  C1  UNL     1     -32.399   8.597   1.341  1.00 20.00     0.012 C 
HETATM    2  C2  UNL     1     -32.374   7.668   2.101  1.00 20.00    -0.117 C 
HETATM    3  C10 UNL     1     -32.325   6.537   3.028  1.00 20.00     0.098 C 
ENDROOT
BRANCH   3   4
HETATM    4  C9  UNL     1     -33.739   6.059   3.377  1.00 20.00     0.004 C 
HETATM    5  C5  UNL     1     -34.398   7.003   4.384  1.00 20.00     0.083 C 
HETATM    6  C3  UNL     1     -34.110   6.635   5.821  1.00 20.00     0.127 C 
HETATM    7  C4  UNL     1     -35.087   5.687   6.477  1.00 20.00     0.078 C 
HETATM    8  O11 UNL     1     -33.115   7.052   6.411  1.00 20.00    -0.298 OA
HETATM    9  C6  UNL     1     -34.890   4.249   6.021  1.00 20.00     0.007 C 
HETATM   10  C7  UNL     1     -34.941   4.045   4.502  1.00 20.00     0.001 C 
HETATM   11  C8  UNL     1     -33.695   4.575   3.786  1.00 20.00     0.006 C 
ENDBRANCH   3   4
TORSDOF 1
