REMARK  1 active torsions:
REMARK  status: ('A' for Active; 'I' for Inactive)
REMARK    1  A    between atoms: C8_8  and  C9_9 
ROOT
HETATM    1  C1  UNL     1     -32.637   9.060   2.095  1.00 20.00     0.012 C 
HETATM    2  C2  UNL     1     -32.185   8.026   2.502  1.00 20.00    -0.117 C 
HETATM    3  C9  UNL     1     -31.622   6.766   2.996  1.00 20.00     0.098 C 
ENDROOT
BRANCH   3   4
HETATM    4  C8  UNL     1     -32.679   5.943   3.728  1.00 20.00     0.004 C 
HETATM    5  C5  UNL     1     -33.202   6.705   4.948  1.00 20.00     0.083 C 
HETATM    6  C3  UNL     1     -34.326   5.941   5.614  1.00 20.00     0.127 C 
HETATM    7  C4  UNL     1     -35.446   5.470   4.716  1.00 20.00     0.078 C 
HETATM    8  O10 UNL     1     -34.376   5.802   6.835  1.00 20.00    -0.298 OA
HETATM    9  C6  UNL     1     -34.887   4.739   3.504  1.00 20.00     0.008 C 
HETATM   10  C7  UNL     1     -33.827   5.568   2.780  1.00 20.00     0.006 C 
ENDBRANCH   3   4
TORSDOF 1
