REMARK  4 active torsions:
REMARK  status: ('A' for Active; 'I' for Inactive)
REMARK    1  A    between atoms: C2_2  and  C5_5 
REMARK    2  A    between atoms: C5_5  and  C6_6 
REMARK    3  A    between atoms: C6_6  and  C7_7 
REMARK    4  A    between atoms: C7_7  and  C8_8 
ROOT
HETATM    1  C1  UNL     1     -32.574   9.578   1.251  1.00 20.00    -0.111 C 
HETATM    2  C2  UNL     1     -32.588   8.461   1.690  1.00 20.00    -0.107 C 
HETATM    3  C3  UNL     1     -32.557  10.940   0.720  1.00 20.00     0.112 C 
ENDROOT
BRANCH   2   4
HETATM    4  C5  UNL     1     -32.604   7.093   2.226  1.00 20.00     0.094 C 
BRANCH   4   5
HETATM    5  C6  UNL     1     -33.592   6.936   3.384  1.00 20.00     0.014 C 
BRANCH   5   6
HETATM    6  C7  UNL     1     -33.679   5.491   3.899  1.00 20.00     0.020 C 
BRANCH   6   7
HETATM    7  C8  UNL     1     -34.655   5.324   5.072  1.00 20.00     0.078 C 
HETATM    8  C4  UNL     1     -34.694   3.878   5.551  1.00 20.00     0.026 C 
HETATM    9 CL9  UNL     1     -34.196   6.376   6.445  1.00 20.00    -0.125 Cl
ENDBRANCH   6   7
ENDBRANCH   5   6
ENDBRANCH   4   5
ENDBRANCH   2   4
TORSDOF 4
