REMARK  2 active torsions:
REMARK  status: ('A' for Active; 'I' for Inactive)
REMARK    1  A    between atoms: C5_5  and  C8_8 
REMARK    2  A    between atoms: C8_8  and  C9_9 
ROOT
HETATM    1  C1  UNL     1     -34.012   5.477   6.524  1.00 20.00     0.002 C 
HETATM    2  C2  UNL     1     -33.825   6.615   5.523  1.00 20.00     0.005 C 
HETATM    3  C3  UNL     1     -35.385   4.825   6.386  1.00 20.00     0.020 C 
HETATM    4  C4  UNL     1     -35.458   5.497   3.949  1.00 20.00     0.024 C 
HETATM    5  C5  UNL     1     -34.075   6.151   4.082  1.00 20.00    -0.013 C 
HETATM    6  C6  UNL     1     -35.632   4.356   4.952  1.00 20.00     0.082 C 
HETATM    7 CL10 UNL     1     -37.275   3.669   4.813  1.00 20.00    -0.125 Cl
ENDROOT
BRANCH   5   8
HETATM    8  C8  UNL     1     -33.934   7.319   3.107  1.00 20.00     0.004 C 
BRANCH   8   9
HETATM    9  C9  UNL     1     -32.468   7.632   2.829  1.00 20.00    -0.004 C 
HETATM   10  C7  UNL     1     -32.327   8.778   1.839  1.00 20.00     0.005 C 
ENDBRANCH   8   9
ENDBRANCH   5   8
TORSDOF 2
