REMARK  2 active torsions:
REMARK  status: ('A' for Active; 'I' for Inactive)
REMARK    1  A    between atoms: C6_6  and  C7_7 
REMARK    2  A    between atoms: C8_8  and  O9_9 
ROOT
HETATM    1  C3  UNL     1     -34.712   5.453   3.058  1.00 20.00     0.007 C 
HETATM    2  C4  UNL     1     -35.850   5.188   4.034  1.00 20.00     0.032 C 
HETATM    3  C5  UNL     1     -33.781   5.559   5.284  1.00 20.00     0.036 C 
HETATM    4  C7  UNL     1     -33.718   6.237   3.908  1.00 20.00    -0.008 C 
HETATM    5  C8  UNL     1     -35.136   4.843   5.337  1.00 20.00     0.118 C 
ENDROOT
BRANCH   4   6
HETATM    6  C6  UNL     1     -32.319   6.264   3.317  1.00 20.00    -0.010 A 
HETATM    7  C1  UNL     1     -31.978   7.234   2.220  1.00 20.00     0.005 A 
HETATM    8  C2  UNL     1     -31.402   7.423   3.595  1.00 20.00     0.005 A 
ENDBRANCH   4   6
BRANCH   5   9
HETATM    9  O9  UNL     1     -34.931   3.434   5.389  1.00 20.00    -0.396 OA
HETATM   10  H23 UNL     1     -34.477   3.251   6.226  1.00 20.00     0.210 HD
ENDBRANCH   5   9
TORSDOF 2
