REMARK  2 active torsions:
REMARK  status: ('A' for Active; 'I' for Inactive)
REMARK    1  A    between atoms: C4_4  and  C10_10 
REMARK    2  A    between atoms: C8_8  and  C10_10 
ROOT
HETATM    1  C5  UNL     1     -33.956   4.861   2.822  1.00 20.00     0.006 C 
HETATM    2  C6  UNL     1     -35.074   4.508   3.794  1.00 20.00     0.016 C 
HETATM    3  C7  UNL     1     -33.987   6.564   4.548  1.00 20.00     0.020 C 
HETATM    4  C8  UNL     1     -33.781   6.362   3.039  1.00 20.00    -0.009 C 
HETATM    5  C9  UNL     1     -34.761   5.337   5.033  1.00 20.00     0.058 C 
HETATM    6 BR12 UNL     1     -33.653   4.292   6.263  1.00 20.00    -0.091 Br
ENDROOT
BRANCH   4   7
HETATM    7  C10 UNL     1     -32.442   6.881   2.542  1.00 20.00     0.043 C 
BRANCH   7   8
HETATM    8  C4  UNL     1     -32.462   8.372   2.328  1.00 20.00    -0.051 A 
HETATM    9  C1  UNL     1     -32.171   9.000   1.082  1.00 20.00     0.014 A 
HETATM   10  C2  UNL     1     -32.261  10.373   1.162  1.00 20.00     0.050 A 
HETATM   11  S11 UNL     1     -32.694  10.899   2.733  1.00 20.00    -0.113 SA
HETATM   12  C3  UNL     1     -32.763   9.289   3.312  1.00 20.00     0.056 A 
ENDBRANCH   7   8
ENDBRANCH   4   7
TORSDOF 2
