REMARK  3 active torsions:
REMARK  status: ('A' for Active; 'I' for Inactive)
REMARK    1  A    between atoms: C4_4  and  C7_7 
REMARK    2  A    between atoms: C7_7  and  C9_9 
REMARK    3  A    between atoms: C8_8  and  C9_9 
ROOT
HETATM    1  C1  UNL     1     -34.310   5.186   2.470  1.00 20.00     0.006 C 
HETATM    2  C2  UNL     1     -35.202   4.746   3.635  1.00 20.00     0.020 C 
HETATM    3  C3  UNL     1     -33.299   5.828   4.582  1.00 20.00     0.024 C 
HETATM    4  C4  UNL     1     -32.988   5.656   3.095  1.00 20.00    -0.013 C 
HETATM    5  C5  UNL     1     -34.273   4.688   4.840  1.00 20.00     0.082 C 
HETATM    6 CL10 UNL     1     -35.140   4.876   6.371  1.00 20.00    -0.125 Cl
ENDROOT
BRANCH   4   7
HETATM    7  C7  UNL     1     -32.436   6.918   2.454  1.00 20.00     0.005 C 
BRANCH   7   8
HETATM    8  C9  UNL     1     -33.430   8.074   2.550  1.00 20.00     0.000 C 
BRANCH   8   9
HETATM    9  C8  UNL     1     -32.885   9.332   1.875  1.00 20.00    -0.005 C 
HETATM   10  C6  UNL     1     -32.570   9.084   0.408  1.00 20.00     0.005 C 
ENDBRANCH   8   9
ENDBRANCH   7   8
ENDBRANCH   4   7
TORSDOF 3
