REMARK  1 active torsions:
REMARK  status: ('A' for Active; 'I' for Inactive)
REMARK    1  A    between atoms: C5_5  and  C8_8 
ROOT
HETATM    1  C1  UNL     1     -34.733   4.989   3.038  1.00 20.00     0.007 C 
HETATM    2  C2  UNL     1     -33.351   5.395   2.516  1.00 20.00     0.041 C 
HETATM    3  C3  UNL     1     -34.045   6.876   4.369  1.00 20.00     0.045 C 
HETATM    4  C4  UNL     1     -32.189   7.758   2.712  1.00 20.00     0.207 A 
HETATM    5  C5  UNL     1     -34.782   5.529   4.474  1.00 20.00    -0.012 C 
HETATM    6  C6  UNL     1     -33.053   6.655   3.268  1.00 20.00     0.083 A 
HETATM    7  O9  UNL     1     -31.680   6.806   3.655  1.00 20.00    -0.375 OA
ENDROOT
BRANCH   5   8
HETATM    8  C8  UNL     1     -34.102   4.584   5.464  1.00 20.00     0.000 C 
HETATM    9  C7  UNL     1     -34.102   5.136   6.856  1.00 20.00     0.005 C 
ENDBRANCH   5   8
TORSDOF 1
