REMARK  3 active torsions:
REMARK  status: ('A' for Active; 'I' for Inactive)
REMARK    1  A    between atoms: C1_1  and  C4_4 
REMARK    2  A    between atoms: C1_1  and  C5_5 
REMARK    3  A    between atoms: C5_5  and  C6_6 
ROOT
HETATM    1  C1  UNL     1     -33.849   6.079   4.942  1.00 20.00     0.139 C 
HETATM    2  O7  UNL     1     -33.635   6.461   6.085  1.00 20.00    -0.297 OA
ENDROOT
BRANCH   1   3
HETATM    3  C4  UNL     1     -34.293   4.676   4.696  1.00 20.00     0.056 A 
HETATM    4  C2  UNL     1     -35.003   3.950   5.790  1.00 20.00     0.013 A 
HETATM    5  C3  UNL     1     -35.755   4.402   4.575  1.00 20.00     0.013 A 
ENDBRANCH   1   3
BRANCH   1   6
HETATM    6  C5  UNL     1     -33.699   6.935   3.704  1.00 20.00     0.196 C 
BRANCH   6   7
HETATM    7  C6  UNL     1     -32.302   6.889   3.130  1.00 20.00     0.394 C 
HETATM    8  F8  UNL     1     -32.191   7.670   2.034  1.00 20.00    -0.171 F 
HETATM    9  F9  UNL     1     -31.948   5.631   2.789  1.00 20.00    -0.171 F 
HETATM   10  F10 UNL     1     -31.405   7.332   4.039  1.00 20.00    -0.171 F 
ENDBRANCH   6   7
ENDBRANCH   1   6
TORSDOF 3
