REMARK  5 active torsions:
REMARK  status: ('A' for Active; 'I' for Inactive)
REMARK    1  A    between atoms: C6_6  and  C7_7 
REMARK    2  A    between atoms: C7_7  and  C8_8 
REMARK    3  A    between atoms: C8_8  and  C9_9 
REMARK    4  A    between atoms: C9_9  and  C10_10 
REMARK    5  A    between atoms: C10_10  and  C11_11 
ROOT
HETATM    1  C1  UNL     1     -33.338   8.882  -0.630  1.00 20.00     0.012 C 
HETATM    2  C2  UNL     1     -32.423   8.646   0.110  1.00 20.00    -0.117 C 
HETATM    3  C6  UNL     1     -31.300   8.357   1.013  1.00 20.00     0.093 C 
ENDROOT
BRANCH   3   4
HETATM    4  C7  UNL     1     -31.754   8.154   2.460  1.00 20.00     0.012 C 
BRANCH   4   5
HETATM    5  C8  UNL     1     -32.683   6.945   2.629  1.00 20.00     0.002 C 
BRANCH   5   6
HETATM    6  C9  UNL     1     -33.150   6.807   4.087  1.00 20.00     0.021 C 
BRANCH   6   7
HETATM    7  C10 UNL     1     -34.153   5.654   4.304  1.00 20.00     0.089 C 
HETATM    8 CL12 UNL     1     -33.748   4.306   3.175  1.00 20.00    -0.124 Cl
BRANCH   7   9
HETATM    9  C11 UNL     1     -34.263   5.149   5.785  1.00 20.00    -0.035 C 
HETATM   10  C3  UNL     1     -35.277   3.987   5.878  1.00 20.00     0.016 C 
HETATM   11  C4  UNL     1     -32.902   4.599   6.270  1.00 20.00     0.016 C 
HETATM   12  C5  UNL     1     -34.715   6.258   6.754  1.00 20.00     0.016 C 
ENDBRANCH   7   9
ENDBRANCH   6   7
ENDBRANCH   5   6
ENDBRANCH   4   5
ENDBRANCH   3   4
TORSDOF 5
