REMARK  4 active torsions:
REMARK  status: ('A' for Active; 'I' for Inactive)
REMARK    1  A    between atoms: C1_1  and  C6_6 
REMARK    2  A    between atoms: C1_1  and  C8_8 
REMARK    3  A    between atoms: C7_7  and  C9_9 
REMARK    4  A    between atoms: C8_8  and  C9_9 
ROOT
HETATM    1  C1  UNL     1     -34.056   5.564   4.288  1.00 20.00     0.131 C 
HETATM    2  O10 UNL     1     -34.786   5.075   3.428  1.00 20.00    -0.298 OA
ENDROOT
BRANCH   1   3
HETATM    3  C6  UNL     1     -33.947   4.946   5.658  1.00 20.00     0.055 A 
HETATM    4  C2  UNL     1     -34.227   5.805   6.837  1.00 20.00     0.013 A 
HETATM    5  C3  UNL     1     -35.200   4.739   6.430  1.00 20.00     0.013 A 
ENDBRANCH   1   3
BRANCH   1   6
HETATM    6  C8  UNL     1     -33.217   6.808   4.048  1.00 20.00     0.079 C 
BRANCH   6   7
HETATM    7  C9  UNL     1     -32.818   6.971   2.585  1.00 20.00     0.012 C 
BRANCH   7   8
HETATM    8  C7  UNL     1     -32.009   8.239   2.366  1.00 20.00    -0.014 A 
HETATM    9  C4  UNL     1     -31.887   8.832   0.989  1.00 20.00     0.005 A 
HETATM   10  C5  UNL     1     -32.703   9.532   2.039  1.00 20.00     0.005 A 
ENDBRANCH   7   8
ENDBRANCH   6   7
ENDBRANCH   1   6
TORSDOF 4
