REMARK  3 active torsions:
REMARK  status: ('A' for Active; 'I' for Inactive)
REMARK    1  A    between atoms: C6_6  and  C9_9 
REMARK    2  A    between atoms: C7_7  and  O10_10 
REMARK    3  A    between atoms: C8_8  and  C9_9 
ROOT
HETATM    1  C1  UNL     1     -32.776   9.386   1.902  1.00 20.00     0.012 C 
HETATM    2  C2  UNL     1     -32.178   8.423   2.297  1.00 20.00    -0.117 C 
HETATM    3  C8  UNL     1     -31.443   7.248   2.783  1.00 20.00     0.093 C 
ENDROOT
BRANCH   3   4
HETATM    4  C9  UNL     1     -32.308   6.003   2.687  1.00 20.00     0.017 C 
BRANCH   4   5
HETATM    5  C6  UNL     1     -33.570   6.149   3.522  1.00 20.00    -0.011 C 
HETATM    6  C3  UNL     1     -33.282   6.419   4.996  1.00 20.00     0.007 C 
HETATM    7  C4  UNL     1     -34.591   6.035   5.670  1.00 20.00     0.032 C 
HETATM    8  C7  UNL     1     -35.002   4.759   4.944  1.00 20.00     0.118 C 
HETATM    9  C5  UNL     1     -34.447   4.887   3.521  1.00 20.00     0.036 C 
BRANCH   8  10
HETATM   10  O10 UNL     1     -34.394   3.633   5.570  1.00 20.00    -0.396 OA
HETATM   11  H24 UNL     1     -34.683   2.851   5.075  1.00 20.00     0.210 HD
ENDBRANCH   8  10
ENDBRANCH   4   5
ENDBRANCH   3   4
TORSDOF 3
