REMARK  3 active torsions:
REMARK  status: ('A' for Active; 'I' for Inactive)
REMARK    1  A    between atoms: C4_4  and  C5_5 
REMARK    2  A    between atoms: C5_5  and  C6_6 
REMARK    3  A    between atoms: C6_6  and  C7_7 
ROOT
HETATM    1  C1  UNL     1     -34.062   5.778   6.097  1.00 20.00     0.033 C 
HETATM    2  C2  UNL     1     -34.614   4.377   5.932  1.00 20.00     0.168 C 
HETATM    3  C3  UNL     1     -35.171   5.612   4.036  1.00 20.00     0.172 C 
HETATM    4  C4  UNL     1     -33.959   6.274   4.670  1.00 20.00     0.011 C 
HETATM    5  O8  UNL     1     -35.370   4.363   4.714  1.00 20.00    -0.391 OA
ENDROOT
BRANCH   4   6
HETATM    6  C5  UNL     1     -32.658   5.832   4.002  1.00 20.00     0.008 C 
BRANCH   6   7
HETATM    7  C6  UNL     1     -32.545   6.370   2.574  1.00 20.00     0.015 C 
BRANCH   7   8
HETATM    8  C7  UNL     1     -32.610   7.892   2.552  1.00 20.00     0.114 C 
HETATM    9 CL9  UNL     1     -32.461   8.495   0.885  1.00 20.00    -0.130 Cl
ENDBRANCH   7   8
ENDBRANCH   6   7
ENDBRANCH   4   6
TORSDOF 3
