REMARK  1 active torsions:
REMARK  status: ('A' for Active; 'I' for Inactive)
REMARK    1  A    between atoms: C7_7  and  C8_8 
ROOT
HETATM    1  C1  UNL     1     -32.153   8.127   1.999  1.00 20.00     0.012 C 
HETATM    2  C2  UNL     1     -32.744   7.138   2.337  1.00 20.00    -0.117 C 
HETATM    3  C8  UNL     1     -33.463   5.925   2.748  1.00 20.00     0.098 C 
ENDROOT
BRANCH   3   4
HETATM    4  C7  UNL     1     -34.671   6.266   3.621  1.00 20.00     0.004 C 
HETATM    5  C5  UNL     1     -34.274   6.500   5.081  1.00 20.00     0.083 C 
HETATM    6  C3  UNL     1     -34.417   5.124   5.681  1.00 20.00     0.127 C 
HETATM    7  C4  UNL     1     -35.133   4.169   4.763  1.00 20.00     0.079 C 
HETATM    8  O9  UNL     1     -34.000   4.819   6.791  1.00 20.00    -0.298 OA
HETATM    9  C6  UNL     1     -35.673   5.110   3.692  1.00 20.00     0.013 C 
ENDBRANCH   3   4
TORSDOF 1
