REMARK  2 active torsions:
REMARK  status: ('A' for Active; 'I' for Inactive)
REMARK    1  A    between atoms: C6_6  and  C7_7 
REMARK    2  A    between atoms: C8_8  and  O9_9 
ROOT
HETATM    1  C3  UNL     1     -34.046   7.177   5.091  1.00 20.00     0.007 C 
HETATM    2  C4  UNL     1     -33.854   5.958   5.992  1.00 20.00     0.032 C 
HETATM    3  C5  UNL     1     -35.265   5.411   4.071  1.00 20.00     0.036 C 
HETATM    4  C7  UNL     1     -34.392   6.611   3.715  1.00 20.00    -0.008 C 
HETATM    5  C8  UNL     1     -34.619   4.814   5.320  1.00 20.00     0.118 C 
ENDROOT
BRANCH   4   6
HETATM    6  C6  UNL     1     -33.148   6.213   2.923  1.00 20.00    -0.010 A 
HETATM    7  C1  UNL     1     -32.131   7.251   2.537  1.00 20.00     0.005 A 
HETATM    8  C2  UNL     1     -31.796   6.222   3.581  1.00 20.00     0.005 A 
ENDBRANCH   4   6
BRANCH   5   9
HETATM    9  O9  UNL     1     -35.619   4.288   6.178  1.00 20.00    -0.396 OA
HETATM   10  H23 UNL     1     -36.057   3.575   5.688  1.00 20.00     0.210 HD
ENDBRANCH   5   9
TORSDOF 2
