REMARK  2 active torsions:
REMARK  status: ('A' for Active; 'I' for Inactive)
REMARK    1  A    between atoms: C2_2  and  C10_10 
REMARK    2  A    between atoms: C7_7  and  C10_10 
ROOT
HETATM    1  C1  UNL     1     -31.621   8.671   1.001  1.00 20.00    -0.111 C 
HETATM    2  C2  UNL     1     -31.673   7.973   1.977  1.00 20.00    -0.107 C 
HETATM    3  C9  UNL     1     -31.559   9.520  -0.187  1.00 20.00     0.112 C 
ENDROOT
BRANCH   2   4
HETATM    4  C10 UNL     1     -31.724   7.123   3.170  1.00 20.00     0.098 C 
BRANCH   4   5
HETATM    5  C7  UNL     1     -33.139   6.600   3.407  1.00 20.00    -0.002 C 
HETATM    6  C4  UNL     1     -33.448   5.428   2.465  1.00 20.00     0.005 C 
HETATM    7  C3  UNL     1     -34.839   4.851   2.718  1.00 20.00     0.002 C 
HETATM    8  C5  UNL     1     -35.023   4.445   4.178  1.00 20.00     0.020 C 
HETATM    9  C8  UNL     1     -34.722   5.613   5.117  1.00 20.00     0.082 C 
HETATM   10  C6  UNL     1     -33.325   6.185   4.875  1.00 20.00     0.025 C 
HETATM   11 CL11 UNL     1     -34.874   5.080   6.816  1.00 20.00    -0.125 Cl
ENDBRANCH   4   5
ENDBRANCH   2   4
TORSDOF 2
