REMARK  2 active torsions:
REMARK  status: ('A' for Active; 'I' for Inactive)
REMARK    1  A    between atoms: C4_4  and  C10_10 
REMARK    2  A    between atoms: C8_8  and  C10_10 
ROOT
HETATM    1  C5  UNL     1     -33.638   8.939   2.641  1.00 20.00     0.006 C 
HETATM    2  C6  UNL     1     -33.257  10.219   1.911  1.00 20.00     0.020 C 
HETATM    3  C7  UNL     1     -31.673   8.540   1.229  1.00 20.00     0.025 C 
HETATM    4  C8  UNL     1     -32.402   8.043   2.492  1.00 20.00    -0.009 C 
HETATM    5  C9  UNL     1     -32.533   9.681   0.687  1.00 20.00     0.082 C 
HETATM    6 CL12 UNL     1     -31.575  10.924  -0.130  1.00 20.00    -0.125 Cl
ENDROOT
BRANCH   4   7
HETATM    7  C10 UNL     1     -32.760   6.566   2.431  1.00 20.00     0.043 C 
BRANCH   7   8
HETATM    8  C4  UNL     1     -33.484   6.113   3.671  1.00 20.00    -0.051 A 
HETATM    9  C1  UNL     1     -34.475   5.089   3.684  1.00 20.00     0.014 A 
HETATM   10  C2  UNL     1     -34.978   4.871   4.947  1.00 20.00     0.050 A 
HETATM   11  S11 UNL     1     -34.257   5.899   6.112  1.00 20.00    -0.113 SA
HETATM   12  C3  UNL     1     -33.268   6.639   4.926  1.00 20.00     0.056 A 
ENDBRANCH   7   8
ENDBRANCH   4   7
TORSDOF 2
