REMARK  1 active torsions:
REMARK  status: ('A' for Active; 'I' for Inactive)
REMARK    1  A    between atoms: C4_4  and  C8_8 
ROOT
HETATM    1  C1  UNL     1     -34.875   3.864   6.140  1.00 20.00     0.135 A 
HETATM    2  C2  UNL     1     -34.962   3.856   4.765  1.00 20.00     0.136 A 
HETATM    3  C3  UNL     1     -33.798   5.879   6.060  1.00 20.00     0.143 A 
HETATM    4  C4  UNL     1     -33.884   5.872   4.685  1.00 20.00     0.056 A 
HETATM    5  N10 UNL     1     -34.291   4.876   6.812  1.00 20.00    -0.270 NA
HETATM    6  N11 UNL     1     -34.469   4.860   4.013  1.00 20.00    -0.262 NA
ENDROOT
BRANCH   4   7
HETATM    7  C8  UNL     1     -33.319   7.016   3.875  1.00 20.00     0.041 C 
HETATM    8  C5  UNL     1     -31.803   7.244   4.058  1.00 20.00     0.012 C 
HETATM    9  C6  UNL     1     -31.190   7.118   2.664  1.00 20.00     0.021 C 
HETATM   10  C9  UNL     1     -32.317   7.483   1.707  1.00 20.00     0.083 C 
HETATM   11  C7  UNL     1     -33.530   6.830   2.359  1.00 20.00     0.031 C 
HETATM   12 CL12 UNL     1     -32.522   9.255   1.608  1.00 20.00    -0.125 Cl
ENDBRANCH   4   7
TORSDOF 1
