REMARK  1 active torsions:
REMARK  status: ('A' for Active; 'I' for Inactive)
REMARK    1  A    between atoms: C8_8  and  C9_9 
ROOT
HETATM    1  C1  UNL     1     -33.490   5.033   2.072  1.00 20.00     0.002 C 
HETATM    2  C2  UNL     1     -32.093   5.611   2.303  1.00 20.00     0.005 C 
HETATM    3  C3  UNL     1     -34.456   5.274   3.235  1.00 20.00     0.020 C 
HETATM    4  C5  UNL     1     -32.878   6.891   4.366  1.00 20.00     0.025 C 
HETATM    5  C8  UNL     1     -32.109   6.961   3.030  1.00 20.00    -0.007 C 
HETATM    6  C10 UNL     1     -33.720   5.620   4.524  1.00 20.00     0.082 C 
HETATM    7 CL12 UNL     1     -34.884   5.823   5.865  1.00 20.00    -0.125 Cl
ENDROOT
BRANCH   5   8
HETATM    8  C9  UNL     1     -32.662   8.056   2.139  1.00 20.00     0.015 C 
HETATM    9  C4  UNL     1     -31.849   8.309   0.888  1.00 20.00     0.033 C 
HETATM   10  C6  UNL     1     -32.316   9.694   0.493  1.00 20.00     0.168 C 
HETATM   11  O11 UNL     1     -32.643  10.384   1.709  1.00 20.00    -0.391 OA
HETATM   12  C7  UNL     1     -32.656   9.432   2.783  1.00 20.00     0.172 C 
ENDBRANCH   5   8
TORSDOF 1
