REMARK  6 active torsions:
REMARK  status: ('A' for Active; 'I' for Inactive)
REMARK    1  A    between atoms: C3_3  and  C10_10 
REMARK    2  A    between atoms: C6_6  and  C11_11 
REMARK    3  A    between atoms: C7_7  and  C8_8 
REMARK    4  A    between atoms: C7_7  and  C9_9 
REMARK    5  A    between atoms: C8_8  and  C10_10 
REMARK    6  A    between atoms: C9_9  and  C11_11 
ROOT
HETATM    1  C7  UNL     1     -33.065   7.522   3.187  1.00 20.00     0.002 C 
ENDROOT
BRANCH   1   2
HETATM    2  C8  UNL     1     -32.482   6.631   4.293  1.00 20.00     0.020 C 
BRANCH   2   3
HETATM    3  C10 UNL     1     -33.511   5.968   5.220  1.00 20.00     0.086 C 
HETATM    4 CL12 UNL     1     -33.950   7.036   6.584  1.00 20.00    -0.125 Cl
BRANCH   3   5
HETATM    5  C3  UNL     1     -34.760   5.531   4.514  1.00 20.00     0.004 A 
HETATM    6  C1  UNL     1     -34.680   4.909   3.148  1.00 20.00     0.006 A 
HETATM    7  C2  UNL     1     -35.057   4.068   4.336  1.00 20.00     0.006 A 
ENDBRANCH   3   5
ENDBRANCH   2   3
ENDBRANCH   1   2
BRANCH   1   8
HETATM    8  C9  UNL     1     -31.955   8.076   2.287  1.00 20.00     0.004 C 
BRANCH   8   9
HETATM    9  C11 UNL     1     -32.480   8.906   1.099  1.00 20.00    -0.019 C 
HETATM   10  C5  UNL     1     -32.751  10.344   1.554  1.00 20.00     0.010 C 
BRANCH   9  11
HETATM   11  C6  UNL     1     -31.573   8.876  -0.148  1.00 20.00    -0.000 C 
HETATM   12  C4  UNL     1     -32.084   9.667  -1.344  1.00 20.00     0.005 C 
ENDBRANCH   9  11
ENDBRANCH   8   9
ENDBRANCH   1   8
TORSDOF 6
