REMARK  6 active torsions:
REMARK  status: ('A' for Active; 'I' for Inactive)
REMARK    1  A    between atoms: C4_4  and  C6_6 
REMARK    2  A    between atoms: C5_5  and  C9_9 
REMARK    3  A    between atoms: C6_6  and  C7_7 
REMARK    4  A    between atoms: C7_7  and  C8_8 
REMARK    5  A    between atoms: C8_8  and  C9_9 
REMARK    6  A    between atoms: C9_9  and  O10_10 
ROOT
HETATM    1  C1  UNL     1     -32.762  10.929   0.334  1.00 20.00     0.012 C 
HETATM    2  C2  UNL     1     -32.424   9.839   0.705  1.00 20.00    -0.117 C 
HETATM    3  C4  UNL     1     -32.009   8.502   1.158  1.00 20.00     0.093 C 
ENDROOT
BRANCH   3   4
HETATM    4  C6  UNL     1     -32.652   8.154   2.501  1.00 20.00     0.012 C 
BRANCH   4   5
HETATM    5  C7  UNL     1     -32.198   6.803   3.062  1.00 20.00     0.003 C 
BRANCH   5   6
HETATM    6  C8  UNL     1     -32.783   6.492   4.444  1.00 20.00     0.032 C 
BRANCH   6   7
HETATM    7  C9  UNL     1     -34.317   6.491   4.433  1.00 20.00     0.117 C 
BRANCH   7   8
HETATM    8  C5  UNL     1     -34.881   6.219   5.833  1.00 20.00     0.027 C 
HETATM    9  C3  UNL     1     -34.413   4.883   6.394  1.00 20.00     0.007 C 
ENDBRANCH   7   8
BRANCH   7  10
HETATM   10  O10 UNL     1     -34.787   5.497   3.526  1.00 20.00    -0.396 OA
HETATM   11  H26 UNL     1     -35.755   5.559   3.526  1.00 20.00     0.210 HD
ENDBRANCH   7  10
ENDBRANCH   6   7
ENDBRANCH   5   6
ENDBRANCH   4   5
ENDBRANCH   3   4
TORSDOF 6
