REMARK  3 active torsions:
REMARK  status: ('A' for Active; 'I' for Inactive)
REMARK    1  A    between atoms: C5_5  and  C9_9 
REMARK    2  A    between atoms: C9_9  and  C11_11 
REMARK    3  A    between atoms: C10_10  and  C11_11 
ROOT
HETATM    1  C1  UNL     1     -32.821   5.616   5.657  1.00 20.00     0.002 C 
HETATM    2  C2  UNL     1     -32.597   6.040   4.204  1.00 20.00     0.005 C 
HETATM    3  C3  UNL     1     -34.271   5.755   6.126  1.00 20.00     0.020 C 
HETATM    4  C4  UNL     1     -35.068   6.514   3.838  1.00 20.00     0.024 C 
HETATM    5  C5  UNL     1     -33.632   7.065   3.737  1.00 20.00    -0.013 C 
HETATM    6  C6  UNL     1     -35.291   5.546   5.010  1.00 20.00     0.082 C 
HETATM    7 CL12 UNL     1     -35.233   3.845   4.437  1.00 20.00    -0.125 Cl
ENDROOT
BRANCH   5   8
HETATM    8  C9  UNL     1     -33.335   7.542   2.316  1.00 20.00     0.009 C 
BRANCH   8   9
HETATM    9  C11 UNL     1     -32.212   8.594   2.239  1.00 20.00    -0.019 C 
HETATM   10  C8  UNL     1     -32.716   9.989   2.624  1.00 20.00     0.010 C 
BRANCH   9  11
HETATM   11  C10 UNL     1     -31.617   8.578   0.815  1.00 20.00    -0.000 C 
HETATM   12  C7  UNL     1     -32.612   8.957  -0.273  1.00 20.00     0.005 C 
ENDBRANCH   9  11
ENDBRANCH   8   9
ENDBRANCH   5   8
TORSDOF 3
