REMARK  4 active torsions:
REMARK  status: ('A' for Active; 'I' for Inactive)
REMARK    1  A    between atoms: C4_4  and  C8_8 
REMARK    2  A    between atoms: C5_5  and  C9_9 
REMARK    3  A    between atoms: C5_5  and  O11_11 
REMARK    4  A    between atoms: C9_9  and  C10_10 
ROOT
HETATM    1  C1  UNL     1     -31.656   6.700   3.047  1.00 20.00     0.007 C 
HETATM    2  C2  UNL     1     -32.640   5.678   3.628  1.00 20.00     0.038 C 
HETATM    3  C3  UNL     1     -33.935   7.316   2.463  1.00 20.00     0.042 C 
HETATM    4  C4  UNL     1     -32.502   7.855   2.493  1.00 20.00    -0.012 C 
HETATM    5  C5  UNL     1     -33.988   6.399   3.683  1.00 20.00     0.058 C 
ENDROOT
BRANCH   5   6
HETATM    6  C9  UNL     1     -35.180   5.454   3.668  1.00 20.00     0.037 C 
BRANCH   6   7
HETATM    7  C10 UNL     1     -34.910   4.200   4.496  1.00 20.00    -0.002 C 
HETATM    8  C7  UNL     1     -34.594   4.545   5.942  1.00 20.00     0.005 C 
ENDBRANCH   6   7
ENDBRANCH   5   6
BRANCH   5   9
HETATM    9  O11 UNL     1     -34.053   7.202   4.861  1.00 20.00    -0.390 OA
HETATM   10  H31 UNL     1     -34.920   7.635   4.851  1.00 20.00     0.210 HD
ENDBRANCH   5   9
BRANCH   4  11
HETATM   11  C8  UNL     1     -32.027   8.348   1.136  1.00 20.00     0.000 C 
HETATM   12  C6  UNL     1     -32.875   9.467   0.621  1.00 20.00     0.005 C 
ENDBRANCH   4  11
TORSDOF 4
