REMARK  1 active torsions:
REMARK  status: ('A' for Active; 'I' for Inactive)
REMARK    1  A    between atoms: C8_8  and  C10_10 
ROOT
HETATM    1  C1  UNL     1     -32.939   8.844   1.809  1.00 20.00     0.012 C 
HETATM    2  C2  UNL     1     -32.509   7.787   2.182  1.00 20.00    -0.117 C 
HETATM    3  C10 UNL     1     -31.971   6.502   2.626  1.00 20.00     0.097 C 
ENDROOT
BRANCH   3   4
HETATM    4  C8  UNL     1     -32.906   5.845   3.650  1.00 20.00    -0.002 C 
HETATM    5  C5  UNL     1     -34.268   5.589   2.982  1.00 20.00     0.005 C 
HETATM    6  C3  UNL     1     -35.224   4.685   3.754  1.00 20.00     0.000 C 
HETATM    7  C4  UNL     1     -35.552   5.135   5.176  1.00 20.00     0.001 C 
HETATM    8  C6  UNL     1     -34.391   4.917   6.145  1.00 20.00     0.016 C 
HETATM    9  C9  UNL     1     -33.356   6.037   6.183  1.00 20.00     0.058 C 
HETATM   10  C7  UNL     1     -33.041   6.764   4.876  1.00 20.00     0.021 C 
HETATM   11 BR11 UNL     1     -33.923   7.392   7.502  1.00 20.00    -0.091 Br
ENDBRANCH   3   4
TORSDOF 1
