REMARK  2 active torsions:
REMARK  status: ('A' for Active; 'I' for Inactive)
REMARK    1  A    between atoms: C6_6  and  C9_9 
REMARK    2  A    between atoms: C8_8  and  C9_9 
ROOT
HETATM    1  C1  UNL     1     -33.266  10.026   2.003  1.00 20.00     0.012 C 
HETATM    2  C2  UNL     1     -32.606   9.025   2.051  1.00 20.00    -0.117 C 
HETATM    3  C8  UNL     1     -31.795   7.801   2.104  1.00 20.00     0.093 C 
ENDROOT
BRANCH   3   4
HETATM    4  C9  UNL     1     -31.920   7.142   3.467  1.00 20.00     0.017 C 
BRANCH   4   5
HETATM    5  C6  UNL     1     -33.364   6.768   3.763  1.00 20.00    -0.012 C 
HETATM    6  C3  UNL     1     -33.922   5.751   2.760  1.00 20.00     0.006 C 
HETATM    7  C4  UNL     1     -34.910   4.930   3.575  1.00 20.00     0.020 C 
HETATM    8  C7  UNL     1     -34.168   4.760   4.891  1.00 20.00     0.082 C 
HETATM    9  C5  UNL     1     -33.549   6.132   5.153  1.00 20.00     0.024 C 
HETATM   10 CL10 UNL     1     -35.235   4.234   6.202  1.00 20.00    -0.125 Cl
ENDBRANCH   4   5
ENDBRANCH   3   4
TORSDOF 2
