REMARK  1 active torsions:
REMARK  status: ('A' for Active; 'I' for Inactive)
REMARK    1  A    between atoms: C7_7  and  C9_9 
ROOT
HETATM    1  C1  UNL     1     -32.385   8.238   2.151  1.00 20.00     0.012 C 
HETATM    2  C2  UNL     1     -32.669   7.154   2.581  1.00 20.00    -0.117 C 
HETATM    3  C9  UNL     1     -33.006   5.826   3.100  1.00 20.00     0.097 C 
ENDROOT
BRANCH   3   4
HETATM    4  C7  UNL     1     -34.330   5.858   3.869  1.00 20.00    -0.002 C 
HETATM    5  C4  UNL     1     -34.157   6.463   5.270  1.00 20.00     0.005 C 
HETATM    6  C3  UNL     1     -33.439   5.529   6.243  1.00 20.00     0.002 C 
HETATM    7  C5  UNL     1     -34.110   4.159   6.310  1.00 20.00     0.020 C 
HETATM    8  C8  UNL     1     -34.242   3.533   4.922  1.00 20.00     0.082 C 
HETATM    9  C6  UNL     1     -34.973   4.464   3.952  1.00 20.00     0.025 C 
HETATM   10 CL10 UNL     1     -35.116   1.978   5.042  1.00 20.00    -0.125 Cl
ENDBRANCH   3   4
TORSDOF 1
