REMARK  3 active torsions:
REMARK  status: ('A' for Active; 'I' for Inactive)
REMARK    1  A    between atoms: C3_3  and  C5_5 
REMARK    2  A    between atoms: C5_5  and  C6_6 
REMARK    3  A    between atoms: C6_6  and  C7_7 
ROOT
HETATM    1  C5  UNL     1     -33.763   6.420   3.728  1.00 20.00     0.006 C 
ENDROOT
BRANCH   1   2
HETATM    2  C3  UNL     1     -34.040   5.619   4.965  1.00 20.00    -0.014 A 
HETATM    3  C1  UNL     1     -35.422   5.090   5.231  1.00 20.00     0.005 A 
HETATM    4  C2  UNL     1     -34.312   4.144   4.865  1.00 20.00     0.005 A 
ENDBRANCH   1   2
BRANCH   1   5
HETATM    5  C6  UNL     1     -32.267   6.449   3.397  1.00 20.00     0.015 C 
BRANCH   5   6
HETATM    6  C7  UNL     1     -31.941   7.271   2.148  1.00 20.00     0.053 C 
HETATM    7  C4  UNL     1     -32.377   8.722   2.301  1.00 20.00     0.022 C 
HETATM    8 BR8  UNL     1     -30.007   7.258   1.818  1.00 20.00    -0.092 Br
ENDBRANCH   5   6
ENDBRANCH   1   5
TORSDOF 3
