REMARK  1 active torsions:
REMARK  status: ('A' for Active; 'I' for Inactive)
REMARK    1  A    between atoms: C4_4  and  C9_9 
ROOT
HETATM    1  C1  UNL     1     -33.866   5.521   3.976  1.00 20.00     0.052 A 
HETATM    2  C2  UNL     1     -33.385   7.030   5.749  1.00 20.00     0.123 A 
HETATM    3  C3  UNL     1     -34.625   5.149   6.199  1.00 20.00     0.158 A 
HETATM    4  C4  UNL     1     -33.264   6.696   4.410  1.00 20.00    -0.034 A 
HETATM    5  C5  UNL     1     -34.562   4.727   4.881  1.00 20.00     0.134 A 
HETATM    6  N11 UNL     1     -34.052   6.285   6.658  1.00 20.00    -0.269 NA
HETATM    7  F12 UNL     1     -35.151   3.591   4.491  1.00 20.00    -0.205 F 
ENDROOT
BRANCH   4   8
HETATM    8  C9  UNL     1     -32.500   7.582   3.450  1.00 20.00     0.021 C 
HETATM    9  C6  UNL     1     -32.413   7.029   2.010  1.00 20.00     0.011 C 
HETATM   10  C7  UNL     1     -32.397   8.241   1.073  1.00 20.00     0.021 C 
HETATM   11  C10 UNL     1     -32.283   9.451   1.989  1.00 20.00     0.083 C 
HETATM   12  C8  UNL     1     -33.023   9.012   3.244  1.00 20.00     0.029 C 
HETATM   13 CL13 UNL     1     -32.979  10.911   1.273  1.00 20.00    -0.125 Cl
ENDBRANCH   4   8
TORSDOF 1
