REMARK  1 active torsions:
REMARK  status: ('A' for Active; 'I' for Inactive)
REMARK    1  A    between atoms: C6_6  and  C7_7 
ROOT
HETATM    1  C1  UNL     1     -35.207   4.399   4.245  1.00 20.00     0.002 C 
HETATM    2  C2  UNL     1     -35.271   5.699   3.438  1.00 20.00     0.006 C 
HETATM    3  C5  UNL     1     -34.500   4.736   5.560  1.00 20.00     0.020 C 
HETATM    4  C7  UNL     1     -34.263   6.648   4.100  1.00 20.00     0.008 C 
HETATM    5  C8  UNL     1     -34.414   6.259   5.575  1.00 20.00     0.086 C 
HETATM    6 CL9  UNL     1     -33.138   6.855   6.647  1.00 20.00    -0.125 Cl
ENDROOT
BRANCH   4   7
HETATM    7  C6  UNL     1     -32.882   6.464   3.522  1.00 20.00    -0.009 A 
HETATM    8  C3  UNL     1     -32.487   7.183   2.261  1.00 20.00     0.005 A 
HETATM    9  C4  UNL     1     -31.883   7.587   3.578  1.00 20.00     0.005 A 
ENDBRANCH   4   7
TORSDOF 1
