REMARK  1 active torsions:
REMARK  status: ('A' for Active; 'I' for Inactive)
REMARK    1  A    between atoms: C6_6  and  C7_7 
ROOT
HETATM    1  C3  UNL     1     -32.684   6.805   4.692  1.00 20.00     0.006 C 
HETATM    2  C4  UNL     1     -31.580   6.720   3.635  1.00 20.00     0.020 C 
HETATM    3  C5  UNL     1     -33.606   6.164   2.525  1.00 20.00     0.025 C 
HETATM    4  C7  UNL     1     -34.008   6.552   3.953  1.00 20.00    -0.009 C 
HETATM    5  C8  UNL     1     -32.285   6.887   2.295  1.00 20.00     0.082 C 
HETATM    6 CL9  UNL     1     -32.553   8.615   1.929  1.00 20.00    -0.125 Cl
ENDROOT
BRANCH   4   7
HETATM    7  C6  UNL     1     -34.873   5.496   4.625  1.00 20.00    -0.010 A 
HETATM    8  C1  UNL     1     -34.244   4.264   5.214  1.00 20.00     0.005 A 
HETATM    9  C2  UNL     1     -34.825   5.316   6.117  1.00 20.00     0.005 A 
ENDBRANCH   4   7
TORSDOF 1
