REMARK  2 active torsions:
REMARK  status: ('A' for Active; 'I' for Inactive)
REMARK    1  A    between atoms: C7_7  and  C9_9 
REMARK    2  A    between atoms: C8_8  and  O10_10 
ROOT
HETATM    1  C1  UNL     1     -31.902   8.720   0.302  1.00 20.00     0.012 C 
HETATM    2  C2  UNL     1     -31.813   8.148   1.354  1.00 20.00    -0.117 C 
HETATM    3  C9  UNL     1     -31.694   7.452   2.638  1.00 20.00     0.097 C 
ENDROOT
BRANCH   3   4
HETATM    4  C7  UNL     1     -33.064   7.022   3.158  1.00 20.00    -0.001 C 
HETATM    5  C4  UNL     1     -33.549   5.760   2.431  1.00 20.00     0.005 C 
HETATM    6  C3  UNL     1     -34.894   5.277   2.969  1.00 20.00     0.003 C 
HETATM    7  C5  UNL     1     -34.852   5.062   4.477  1.00 20.00     0.032 C 
HETATM    8  C8  UNL     1     -34.371   6.314   5.209  1.00 20.00     0.118 C 
HETATM    9  C6  UNL     1     -33.023   6.796   4.674  1.00 20.00     0.037 C 
BRANCH   8  10
HETATM   10  O10 UNL     1     -34.262   6.040   6.602  1.00 20.00    -0.396 OA
HETATM   11  H24 UNL     1     -35.147   5.782   6.904  1.00 20.00     0.210 HD
ENDBRANCH   8  10
ENDBRANCH   3   4
TORSDOF 2
