REMARK  1 active torsions:
REMARK  status: ('A' for Active; 'I' for Inactive)
REMARK    1  A    between atoms: C8_8  and  C9_9 
ROOT
HETATM    1  C1  UNL     1     -31.892   7.209   3.664  1.00 20.00     0.006 C 
HETATM    2  C2  UNL     1     -31.487   7.682   2.264  1.00 20.00     0.020 C 
HETATM    3  C5  UNL     1     -33.823   8.106   2.496  1.00 20.00     0.025 C 
HETATM    4  C8  UNL     1     -33.329   7.704   3.886  1.00 20.00    -0.009 C 
HETATM    5  C10 UNL     1     -32.566   8.680   1.861  1.00 20.00     0.082 C 
HETATM    6 CL12 UNL     1     -32.711   8.845   0.106  1.00 20.00    -0.125 Cl
ENDROOT
BRANCH   4   7
HETATM    7  C9  UNL     1     -34.225   6.669   4.562  1.00 20.00    -0.006 C 
HETATM    8  C3  UNL     1     -33.696   6.303   5.953  1.00 20.00     0.031 C 
HETATM    9  C6  UNL     1     -34.523   5.180   6.565  1.00 20.00     0.168 C 
HETATM   10  O11 UNL     1     -34.546   4.041   5.706  1.00 20.00    -0.391 OA
HETATM   11  C7  UNL     1     -35.144   4.332   4.443  1.00 20.00     0.168 C 
HETATM   12  C4  UNL     1     -34.353   5.405   3.705  1.00 20.00     0.031 C 
ENDBRANCH   4   7
TORSDOF 1
