REMARK  1 active torsions:
REMARK  status: ('A' for Active; 'I' for Inactive)
REMARK    1  A    between atoms: C7_7  and  C8_8 
ROOT
HETATM    1  C1  UNL     1     -34.869   5.418   6.714  1.00 20.00     0.002 C 
HETATM    2  C2  UNL     1     -33.833   6.325   6.059  1.00 20.00     0.005 C 
HETATM    3  C5  UNL     1     -35.125   4.159   5.887  1.00 20.00     0.016 C 
HETATM    4  C6  UNL     1     -34.479   5.440   3.779  1.00 20.00     0.020 C 
HETATM    5  C8  UNL     1     -34.233   6.699   4.627  1.00 20.00    -0.009 C 
HETATM    6  C9  UNL     1     -35.447   4.450   4.424  1.00 20.00     0.058 C 
HETATM    7 BR10 UNL     1     -37.289   5.104   4.259  1.00 20.00    -0.091 Br
ENDROOT
BRANCH   5   8
HETATM    8  C7  UNL     1     -33.162   7.578   3.982  1.00 20.00    -0.010 A 
HETATM    9  C3  UNL     1     -31.785   7.031   3.727  1.00 20.00     0.005 A 
HETATM   10  C4  UNL     1     -32.709   7.309   2.574  1.00 20.00     0.005 A 
ENDBRANCH   5   8
TORSDOF 1
