REMARK  2 active torsions:
REMARK  status: ('A' for Active; 'I' for Inactive)
REMARK    1  A    between atoms: C8_8  and  C10_10 
REMARK    2  A    between atoms: C9_9  and  C10_10 
ROOT
HETATM    1  C1  UNL     1     -32.727   9.070   2.114  1.00 20.00     0.012 C 
HETATM    2  C2  UNL     1     -32.461   7.984   2.550  1.00 20.00    -0.117 C 
HETATM    3  C9  UNL     1     -32.130   6.656   3.085  1.00 20.00     0.093 C 
ENDROOT
BRANCH   3   4
HETATM    4  C10 UNL     1     -33.279   5.695   2.846  1.00 20.00     0.017 C 
BRANCH   4   5
HETATM    5  C8  UNL     1     -34.557   6.196   3.525  1.00 20.00    -0.007 C 
HETATM    6  C5  UNL     1     -34.249   6.837   4.881  1.00 20.00     0.082 C 
HETATM    7  C3  UNL     1     -33.939   5.793   5.931  1.00 20.00     0.127 C 
HETATM    8  C4  UNL     1     -34.928   4.658   6.065  1.00 20.00     0.078 C 
HETATM    9  O11 UNL     1     -32.989   5.915   6.702  1.00 20.00    -0.298 OA
HETATM   10  C6  UNL     1     -35.214   4.031   4.708  1.00 20.00     0.008 C 
HETATM   11  C7  UNL     1     -35.605   5.080   3.668  1.00 20.00     0.005 C 
ENDBRANCH   4   5
ENDBRANCH   3   4
TORSDOF 2
