REMARK  4 active torsions:
REMARK  status: ('A' for Active; 'I' for Inactive)
REMARK    1  A    between atoms: C4_4  and  C6_6 
REMARK    2  A    between atoms: C5_5  and  C8_8 
REMARK    3  A    between atoms: C6_6  and  C7_7 
REMARK    4  A    between atoms: C7_7  and  C8_8 
ROOT
HETATM    1  C1  UNL     1     -32.814   9.602   0.804  1.00 20.00     0.012 C 
HETATM    2  C2  UNL     1     -32.442   8.633   1.406  1.00 20.00    -0.117 C 
HETATM    3  C4  UNL     1     -31.981   7.447   2.141  1.00 20.00     0.093 C 
ENDROOT
BRANCH   3   4
HETATM    4  C6  UNL     1     -33.054   6.896   3.085  1.00 20.00     0.014 C 
BRANCH   4   5
HETATM    5  C7  UNL     1     -32.612   5.608   3.797  1.00 20.00     0.021 C 
BRANCH   5   6
HETATM    6  C8  UNL     1     -33.678   5.057   4.757  1.00 20.00     0.082 C 
HETATM    7 CL9  UNL     1     -35.142   4.548   3.857  1.00 20.00    -0.125 Cl
BRANCH   6   8
HETATM    8  C5  UNL     1     -34.054   6.050   5.868  1.00 20.00     0.016 C 
HETATM    9  C3  UNL     1     -35.116   5.567   6.848  1.00 20.00     0.006 C 
ENDBRANCH   6   8
ENDBRANCH   5   6
ENDBRANCH   4   5
ENDBRANCH   3   4
TORSDOF 4
