REMARK  3 active torsions:
REMARK  status: ('A' for Active; 'I' for Inactive)
REMARK    1  A    between atoms: C2_2  and  C9_9 
REMARK    2  A    between atoms: C6_6  and  C9_9 
REMARK    3  A    between atoms: C7_7  and  O10_10 
ROOT
HETATM    1  C1  UNL     1     -32.142   8.419   1.603  1.00 20.00    -0.111 C 
HETATM    2  C2  UNL     1     -32.075   7.767   2.609  1.00 20.00    -0.107 C 
HETATM    3  C8  UNL     1     -32.225   9.213   0.378  1.00 20.00     0.112 C 
ENDROOT
BRANCH   2   4
HETATM    4  C9  UNL     1     -31.988   6.972   3.840  1.00 20.00     0.098 C 
BRANCH   4   5
HETATM    5  C6  UNL     1     -33.090   5.928   3.901  1.00 20.00    -0.001 C 
HETATM    6  C3  UNL     1     -34.490   6.536   3.884  1.00 20.00     0.008 C 
HETATM    7  C4  UNL     1     -35.352   5.410   4.439  1.00 20.00     0.032 C 
HETATM    8  C7  UNL     1     -34.511   4.853   5.583  1.00 20.00     0.118 C 
HETATM    9  C5  UNL     1     -33.050   5.077   5.179  1.00 20.00     0.037 C 
BRANCH   8  10
HETATM   10  O10 UNL     1     -34.773   5.589   6.774  1.00 20.00    -0.396 OA
HETATM   11  H24 UNL     1     -34.219   5.200   7.468  1.00 20.00     0.210 HD
ENDBRANCH   8  10
ENDBRANCH   4   5
ENDBRANCH   2   4
TORSDOF 3
