REMARK  1 active torsions:
REMARK  status: ('A' for Active; 'I' for Inactive)
REMARK    1  A    between atoms: C7_7  and  C9_9 
ROOT
HETATM    1  C1  UNL     1     -32.058   9.260   1.245  1.00 20.00     0.012 C 
HETATM    2  C2  UNL     1     -32.584   8.844   2.241  1.00 20.00    -0.117 C 
HETATM    3  C9  UNL     1     -33.233   8.348   3.457  1.00 20.00     0.097 C 
ENDROOT
BRANCH   3   4
HETATM    4  C7  UNL     1     -32.683   6.973   3.851  1.00 20.00    -0.002 C 
HETATM    5  C4  UNL     1     -32.863   5.959   2.716  1.00 20.00     0.005 C 
HETATM    6  C3  UNL     1     -34.322   5.563   2.484  1.00 20.00     0.002 C 
HETATM    7  C5  UNL     1     -35.137   5.432   3.774  1.00 20.00     0.020 C 
HETATM    8  C8  UNL     1     -34.242   5.276   4.999  1.00 20.00     0.082 C 
HETATM    9  C6  UNL     1     -33.312   6.482   5.172  1.00 20.00     0.025 C 
HETATM   10 CL10 UNL     1     -35.237   5.058   6.467  1.00 20.00    -0.125 Cl
ENDBRANCH   3   4
TORSDOF 1
