REMARK  2 active torsions:
REMARK  status: ('A' for Active; 'I' for Inactive)
REMARK    1  A    between atoms: C2_2  and  C9_9 
REMARK    2  A    between atoms: C7_7  and  C9_9 
ROOT
HETATM    1  C3  UNL     1     -34.924   5.178   2.820  1.00 20.00     0.002 C 
HETATM    2  C4  UNL     1     -33.581   5.755   2.365  1.00 20.00     0.005 C 
HETATM    3  C5  UNL     1     -35.203   5.371   4.313  1.00 20.00     0.020 C 
HETATM    4  C6  UNL     1     -33.042   6.643   4.680  1.00 20.00     0.025 C 
HETATM    5  C7  UNL     1     -33.185   6.985   3.184  1.00 20.00    -0.010 C 
HETATM    6  C8  UNL     1     -33.908   5.453   5.114  1.00 20.00     0.082 C 
HETATM    7 CL10 UNL     1     -34.260   5.552   6.862  1.00 20.00    -0.125 Cl
ENDROOT
BRANCH   5   8
HETATM    8  C9  UNL     1     -31.905   7.622   2.647  1.00 20.00     0.031 C 
BRANCH   8   9
HETATM    9  C2  UNL     1     -32.178   8.428   1.417  1.00 20.00    -0.037 C 
HETATM   10  C1  UNL     1     -32.525   9.720   1.434  1.00 20.00     0.007 C 
ENDBRANCH   8   9
ENDBRANCH   5   8
TORSDOF 2
