REMARK  2 active torsions:
REMARK  status: ('A' for Active; 'I' for Inactive)
REMARK    1  A    between atoms: C9_9  and  C11_11 
REMARK    2  A    between atoms: C10_10  and  C11_11 
ROOT
HETATM    1  C1  UNL     1     -32.058   8.626   1.249  1.00 20.00     0.012 C 
HETATM    2  C2  UNL     1     -31.816   7.979   2.231  1.00 20.00    -0.117 C 
HETATM    3  C10 UNL     1     -31.518   7.191   3.434  1.00 20.00     0.093 C 
ENDROOT
BRANCH   3   4
HETATM    4  C11 UNL     1     -32.488   6.034   3.549  1.00 20.00     0.017 C 
BRANCH   4   5
HETATM    5  C9  UNL     1     -33.927   6.546   3.624  1.00 20.00    -0.007 C 
HETATM    6  C5  UNL     1     -34.153   7.497   4.804  1.00 20.00     0.082 C 
HETATM    7  C3  UNL     1     -34.022   6.856   6.166  1.00 20.00     0.127 C 
HETATM    8  C4  UNL     1     -34.973   5.733   6.508  1.00 20.00     0.078 C 
HETATM    9  O12 UNL     1     -33.175   7.242   6.972  1.00 20.00    -0.298 OA
HETATM   10  C6  UNL     1     -34.470   4.426   5.923  1.00 20.00     0.007 C 
HETATM   11  C7  UNL     1     -34.793   4.203   4.444  1.00 20.00     0.001 C 
HETATM   12  C8  UNL     1     -34.979   5.429   3.549  1.00 20.00     0.005 C 
ENDBRANCH   4   5
ENDBRANCH   3   4
TORSDOF 2
