REMARK  2 active torsions:
REMARK  status: ('A' for Active; 'I' for Inactive)
REMARK    1  A    between atoms: C6_6  and  C7_7 
REMARK    2  A    between atoms: C8_8  and  O9_9 
ROOT
HETATM    1  C1  UNL     1     -34.837   4.268   5.851  1.00 20.00     0.003 C 
HETATM    2  C2  UNL     1     -34.382   4.838   4.507  1.00 20.00     0.007 C 
HETATM    3  C5  UNL     1     -34.403   5.277   6.915  1.00 20.00     0.032 C 
HETATM    4  C7  UNL     1     -33.333   5.887   4.866  1.00 20.00     0.018 C 
HETATM    5  C8  UNL     1     -33.905   6.494   6.144  1.00 20.00     0.122 C 
ENDROOT
BRANCH   4   6
HETATM    6  C6  UNL     1     -33.107   6.909   3.763  1.00 20.00    -0.008 A 
HETATM    7  C3  UNL     1     -31.799   7.647   3.671  1.00 20.00     0.005 A 
HETATM    8  C4  UNL     1     -32.153   6.611   2.640  1.00 20.00     0.005 A 
ENDBRANCH   4   6
BRANCH   5   9
HETATM    9  O9  UNL     1     -32.911   7.195   6.867  1.00 20.00    -0.395 OA
HETATM   10  H23 UNL     1     -33.316   7.481   7.704  1.00 20.00     0.210 HD
ENDBRANCH   5   9
TORSDOF 2
