REMARK  2 active torsions:
REMARK  status: ('A' for Active; 'I' for Inactive)
REMARK    1  A    between atoms: C2_2  and  C9_9 
REMARK    2  A    between atoms: C7_7  and  C9_9 
ROOT
HETATM    1  C1  UNL     1     -32.231   8.285   1.235  1.00 20.00    -0.111 C 
HETATM    2  C2  UNL     1     -32.231   7.819   2.342  1.00 20.00    -0.107 C 
HETATM    3  C8  UNL     1     -32.231   8.850  -0.113  1.00 20.00     0.112 C 
ENDROOT
BRANCH   2   4
HETATM    4  C9  UNL     1     -32.228   7.252   3.696  1.00 20.00     0.099 C 
BRANCH   4   5
HETATM    5  C7  UNL     1     -33.572   6.632   4.038  1.00 20.00     0.004 C 
HETATM    6  C5  UNL     1     -33.598   5.998   5.430  1.00 20.00     0.083 C 
HETATM    7  C3  UNL     1     -34.681   4.961   5.275  1.00 20.00     0.127 C 
HETATM    8  C4  UNL     1     -35.071   4.753   3.835  1.00 20.00     0.079 C 
HETATM    9  O10 UNL     1     -35.187   4.358   6.213  1.00 20.00    -0.298 OA
HETATM   10  C6  UNL     1     -33.951   5.483   3.102  1.00 20.00     0.013 C 
ENDBRANCH   4   5
ENDBRANCH   2   4
TORSDOF 2
