REMARK  1 active torsions:
REMARK  status: ('A' for Active; 'I' for Inactive)
REMARK    1  A    between atoms: C8_8  and  C10_10 
ROOT
HETATM    1  C1  UNL     1     -32.322   8.584   1.506  1.00 20.00     0.012 C 
HETATM    2  C2  UNL     1     -32.482   7.524   2.047  1.00 20.00    -0.117 C 
HETATM    3  C10 UNL     1     -32.660   6.227   2.699  1.00 20.00     0.097 C 
ENDROOT
BRANCH   3   4
HETATM    4  C8  UNL     1     -33.973   6.192   3.492  1.00 20.00    -0.002 C 
HETATM    5  C5  UNL     1     -33.826   6.978   4.804  1.00 20.00     0.005 C 
HETATM    6  C3  UNL     1     -33.239   6.202   5.983  1.00 20.00     0.000 C 
HETATM    7  C4  UNL     1     -34.086   5.048   6.538  1.00 20.00     0.001 C 
HETATM    8  C6  UNL     1     -35.517   4.970   6.009  1.00 20.00     0.016 C 
HETATM    9  C9  UNL     1     -35.616   4.460   4.570  1.00 20.00     0.058 C 
HETATM   10  C7  UNL     1     -34.430   4.731   3.644  1.00 20.00     0.021 C 
HETATM   11 BR11 UNL     1     -37.272   5.129   3.758  1.00 20.00    -0.091 Br
ENDBRANCH   3   4
TORSDOF 1
