REMARK  4 active torsions:
REMARK  status: ('A' for Active; 'I' for Inactive)
REMARK    1  A    between atoms: C5_5  and  C8_8 
REMARK    2  A    between atoms: C6_6  and  C9_9 
REMARK    3  A    between atoms: C9_9  and  C10_10 
REMARK    4  A    between atoms: C10_10  and  C11_11 
ROOT
HETATM    1  C1  UNL     1     -33.814   5.775   6.042  1.00 20.00     0.001 C 
HETATM    2  C2  UNL     1     -34.315   4.376   5.691  1.00 20.00     0.005 C 
HETATM    3  C3  UNL     1     -33.020   6.394   4.895  1.00 20.00     0.005 C 
HETATM    4  C4  UNL     1     -34.319   4.994   3.239  1.00 20.00     0.009 C 
HETATM    5  C5  UNL     1     -35.110   4.334   4.379  1.00 20.00    -0.014 C 
HETATM    6  C6  UNL     1     -33.819   6.405   3.586  1.00 20.00    -0.014 C 
ENDROOT
BRANCH   6   7
HETATM    7  C9  UNL     1     -32.973   6.970   2.445  1.00 20.00     0.005 C 
BRANCH   7   8
HETATM    8  C10 UNL     1     -32.913   8.492   2.507  1.00 20.00     0.015 C 
BRANCH   8   9
HETATM    9  C11 UNL     1     -32.041   9.043   1.387  1.00 20.00     0.114 C 
HETATM   10 CL12 UNL     1     -32.688   8.559  -0.198  1.00 20.00    -0.130 Cl
ENDBRANCH   8   9
ENDBRANCH   7   8
ENDBRANCH   6   7
BRANCH   5  11
HETATM   11  C8  UNL     1     -36.500   4.956   4.539  1.00 20.00     0.000 C 
HETATM   12  C7  UNL     1     -37.286   4.279   5.613  1.00 20.00     0.005 C 
ENDBRANCH   5  11
TORSDOF 4
