REMARK  3 active torsions:
REMARK  status: ('A' for Active; 'I' for Inactive)
REMARK    1  A    between atoms: C4_4  and  C7_7 
REMARK    2  A    between atoms: C7_7  and  C9_9 
REMARK    3  A    between atoms: C8_8  and  C9_9 
ROOT
HETATM    1  C1  UNL     1     -33.533   5.893   2.621  1.00 20.00     0.006 C 
HETATM    2  C2  UNL     1     -34.414   5.058   3.538  1.00 20.00     0.020 C 
HETATM    3  C3  UNL     1     -33.447   6.786   4.903  1.00 20.00     0.024 C 
HETATM    4  C4  UNL     1     -33.266   7.173   3.423  1.00 20.00    -0.013 C 
HETATM    5  C5  UNL     1     -33.770   5.293   4.895  1.00 20.00     0.082 C 
HETATM    6 CL10 UNL     1     -34.827   4.819   6.233  1.00 20.00    -0.125 Cl
ENDROOT
BRANCH   4   7
HETATM    7  C7  UNL     1     -31.899   7.770   3.127  1.00 20.00     0.005 C 
BRANCH   7   8
HETATM    8  C9  UNL     1     -31.741   8.099   1.643  1.00 20.00     0.000 C 
BRANCH   8   9
HETATM    9  C8  UNL     1     -32.771   9.134   1.191  1.00 20.00    -0.005 C 
HETATM   10  C6  UNL     1     -32.651  10.424   1.988  1.00 20.00     0.005 C 
ENDBRANCH   8   9
ENDBRANCH   7   8
ENDBRANCH   4   7
TORSDOF 3
