REMARK  2 active torsions:
REMARK  status: ('A' for Active; 'I' for Inactive)
REMARK    1  A    between atoms: C7_7  and  C10_10 
REMARK    2  A    between atoms: C9_9  and  C10_10 
ROOT
HETATM    1  C1  UNL     1     -32.904   9.647   0.567  1.00 20.00     0.012 C 
HETATM    2  C2  UNL     1     -32.228   8.777   1.043  1.00 20.00    -0.117 C 
HETATM    3  C9  UNL     1     -31.398   7.713   1.623  1.00 20.00     0.093 C 
ENDROOT
BRANCH   3   4
HETATM    4  C10 UNL     1     -31.786   7.477   3.070  1.00 20.00     0.017 C 
BRANCH   4   5
HETATM    5  C7  UNL     1     -33.251   7.049   3.177  1.00 20.00    -0.012 C 
HETATM    6  C4  UNL     1     -33.466   5.720   2.431  1.00 20.00     0.005 C 
HETATM    7  C3  UNL     1     -34.728   5.010   2.903  1.00 20.00     0.002 C 
HETATM    8  C5  UNL     1     -34.672   4.663   4.394  1.00 20.00     0.020 C 
HETATM    9  C8  UNL     1     -33.714   5.562   5.185  1.00 20.00     0.082 C 
HETATM   10  C6  UNL     1     -33.713   6.990   4.647  1.00 20.00     0.024 C 
HETATM   11 CL11 UNL     1     -34.151   5.546   6.917  1.00 20.00    -0.125 Cl
ENDBRANCH   4   5
ENDBRANCH   3   4
TORSDOF 2
