REMARK  2 active torsions:
REMARK  status: ('A' for Active; 'I' for Inactive)
REMARK    1  A    between atoms: C7_7  and  C10_10 
REMARK    2  A    between atoms: C9_9  and  C10_10 
ROOT
HETATM    1  C2  UNL     1     -34.787   6.759   3.678  1.00 20.00     0.006 C 
HETATM    2  C3  UNL     1     -35.722   5.606   4.017  1.00 20.00     0.020 C 
HETATM    3  C5  UNL     1     -33.497   4.778   4.344  1.00 20.00     0.025 C 
HETATM    4  C7  UNL     1     -33.396   6.117   3.592  1.00 20.00    -0.011 C 
HETATM    5  C8  UNL     1     -34.897   4.733   4.954  1.00 20.00     0.082 C 
HETATM    6 CL12 UNL     1     -34.882   5.415   6.607  1.00 20.00    -0.125 Cl
ENDROOT
BRANCH   4   7
HETATM    7  C10 UNL     1     -32.306   7.025   4.144  1.00 20.00     0.036 C 
BRANCH   7   8
HETATM    8  C9  UNL     1     -31.869   8.065   3.130  1.00 20.00     0.121 C 
HETATM    9  C4  UNL     1     -32.794   9.268   3.059  1.00 20.00     0.034 C 
HETATM   10  C1  UNL     1     -32.551   9.751   1.651  1.00 20.00     0.029 C 
HETATM   11  C6  UNL     1     -32.405   8.448   0.894  1.00 20.00     0.168 C 
HETATM   12  O11 UNL     1     -31.860   7.489   1.813  1.00 20.00    -0.386 OA
ENDBRANCH   7   8
ENDBRANCH   4   7
TORSDOF 2
