REMARK  3 active torsions:
REMARK  status: ('A' for Active; 'I' for Inactive)
REMARK    1  A    between atoms: C1_1  and  C3_3 
REMARK    2  A    between atoms: C2_2  and  C7_7 
REMARK    3  A    between atoms: C7_7  and  C8_8 
ROOT
HETATM    1  C1  UNL     1     -33.583   5.749   4.170  1.00 20.00     0.005 C 
HETATM    2  C2  UNL     1     -32.762   6.391   3.575  1.00 20.00    -0.090 C 
ENDROOT
BRANCH   2   3
HETATM    3  C7  UNL     1     -31.749   7.177   2.841  1.00 20.00     0.065 C 
HETATM    4  C4  UNL     1     -31.004   8.096   3.812  1.00 20.00     0.024 C 
BRANCH   3   5
HETATM    5  C8  UNL     1     -32.351   7.963   1.647  1.00 20.00    -0.007 C 
HETATM    6  C5  UNL     1     -33.082   9.249   2.049  1.00 20.00     0.011 C 
HETATM    7  C6  UNL     1     -31.288   8.281   0.588  1.00 20.00     0.011 C 
ENDBRANCH   3   5
ENDBRANCH   2   3
BRANCH   1   8
HETATM    8  C3  UNL     1     -34.637   4.928   4.937  1.00 20.00     0.258 C 
HETATM    9  O9  UNL     1     -34.541   4.946   6.199  1.00 20.00    -0.637 OA
HETATM   10  O10 UNL     1     -35.490   4.321   4.227  1.00 20.00    -0.637 OA
ENDBRANCH   1   8
TORSDOF 3
