REMARK  1 active torsions:
REMARK  status: ('A' for Active; 'I' for Inactive)
REMARK    1  A    between atoms: C4_4  and  S6_6 
ROOT
HETATM    1  C1  UNL     1     -34.525   4.254   5.878  1.00 20.00     0.043 C 
HETATM    2  C2  UNL     1     -35.032   3.783   4.530  1.00 20.00     0.168 C 
HETATM    3  C3  UNL     1     -34.447   6.033   4.341  1.00 20.00     0.182 C 
HETATM    4  C4  UNL     1     -34.785   5.741   5.792  1.00 20.00     0.070 C 
HETATM    5  O5  UNL     1     -34.782   4.847   3.601  1.00 20.00    -0.390 OA
ENDROOT
BRANCH   4   6
HETATM    6  S6  UNL     1     -33.799   6.706   6.962  1.00 20.00    -0.175 SA
HETATM    7  H14 UNL     1     -34.289   7.897   6.594  1.00 20.00     0.102 HD
ENDBRANCH   4   6
TORSDOF 1
