REMARK  0 active torsions:
REMARK  status: ('A' for Active; 'I' for Inactive)
ROOT
HETATM    1  C1  UNL     1     -32.901   6.813   2.846  1.00 20.00     0.088 C 
HETATM    2  C2  UNL     1     -34.280   5.443   4.267  1.00 20.00    -0.044 C 
HETATM    3  C3  UNL     1     -33.772   5.714   3.062  1.00 20.00     0.098 C 
HETATM    4  C4  UNL     1     -35.199   4.318   4.595  1.00 20.00     0.063 C 
HETATM    5  C5  UNL     1     -33.954   6.168   5.529  1.00 20.00     0.202 C 
HETATM    6  C6  UNL     1     -34.883   4.125   6.064  1.00 20.00     0.172 C 
HETATM    7  N7  UNL     1     -32.188   7.711   2.666  1.00 20.00    -0.192 NA
HETATM    8  O8  UNL     1     -34.622   5.439   6.575  1.00 20.00    -0.387 OA
ENDROOT
TORSDOF 0
