REMARK  3 active torsions:
REMARK  status: ('A' for Active; 'I' for Inactive)
REMARK    1  A    between atoms: C4_4  and  C6_6 
REMARK    2  A    between atoms: C7_7  and  C8_8 
REMARK    3  A    between atoms: C8_8  and  N9_9 
ROOT
HETATM    1  C1  UNL     1     -34.936   5.231   6.904  1.00 20.00     0.032 C 
HETATM    2  C2  UNL     1     -35.146   4.113   5.889  1.00 20.00     0.038 C 
HETATM    3  C3  UNL     1     -34.119   6.293   6.176  1.00 20.00     0.273 C 
HETATM    4  C4  UNL     1     -34.779   4.730   4.541  1.00 20.00     0.236 C 
HETATM    5  N9  UNL     1     -33.699   5.641   4.937  1.00 20.00     0.094 N 
ENDROOT
BRANCH   5   6
HETATM    6  C8  UNL     1     -33.265   6.582   3.919  1.00 20.00     0.272 C 
BRANCH   6   7
HETATM    7  C7  UNL     1     -32.851   5.888   2.627  1.00 20.00     0.026 C 
HETATM    8  C5  UNL     1     -32.374   6.865   1.562  1.00 20.00     0.007 C 
ENDBRANCH   6   7
ENDBRANCH   5   6
BRANCH   4   9
HETATM    9  C6  UNL     1     -35.995   5.378   3.871  1.00 20.00     0.150 C 
HETATM   10 CL10 UNL     1     -37.257   4.165   3.586  1.00 20.00    -0.128 Cl
ENDBRANCH   4   9
TORSDOF 3
