REMARK  3 active torsions:
REMARK  status: ('A' for Active; 'I' for Inactive)
REMARK    1  A    between atoms: C7_7  and  C8_8 
REMARK    2  A    between atoms: C7_7  and  C9_9 
REMARK    3  A    between atoms: C8_8  and  N10_10 
ROOT
HETATM    1  C1  UNL     1     -34.632   5.014   3.734  1.00 20.00     0.052 C 
HETATM    2  C2  UNL     1     -33.511   5.627   2.895  1.00 20.00     0.274 C 
HETATM    3  C3  UNL     1     -33.248   6.482   5.047  1.00 20.00     0.292 C 
HETATM    4  C4  UNL     1     -34.598   5.785   5.051  1.00 20.00     0.112 C 
HETATM    5  N10 UNL     1     -33.119   6.831   3.631  1.00 20.00     0.089 N 
HETATM    6 CL11 UNL     1     -34.804   4.733   6.461  1.00 20.00    -0.123 Cl
ENDROOT
BRANCH   5   7
HETATM    7  C8  UNL     1     -31.779   7.283   3.287  1.00 20.00     0.272 C 
BRANCH   7   8
HETATM    8  C7  UNL     1     -31.747   8.078   1.984  1.00 20.00     0.034 C 
BRANCH   8   9
HETATM    9  C9  UNL     1     -32.587   9.370   1.987  1.00 20.00    -0.021 C 
HETATM   10  C5  UNL     1     -34.056   9.031   2.253  1.00 20.00     0.009 C 
HETATM   11  C6  UNL     1     -32.467  10.148   0.675  1.00 20.00     0.009 C 
ENDBRANCH   8   9
ENDBRANCH   7   8
ENDBRANCH   5   7
TORSDOF 3
