REMARK  2 active torsions:
REMARK  status: ('A' for Active; 'I' for Inactive)
REMARK    1  A    between atoms: C3_3  and  C6_6 
REMARK    2  A    between atoms: C5_5  and  C6_6 
ROOT
HETATM    1  C6  UNL     1     -34.123   6.257   4.525  1.00 20.00     0.086 C 
HETATM    2 CL7  UNL     1     -35.146   5.382   3.347  1.00 20.00    -0.125 Cl
ENDROOT
BRANCH   1   3
HETATM    3  C3  UNL     1     -34.040   5.436   5.780  1.00 20.00     0.004 A 
HETATM    4  C1  UNL     1     -35.229   4.642   6.246  1.00 20.00     0.006 A 
HETATM    5  C2  UNL     1     -34.019   3.935   5.701  1.00 20.00     0.006 A 
ENDBRANCH   1   3
BRANCH   1   6
HETATM    6  C5  UNL     1     -32.732   6.540   3.946  1.00 20.00     0.016 C 
HETATM    7  C4  UNL     1     -32.765   7.351   2.658  1.00 20.00     0.006 C 
ENDBRANCH   1   6
TORSDOF 2
