REMARK  1 active torsions:
REMARK  status: ('A' for Active; 'I' for Inactive)
REMARK    1  A    between atoms: C6_6  and  N7_7 
ROOT
HETATM    1  C1  UNL     1     -32.225   8.405   2.061  1.00 20.00     0.158 C 
HETATM    2  N7  UNL     1     -32.081   7.602   2.902  1.00 20.00    -0.268 NA
HETATM    3  S9  UNL     1     -32.384   9.499   0.915  1.00 20.00    -0.055 SA
ENDROOT
BRANCH   2   4
HETATM    4  C6  UNL     1     -33.327   7.072   3.458  1.00 20.00     0.133 C 
HETATM    5  C3  UNL     1     -33.764   5.857   2.644  1.00 20.00     0.032 C 
HETATM    6  C2  UNL     1     -34.942   5.161   3.318  1.00 20.00     0.028 C 
HETATM    7  C4  UNL     1     -34.636   4.885   4.785  1.00 20.00     0.167 C 
HETATM    8  O8  UNL     1     -34.282   6.090   5.464  1.00 20.00    -0.389 OA
HETATM    9  C5  UNL     1     -33.107   6.690   4.918  1.00 20.00     0.195 C 
ENDBRANCH   2   4
TORSDOF 1
