REMARK  1 active torsions:
REMARK  status: ('A' for Active; 'I' for Inactive)
REMARK    1  A    between atoms: C8_8  and  N9_9 
ROOT
HETATM    1  C1  UNL     1     -35.590   5.269   4.267  1.00 20.00     0.050 C 
HETATM    2  C2  UNL     1     -34.340   6.602   5.987  1.00 20.00     0.050 C 
HETATM    3  C3  UNL     1     -34.376   5.402   3.342  1.00 20.00     0.274 C 
HETATM    4  C4  UNL     1     -33.167   6.691   5.006  1.00 20.00     0.274 C 
HETATM    5  C5  UNL     1     -35.216   5.371   5.746  1.00 20.00     0.085 C 
HETATM    6  N9  UNL     1     -33.636   6.642   3.614  1.00 20.00     0.092 N 
HETATM    7 CL10 UNL     1     -34.367   3.886   6.280  1.00 20.00    -0.125 Cl
ENDROOT
BRANCH   6   8
HETATM    8  C8  UNL     1     -32.512   6.781   2.689  1.00 20.00     0.215 C 
HETATM    9  C6  UNL     1     -31.366   5.898   3.161  1.00 20.00     0.042 C 
HETATM   10  C7  UNL     1     -32.104   8.246   2.626  1.00 20.00     0.042 C 
ENDBRANCH   6   8
TORSDOF 1
