REMARK  2 active torsions:
REMARK  status: ('A' for Active; 'I' for Inactive)
REMARK    1  A    between atoms: C3_3  and  C6_6 
REMARK    2  A    between atoms: C5_5  and  C6_6 
ROOT
HETATM    1  C6  UNL     1     -33.641   5.691   4.091  1.00 20.00     0.086 C 
HETATM    2 CL7  UNL     1     -34.569   5.044   2.705  1.00 20.00    -0.125 Cl
ENDROOT
BRANCH   1   3
HETATM    3  C3  UNL     1     -34.599   5.967   5.214  1.00 20.00     0.004 A 
HETATM    4  C1  UNL     1     -35.153   4.834   6.033  1.00 20.00     0.006 A 
HETATM    5  C2  UNL     1     -34.164   5.788   6.642  1.00 20.00     0.006 A 
ENDBRANCH   1   3
BRANCH   1   6
HETATM    6  C5  UNL     1     -32.864   6.951   3.693  1.00 20.00     0.016 C 
HETATM    7  C4  UNL     1     -31.895   6.728   2.540  1.00 20.00     0.006 C 
ENDBRANCH   1   6
TORSDOF 2
