REMARK  3 active torsions:
REMARK  status: ('A' for Active; 'I' for Inactive)
REMARK    1  A    between atoms: C1_1  and  C7_7 
REMARK       I    between atoms: C1_1  and  N8_8 
REMARK    2  A    between atoms: C5_5  and  C6_6 
REMARK    3  A    between atoms: C5_5  and  N8_8 
ROOT
HETATM    1  C1  UNL     1     -33.115   6.450   4.807  1.00 20.00     0.222 C 
HETATM    2  C4  UNL     1     -31.861   5.319   3.011  1.00 20.00     0.152 C 
HETATM    3  N8  UNL     1     -32.327   6.543   3.655  1.00 20.00    -0.355 N 
HETATM    4  O9  UNL     1     -33.108   7.313   5.692  1.00 20.00    -0.273 OA
ENDROOT
BRANCH   1   5
HETATM    5  C7  UNL     1     -34.037   5.234   4.945  1.00 20.00     0.070 C 
HETATM    6  C2  UNL     1     -35.036   5.202   3.789  1.00 20.00     0.019 C 
HETATM    7  C3  UNL     1     -34.790   5.269   6.278  1.00 20.00     0.019 C 
ENDBRANCH   1   5
BRANCH   3   8
HETATM    8  C5  UNL     1     -31.931   7.777   2.978  1.00 20.00     0.140 C 
BRANCH   8   9
HETATM    9  C6  UNL     1     -32.423   7.837   1.541  1.00 20.00     0.134 C 
HETATM   10 CL10 UNL     1     -31.918   9.350   0.748  1.00 20.00    -0.129 Cl
ENDBRANCH   8   9
ENDBRANCH   3   8
TORSDOF 3
