REMARK  3 active torsions:
REMARK  status: ('A' for Active; 'I' for Inactive)
REMARK    1  A    between atoms: C1_1  and  C4_4 
REMARK       I    between atoms: C1_1  and  N7_7 
REMARK    2  A    between atoms: C5_5  and  C6_6 
REMARK    3  A    between atoms: C5_5  and  N7_7 
ROOT
HETATM    1  C1  UNL     1     -34.350   5.788   4.233  1.00 20.00     0.219 C 
HETATM    2  C3  UNL     1     -32.848   7.238   5.616  1.00 20.00     0.152 C 
HETATM    3  N7  UNL     1     -33.125   6.434   4.431  1.00 20.00    -0.355 N 
HETATM    4  O8  UNL     1     -34.831   5.572   3.117  1.00 20.00    -0.273 OA
ENDROOT
BRANCH   3   5
HETATM    5  C5  UNL     1     -32.031   6.353   3.466  1.00 20.00     0.140 C 
BRANCH   5   6
HETATM    6  C6  UNL     1     -31.628   7.714   2.925  1.00 20.00     0.134 C 
HETATM    7 CL9  UNL     1     -32.990   8.514   2.103  1.00 20.00    -0.129 Cl
ENDBRANCH   5   6
ENDBRANCH   3   5
BRANCH   1   8
HETATM    8  C4  UNL     1     -35.090   5.351   5.489  1.00 20.00     0.098 C 
HETATM    9  C2  UNL     1     -34.294   4.361   6.324  1.00 20.00     0.014 C 
ENDBRANCH   1   8
TORSDOF 3
