REMARK  3 active torsions:
REMARK  status: ('A' for Active; 'I' for Inactive)
REMARK    1  A    between atoms: C4_4  and  C7_7 
REMARK    2  A    between atoms: C8_8  and  C9_9 
REMARK    3  A    between atoms: C8_8  and  N10_10 
ROOT
HETATM    1  C1  UNL     1     -34.904   4.647   4.272  1.00 20.00     0.032 C 
HETATM    2  C2  UNL     1     -33.638   5.061   5.013  1.00 20.00     0.038 C 
HETATM    3  C3  UNL     1     -35.064   5.658   3.143  1.00 20.00     0.273 C 
HETATM    4  C4  UNL     1     -33.342   6.478   4.527  1.00 20.00     0.236 C 
HETATM    5  N10 UNL     1     -33.802   6.396   3.136  1.00 20.00     0.094 N 
ENDROOT
BRANCH   5   6
HETATM    6  C8  UNL     1     -33.887   7.661   2.427  1.00 20.00     0.277 C 
BRANCH   6   7
HETATM    7  C9  UNL     1     -32.536   8.385   2.391  1.00 20.00     0.006 C 
HETATM    8  C5  UNL     1     -31.454   7.560   1.693  1.00 20.00     0.011 C 
HETATM    9  C6  UNL     1     -32.646   9.773   1.759  1.00 20.00     0.011 C 
ENDBRANCH   6   7
ENDBRANCH   5   6
BRANCH   4  10
HETATM   10  C7  UNL     1     -34.034   7.527   5.404  1.00 20.00     0.150 C 
HETATM   11 CL11 UNL     1     -33.480   7.385   7.083  1.00 20.00    -0.128 Cl
ENDBRANCH   4  10
TORSDOF 3
