REMARK  3 active torsions:
REMARK  status: ('A' for Active; 'I' for Inactive)
REMARK    1  A    between atoms: C6_6  and  C7_7 
REMARK    2  A    between atoms: C7_7  and  C8_8 
REMARK    3  A    between atoms: C8_8  and  N9_9 
ROOT
HETATM    1  C1  UNL     1     -34.424   6.198   6.278  1.00 20.00     0.052 C 
HETATM    2  C2  UNL     1     -33.147   6.558   5.519  1.00 20.00     0.274 C 
HETATM    3  C3  UNL     1     -34.587   5.579   3.963  1.00 20.00     0.292 C 
HETATM    4  C4  UNL     1     -35.239   5.336   5.316  1.00 20.00     0.112 C 
HETATM    5  N9  UNL     1     -33.174   5.717   4.321  1.00 20.00     0.089 N 
HETATM    6 CL10 UNL     1     -35.124   3.608   5.768  1.00 20.00    -0.123 Cl
ENDROOT
BRANCH   5   7
HETATM    7  C8  UNL     1     -32.370   6.259   3.237  1.00 20.00     0.272 C 
BRANCH   7   8
HETATM    8  C7  UNL     1     -32.887   7.607   2.747  1.00 20.00     0.030 C 
BRANCH   8   9
HETATM    9  C6  UNL     1     -32.060   8.168   1.588  1.00 20.00    -0.003 C 
HETATM   10  C5  UNL     1     -32.634   9.482   1.082  1.00 20.00     0.005 C 
ENDBRANCH   8   9
ENDBRANCH   7   8
ENDBRANCH   5   7
TORSDOF 3
