REMARK  2 active torsions:
REMARK  status: ('A' for Active; 'I' for Inactive)
REMARK    1  A    between atoms: C6_6  and  C7_7 
REMARK    2  A    between atoms: C6_6  and  N8_8 
ROOT
HETATM    1  C1  UNL     1     -32.753   6.923   5.221  1.00 20.00     0.050 C 
HETATM    2  C2  UNL     1     -34.679   5.748   4.109  1.00 20.00     0.050 C 
HETATM    3  C3  UNL     1     -31.952   6.737   3.928  1.00 20.00     0.274 C 
HETATM    4  C4  UNL     1     -33.811   5.605   2.855  1.00 20.00     0.274 C 
HETATM    5  C5  UNL     1     -33.812   5.831   5.364  1.00 20.00     0.085 C 
HETATM    6  N8  UNL     1     -32.778   6.641   2.717  1.00 20.00     0.093 N 
HETATM    7 CL11 UNL     1     -34.827   6.141   6.797  1.00 20.00    -0.125 Cl
ENDROOT
BRANCH   6   8
HETATM    8  C6  UNL     1     -33.339   7.932   2.325  1.00 20.00     0.343 C 
BRANCH   8   9
HETATM    9  C7  UNL     1     -32.234   8.924   2.029  1.00 20.00     0.381 C 
HETATM   10  F9  UNL     1     -32.768  10.101   1.616  1.00 20.00    -0.213 F 
HETATM   11  F10 UNL     1     -31.483   8.459   0.998  1.00 20.00    -0.213 F 
ENDBRANCH   8   9
ENDBRANCH   6   8
TORSDOF 2
