REMARK  3 active torsions:
REMARK  status: ('A' for Active; 'I' for Inactive)
REMARK    1  A    between atoms: C7_7  and  C9_9 
REMARK    2  A    between atoms: C8_8  and  C9_9 
REMARK    3  A    between atoms: C8_8  and  N10_10 
ROOT
HETATM    1  C1  UNL     1     -34.974   4.608   3.970  1.00 20.00     0.052 C 
HETATM    2  C2  UNL     1     -34.290   5.191   2.746  1.00 20.00     0.274 C 
HETATM    3  C3  UNL     1     -32.859   5.664   4.537  1.00 20.00     0.292 C 
HETATM    4  C4  UNL     1     -33.878   4.635   5.031  1.00 20.00     0.112 C 
HETATM    5  N10 UNL     1     -33.479   6.251   3.344  1.00 20.00     0.090 N 
HETATM    6 CL11 UNL     1     -34.532   5.041   6.631  1.00 20.00    -0.123 Cl
ENDROOT
BRANCH   5   7
HETATM    7  C8  UNL     1     -32.502   6.800   2.416  1.00 20.00     0.276 C 
BRANCH   7   8
HETATM    8  C9  UNL     1     -32.046   8.222   2.777  1.00 20.00     0.009 C 
HETATM    9  C6  UNL     1     -30.970   8.190   3.868  1.00 20.00     0.011 C 
BRANCH   8  10
HETATM   10  C7  UNL     1     -31.544   9.042   1.574  1.00 20.00     0.001 C 
HETATM   11  C5  UNL     1     -32.582   9.207   0.472  1.00 20.00     0.005 C 
ENDBRANCH   8  10
ENDBRANCH   7   8
ENDBRANCH   5   7
TORSDOF 3
