REMARK  4 active torsions:
REMARK  status: ('A' for Active; 'I' for Inactive)
REMARK    1  A    between atoms: C4_4  and  C7_7 
REMARK    2  A    between atoms: C8_8  and  C10_10 
REMARK    3  A    between atoms: C9_9  and  C10_10 
REMARK    4  A    between atoms: C9_9  and  N11_11 
ROOT
HETATM    1  C1  UNL     1     -31.241   9.168   2.596  1.00 20.00     0.035 C 
HETATM    2  C2  UNL     1     -31.052   8.070   3.629  1.00 20.00     0.235 C 
HETATM    3  C3  UNL     1     -32.864   7.528   2.079  1.00 20.00     0.240 C 
HETATM    4  C4  UNL     1     -31.860   8.449   1.407  1.00 20.00     0.027 C 
HETATM    5  N11 UNL     1     -32.120   7.041   3.305  1.00 20.00    -0.070 N 
HETATM    6  H33 UNL     1     -31.629   6.177   3.034  1.00 20.00     0.279 HD
ENDROOT
BRANCH   5   7
HETATM    7  C9  UNL     1     -33.012   6.696   4.454  1.00 20.00     0.239 C 
BRANCH   7   8
HETATM    8  C10 UNL     1     -33.755   5.372   4.229  1.00 20.00     0.007 C 
HETATM    9  C6  UNL     1     -34.986   5.566   3.336  1.00 20.00     0.011 C 
BRANCH   8  10
HETATM   10  C8  UNL     1     -34.165   4.639   5.521  1.00 20.00     0.001 C 
HETATM   11  C5  UNL     1     -35.127   5.430   6.395  1.00 20.00     0.005 C 
ENDBRANCH   8  10
ENDBRANCH   7   8
ENDBRANCH   5   7
BRANCH   4  12
HETATM   12  C7  UNL     1     -32.499   9.390   0.402  1.00 20.00     0.121 C 
HETATM   13 CL12 UNL     1     -31.292  10.524  -0.238  1.00 20.00    -0.130 Cl
ENDBRANCH   4  12
TORSDOF 4
