REMARK  3 active torsions:
REMARK  status: ('A' for Active; 'I' for Inactive)
REMARK    1  A    between atoms: C6_6  and  C7_7 
REMARK    2  A    between atoms: C7_7  and  C8_8 
REMARK    3  A    between atoms: C8_8  and  N9_9 
ROOT
HETATM    1  C1  UNL     1     -34.809   4.906   3.674  1.00 20.00     0.052 C 
HETATM    2  C2  UNL     1     -33.617   5.514   2.935  1.00 20.00     0.274 C 
HETATM    3  C3  UNL     1     -33.616   6.470   5.061  1.00 20.00     0.292 C 
HETATM    4  C4  UNL     1     -34.941   5.734   4.950  1.00 20.00     0.112 C 
HETATM    5  N9  UNL     1     -33.339   6.761   3.653  1.00 20.00     0.089 N 
HETATM    6 CL10 UNL     1     -35.277   4.740   6.376  1.00 20.00    -0.123 Cl
ENDROOT
BRANCH   5   7
HETATM    7  C8  UNL     1     -31.981   7.236   3.438  1.00 20.00     0.272 C 
BRANCH   7   8
HETATM    8  C7  UNL     1     -31.804   7.897   2.075  1.00 20.00     0.030 C 
BRANCH   8   9
HETATM    9  C6  UNL     1     -32.698   9.127   1.898  1.00 20.00    -0.003 C 
HETATM   10  C5  UNL     1     -32.458   9.800   0.556  1.00 20.00     0.005 C 
ENDBRANCH   8   9
ENDBRANCH   7   8
ENDBRANCH   5   7
TORSDOF 3
