REMARK  3 active torsions:
REMARK  status: ('A' for Active; 'I' for Inactive)
REMARK    1  A    between atoms: C2_2  and  C8_8 
REMARK    2  A    between atoms: C7_7  and  C9_9 
REMARK    3  A    between atoms: C8_8  and  N10_10 
ROOT
HETATM    1  C3  UNL     1     -34.955   5.358   2.775  1.00 20.00     0.031 C 
HETATM    2  C4  UNL     1     -34.801   4.652   4.118  1.00 20.00     0.009 C 
HETATM    3  C5  UNL     1     -33.660   6.059   2.363  1.00 20.00     0.272 C 
HETATM    4  C6  UNL     1     -32.987   6.315   4.679  1.00 20.00     0.278 C 
HETATM    5  C7  UNL     1     -34.267   5.622   5.177  1.00 20.00     0.028 C 
HETATM    6  N10 UNL     1     -33.217   7.001   3.399  1.00 20.00     0.092 N 
ENDROOT
BRANCH   6   7
HETATM    7  C8  UNL     1     -32.007   7.702   2.969  1.00 20.00     0.299 C 
BRANCH   7   8
HETATM    8  C2  UNL     1     -32.396   8.807   2.042  1.00 20.00    -0.007 C 
HETATM    9  C1  UNL     1     -31.960   8.911   0.781  1.00 20.00     0.008 C 
ENDBRANCH   7   8
ENDBRANCH   6   7
BRANCH   5  10
HETATM   10  C9  UNL     1     -34.012   4.894   6.496  1.00 20.00     0.121 C 
HETATM   11 CL11 UNL     1     -35.518   4.185   7.102  1.00 20.00    -0.130 Cl
ENDBRANCH   5  10
TORSDOF 3
