REMARK  2 active torsions:
REMARK  status: ('A' for Active; 'I' for Inactive)
REMARK    1  A    between atoms: C6_6  and  C8_8 
REMARK    2  A    between atoms: C8_8  and  N9_9 
ROOT
HETATM    1  C3  UNL     1     -32.739   6.881   5.024  1.00 20.00     0.052 C 
HETATM    2  C4  UNL     1     -31.914   7.454   3.872  1.00 20.00     0.274 C 
HETATM    3  C5  UNL     1     -33.328   5.862   2.925  1.00 20.00     0.292 C 
HETATM    4  C7  UNL     1     -33.824   6.046   4.349  1.00 20.00     0.112 C 
HETATM    5  N9  UNL     1     -32.707   7.164   2.675  1.00 20.00     0.090 N 
HETATM    6 CL10 UNL     1     -34.102   4.500   5.167  1.00 20.00    -0.123 Cl
ENDROOT
BRANCH   5   7
HETATM    7  C8  UNL     1     -31.905   7.175   1.460  1.00 20.00     0.277 C 
BRANCH   7   8
HETATM    8  C6  UNL     1     -31.692   8.567   0.969  1.00 20.00     0.014 A 
HETATM    9  C1  UNL     1     -32.766   9.266   0.182  1.00 20.00     0.007 A 
HETATM   10  C2  UNL     1     -32.452   9.710   1.584  1.00 20.00     0.007 A 
ENDBRANCH   7   8
ENDBRANCH   5   7
TORSDOF 2
