REMARK  1 active torsions:
REMARK  status: ('A' for Active; 'I' for Inactive)
REMARK    1  A    between atoms: C3_3  and  N9_9 
ROOT
HETATM    1  C4  UNL     1     -31.030   8.058   3.551  1.00 20.00     0.041 C 
HETATM    2  C5  UNL     1     -32.025   7.904   4.701  1.00 20.00     0.126 C 
HETATM    3  C6  UNL     1     -32.600   6.369   2.917  1.00 20.00     0.145 C 
HETATM    4  C7  UNL     1     -31.782   7.525   2.338  1.00 20.00     0.102 C 
HETATM    5  N9  UNL     1     -32.853   6.769   4.302  1.00 20.00    -0.358 N 
HETATM    6 CL11 UNL     1     -32.860   8.781   1.663  1.00 20.00    -0.123 Cl
ENDROOT
BRANCH   5   7
HETATM    7  C3  UNL     1     -33.745   6.134   5.140  1.00 20.00     0.168 A 
HETATM    8  N8  UNL     1     -33.956   6.475   6.392  1.00 20.00    -0.236 NA
HETATM    9  C1  UNL     1     -34.907   5.630   6.931  1.00 20.00     0.126 A 
HETATM   10  C2  UNL     1     -35.403   4.662   6.083  1.00 20.00     0.072 A 
HETATM   11  S10 UNL     1     -34.657   4.807   4.545  1.00 20.00    -0.063 SA
ENDBRANCH   5   7
TORSDOF 1
