REMARK  5 active torsions:
REMARK  status: ('A' for Active; 'I' for Inactive)
REMARK    1  A    between atoms: C5_5  and  C9_9 
REMARK    2  A    between atoms: C6_6  and  C7_7 
REMARK    3  A    between atoms: C6_6  and  C8_8 
REMARK    4  A    between atoms: C7_7  and  C9_9 
REMARK    5  A    between atoms: C8_8  and  C10_10 
ROOT
HETATM    1  C6  UNL     1     -33.352   7.741   3.173  1.00 20.00     0.002 C 
ENDROOT
BRANCH   1   2
HETATM    2  C7  UNL     1     -33.574   6.358   3.802  1.00 20.00     0.020 C 
BRANCH   2   3
HETATM    3  C9  UNL     1     -34.469   6.398   5.050  1.00 20.00     0.082 C 
HETATM    4 CL11 UNL     1     -33.554   7.022   6.459  1.00 20.00    -0.125 Cl
BRANCH   3   5
HETATM    5  C5  UNL     1     -35.098   5.036   5.382  1.00 20.00     0.016 C 
HETATM    6  C1  UNL     1     -36.001   4.450   4.303  1.00 20.00     0.006 C 
ENDBRANCH   3   5
ENDBRANCH   2   3
ENDBRANCH   1   2
BRANCH   1   7
HETATM    7  C8  UNL     1     -32.467   7.639   1.923  1.00 20.00     0.008 C 
BRANCH   7   8
HETATM    8  C10 UNL     1     -32.118   8.984   1.232  1.00 20.00    -0.051 C 
HETATM    9  C2  UNL     1     -32.573   8.990  -0.237  1.00 20.00     0.014 C 
HETATM   10  C3  UNL     1     -32.857  10.112   1.977  1.00 20.00     0.014 C 
HETATM   11  C4  UNL     1     -30.608   9.267   1.295  1.00 20.00     0.014 C 
ENDBRANCH   7   8
ENDBRANCH   1   7
TORSDOF 5
