REMARK  2 active torsions:
REMARK  status: ('A' for Active; 'I' for Inactive)
REMARK    1  A    between atoms: C3_3  and  C10_10 
REMARK    2  A    between atoms: C4_4  and  C10_10 
ROOT
HETATM    1  C5  UNL     1     -31.235   7.248   3.878  1.00 20.00     0.000 C 
HETATM    2  C6  UNL     1     -31.865   6.191   2.978  1.00 20.00     0.001 C 
HETATM    3  C7  UNL     1     -32.271   7.891   4.792  1.00 20.00     0.001 C 
HETATM    4  C8  UNL     1     -32.611   5.131   3.789  1.00 20.00     0.017 C 
HETATM    5  C9  UNL     1     -33.025   6.847   5.617  1.00 20.00     0.017 C 
HETATM    6  C10 UNL     1     -33.645   5.734   4.756  1.00 20.00    -0.006 C 
ENDROOT
BRANCH   6   7
HETATM    7  C3  UNL     1     -34.816   6.279   3.976  1.00 20.00    -0.023 C 
HETATM    8  C1  UNL     1     -35.585   5.542   3.168  1.00 20.00     0.008 C 
ENDBRANCH   6   7
BRANCH   6   9
HETATM    9  C4  UNL     1     -34.120   4.652   5.691  1.00 20.00    -0.023 C 
HETATM   10  C2  UNL     1     -35.025   4.841   6.657  1.00 20.00     0.008 C 
ENDBRANCH   6   9
TORSDOF 2
