REMARK  0 active torsions:
REMARK  status: ('A' for Active; 'I' for Inactive)
ROOT
HETATM    1  C1  UNL     1     -33.594   6.847   5.836  1.00 20.00     0.009 A 
HETATM    2  C2  UNL     1     -32.799   7.482   4.879  1.00 20.00     0.019 A 
HETATM    3  C3  UNL     1     -33.464   5.865   3.180  1.00 20.00     0.026 A 
HETATM    4  C4  UNL     1     -34.299   5.738   5.432  1.00 20.00    -0.051 A 
HETATM    5  C5  UNL     1     -34.236   5.262   4.144  1.00 20.00    -0.050 A 
HETATM    6  C6  UNL     1     -32.734   6.994   3.559  1.00 20.00     0.011 A 
HETATM    7  C7  UNL     1     -35.254   4.672   5.881  1.00 20.00     0.043 A 
HETATM    8  C8  UNL     1     -35.181   4.129   4.415  1.00 20.00     0.043 A 
HETATM    9 BR9  UNL     1     -31.648   7.880   2.289  1.00 20.00    -0.051 Br
ENDROOT
TORSDOF 0
