REMARK  1 active torsions:
REMARK  status: ('A' for Active; 'I' for Inactive)
REMARK    1  A    between atoms: C4_4  and  C9_9 
ROOT
HETATM    1  C1  UNL     1     -33.681   6.307   2.404  1.00 20.00    -0.003 A 
HETATM    2  C2  UNL     1     -34.429   5.859   3.549  1.00 20.00     0.004 A 
HETATM    3  C3  UNL     1     -32.434   6.626   2.778  1.00 20.00    -0.022 A 
HETATM    4  C4  UNL     1     -33.647   5.899   4.639  1.00 20.00    -0.069 A 
HETATM    5  C5  UNL     1     -32.280   6.398   4.255  1.00 20.00     0.062 A 
ENDROOT
BRANCH   4   6
HETATM    6  C9  UNL     1     -33.999   5.524   6.053  1.00 20.00    -0.028 C 
HETATM    7  C6  UNL     1     -33.812   6.749   6.959  1.00 20.00     0.019 C 
HETATM    8  C7  UNL     1     -33.082   4.387   6.527  1.00 20.00     0.019 C 
HETATM    9  C8  UNL     1     -35.460   5.056   6.113  1.00 20.00     0.019 C 
ENDBRANCH   4   6
TORSDOF 1
