REMARK  0 active torsions:
REMARK  status: ('A' for Active; 'I' for Inactive)
ROOT
HETATM    1  C1  UNL     1     -32.921   7.564   2.967  1.00 20.00     0.119 C 
HETATM    2  C2  UNL     1     -33.715   6.071   4.785  1.00 20.00     0.063 A 
HETATM    3  C3  UNL     1     -34.886   4.700   3.519  1.00 20.00     0.137 A 
HETATM    4  C4  UNL     1     -33.650   6.439   3.460  1.00 20.00     0.137 A 
HETATM    5  C5  UNL     1     -34.517   4.942   4.824  1.00 20.00     0.031 A 
HETATM    6  N6  UNL     1     -32.328   8.478   2.566  1.00 20.00    -0.190 NA
HETATM    7  N7  UNL     1     -34.361   5.608   2.690  1.00 20.00    -0.249 NA
HETATM    8 BR8  UNL     1     -35.000   3.951   6.341  1.00 20.00    -0.050 Br
ENDROOT
TORSDOF 0
