REMARK  0 active torsions:
REMARK  status: ('A' for Active; 'I' for Inactive)
ROOT
HETATM    1  C1  UNL     1     -33.682   4.848   3.259  1.00 20.00     0.017 A 
HETATM    2  C2  UNL     1     -34.489   3.716   3.377  1.00 20.00     0.025 A 
HETATM    3  C3  UNL     1     -33.722   6.140   6.732  1.00 20.00     0.031 A 
HETATM    4  C4  UNL     1     -34.799   4.179   5.729  1.00 20.00     0.036 A 
HETATM    5  C5  UNL     1     -32.912   7.251   6.551  1.00 20.00     0.119 A 
HETATM    6  C6  UNL     1     -33.427   5.656   4.379  1.00 20.00     0.010 A 
HETATM    7  C7  UNL     1     -33.989   5.322   5.628  1.00 20.00    -0.020 A 
HETATM    8  C8  UNL     1     -35.046   3.382   4.610  1.00 20.00     0.034 A 
HETATM    9  C9  UNL     1     -32.627   6.799   4.317  1.00 20.00     0.113 A 
HETATM   10  N10 UNL     1     -32.358   7.602   5.371  1.00 20.00    -0.253 NA
HETATM   11 CL11 UNL     1     -36.041   1.985   4.752  1.00 20.00    -0.084 Cl
HETATM   12 BR12 UNL     1     -31.792   7.387   2.696  1.00 20.00    -0.028 Br
ENDROOT
TORSDOF 0
