REMARK  0 active torsions:
REMARK  status: ('A' for Active; 'I' for Inactive)
ROOT
HETATM    1  C1  UNL     1     -35.069   4.515   4.105  1.00 20.00     0.036 A 
HETATM    2  C2  UNL     1     -34.468   5.011   3.020  1.00 20.00     0.007 A 
HETATM    3  C3  UNL     1     -34.688   5.237   5.326  1.00 20.00     0.086 A 
HETATM    4  C4  UNL     1     -33.547   6.172   3.191  1.00 20.00     0.172 A 
HETATM    5  N5  UNL     1     -35.096   4.986   6.519  1.00 20.00    -0.293 NA
HETATM    6  S6  UNL     1     -33.571   6.536   4.971  1.00 20.00    -0.086 SA
HETATM    7 CL7  UNL     1     -31.913   5.755   2.647  1.00 20.00    -0.109 Cl
HETATM    8  H11 UNL     1     -34.671   5.653   7.174  1.00 20.00     0.187 HD
ENDROOT
TORSDOF 0
