REMARK  1 active torsions:
REMARK  status: ('A' for Active; 'I' for Inactive)
REMARK    1  A    between atoms: C6_6  and  C7_7 
ROOT
HETATM    1  C3  UNL     1     -35.180   4.566   4.190  1.00 20.00     0.296 C 
HETATM    2  C4  UNL     1     -35.211   4.514   5.711  1.00 20.00     0.197 C 
HETATM    3  C5  UNL     1     -34.037   6.548   5.863  1.00 20.00     0.203 C 
HETATM    4  C7  UNL     1     -34.018   6.699   4.338  1.00 20.00     0.248 C 
HETATM    5  N8  UNL     1     -35.119   5.950   3.711  1.00 20.00     0.092 N 
HETATM    6  O9  UNL     1     -34.064   5.172   6.247  1.00 20.00    -0.387 OA
HETATM    7  H22 UNL     1     -34.975   5.935   2.695  1.00 20.00     0.316 HD
ENDROOT
BRANCH   4   8
HETATM    8  C6  UNL     1     -32.685   6.316   3.746  1.00 20.00     0.021 A 
HETATM    9  C1  UNL     1     -32.278   6.838   2.396  1.00 20.00     0.007 A 
HETATM   10  C2  UNL     1     -31.586   7.336   3.635  1.00 20.00     0.007 A 
ENDBRANCH   4   8
TORSDOF 1
