REMARK  1 active torsions:
REMARK  status: ('A' for Active; 'I' for Inactive)
REMARK    1  A    between atoms: C1_1  and  C2_2 
ROOT
HETATM    1  C2  UNL     1     -33.755   6.185   3.665  1.00 20.00     0.357 C 
HETATM    2  F5  UNL     1     -33.934   5.326   2.632  1.00 20.00    -0.187 F 
HETATM    3  F6  UNL     1     -34.612   7.218   3.475  1.00 20.00    -0.187 F 
HETATM    4 BR7  UNL     1     -31.930   6.840   3.678  1.00 20.00    -0.005 Br
ENDROOT
BRANCH   1   5
HETATM    5  C1  UNL     1     -34.080   5.495   4.964  1.00 20.00     0.436 C 
HETATM    6  F3  UNL     1     -35.384   5.126   4.987  1.00 20.00    -0.207 F 
HETATM    7  F4  UNL     1     -33.909   6.372   5.986  1.00 20.00    -0.207 F 
ENDBRANCH   1   5
TORSDOF 1
