REMARK  0 active torsions:
REMARK  status: ('A' for Active; 'I' for Inactive)
ROOT
HETATM    1  C1  UNL     1     -35.068   5.637   6.504  1.00 20.00     0.009 C 
HETATM    2  C2  UNL     1     -35.507   4.544   4.290  1.00 20.00     0.012 C 
HETATM    3  C3  UNL     1     -33.275   4.264   5.411  1.00 20.00     0.012 C 
HETATM    4  C4  UNL     1     -35.263   7.036   4.431  1.00 20.00     0.012 C 
HETATM    5  C5  UNL     1     -33.036   6.757   5.550  1.00 20.00     0.012 C 
HETATM    6  C6  UNL     1     -34.792   4.390   5.646  1.00 20.00    -0.013 C 
HETATM    7  C7  UNL     1     -34.550   6.897   5.788  1.00 20.00    -0.013 C 
HETATM    8  C8  UNL     1     -34.989   5.796   3.561  1.00 20.00     0.021 C 
HETATM    9  C9  UNL     1     -32.749   5.515   4.686  1.00 20.00     0.021 C 
HETATM   10  C10 UNL     1     -33.477   5.649   3.340  1.00 20.00     0.178 C 
HETATM   11  F11 UNL     1     -33.010   6.747   2.685  1.00 20.00    -0.249 F 
ENDROOT
TORSDOF 0
