REMARK  0 active torsions:
REMARK  status: ('A' for Active; 'I' for Inactive)
ROOT
HETATM    1  C1  UNL     1     -33.914   5.201   3.249  1.00 20.00     0.105 C 
HETATM    2  C2  UNL     1     -34.205   6.343   5.030  1.00 20.00     0.260 C 
HETATM    3  C3  UNL     1     -32.955   5.932   4.212  1.00 20.00     0.128 C 
HETATM    4  C4  UNL     1     -34.908   5.096   4.428  1.00 20.00     0.276 C 
HETATM    5  F5  UNL     1     -34.057   6.344   6.373  1.00 20.00    -0.241 F 
HETATM    6  F6  UNL     1     -34.813   3.967   5.168  1.00 20.00    -0.203 F 
HETATM    7  F7  UNL     1     -36.212   5.252   4.115  1.00 20.00    -0.203 F 
HETATM    8 CL8  UNL     1     -31.900   7.213   3.557  1.00 20.00    -0.122 Cl
ENDROOT
TORSDOF 0
