REMARK  1 active torsions:
REMARK  status: ('A' for Active; 'I' for Inactive)
REMARK    1  A    between atoms: C2_2  and  C3_3 
ROOT
HETATM    1  C1  UNL     1     -35.726   5.299   4.634  1.00 20.00     0.058 C 
HETATM    2  C2  UNL     1     -34.209   5.482   4.663  1.00 20.00     0.189 C 
HETATM    3 CL6  UNL     1     -33.773   6.569   6.027  1.00 20.00    -0.094 Cl
HETATM    4 CL7  UNL     1     -33.461   3.876   5.003  1.00 20.00    -0.094 Cl
ENDROOT
BRANCH   2   5
HETATM    5  C3  UNL     1     -33.638   6.017   3.343  1.00 20.00     0.354 C 
HETATM    6  F4  UNL     1     -33.926   5.147   2.337  1.00 20.00    -0.184 F 
HETATM    7  F5  UNL     1     -32.282   6.079   3.413  1.00 20.00    -0.184 F 
HETATM    8 CL8  UNL     1     -34.255   7.622   2.885  1.00 20.00    -0.045 Cl
ENDBRANCH   2   5
TORSDOF 1
