REMARK  0 active torsions:
REMARK  status: ('A' for Active; 'I' for Inactive)
ROOT
HETATM    1  C1  UNL     1     -32.450   6.698   3.782  1.00 20.00     0.004 C 
HETATM    2  C2  UNL     1     -33.349   6.283   2.620  1.00 20.00     0.005 C 
HETATM    3  C3  UNL     1     -33.252   6.872   5.074  1.00 20.00     0.042 C 
HETATM    4  C4  UNL     1     -35.641   5.522   3.535  1.00 20.00     0.013 A 
HETATM    5  C5  UNL     1     -34.287   5.167   2.972  1.00 20.00    -0.007 A 
HETATM    6  C6  UNL     1     -34.622   4.840   4.410  1.00 20.00     0.029 A 
HETATM    7  C7  UNL     1     -33.907   5.557   5.521  1.00 20.00     0.117 C 
HETATM    8 CL8  UNL     1     -35.074   5.879   6.841  1.00 20.00    -0.101 Cl
HETATM    9 CL9  UNL     1     -32.646   4.442   6.164  1.00 20.00    -0.101 Cl
ENDROOT
TORSDOF 0
