REMARK  1 active torsions:
REMARK  status: ('A' for Active; 'I' for Inactive)
REMARK    1  A    between atoms: C2_2  and  C10_10 
ROOT
HETATM    1  C1  UNL     1     -33.801   5.024   2.378  1.00 20.00    -0.018 A 
HETATM    2  C2  UNL     1     -33.167   6.032   3.009  1.00 20.00    -0.075 A 
HETATM    3  C3  UNL     1     -35.049   4.623   5.675  1.00 20.00     0.001 C 
HETATM    4  C4  UNL     1     -35.109   3.906   4.332  1.00 20.00     0.009 C 
HETATM    5  C5  UNL     1     -33.989   5.696   5.461  1.00 20.00     0.010 C 
HETATM    6  C6  UNL     1     -34.991   5.040   3.314  1.00 20.00     0.016 A 
HETATM    7  C7  UNL     1     -34.267   6.198   4.045  1.00 20.00     0.022 A 
ENDROOT
BRANCH   2   8
HETATM    8  C10 UNL     1     -31.826   6.753   2.779  1.00 20.00     0.006 C 
HETATM    9  C8  UNL     1     -32.048   7.904   1.825  1.00 20.00     0.014 C 
HETATM   10  C9  UNL     1     -31.266   7.205   4.109  1.00 20.00     0.014 C 
ENDBRANCH   2   8
TORSDOF 1
