REMARK  0 active torsions:
REMARK  status: ('A' for Active; 'I' for Inactive)
ROOT
HETATM    1  C1  UNL     1     -35.432   6.021   3.572  1.00 20.00    -0.019 A 
HETATM    2  C2  UNL     1     -34.743   5.021   2.994  1.00 20.00    -0.019 A 
HETATM    3  C3  UNL     1     -35.374   4.480   6.286  1.00 20.00    -0.023 C 
HETATM    4  C4  UNL     1     -34.697   3.472   5.712  1.00 20.00    -0.086 C 
HETATM    5  C5  UNL     1     -35.008   5.923   6.112  1.00 20.00     0.042 C 
HETATM    6  C6  UNL     1     -33.495   3.726   4.839  1.00 20.00     0.048 C 
HETATM    7  C7  UNL     1     -33.064   7.901   3.362  1.00 20.00     0.001 C 
HETATM    8  C8  UNL     1     -32.279   6.763   2.705  1.00 20.00     0.001 C 
HETATM    9  C9  UNL     1     -33.678   7.555   4.718  1.00 20.00     0.015 C 
HETATM   10  C10 UNL     1     -32.237   5.465   3.508  1.00 20.00     0.015 C 
HETATM   11  C11 UNL     1     -34.425   6.207   4.715  1.00 20.00    -0.009 A 
HETATM   12  C12 UNL     1     -33.620   5.038   4.038  1.00 20.00    -0.008 A 
HETATM   13  C13 UNL     1     -35.071   2.037   5.934  1.00 20.00     0.043 C 
ENDROOT
TORSDOF 0
