REMARK  0 active torsions:
REMARK  status: ('A' for Active; 'I' for Inactive)
ROOT
HETATM    1  C1  UNL     1     -33.928   5.638   3.624  1.00 20.00     0.196 C 
HETATM    2  C2  UNL     1     -34.148   6.817   4.547  1.00 20.00     0.092 C 
HETATM    3  C3  UNL     1     -33.713   6.543   5.987  1.00 20.00     0.019 C 
HETATM    4  C4  UNL     1     -34.496   5.425   6.679  1.00 20.00     0.087 C 
HETATM    5  O5  UNL     1     -33.159   5.652   2.671  1.00 20.00    -0.285 OA
HETATM    6  S6  UNL     1     -34.936   4.242   3.987  1.00 20.00    -0.020 SA
HETATM    7  S7  UNL     1     -34.213   3.828   5.860  1.00 20.00    -0.090 SA
ENDROOT
TORSDOF 0
