REMARK  3 active torsions:
REMARK  status: ('A' for Active; 'I' for Inactive)
REMARK    1  A    between atoms: C1_1  and  C3_3 
REMARK    2  A    between atoms: C1_1  and  C4_4 
REMARK    3  A    between atoms: C2_2  and  C3_3 
ROOT
HETATM    1  C1  UNL     1     -33.521   6.125   4.693  1.00 20.00     0.197 C 
ENDROOT
BRANCH   1   2
HETATM    2  C3  UNL     1     -33.208   5.609   3.293  1.00 20.00     0.264 C 
HETATM    3  F5  UNL     1     -34.352   5.563   2.565  1.00 20.00    -0.205 F 
HETATM    4  F6  UNL     1     -32.738   4.338   3.378  1.00 20.00    -0.205 F 
BRANCH   2   5
HETATM    5  C2  UNL     1     -32.187   6.479   2.579  1.00 20.00     0.193 C 
HETATM    6 CL10 UNL     1     -32.803   8.140   2.385  1.00 20.00    -0.124 Cl
ENDBRANCH   2   5
ENDBRANCH   1   2
BRANCH   1   7
HETATM    7  C4  UNL     1     -34.553   5.276   5.406  1.00 20.00     0.393 C 
HETATM    8  F7  UNL     1     -34.840   5.769   6.629  1.00 20.00    -0.171 F 
HETATM    9  F8  UNL     1     -35.705   5.242   4.700  1.00 20.00    -0.171 F 
HETATM   10  F9  UNL     1     -34.129   4.004   5.557  1.00 20.00    -0.171 F 
ENDBRANCH   1   7
TORSDOF 3
