REMARK  0 active torsions:
REMARK  status: ('A' for Active; 'I' for Inactive)
ROOT
HETATM    1  C1  UNL     1     -35.005   4.262   4.408  1.00 20.00     0.006 C 
HETATM    2  C2  UNL     1     -35.151   5.156   3.165  1.00 20.00     0.011 C 
HETATM    3  C3  UNL     1     -33.841   5.742   6.245  1.00 20.00     0.010 C 
HETATM    4  C4  UNL     1     -33.091   6.942   5.676  1.00 20.00     0.069 C 
HETATM    5  C5  UNL     1     -32.255   7.665   2.345  1.00 20.00     0.197 C 
HETATM    6  C6  UNL     1     -31.453   6.485   2.821  1.00 20.00     0.197 C 
HETATM    7  C7  UNL     1     -35.015   5.536   5.290  1.00 20.00    -0.005 C 
HETATM    8  C8  UNL     1     -34.710   6.367   4.017  1.00 20.00     0.052 C 
HETATM    9  C9  UNL     1     -33.248   6.788   4.168  1.00 20.00     0.168 C 
HETATM   10  O10 UNL     1     -33.013   8.029   3.497  1.00 20.00    -0.353 OA
HETATM   11  O11 UNL     1     -32.362   5.779   3.665  1.00 20.00    -0.353 OA
ENDROOT
TORSDOF 0
