REMARK  0 active torsions:
REMARK  status: ('A' for Active; 'I' for Inactive)
ROOT
HETATM    1  C1  UNL     1     -34.741   5.852   6.743  1.00 20.00    -0.021 C 
HETATM    2  C2  UNL     1     -34.883   3.599   5.421  1.00 20.00    -0.021 C 
HETATM    3  C3  UNL     1     -33.753   6.615   6.224  1.00 20.00    -0.025 C 
HETATM    4  C4  UNL     1     -34.483   3.464   4.138  1.00 20.00    -0.025 C 
HETATM    5  C5  UNL     1     -33.012   6.614   3.526  1.00 20.00     0.009 C 
HETATM    6  C6  UNL     1     -33.440   5.402   2.631  1.00 20.00     0.009 C 
HETATM    7  C7  UNL     1     -35.416   4.977   5.706  1.00 20.00     0.035 C 
HETATM    8  C8  UNL     1     -33.467   6.101   4.867  1.00 20.00     0.013 C 
HETATM    9  C9  UNL     1     -34.661   4.732   3.330  1.00 20.00     0.013 C 
HETATM   10  C10 UNL     1     -34.900   5.683   4.477  1.00 20.00     0.012 C 
ENDROOT
TORSDOF 0
