REMARK  0 active torsions:
REMARK  status: ('A' for Active; 'I' for Inactive)
ROOT
HETATM    1  C1  UNL     1     -35.833   5.288   4.608  1.00 20.00    -0.021 C 
HETATM    2  C2  UNL     1     -34.560   6.116   6.598  1.00 20.00    -0.021 C 
HETATM    3  C3  UNL     1     -35.444   5.752   3.412  1.00 20.00    -0.023 C 
HETATM    4  C4  UNL     1     -33.560   6.975   6.356  1.00 20.00    -0.023 C 
HETATM    5  C5  UNL     1     -34.693   5.043   5.554  1.00 20.00     0.035 C 
HETATM    6  C6  UNL     1     -33.970   5.889   3.357  1.00 20.00     0.033 A 
HETATM    7  C7  UNL     1     -32.851   6.615   5.106  1.00 20.00     0.033 A 
HETATM    8  C8  UNL     1     -33.452   5.264   4.668  1.00 20.00     0.015 A 
HETATM    9  C9  UNL     1     -33.387   7.258   3.798  1.00 20.00     0.098 A 
HETATM   10 CL10 UNL     1     -32.177   8.033   2.702  1.00 20.00    -0.124 Cl
ENDROOT
TORSDOF 0
