REMARK  0 active torsions:
REMARK  status: ('A' for Active; 'I' for Inactive)
ROOT
HETATM    1  C1  UNL     1     -34.549   4.346   6.559  1.00 20.00    -0.025 C 
HETATM    2  C2  UNL     1     -34.584   3.445   5.566  1.00 20.00    -0.025 C 
HETATM    3  C3  UNL     1     -35.833   5.256   4.867  1.00 20.00     0.017 C 
HETATM    4  C4  UNL     1     -33.629   6.111   5.085  1.00 20.00     0.013 C 
HETATM    5  C5  UNL     1     -34.842   5.696   5.947  1.00 20.00     0.009 C 
HETATM    6  C6  UNL     1     -34.886   4.199   4.289  1.00 20.00     0.012 C 
HETATM    7  C7  UNL     1     -33.626   5.039   3.950  1.00 20.00    -0.010 C 
HETATM    8  C8  UNL     1     -33.683   5.665   2.561  1.00 20.00     0.010 C 
ENDROOT
TORSDOF 0
