REMARK  2 active torsions:
REMARK  status: ('A' for Active; 'I' for Inactive)
REMARK    1  A    between atoms: C1_1  and  C2_2 
REMARK    2  A    between atoms: C1_1  and  C3_3 
ROOT
HETATM    1  C1  UNL     1     -33.766   6.667   3.946  1.00 20.00     0.386 C 
HETATM    2  F4  UNL     1     -33.808   7.017   5.264  1.00 20.00    -0.191 F 
HETATM    3  F5  UNL     1     -34.540   7.583   3.295  1.00 20.00    -0.191 F 
ENDROOT
BRANCH   1   4
HETATM    4  C2  UNL     1     -34.442   5.309   3.813  1.00 20.00     0.390 C 
HETATM    5  F6  UNL     1     -34.476   4.975   2.494  1.00 20.00    -0.181 F 
HETATM    6  F7  UNL     1     -35.735   5.379   4.216  1.00 20.00    -0.181 F 
HETATM    7 CL9  UNL     1     -33.616   4.017   4.699  1.00 20.00    -0.042 Cl
ENDBRANCH   1   4
BRANCH   1   8
HETATM    8  C3  UNL     1     -32.326   6.806   3.445  1.00 20.00     0.328 C 
HETATM    9  F8  UNL     1     -31.899   5.617   2.946  1.00 20.00    -0.200 F 
HETATM   10 CL10 UNL     1     -31.206   7.317   4.733  1.00 20.00    -0.059 Cl
HETATM   11 CL11 UNL     1     -32.251   8.007   2.120  1.00 20.00    -0.059 Cl
ENDBRANCH   1   8
TORSDOF 2
