REMARK  0 active torsions:
REMARK  status: ('A' for Active; 'I' for Inactive)
ROOT
HETATM    1  C1  UNL     1     -32.834   7.402   3.429  1.00 20.00     0.132 C 
HETATM    2  C2  UNL     1     -31.559   7.477   4.219  1.00 20.00     0.079 C 
HETATM    3  C3  UNL     1     -31.838   6.518   5.365  1.00 20.00     0.017 C 
HETATM    4  C4  UNL     1     -33.938   5.282   6.117  1.00 20.00     0.011 C 
HETATM    5  C5  UNL     1     -34.101   4.456   4.848  1.00 20.00     0.010 C 
HETATM    6  C6  UNL     1     -33.991   6.832   4.230  1.00 20.00     0.071 C 
HETATM    7  C7  UNL     1     -33.355   6.610   5.626  1.00 20.00    -0.033 C 
HETATM    8  C8  UNL     1     -34.568   5.463   3.776  1.00 20.00    -0.037 C 
HETATM    9  C9  UNL     1     -33.671   7.749   6.600  1.00 20.00     0.016 C 
HETATM   10  C10 UNL     1     -34.123   4.998   2.384  1.00 20.00     0.015 C 
HETATM   11  C11 UNL     1     -36.109   5.545   3.782  1.00 20.00     0.015 C 
HETATM   12  O12 UNL     1     -32.935   7.810   2.278  1.00 20.00    -0.298 OA
ENDROOT
TORSDOF 0
