REMARK  1 active torsions:
REMARK  status: ('A' for Active; 'I' for Inactive)
REMARK    1  A    between atoms: C1_1  and  C2_2 
ROOT
HETATM    1  C1  UNL     1     -33.787   5.879   3.821  1.00 20.00     0.432 C 
HETATM    2  F3  UNL     1     -32.457   6.122   3.865  1.00 20.00    -0.167 F 
HETATM    3  F4  UNL     1     -34.414   7.078   3.850  1.00 20.00    -0.167 F 
HETATM    4  F5  UNL     1     -34.055   5.317   2.620  1.00 20.00    -0.167 F 
ENDROOT
BRANCH   1   5
HETATM    5  C2  UNL     1     -34.236   4.994   4.969  1.00 20.00     0.267 C 
HETATM    6 CL6  UNL     1     -33.877   5.768   6.531  1.00 20.00    -0.079 Cl
HETATM    7 CL7  UNL     1     -35.980   4.656   4.851  1.00 20.00    -0.079 Cl
HETATM    8 BR8  UNL     1     -33.274   3.293   4.891  1.00 20.00    -0.040 Br
ENDBRANCH   1   5
TORSDOF 1
