REMARK  3 active torsions:
REMARK  status: ('A' for Active; 'I' for Inactive)
REMARK    1  A    between atoms: C2_2  and  C8_8 
REMARK    2  A    between atoms: C6_6  and  C7_7 
REMARK    3  A    between atoms: C7_7  and  C8_8 
ROOT
HETATM    1  C5  UNL     1     -31.434   7.587   3.723  1.00 20.00     0.014 C 
HETATM    2  C8  UNL     1     -32.675   7.445   2.837  1.00 20.00     0.004 C 
ENDROOT
BRANCH   2   3
HETATM    3  C2  UNL     1     -32.278   7.621   1.391  1.00 20.00    -0.027 C 
HETATM    4  C1  UNL     1     -32.224   8.809   0.772  1.00 20.00    -0.035 C 
HETATM    5  C3  UNL     1     -32.549  10.107   1.434  1.00 20.00     0.036 C 
ENDBRANCH   2   3
BRANCH   2   6
HETATM    6  C7  UNL     1     -33.349   6.082   3.084  1.00 20.00     0.008 C 
BRANCH   6   7
HETATM    7  C6  UNL     1     -34.132   6.028   4.399  1.00 20.00    -0.004 C 
HETATM    8  C4  UNL     1     -34.719   4.645   4.640  1.00 20.00     0.005 C 
ENDBRANCH   6   7
ENDBRANCH   2   6
TORSDOF 3
