REMARK  0 active torsions:
REMARK  status: ('A' for Active; 'I' for Inactive)
ROOT
HETATM    1  C1  UNL     1     -35.297   6.829   4.576  1.00 20.00    -0.019 A 
HETATM    2  C2  UNL     1     -35.101   6.118   3.452  1.00 20.00    -0.019 A 
HETATM    3  C3  UNL     1     -32.493   8.152   4.224  1.00 20.00    -0.023 C 
HETATM    4  C4  UNL     1     -32.296   7.456   3.092  1.00 20.00    -0.086 C 
HETATM    5  C5  UNL     1     -32.995   7.533   5.494  1.00 20.00     0.042 C 
HETATM    6  C6  UNL     1     -32.564   5.975   3.021  1.00 20.00     0.048 C 
HETATM    7  C7  UNL     1     -35.096   4.341   6.295  1.00 20.00     0.001 C 
HETATM    8  C8  UNL     1     -34.869   3.531   5.016  1.00 20.00     0.001 C 
HETATM    9  C9  UNL     1     -34.136   5.513   6.490  1.00 20.00     0.015 C 
HETATM   10  C10 UNL     1     -33.722   4.028   4.138  1.00 20.00     0.015 C 
HETATM   11  C11 UNL     1     -33.981   6.382   5.226  1.00 20.00    -0.009 A 
HETATM   12  C12 UNL     1     -33.751   5.551   3.911  1.00 20.00    -0.008 A 
HETATM   13  C13 UNL     1     -31.764   8.101   1.847  1.00 20.00     0.043 C 
ENDROOT
TORSDOF 0
