REMARK  0 active torsions:
REMARK  status: ('A' for Active; 'I' for Inactive)
ROOT
HETATM    1  C1  UNL     1     -33.800   6.591   6.091  1.00 20.00    -0.080 C 
HETATM    2  C2  UNL     1     -34.343   7.208   7.147  1.00 20.00     0.015 C 
HETATM    3  C3  UNL     1     -32.569   7.067   5.370  1.00 20.00     0.043 C 
HETATM    4  C4  UNL     1     -35.920   4.657   3.694  1.00 20.00     0.002 C 
HETATM    5  C5  UNL     1     -34.626   4.975   2.951  1.00 20.00     0.006 C 
HETATM    6  C6  UNL     1     -35.843   5.480   4.972  1.00 20.00     0.014 C 
HETATM    7  C7  UNL     1     -33.598   5.349   4.029  1.00 20.00     0.006 C 
HETATM    8  C8  UNL     1     -34.367   5.383   5.380  1.00 20.00    -0.017 C 
HETATM    9  C9  UNL     1     -32.881   6.726   3.899  1.00 20.00    -0.040 C 
HETATM   10  C10 UNL     1     -34.098   4.109   6.198  1.00 20.00     0.020 C 
HETATM   11  C11 UNL     1     -31.586   6.592   3.086  1.00 20.00     0.015 C 
HETATM   12  C12 UNL     1     -33.724   7.856   3.274  1.00 20.00     0.015 C 
ENDROOT
TORSDOF 0
