REMARK  0 active torsions:
REMARK  status: ('A' for Active; 'I' for Inactive)
ROOT
HETATM    1  C1  UNL     1     -33.248   6.778   5.657  1.00 20.00    -0.080 C 
HETATM    2  C2  UNL     1     -33.460   7.767   6.534  1.00 20.00     0.015 C 
HETATM    3  C3  UNL     1     -33.818   5.393   5.788  1.00 20.00     0.043 C 
HETATM    4  C4  UNL     1     -32.688   7.508   2.033  1.00 20.00     0.002 C 
HETATM    5  C5  UNL     1     -33.115   6.046   2.108  1.00 20.00     0.006 C 
HETATM    6  C6  UNL     1     -32.924   8.050   3.436  1.00 20.00     0.014 C 
HETATM    7  C7  UNL     1     -32.906   5.616   3.568  1.00 20.00     0.006 C 
HETATM    8  C8  UNL     1     -32.497   6.895   4.351  1.00 20.00    -0.017 C 
HETATM    9  C9  UNL     1     -34.125   5.010   4.326  1.00 20.00    -0.040 C 
HETATM   10  C10 UNL     1     -30.981   6.920   4.608  1.00 20.00     0.020 C 
HETATM   11  C11 UNL     1     -34.167   3.485   4.161  1.00 20.00     0.015 C 
HETATM   12  C12 UNL     1     -35.503   5.574   3.923  1.00 20.00     0.015 C 
ENDROOT
TORSDOF 0
