REMARK  0 active torsions:
REMARK  status: ('A' for Active; 'I' for Inactive)
ROOT
HETATM    1  C1  UNL     1     -36.008   5.215   4.278  1.00 20.00     0.004 C 
HETATM    2  C2  UNL     1     -35.320   5.438   2.933  1.00 20.00     0.005 C 
HETATM    3  C3  UNL     1     -35.371   6.067   5.378  1.00 20.00     0.042 C 
HETATM    4  C4  UNL     1     -33.083   6.674   3.306  1.00 20.00     0.013 A 
HETATM    5  C5  UNL     1     -33.824   5.390   3.024  1.00 20.00    -0.007 A 
HETATM    6  C6  UNL     1     -33.105   5.580   4.340  1.00 20.00     0.029 A 
HETATM    7  C7  UNL     1     -33.901   5.691   5.612  1.00 20.00     0.117 C 
HETATM    8 CL8  UNL     1     -33.124   6.911   6.669  1.00 20.00    -0.101 Cl
HETATM    9 CL9  UNL     1     -33.809   4.100   6.451  1.00 20.00    -0.101 Cl
ENDROOT
TORSDOF 0
