REMARK  2 active torsions:
REMARK  status: ('A' for Active; 'I' for Inactive)
REMARK    1  A    between atoms: C7_7  and  C9_9 
REMARK    2  A    between atoms: C8_8  and  C10_10 
ROOT
HETATM    1  C1  UNL     1     -35.227   4.095   5.992  1.00 20.00    -0.030 C 
HETATM    2  C2  UNL     1     -35.301   3.947   4.649  1.00 20.00    -0.025 C 
HETATM    3  C5  UNL     1     -34.201   5.160   6.392  1.00 20.00     0.032 C 
HETATM    4  C9  UNL     1     -34.186   4.730   4.056  1.00 20.00     0.020 C 
HETATM    5  C10 UNL     1     -34.231   5.898   5.079  1.00 20.00     0.005 C 
ENDROOT
BRANCH   4   6
HETATM    6  C7  UNL     1     -33.876   5.514   2.756  1.00 20.00     0.016 C 
HETATM    7  C3  UNL     1     -32.354   5.644   2.816  1.00 20.00    -0.025 C 
HETATM    8  C4  UNL     1     -32.059   6.449   3.855  1.00 20.00    -0.025 C 
HETATM    9  C8  UNL     1     -33.361   6.967   4.419  1.00 20.00     0.013 C 
HETATM   10  C6  UNL     1     -34.155   6.990   3.077  1.00 20.00     0.018 C 
ENDBRANCH   4   6
TORSDOF 2
