REMARK  0 active torsions:
REMARK  status: ('A' for Active; 'I' for Inactive)
ROOT
HETATM    1  C1  UNL     1     -32.054   5.841   3.363  1.00 20.00     0.135 C 
HETATM    2  C2  UNL     1     -33.032   5.015   2.568  1.00 20.00     0.080 C 
HETATM    3  C3  UNL     1     -33.888   4.122   3.457  1.00 20.00     0.016 C 
HETATM    4  C4  UNL     1     -32.327   7.448   5.362  1.00 20.00     0.023 A 
HETATM    5  C5  UNL     1     -34.243   5.717   5.439  1.00 20.00     0.014 C 
HETATM    6  C6  UNL     1     -33.705   7.025   4.934  1.00 20.00     0.003 A 
HETATM    7  C7  UNL     1     -32.591   7.123   3.905  1.00 20.00     0.021 A 
HETATM    8  C8  UNL     1     -34.928   4.827   4.372  1.00 20.00    -0.047 C 
HETATM    9  C9  UNL     1     -32.616   8.300   2.958  1.00 20.00     0.024 C 
HETATM   10  C10 UNL     1     -35.957   5.620   3.547  1.00 20.00     0.015 C 
HETATM   11  C11 UNL     1     -35.696   3.713   5.125  1.00 20.00     0.015 C 
HETATM   12  O12 UNL     1     -30.889   5.511   3.555  1.00 20.00    -0.297 OA
ENDROOT
TORSDOF 0
