REMARK  1 active torsions:
REMARK  status: ('A' for Active; 'I' for Inactive)
REMARK    1  A    between atoms: C7_7  and  C8_8 
ROOT
HETATM    1  C1  UNL     1     -35.692   5.090   4.306  1.00 20.00    -0.026 C 
HETATM    2  C2  UNL     1     -35.397   5.403   3.035  1.00 20.00    -0.025 C 
HETATM    3  C3  UNL     1     -33.506   4.437   3.940  1.00 20.00     0.017 C 
HETATM    4  C4  UNL     1     -33.809   6.427   5.198  1.00 20.00     0.014 C 
HETATM    5  C5  UNL     1     -34.386   5.001   5.058  1.00 20.00     0.009 C 
HETATM    6  C6  UNL     1     -33.893   5.538   2.945  1.00 20.00     0.013 C 
HETATM    7  C7  UNL     1     -33.505   6.826   3.718  1.00 20.00     0.007 C 
ENDROOT
BRANCH   7   8
HETATM    8  C8  UNL     1     -32.050   7.229   3.514  1.00 20.00     0.119 C 
HETATM    9 CL9  UNL     1     -31.766   7.660   1.817  1.00 20.00    -0.130 Cl
ENDBRANCH   7   8
TORSDOF 1
