REMARK  0 active torsions:
REMARK  status: ('A' for Active; 'I' for Inactive)
ROOT
HETATM    1  C1  UNL     1     -33.044   7.522   5.973  1.00 20.00     0.004 C 
HETATM    2  C2  UNL     1     -33.807   6.808   6.854  1.00 20.00    -0.017 C 
HETATM    3  C3  UNL     1     -34.921   4.338   6.109  1.00 20.00    -0.021 C 
HETATM    4  C4  UNL     1     -34.780   3.875   4.825  1.00 20.00    -0.024 C 
HETATM    5  C5  UNL     1     -32.791   6.784   3.393  1.00 20.00    -0.019 C 
HETATM    6  C6  UNL     1     -33.084   6.882   4.690  1.00 20.00    -0.056 C 
HETATM    7  C7  UNL     1     -33.296   5.400   2.865  1.00 20.00     0.036 C 
HETATM    8  C8  UNL     1     -34.694   5.827   6.129  1.00 20.00     0.039 C 
HETATM    9  C9  UNL     1     -34.392   5.014   3.891  1.00 20.00     0.020 C 
HETATM   10  C10 UNL     1     -33.691   5.628   5.050  1.00 20.00     0.037 C 
ENDROOT
TORSDOF 0
