REMARK  1 active torsions:
REMARK  status: ('A' for Active; 'I' for Inactive)
REMARK    1  A    between atoms: C7_7  and  O9_9 
ROOT
HETATM    1  C1  UNL     1     -34.029   4.427   3.160  1.00 20.00    -0.019 A 
HETATM    2  C2  UNL     1     -33.653   5.680   3.482  1.00 20.00    -0.080 A 
HETATM    3  C3  UNL     1     -35.030   3.575   5.408  1.00 20.00     0.012 C 
HETATM    4  C4  UNL     1     -34.054   4.366   6.271  1.00 20.00     0.033 C 
HETATM    5  C5  UNL     1     -35.190   4.408   4.134  1.00 20.00     0.019 A 
HETATM    6  C6  UNL     1     -34.776   5.855   4.498  1.00 20.00     0.050 A 
HETATM    7  C7  UNL     1     -34.433   5.816   5.989  1.00 20.00     0.127 C 
HETATM    8  C8  UNL     1     -32.519   6.604   3.001  1.00 20.00     0.043 C 
ENDROOT
BRANCH   7   9
HETATM    9  O9  UNL     1     -33.370   6.705   6.282  1.00 20.00    -0.395 OA
HETATM   10  H21 UNL     1     -33.164   6.601   7.227  1.00 20.00     0.210 HD
ENDBRANCH   7   9
TORSDOF 1
