REMARK  0 active torsions:
REMARK  status: ('A' for Active; 'I' for Inactive)
ROOT
HETATM    1  C1  UNL     1     -32.892   6.845   3.204  1.00 20.00     0.131 C 
HETATM    2  C2  UNL     1     -33.583   5.520   2.764  1.00 20.00     0.083 C 
HETATM    3  C3  UNL     1     -32.885   7.798   5.811  1.00 20.00     0.013 C 
HETATM    4  C4  UNL     1     -33.453   6.888   6.973  1.00 20.00     0.006 C 
HETATM    5  C5  UNL     1     -35.050   4.146   4.735  1.00 20.00     0.006 C 
HETATM    6  C6  UNL     1     -34.996   4.622   6.274  1.00 20.00     0.005 C 
HETATM    7  C7  UNL     1     -32.529   6.819   4.689  1.00 20.00     0.060 C 
HETATM    8  C8  UNL     1     -34.419   5.332   3.999  1.00 20.00    -0.002 C 
HETATM    9  C9  UNL     1     -34.359   6.006   6.159  1.00 20.00    -0.009 C 
HETATM   10  C10 UNL     1     -33.402   5.660   5.054  1.00 20.00     0.005 C 
HETATM   11  O11 UNL     1     -32.609   7.760   2.443  1.00 20.00    -0.298 OA
ENDROOT
TORSDOF 0
