REMARK  0 active torsions:
REMARK  status: ('A' for Active; 'I' for Inactive)
ROOT
HETATM    1  C1  UNL     1     -32.801   6.875   4.236  1.00 20.00    -0.020 C 
HETATM    2  C2  UNL     1     -33.855   7.247   3.437  1.00 20.00    -0.020 C 
HETATM    3  C3  UNL     1     -35.177   4.062   4.882  1.00 20.00     0.002 C 
HETATM    4  C4  UNL     1     -33.722   4.460   5.273  1.00 20.00     0.014 C 
HETATM    5  C5  UNL     1     -35.682   5.209   3.953  1.00 20.00     0.014 C 
HETATM    6  C6  UNL     1     -33.747   5.948   4.990  1.00 20.00    -0.016 C 
HETATM    7  C7  UNL     1     -34.366   5.812   3.507  1.00 20.00    -0.016 C 
HETATM    8  C8  UNL     1     -34.379   6.699   6.192  1.00 20.00     0.020 C 
HETATM    9  C9  UNL     1     -33.782   4.984   2.332  1.00 20.00     0.020 C 
ENDROOT
TORSDOF 0
