REMARK  0 active torsions:
REMARK  status: ('A' for Active; 'I' for Inactive)
ROOT
HETATM    1  C1  UNL     1     -34.941   5.662   6.741  1.00 20.00     0.129 C 
HETATM    2  C2  UNL     1     -34.324   6.860   5.994  1.00 20.00     0.254 C 
HETATM    3  C3  UNL     1     -34.191   4.735   5.762  1.00 20.00     0.313 C 
HETATM    4  C4  UNL     1     -34.161   5.926   4.770  1.00 20.00     0.338 C 
HETATM    5  F5  UNL     1     -33.167   7.334   6.515  1.00 20.00    -0.243 F 
HETATM    6  F6  UNL     1     -32.979   4.307   6.185  1.00 20.00    -0.199 F 
HETATM    7  F7  UNL     1     -34.870   3.644   5.347  1.00 20.00    -0.199 F 
HETATM    8  F8  UNL     1     -33.017   6.074   4.067  1.00 20.00    -0.196 F 
HETATM    9  F9  UNL     1     -35.178   5.959   3.878  1.00 20.00    -0.196 F 
ENDROOT
TORSDOF 0
