REMARK  1 active torsions:
REMARK  status: ('A' for Active; 'I' for Inactive)
REMARK    1  A    between atoms: C5_5  and  O10_10 
ROOT
HETATM    1  C1  UNL     1     -33.727   6.343   5.593  1.00 20.00     0.001 C 
HETATM    2  C2  UNL     1     -32.962   6.841   4.611  1.00 20.00    -0.018 C 
HETATM    3  C3  UNL     1     -35.268   5.242   3.879  1.00 20.00     0.046 C 
HETATM    4  C4  UNL     1     -32.836   4.960   2.890  1.00 20.00     0.024 A 
HETATM    5  C5  UNL     1     -34.782   5.315   5.335  1.00 20.00     0.141 C 
HETATM    6  C6  UNL     1     -33.040   6.436   3.188  1.00 20.00    -0.018 A 
HETATM    7  C7  UNL     1     -34.229   5.545   2.803  1.00 20.00    -0.030 A 
HETATM    8  C8  UNL     1     -32.497   7.440   2.203  1.00 20.00     0.020 C 
HETATM    9  C9  UNL     1     -34.840   5.651   1.424  1.00 20.00     0.016 C 
ENDROOT
BRANCH   5  10
HETATM   10  O10 UNL     1     -34.273   4.049   5.750  1.00 20.00    -0.392 OA
HETATM   11  H24 UNL     1     -34.075   4.128   6.695  1.00 20.00     0.210 HD
ENDBRANCH   5  10
TORSDOF 1
