REMARK  1 active torsions:
REMARK  status: ('A' for Active; 'I' for Inactive)
REMARK    1  A    between atoms: C1_1  and  C3_3 
ROOT
HETATM    1  C1  UNL     1     -32.882   7.003   3.499  1.00 20.00     0.043 C 
HETATM    2  C2  UNL     1     -33.820   6.052   3.593  1.00 20.00     0.183 C 
HETATM    3  F4  UNL     1     -34.188   5.357   2.495  1.00 20.00    -0.193 F 
HETATM    4 CL5  UNL     1     -34.579   5.693   5.097  1.00 20.00    -0.052 Cl
ENDROOT
BRANCH   1   5
HETATM    5  C3  UNL     1     -32.178   7.358   2.230  1.00 20.00     0.145 C 
HETATM    6 CL6  UNL     1     -32.473   9.064   1.832  1.00 20.00    -0.126 Cl
ENDBRANCH   1   5
TORSDOF 1
