REMARK  0 active torsions:
REMARK  status: ('A' for Active; 'I' for Inactive)
ROOT
HETATM    1  C1  UNL     1     -32.697   5.911   4.159  1.00 20.00    -0.020 A 
HETATM    2  C2  UNL     1     -33.629   6.149   3.218  1.00 20.00    -0.020 A 
HETATM    3  C3  UNL     1     -34.923   3.914   4.896  1.00 20.00     0.002 C 
HETATM    4  C4  UNL     1     -34.073   4.620   5.947  1.00 20.00     0.014 C 
HETATM    5  C5  UNL     1     -35.733   5.044   4.271  1.00 20.00     0.014 C 
HETATM    6  C6  UNL     1     -33.690   5.972   5.318  1.00 20.00    -0.016 A 
HETATM    7  C7  UNL     1     -34.776   6.250   4.222  1.00 20.00    -0.016 A 
HETATM    8  C8  UNL     1     -33.373   7.034   6.361  1.00 20.00     0.020 C 
HETATM    9  C9  UNL     1     -35.514   7.581   4.201  1.00 20.00     0.020 C 
ENDROOT
TORSDOF 0
