REMARK  0 active torsions:
REMARK  status: ('A' for Active; 'I' for Inactive)
ROOT
HETATM    1  C1  UNL     1     -33.674   6.379   5.927  1.00 20.00     0.014 C 
HETATM    2  C2  UNL     1     -35.031   5.479   3.989  1.00 20.00     0.014 C 
HETATM    3  C3  UNL     1     -33.957   5.040   6.553  1.00 20.00    -0.004 A 
HETATM    4  C4  UNL     1     -35.155   4.246   4.843  1.00 20.00    -0.004 A 
HETATM    5  C5  UNL     1     -34.033   3.803   5.722  1.00 20.00    -0.001 A 
HETATM    6  C6  UNL     1     -35.292   4.417   6.319  1.00 20.00    -0.001 A 
HETATM    7  C7  UNL     1     -33.824   6.362   4.387  1.00 20.00    -0.046 C 
HETATM    8  C8  UNL     1     -32.533   5.831   3.729  1.00 20.00     0.015 C 
HETATM    9  C9  UNL     1     -34.051   7.798   3.879  1.00 20.00     0.015 C 
ENDROOT
TORSDOF 0
