REMARK  0 active torsions:
REMARK  status: ('A' for Active; 'I' for Inactive)
ROOT
HETATM    1  C1  UNL     1     -35.109   5.057   3.240  1.00 20.00     0.006 C 
HETATM    2  C2  UNL     1     -35.589   5.180   4.687  1.00 20.00     0.009 C 
HETATM    3  C3  UNL     1     -33.986   6.020   2.950  1.00 20.00    -0.005 A 
HETATM    4  C4  UNL     1     -33.626   7.111   3.911  1.00 20.00    -0.000 A 
HETATM    5  C5  UNL     1     -32.719   5.891   3.725  1.00 20.00    -0.000 A 
HETATM    6  C6  UNL     1     -33.311   6.208   5.064  1.00 20.00     0.003 A 
HETATM    7  C7  UNL     1     -34.406   5.327   5.675  1.00 20.00    -0.043 C 
HETATM    8  C8  UNL     1     -34.921   5.984   6.970  1.00 20.00     0.015 C 
HETATM    9  C9  UNL     1     -33.833   3.944   6.034  1.00 20.00     0.015 C 
ENDROOT
TORSDOF 0
