REMARK  0 active torsions:
REMARK  status: ('A' for Active; 'I' for Inactive)
ROOT
HETATM    1  C1  UNL     1     -34.685   5.583   6.784  1.00 20.00    -0.021 C 
HETATM    2  C2  UNL     1     -34.906   3.736   4.892  1.00 20.00    -0.021 C 
HETATM    3  C3  UNL     1     -33.739   6.464   6.372  1.00 20.00    -0.023 C 
HETATM    4  C4  UNL     1     -34.448   3.990   3.639  1.00 20.00    -0.023 C 
HETATM    5  C5  UNL     1     -35.451   4.955   5.619  1.00 20.00     0.035 C 
HETATM    6  C6  UNL     1     -33.504   6.146   4.971  1.00 20.00     0.033 C 
HETATM    7  C7  UNL     1     -34.589   5.448   3.270  1.00 20.00     0.033 C 
HETATM    8  C8  UNL     1     -35.095   5.998   4.592  1.00 20.00     0.015 C 
HETATM    9  C9  UNL     1     -33.457   6.576   3.522  1.00 20.00     0.098 C 
HETATM   10 CL10 UNL     1     -31.907   6.417   2.630  1.00 20.00    -0.124 Cl
ENDROOT
TORSDOF 0
