REMARK  0 active torsions:
REMARK  status: ('A' for Active; 'I' for Inactive)
ROOT
HETATM    1  C1  UNL     1     -33.384   6.894   5.748  1.00 20.00    -0.018 C 
HETATM    2  C2  UNL     1     -33.958   4.415   2.839  1.00 20.00    -0.018 C 
HETATM    3  C3  UNL     1     -34.507   6.128   5.709  1.00 20.00    -0.078 C 
HETATM    4  C4  UNL     1     -33.472   5.646   2.593  1.00 20.00    -0.078 C 
HETATM    5  C5  UNL     1     -34.747   4.864   6.469  1.00 20.00     0.035 C 
HETATM    6  C6  UNL     1     -32.140   6.202   2.142  1.00 20.00     0.035 C 
HETATM    7  C7  UNL     1     -34.555   3.800   5.346  1.00 20.00     0.013 C 
HETATM    8  C8  UNL     1     -31.823   7.231   3.322  1.00 20.00     0.013 C 
HETATM    9  C9  UNL     1     -32.780   6.711   4.392  1.00 20.00     0.017 C 
HETATM   10  C10 UNL     1     -34.975   4.438   3.994  1.00 20.00     0.017 C 
HETATM   11  C11 UNL     1     -35.081   5.924   4.338  1.00 20.00     0.030 C 
HETATM   12  C12 UNL     1     -34.040   6.616   3.535  1.00 20.00     0.030 C 
ENDROOT
TORSDOF 0
