REMARK  0 active torsions:
REMARK  status: ('A' for Active; 'I' for Inactive)
ROOT
HETATM    1  C1  UNL     1     -35.329   4.905   5.638  1.00 20.00     0.147 A 
HETATM    2  C2  UNL     1     -34.005   6.486   6.195  1.00 20.00     0.214 A 
HETATM    3  C3  UNL     1     -34.692   5.276   4.479  1.00 20.00     0.057 A 
HETATM    4  C4  UNL     1     -34.709   4.885   3.114  1.00 20.00     0.033 A 
HETATM    5  C5  UNL     1     -33.903   5.515   2.237  1.00 20.00     0.023 A 
HETATM    6  C6  UNL     1     -32.998   6.960   3.951  1.00 20.00     0.117 A 
HETATM    7  C7  UNL     1     -33.010   6.594   2.656  1.00 20.00     0.027 A 
HETATM    8  N8  UNL     1     -34.897   5.661   6.700  1.00 20.00    -0.253 NA
HETATM    9  N9  UNL     1     -33.835   6.301   4.847  1.00 20.00    -0.314 N 
HETATM   10 BR10 UNL     1     -31.935   7.405   1.371  1.00 20.00    -0.050 Br
ENDROOT
TORSDOF 0
