REMARK  0 active torsions:
REMARK  status: ('A' for Active; 'I' for Inactive)
ROOT
HETATM    1  C1  UNL     1     -34.394   4.945   5.388  1.00 20.00     0.131 C 
HETATM    2  C2  UNL     1     -32.918   5.219   5.162  1.00 20.00     0.079 C 
HETATM    3  C3  UNL     1     -32.703   6.404   4.216  1.00 20.00     0.016 C 
HETATM    4  C4  UNL     1     -36.070   5.981   2.224  1.00 20.00     0.006 C 
HETATM    5  C5  UNL     1     -37.283   5.402   2.967  1.00 20.00     0.005 C 
HETATM    6  C6  UNL     1     -35.229   4.845   4.128  1.00 20.00     0.064 C 
HETATM    7  C7  UNL     1     -35.010   6.120   3.310  1.00 20.00     0.005 C 
HETATM    8  C8  UNL     1     -36.750   4.827   4.296  1.00 20.00    -0.007 C 
HETATM    9  C9  UNL     1     -33.534   6.336   2.902  1.00 20.00    -0.043 C 
HETATM   10  C10 UNL     1     -37.301   3.438   4.590  1.00 20.00     0.011 C 
HETATM   11  C11 UNL     1     -33.391   7.678   2.158  1.00 20.00     0.015 C 
HETATM   12  C12 UNL     1     -32.980   5.228   1.985  1.00 20.00     0.015 C 
HETATM   13  O13 UNL     1     -34.847   4.726   6.509  1.00 20.00    -0.298 OA
ENDROOT
TORSDOF 0
