REMARK  1 active torsions:
REMARK  status: ('A' for Active; 'I' for Inactive)
REMARK    1  A    between atoms: C4_4  and  C5_5 
ROOT
HETATM    1  C1  UNL     1     -34.467   6.138   5.684  1.00 20.00     0.069 C 
HETATM    2  C2  UNL     1     -34.937   3.763   5.300  1.00 20.00     0.032 C 
HETATM    3  C3  UNL     1     -36.002   5.506   3.862  1.00 20.00     0.032 C 
HETATM    4  C5  UNL     1     -34.723   5.132   4.628  1.00 20.00     0.054 C 
HETATM    5  N6  UNL     1     -34.267   6.927   6.512  1.00 20.00    -0.196 NA
ENDROOT
BRANCH   4   6
HETATM    6  C4  UNL     1     -33.506   5.021   3.684  1.00 20.00     0.138 C 
HETATM    7 CL7  UNL     1     -33.101   6.547   2.848  1.00 20.00    -0.129 Cl
ENDBRANCH   4   6
TORSDOF 1
