REMARK  1 active torsions:
REMARK  status: ('A' for Active; 'I' for Inactive)
REMARK    1  A    between atoms: C2_2  and  C3_3 
ROOT
HETATM    1  C1  UNL     1     -35.020   4.783   4.835  1.00 20.00     0.105 C 
HETATM    2  C2  UNL     1     -34.249   5.471   3.985  1.00 20.00     0.036 C 
HETATM    3 CL4  UNL     1     -34.963   4.909   6.542  1.00 20.00    -0.096 Cl
HETATM    4 CL5  UNL     1     -34.453   5.197   2.278  1.00 20.00    -0.087 Cl
ENDROOT
BRANCH   2   5
HETATM    5  C3  UNL     1     -33.169   6.444   4.339  1.00 20.00     0.166 C 
HETATM    6 CL6  UNL     1     -32.423   7.108   2.867  1.00 20.00    -0.125 Cl
ENDBRANCH   2   5
TORSDOF 1
