REMARK  3 active torsions:
REMARK  status: ('A' for Active; 'I' for Inactive)
REMARK    1  A    between atoms: C2_2  and  C5_5 
REMARK    2  A    between atoms: C4_4  and  C5_5 
REMARK    3  A    between atoms: C4_4  and  C6_6 
ROOT
HETATM    1  C4  UNL     1     -34.089   6.320   3.608  1.00 20.00     0.353 C 
HETATM    2  F7  UNL     1     -34.670   5.777   2.496  1.00 20.00    -0.233 F 
ENDROOT
BRANCH   1   3
HETATM    3  C5  UNL     1     -32.651   6.672   3.239  1.00 20.00     0.300 C 
HETATM    4  F8  UNL     1     -31.952   5.515   3.066  1.00 20.00    -0.198 F 
HETATM    5  F9  UNL     1     -32.086   7.285   4.319  1.00 20.00    -0.198 F 
BRANCH   3   6
HETATM    6  C2  UNL     1     -32.535   7.576   2.048  1.00 20.00     0.050 C 
HETATM    7  C1  UNL     1     -32.522   8.915   2.111  1.00 20.00    -0.029 C 
HETATM    8  C3  UNL     1     -32.409   9.801   0.914  1.00 20.00     0.036 C 
ENDBRANCH   3   6
ENDBRANCH   1   3
BRANCH   1   9
HETATM    9  C6  UNL     1     -34.234   5.308   4.723  1.00 20.00     0.424 C 
HETATM   10  F10 UNL     1     -35.521   4.954   4.918  1.00 20.00    -0.168 F 
HETATM   11  F11 UNL     1     -33.527   4.187   4.469  1.00 20.00    -0.168 F 
HETATM   12  F12 UNL     1     -33.779   5.825   5.887  1.00 20.00    -0.168 F 
ENDBRANCH   1   9
TORSDOF 3
