REMARK  0 active torsions:
REMARK  status: ('A' for Active; 'I' for Inactive)
ROOT
HETATM    1  C1  UNL     1     -34.117   5.792   6.542  1.00 20.00     0.003 C 
HETATM    2  C2  UNL     1     -33.592   6.757   5.778  1.00 20.00     0.050 C 
HETATM    3  C3  UNL     1     -34.463   4.445   6.157  1.00 20.00    -0.004 C 
HETATM    4  C4  UNL     1     -34.928   4.047   4.966  1.00 20.00    -0.021 C 
HETATM    5  C5  UNL     1     -33.341   6.644   4.325  1.00 20.00     0.154 C 
HETATM    6  C6  UNL     1     -34.198   4.869   2.670  1.00 20.00     0.022 A 
HETATM    7  C7  UNL     1     -35.208   4.864   3.786  1.00 20.00     0.020 A 
HETATM    8  C8  UNL     1     -34.435   6.117   3.479  1.00 20.00     0.068 A 
HETATM    9  O9  UNL     1     -32.314   7.082   3.820  1.00 20.00    -0.293 OA
ENDROOT
TORSDOF 0
