REMARK  0 active torsions:
REMARK  status: ('A' for Active; 'I' for Inactive)
ROOT
HETATM    1  C1  UNL     1     -34.326   5.520   2.711  1.00 20.00    -0.023 C 
HETATM    2  C2  UNL     1     -33.308   6.364   2.954  1.00 20.00    -0.080 C 
HETATM    3  C3  UNL     1     -34.424   5.040   5.981  1.00 20.00     0.127 C 
HETATM    4  C4  UNL     1     -35.109   4.613   3.615  1.00 20.00     0.035 C 
HETATM    5  C5  UNL     1     -32.624   7.075   1.808  1.00 20.00     0.034 C 
HETATM    6  C6  UNL     1     -35.538   5.156   4.970  1.00 20.00     0.082 C 
HETATM    7  C7  UNL     1     -33.781   6.311   6.477  1.00 20.00     0.079 C 
HETATM    8  C8  UNL     1     -31.221   7.304   2.340  1.00 20.00     0.005 C 
HETATM    9  C9  UNL     1     -33.404   7.293   5.372  1.00 20.00     0.016 C 
HETATM   10  C10 UNL     1     -31.470   7.644   3.797  1.00 20.00     0.009 C 
HETATM   11  C11 UNL     1     -32.568   6.661   4.250  1.00 20.00     0.014 C 
HETATM   12  O12 UNL     1     -34.071   3.942   6.415  1.00 20.00    -0.298 OA
ENDROOT
TORSDOF 0
