REMARK  1 active torsions:
REMARK  status: ('A' for Active; 'I' for Inactive)
REMARK    1  A    between atoms: C4_4  and  C6_6 
ROOT
HETATM    1  C1  UNL     1     -35.290   5.190   6.226  1.00 20.00     0.279 C 
HETATM    2  C2  UNL     1     -34.897   4.977   3.839  1.00 20.00     0.284 C 
HETATM    3  C3  UNL     1     -34.577   6.528   6.382  1.00 20.00     0.104 C 
HETATM    4  C4  UNL     1     -34.128   6.294   3.682  1.00 20.00     0.075 C 
HETATM    5  N7  UNL     1     -35.899   5.024   4.906  1.00 20.00     0.085 N 
HETATM    6  S8  UNL     1     -33.205   6.691   5.207  1.00 20.00    -0.161 SA
HETATM    7  H21 UNL     1     -36.428   4.152   4.897  1.00 20.00     0.315 HD
ENDROOT
BRANCH   4   8
HETATM    8  C6  UNL     1     -33.143   6.214   2.518  1.00 20.00     0.012 C 
HETATM    9  C5  UNL     1     -32.369   7.482   2.361  1.00 20.00     0.006 C 
ENDBRANCH   4   8
TORSDOF 1
