REMARK  0 active torsions:
REMARK  status: ('A' for Active; 'I' for Inactive)
ROOT
HETATM    1  C1  UNL     1     -34.861   4.407   3.725  1.00 20.00     0.123 C 
HETATM    2  C2  UNL     1     -32.314   6.652   3.870  1.00 20.00     0.123 C 
HETATM    3  C3  UNL     1     -33.781   5.558   6.736  1.00 20.00     0.123 C 
HETATM    4  C4  UNL     1     -35.420   5.421   4.725  1.00 20.00     0.296 C 
HETATM    5  C5  UNL     1     -33.795   6.765   3.504  1.00 20.00     0.296 C 
HETATM    6  C6  UNL     1     -33.872   6.860   5.938  1.00 20.00     0.296 C 
HETATM    7  N7  UNL     1     -34.641   6.667   4.701  1.00 20.00     0.133 N 
HETATM    8  S8  UNL     1     -34.267   5.435   2.369  1.00 20.00    -0.130 SA
HETATM    9  S9  UNL     1     -32.215   7.440   5.488  1.00 20.00    -0.130 SA
HETATM   10  S10 UNL     1     -35.357   4.748   6.406  1.00 20.00    -0.130 SA
ENDROOT
TORSDOF 0
