REMARK  0 active torsions:
REMARK  status: ('A' for Active; 'I' for Inactive)
ROOT
HETATM    1  C1  UNL     1     -35.068   4.420   5.697  1.00 20.00    -0.021 C 
HETATM    2  C2  UNL     1     -35.263   4.362   4.356  1.00 20.00    -0.021 C 
HETATM    3  C3  UNL     1     -34.120   6.824   6.299  1.00 20.00    -0.021 C 
HETATM    4  C4  UNL     1     -33.406   7.569   5.419  1.00 20.00    -0.021 C 
HETATM    5  C5  UNL     1     -33.816   5.871   2.572  1.00 20.00    -0.015 C 
HETATM    6  C6  UNL     1     -32.841   6.736   2.958  1.00 20.00    -0.079 C 
HETATM    7  C7  UNL     1     -33.918   5.341   6.093  1.00 20.00     0.036 C 
HETATM    8  C8  UNL     1     -34.536   5.511   3.801  1.00 20.00     0.036 C 
HETATM    9  C9  UNL     1     -32.594   6.719   4.468  1.00 20.00     0.042 C 
HETATM   10  C10 UNL     1     -33.302   5.417   4.724  1.00 20.00     0.020 C 
HETATM   11  C11 UNL     1     -31.980   7.553   2.065  1.00 20.00     0.044 C 
ENDROOT
TORSDOF 0
