REMARK  2 active torsions:
REMARK  status: ('A' for Active; 'I' for Inactive)
REMARK    1  A    between atoms: C7_7  and  C10_10 
REMARK    2  A    between atoms: C8_8  and  C9_9 
ROOT
HETATM    1  C1  UNL     1     -34.043   6.493   2.838  1.00 20.00    -0.019 C 
HETATM    2  C3  UNL     1     -32.861   7.094   3.118  1.00 20.00    -0.087 C 
HETATM    3  C5  UNL     1     -32.242   6.553   4.417  1.00 20.00     0.039 C 
HETATM    4  C8  UNL     1     -34.201   5.363   3.791  1.00 20.00     0.021 C 
HETATM    5  C10 UNL     1     -33.540   6.065   5.007  1.00 20.00     0.005 C 
HETATM    6  C11 UNL     1     -32.193   8.169   2.342  1.00 20.00     0.043 C 
ENDROOT
BRANCH   4   7
HETATM    7  C9  UNL     1     -35.342   4.591   4.499  1.00 20.00     0.022 C 
HETATM    8  C4  UNL     1     -34.626   3.320   4.969  1.00 20.00    -0.082 C 
HETATM    9  C2  UNL     1     -33.734   3.683   5.912  1.00 20.00    -0.019 C 
HETATM   10  C12 UNL     1     -34.863   1.990   4.365  1.00 20.00     0.043 C 
HETATM   11  C7  UNL     1     -33.921   5.159   6.176  1.00 20.00     0.014 C 
HETATM   12  C6  UNL     1     -35.456   5.209   5.902  1.00 20.00     0.018 C 
ENDBRANCH   4   7
TORSDOF 2
