REMARK  1 active torsions:
REMARK  status: ('A' for Active; 'I' for Inactive)
REMARK    1  A    between atoms: C1_1  and  C4_4 
ROOT
HETATM    1  C3  UNL     1     -34.384   6.535   6.116  1.00 20.00     0.018 A 
HETATM    2  C4  UNL     1     -33.416   6.271   4.992  1.00 20.00     0.017 A 
HETATM    3  C5  UNL     1     -34.545   5.294   5.271  1.00 20.00    -0.040 A 
HETATM    4  C8  UNL     1     -34.173   3.970   5.887  1.00 20.00     0.015 C 
HETATM    5  C9  UNL     1     -35.739   5.224   4.353  1.00 20.00     0.015 C 
ENDROOT
BRANCH   2   6
HETATM    6  C1  UNL     1     -33.442   7.134   3.820  1.00 20.00    -0.019 C 
HETATM    7  C2  UNL     1     -32.394   7.573   3.097  1.00 20.00    -0.091 C 
HETATM    8  C6  UNL     1     -32.592   8.467   1.904  1.00 20.00     0.042 C 
HETATM    9  C7  UNL     1     -30.965   7.225   3.400  1.00 20.00     0.042 C 
ENDBRANCH   2   6
TORSDOF 1
