REMARK  1 active torsions:
REMARK  status: ('A' for Active; 'I' for Inactive)
REMARK    1  A    between atoms: C2_2  and  C4_4 
ROOT
HETATM    1  C1  UNL     1     -35.367   4.805   5.560  1.00 20.00    -0.034 C 
HETATM    2  C2  UNL     1     -35.459   5.135   4.264  1.00 20.00    -0.016 C 
HETATM    3  C3  UNL     1     -34.094   4.404   6.228  1.00 20.00     0.036 C 
ENDROOT
BRANCH   2   4
HETATM    4  C4  UNL     1     -34.295   5.142   3.328  1.00 20.00     0.141 C 
HETATM    5 CL5  UNL     1     -33.521   6.741   3.336  1.00 20.00    -0.126 Cl
ENDBRANCH   2   4
TORSDOF 1
