REMARK  2 active torsions:
REMARK  status: ('A' for Active; 'I' for Inactive)
REMARK    1  A    between atoms: C2_2  and  C3_3 
REMARK    2  A    between atoms: C2_2  and  C4_4 
ROOT
HETATM    1  C2  UNL     1     -34.144   6.600   3.914  1.00 20.00     0.244 C 
HETATM    2 CL9  UNL     1     -34.933   5.796   2.508  1.00 20.00    -0.111 Cl
ENDROOT
BRANCH   1   3
HETATM    3  C3  UNL     1     -32.679   6.955   3.582  1.00 20.00     0.200 C 
HETATM    4  C1  UNL     1     -32.521   7.828   2.339  1.00 20.00     0.072 C 
HETATM    5  F5  UNL     1     -32.140   7.632   4.635  1.00 20.00    -0.224 F 
HETATM    6 CL10 UNL     1     -31.697   5.475   3.326  1.00 20.00    -0.081 Cl
ENDBRANCH   1   3
BRANCH   1   7
HETATM    7  C4  UNL     1     -34.317   5.671   5.112  1.00 20.00     0.408 C 
HETATM    8  F6  UNL     1     -35.612   5.342   5.307  1.00 20.00    -0.169 F 
HETATM    9  F7  UNL     1     -33.623   4.522   4.938  1.00 20.00    -0.169 F 
HETATM   10  F8  UNL     1     -33.859   6.229   6.253  1.00 20.00    -0.169 F 
ENDBRANCH   1   7
TORSDOF 2
