REMARK  0 active torsions:
REMARK  status: ('A' for Active; 'I' for Inactive)
ROOT
HETATM    1  C1  UNL     1     -33.621   4.542   2.578  1.00 20.00    -0.018 C 
HETATM    2  C2  UNL     1     -33.613   6.661   5.900  1.00 20.00    -0.018 C 
HETATM    3  C3  UNL     1     -33.360   5.880   2.524  1.00 20.00    -0.078 C 
HETATM    4  C4  UNL     1     -34.607   5.751   5.682  1.00 20.00    -0.078 C 
HETATM    5  C5  UNL     1     -32.114   6.711   2.260  1.00 20.00     0.035 C 
HETATM    6  C6  UNL     1     -34.957   4.397   6.277  1.00 20.00     0.035 C 
HETATM    7  C7  UNL     1     -32.027   7.632   3.590  1.00 20.00     0.013 C 
HETATM    8  C8  UNL     1     -34.989   3.443   4.969  1.00 20.00     0.013 C 
HETATM    9  C9  UNL     1     -34.141   4.259   3.988  1.00 20.00     0.017 C 
HETATM   10  C10 UNL     1     -32.865   6.810   4.574  1.00 20.00     0.017 C 
HETATM   11  C11 UNL     1     -34.029   6.596   3.622  1.00 20.00     0.030 C 
HETATM   12  C12 UNL     1     -34.857   5.574   4.243  1.00 20.00     0.030 C 
ENDROOT
TORSDOF 0
