REMARK  0 active torsions:
REMARK  status: ('A' for Active; 'I' for Inactive)
ROOT
HETATM    1  C1  UNL     1     -34.815   4.625   4.518  1.00 20.00    -0.019 A 
HETATM    2  C2  UNL     1     -34.313   5.256   5.588  1.00 20.00    -0.086 A 
HETATM    3  C3  UNL     1     -33.226   6.696   2.868  1.00 20.00     0.132 C 
HETATM    4  C4  UNL     1     -34.045   6.718   5.352  1.00 20.00     0.046 A 
HETATM    5  C5  UNL     1     -33.907   5.458   2.261  1.00 20.00     0.088 C 
HETATM    6  C6  UNL     1     -34.969   5.563   3.384  1.00 20.00     0.027 A 
HETATM    7  C7  UNL     1     -34.376   6.921   3.874  1.00 20.00     0.067 A 
HETATM    8  C8  UNL     1     -34.026   4.644   6.912  1.00 20.00     0.043 C 
HETATM    9  O9  UNL     1     -32.179   7.268   2.648  1.00 20.00    -0.298 OA
ENDROOT
TORSDOF 0
