REMARK  0 active torsions:
REMARK  status: ('A' for Active; 'I' for Inactive)
ROOT
HETATM    1  C1  UNL     1     -34.125   4.579   2.927  1.00 20.00    -0.025 A 
HETATM    2  C2  UNL     1     -33.363   5.674   2.853  1.00 20.00    -0.025 A 
HETATM    3  C3  UNL     1     -35.003   3.690   5.144  1.00 20.00     0.009 C 
HETATM    4  C4  UNL     1     -32.671   6.946   4.932  1.00 20.00     0.009 C 
HETATM    5  C5  UNL     1     -34.059   4.392   6.114  1.00 20.00     0.005 C 
HETATM    6  C6  UNL     1     -33.404   6.878   6.267  1.00 20.00     0.005 C 
HETATM    7  C7  UNL     1     -35.178   4.674   3.987  1.00 20.00     0.013 A 
HETATM    8  C8  UNL     1     -33.744   6.701   3.868  1.00 20.00     0.013 A 
HETATM    9  C9  UNL     1     -34.507   5.853   6.048  1.00 20.00    -0.009 C 
HETATM   10  C10 UNL     1     -34.944   6.065   4.595  1.00 20.00     0.005 A 
ENDROOT
TORSDOF 0
