REMARK  0 active torsions:
REMARK  status: ('A' for Active; 'I' for Inactive)
ROOT
HETATM    1  C1  UNL     1     -33.537   5.542   2.845  1.00 20.00     0.006 C 
HETATM    2  C2  UNL     1     -33.082   6.230   4.149  1.00 20.00     0.009 C 
HETATM    3  C3  UNL     1     -35.468   6.339   4.933  1.00 20.00     0.014 C 
HETATM    4  C4  UNL     1     -34.146   4.392   5.495  1.00 20.00     0.014 C 
HETATM    5  C5  UNL     1     -34.795   4.739   3.018  1.00 20.00    -0.006 A 
HETATM    6  C6  UNL     1     -35.841   5.236   3.981  1.00 20.00    -0.005 A 
HETATM    7  C7  UNL     1     -35.024   4.033   4.328  1.00 20.00    -0.005 A 
HETATM    8  C8  UNL     1     -34.025   5.933   5.343  1.00 20.00    -0.043 C 
HETATM    9  C9  UNL     1     -33.557   6.620   6.616  1.00 20.00     0.015 C 
ENDROOT
TORSDOF 0
