REMARK  1 active torsions:
REMARK  status: ('A' for Active; 'I' for Inactive)
REMARK    1  A    between atoms: C1_1  and  C2_2 
ROOT
HETATM    1  C2  UNL     1     -33.823   5.794   3.914  1.00 20.00     0.363 C 
HETATM    2  F4  UNL     1     -34.679   4.970   3.259  1.00 20.00    -0.183 F 
HETATM    3  F5  UNL     1     -34.274   7.060   3.713  1.00 20.00    -0.183 F 
HETATM    4 CL7  UNL     1     -32.200   5.649   3.217  1.00 20.00    -0.044 Cl
ENDROOT
BRANCH   1   5
HETATM    5  C1  UNL     1     -33.853   5.497   5.401  1.00 20.00     0.353 C 
HETATM    6  F3  UNL     1     -34.198   6.643   6.053  1.00 20.00    -0.225 F 
HETATM    7 CL6  UNL     1     -35.038   4.242   5.821  1.00 20.00    -0.082 Cl
ENDBRANCH   1   5
TORSDOF 1
