REMARK  1 active torsions:
REMARK  status: ('A' for Active; 'I' for Inactive)
REMARK    1  A    between atoms: C3_3  and  C9_9 
ROOT
HETATM    1  C1  UNL     1     -32.470   6.049   3.523  1.00 20.00     0.017 A 
HETATM    2  C2  UNL     1     -31.722   6.866   2.628  1.00 20.00     0.028 A 
HETATM    3  C3  UNL     1     -33.745   6.530   3.721  1.00 20.00    -0.012 A 
HETATM    4  C4  UNL     1     -32.455   7.941   2.174  1.00 20.00     0.051 A 
HETATM    5  S10 UNL     1     -34.037   7.962   2.828  1.00 20.00    -0.087 SA
HETATM    6 BR11 UNL     1     -31.802   9.254   0.967  1.00 20.00    -0.043 Br
ENDROOT
BRANCH   3   7
HETATM    7  C9  UNL     1     -34.840   5.961   4.587  1.00 20.00     0.026 C 
HETATM    8  C7  UNL     1     -34.461   5.883   6.077  1.00 20.00     0.010 C 
HETATM    9  C5  UNL     1     -35.135   4.616   6.581  1.00 20.00     0.001 C 
HETATM   10  C6  UNL     1     -34.995   3.663   5.408  1.00 20.00     0.001 C 
HETATM   11  C8  UNL     1     -35.284   4.537   4.193  1.00 20.00     0.010 C 
ENDBRANCH   3   7
TORSDOF 1
