REMARK  1 active torsions:
REMARK  status: ('A' for Active; 'I' for Inactive)
REMARK    1  A    between atoms: C3_3  and  C5_5 
ROOT
HETATM    1  C1  UNL     1     -32.290   6.008   3.774  1.00 20.00     0.144 A 
HETATM    2  C2  UNL     1     -33.669   6.023   3.763  1.00 20.00     0.071 A 
HETATM    3  C3  UNL     1     -32.592   7.730   2.449  1.00 20.00     0.103 A 
HETATM    4  N7  UNL     1     -31.671   6.987   3.020  1.00 20.00    -0.251 NA
HETATM    5  S8  UNL     1     -34.224   7.310   2.775  1.00 20.00    -0.061 SA
HETATM    6 BR9  UNL     1     -34.792   4.816   4.691  1.00 20.00    -0.041 Br
ENDROOT
BRANCH   3   7
HETATM    7  C5  UNL     1     -32.345   8.856   1.583  1.00 20.00    -0.035 C 
HETATM    8  C4  UNL     1     -31.651   8.634   0.451  1.00 20.00     0.021 C 
HETATM    9  C6  UNL     1     -32.815  10.257   1.894  1.00 20.00     0.050 C 
ENDBRANCH   3   7
TORSDOF 1
