REMARK  1 active torsions:
REMARK  status: ('A' for Active; 'I' for Inactive)
REMARK    1  A    between atoms: C2_2  and  C6_6 
ROOT
HETATM    1  C1  UNL     1     -34.997   4.294   5.906  1.00 20.00     0.167 A 
HETATM    2  C2  UNL     1     -33.837   6.017   4.686  1.00 20.00     0.024 A 
HETATM    3  C3  UNL     1     -33.868   6.168   6.057  1.00 20.00     0.116 A 
HETATM    4  N7  UNL     1     -34.533   5.181   6.758  1.00 20.00    -0.245 NA
HETATM    5  S8  UNL     1     -34.670   4.584   4.247  1.00 20.00    -0.084 SA
HETATM    6 BR9  UNL     1     -33.069   7.615   6.991  1.00 20.00    -0.028 Br
ENDROOT
BRANCH   2   7
HETATM    7  C6  UNL     1     -33.169   6.964   3.675  1.00 20.00     0.028 A 
HETATM    8  C4  UNL     1     -32.143   6.396   2.722  1.00 20.00     0.010 A 
HETATM    9  C5  UNL     1     -31.702   7.283   3.843  1.00 20.00     0.010 A 
ENDBRANCH   2   7
TORSDOF 1
