REMARK  1 active torsions:
REMARK  status: ('A' for Active; 'I' for Inactive)
REMARK    1  A    between atoms: C4_4  and  C5_5 
ROOT
HETATM    1  C1  UNL     1     -33.488   5.735   3.389  1.00 20.00     0.059 C 
HETATM    2  C5  UNL     1     -34.947   5.798   3.399  1.00 20.00     0.132 C 
HETATM    3  N6  UNL     1     -32.329   5.695   3.360  1.00 20.00    -0.197 NA
ENDROOT
BRANCH   2   4
HETATM    4  C4  UNL     1     -35.346   5.251   4.753  1.00 20.00     0.046 C 
HETATM    5  C2  UNL     1     -34.613   5.827   5.971  1.00 20.00     0.175 C 
HETATM    6  O7  UNL     1     -34.253   4.501   6.429  1.00 20.00    -0.390 OA
HETATM    7  C3  UNL     1     -34.701   3.926   5.177  1.00 20.00     0.175 C 
ENDBRANCH   2   4
TORSDOF 1
