REMARK  0 active torsions:
REMARK  status: ('A' for Active; 'I' for Inactive)
ROOT
HETATM    1  C1  UNL     1     -33.007   6.086   3.693  1.00 20.00     0.136 C 
HETATM    2  C2  UNL     1     -32.878   5.246   4.946  1.00 20.00     0.088 C 
HETATM    3  C3  UNL     1     -34.076   5.692   2.711  1.00 20.00     0.152 C 
HETATM    4  C4  UNL     1     -35.390   4.825   4.969  1.00 20.00     0.083 C 
HETATM    5  C5  UNL     1     -34.161   5.256   5.800  1.00 20.00    -0.033 C 
HETATM    6  C6  UNL     1     -34.373   6.648   6.430  1.00 20.00     0.016 C 
HETATM    7  C7  UNL     1     -33.982   4.243   6.950  1.00 20.00     0.016 C 
HETATM    8  O8  UNL     1     -32.232   7.015   3.462  1.00 20.00    -0.297 OA
HETATM    9  S9  UNL     1     -35.695   5.849   3.492  1.00 20.00    -0.161 SA
ENDROOT
TORSDOF 0
