REMARK  1 active torsions:
REMARK  status: ('A' for Active; 'I' for Inactive)
REMARK    1  A    between atoms: C9_9  and  S11_11 
ROOT
HETATM    1  C1  UNL     1     -33.204   7.536   4.897  1.00 20.00     0.015 A 
HETATM    2  C2  UNL     1     -34.403   5.715   6.014  1.00 20.00     0.016 A 
HETATM    3  C3  UNL     1     -32.550   8.029   3.772  1.00 20.00     0.025 A 
HETATM    4  C4  UNL     1     -34.921   4.428   5.981  1.00 20.00     0.039 A 
HETATM    5  C5  UNL     1     -32.960   5.937   2.642  1.00 20.00     0.056 A 
HETATM    6  C6  UNL     1     -33.740   6.236   4.895  1.00 20.00    -0.007 A 
HETATM    7  C7  UNL     1     -33.620   5.418   3.753  1.00 20.00     0.070 A 
HETATM    8  C8  UNL     1     -32.428   7.228   2.643  1.00 20.00     0.036 A 
HETATM    9  C9  UNL     1     -34.754   3.703   4.818  1.00 20.00     0.091 A 
HETATM   10  N10 UNL     1     -34.121   4.169   3.717  1.00 20.00    -0.242 NA
HETATM   11 CL12 UNL     1     -31.622   7.828   1.245  1.00 20.00    -0.084 Cl
ENDROOT
BRANCH   9  12
HETATM   12  S11 UNL     1     -35.399   2.042   4.720  1.00 20.00    -0.123 SA
HETATM   13  H18 UNL     1     -35.916   1.988   5.957  1.00 20.00     0.108 HD
ENDBRANCH   9  12
TORSDOF 1
