REMARK  0 active torsions:
REMARK  status: ('A' for Active; 'I' for Inactive)
ROOT
HETATM    1  C1  UNL     1     -31.946   7.844   2.142  1.00 20.00     0.012 C 
HETATM    2  C2  UNL     1     -32.813   7.470   2.883  1.00 20.00    -0.113 C 
HETATM    3  C3  UNL     1     -33.352   6.910   5.228  1.00 20.00     0.047 C 
HETATM    4  C4  UNL     1     -34.432   5.659   3.334  1.00 20.00     0.047 C 
HETATM    5  C5  UNL     1     -34.408   6.314   6.164  1.00 20.00     0.273 C 
HETATM    6  C6  UNL     1     -35.449   5.107   4.337  1.00 20.00     0.273 C 
HETATM    7  C7  UNL     1     -33.875   7.010   3.792  1.00 20.00     0.067 C 
HETATM    8  C8  UNL     1     -33.996   3.932   5.895  1.00 20.00     0.309 C 
HETATM    9  N9  UNL     1     -34.949   5.025   5.715  1.00 20.00     0.084 N 
ENDROOT
TORSDOF 0
