REMARK  1 active torsions:
REMARK  status: ('A' for Active; 'I' for Inactive)
REMARK    1  A    between atoms: C4_4  and  C5_5 
ROOT
HETATM    1  C5  UNL     1     -33.917   6.349   3.882  1.00 20.00     0.039 C 
HETATM    2  C6  UNL     1     -34.312   4.991   3.321  1.00 20.00     0.060 C 
HETATM    3  C7  UNL     1     -35.208   4.202   4.256  1.00 20.00     0.008 C 
HETATM    4  C8  UNL     1     -34.681   4.330   5.670  1.00 20.00     0.022 C 
HETATM    5  C9  UNL     1     -34.714   5.791   6.079  1.00 20.00     0.149 C 
HETATM    6  N10 UNL     1     -34.077   6.684   5.116  1.00 20.00    -0.293 NA
ENDROOT
BRANCH   1   7
HETATM    7  C4  UNL     1     -33.279   7.333   2.951  1.00 20.00    -0.005 A 
HETATM    8  C1  UNL     1     -33.793   8.623   2.631  1.00 20.00     0.021 A 
HETATM    9  C2  UNL     1     -32.985   9.297   1.743  1.00 20.00     0.050 A 
HETATM   10  S11 UNL     1     -31.611   8.376   1.298  1.00 20.00    -0.113 SA
HETATM   11  C3  UNL     1     -32.096   7.071   2.294  1.00 20.00     0.063 A 
ENDBRANCH   1   7
TORSDOF 1
