REMARK  3 active torsions:
REMARK  status: ('A' for Active; 'I' for Inactive)
REMARK    1  A    between atoms: C5_5  and  C8_8 
REMARK    2  A    between atoms: C7_7  and  N9_9 
REMARK    3  A    between atoms: C8_8  and  N9_9 
ROOT
HETATM    1  C1  UNL     1     -32.112   9.399   1.110  1.00 20.00     0.013 C 
HETATM    2  C2  UNL     1     -32.082   8.464   1.863  1.00 20.00    -0.087 C 
HETATM    3  C7  UNL     1     -32.039   7.324   2.782  1.00 20.00     0.362 C 
ENDROOT
BRANCH   3   4
HETATM    4  N9  UNL     1     -33.384   6.987   3.251  1.00 20.00     0.094 N 
HETATM    5  H22 UNL     1     -33.636   7.639   4.001  1.00 20.00     0.317 HD
BRANCH   4   6
HETATM    6  C8  UNL     1     -33.456   5.632   3.724  1.00 20.00     0.275 C 
BRANCH   6   7
HETATM    7  C5  UNL     1     -34.832   5.297   4.189  1.00 20.00     0.018 A 
HETATM    8  C3  UNL     1     -35.270   3.860   4.292  1.00 20.00     0.011 A 
HETATM    9  C4  UNL     1     -35.103   4.683   5.543  1.00 20.00    -0.013 A 
HETATM   10  C6  UNL     1     -34.015   4.367   6.510  1.00 20.00     0.010 C 
ENDBRANCH   6   7
ENDBRANCH   4   6
ENDBRANCH   3   4
TORSDOF 3
