REMARK  1 active torsions:
REMARK  status: ('A' for Active; 'I' for Inactive)
REMARK    1  A    between atoms: C4_4  and  C8_8 
ROOT
HETATM    1  C5  UNL     1     -35.271   4.851   3.924  1.00 20.00     0.033 C 
HETATM    2  C6  UNL     1     -34.078   5.178   3.038  1.00 20.00     0.042 C 
HETATM    3  C7  UNL     1     -34.770   5.152   5.322  1.00 20.00     0.273 C 
HETATM    4  C8  UNL     1     -33.220   6.155   3.862  1.00 20.00     0.256 C 
HETATM    5  C9  UNL     1     -33.141   6.686   6.252  1.00 20.00     0.310 C 
HETATM    6  N10 UNL     1     -33.985   6.368   5.107  1.00 20.00     0.093 N 
ENDROOT
BRANCH   4   7
HETATM    7  C4  UNL     1     -32.935   7.447   3.126  1.00 20.00    -0.018 A 
HETATM    8  C1  UNL     1     -33.300   8.736   3.612  1.00 20.00     0.017 A 
HETATM    9  C2  UNL     1     -32.924   9.741   2.748  1.00 20.00     0.050 A 
HETATM   10  S11 UNL     1     -32.135   9.129   1.356  1.00 20.00    -0.113 SA
HETATM   11  C3  UNL     1     -32.294   7.516   1.908  1.00 20.00     0.058 A 
ENDBRANCH   4   7
TORSDOF 1
