REMARK  0 active torsions:
REMARK  status: ('A' for Active; 'I' for Inactive)
ROOT
HETATM    1  C1  UNL     1     -33.577   5.980   2.625  1.00 20.00     0.050 A 
HETATM    2  C2  UNL     1     -32.728   7.590   4.246  1.00 20.00     0.062 A 
HETATM    3  C3  UNL     1     -33.930   5.682   4.979  1.00 20.00     0.034 A 
HETATM    4  C4  UNL     1     -34.100   5.240   3.673  1.00 20.00    -0.040 A 
HETATM    5  C5  UNL     1     -32.888   7.162   2.917  1.00 20.00     0.118 A 
HETATM    6  C6  UNL     1     -33.254   6.845   5.300  1.00 20.00     0.028 A 
HETATM    7  C7  UNL     1     -34.570   4.727   5.869  1.00 20.00     0.161 A 
HETATM    8  C8  UNL     1     -34.865   3.959   3.588  1.00 20.00     0.047 A 
HETATM    9  C9  UNL     1     -35.182   3.613   5.054  1.00 20.00     0.088 A 
HETATM   10  O10 UNL     1     -34.616   4.801   7.083  1.00 20.00    -0.292 OA
HETATM   11  F11 UNL     1     -32.373   7.893   1.920  1.00 20.00    -0.206 F 
HETATM   12 BR12 UNL     1     -33.003   7.475   7.063  1.00 20.00    -0.050 Br
ENDROOT
TORSDOF 0
