REMARK  3 active torsions:
REMARK  status: ('A' for Active; 'I' for Inactive)
REMARK    1  A    between atoms: C5_5  and  C8_8 
REMARK    2  A    between atoms: C7_7  and  N9_9 
REMARK    3  A    between atoms: C8_8  and  N9_9 
ROOT
HETATM    1  C1  UNL     1     -33.789   7.182   6.693  1.00 20.00     0.013 C 
HETATM    2  C2  UNL     1     -34.344   6.130   6.529  1.00 20.00    -0.087 C 
HETATM    3  C7  UNL     1     -35.020   4.845   6.335  1.00 20.00     0.362 C 
ENDROOT
BRANCH   3   4
HETATM    4  N9  UNL     1     -35.714   4.816   5.046  1.00 20.00     0.094 N 
HETATM    5  H22 UNL     1     -36.429   4.081   5.081  1.00 20.00     0.317 HD
BRANCH   4   6
HETATM    6  C8  UNL     1     -34.805   4.574   3.960  1.00 20.00     0.275 C 
BRANCH   6   7
HETATM    7  C5  UNL     1     -34.077   5.817   3.580  1.00 20.00     0.018 A 
HETATM    8  C3  UNL     1     -33.423   5.928   2.227  1.00 20.00     0.011 A 
HETATM    9  C4  UNL     1     -32.574   5.809   3.466  1.00 20.00    -0.013 A 
HETATM   10  C6  UNL     1     -31.782   6.975   3.946  1.00 20.00     0.010 C 
ENDBRANCH   6   7
ENDBRANCH   4   6
ENDBRANCH   3   4
TORSDOF 3
