REMARK  0 active torsions:
REMARK  status: ('A' for Active; 'I' for Inactive)
ROOT
HETATM    1  C1  UNL     1     -34.639   4.993   4.059  1.00 20.00     0.014 C 
HETATM    2  C2  UNL     1     -34.500   5.261   2.593  1.00 20.00     0.085 C 
HETATM    3  C3  UNL     1     -34.115   5.163   6.282  1.00 20.00     0.034 C 
HETATM    4  C4  UNL     1     -35.216   4.149   6.011  1.00 20.00     0.149 C 
HETATM    5  C5  UNL     1     -33.121   5.856   2.305  1.00 20.00     0.277 C 
HETATM    6  C6  UNL     1     -32.778   6.552   4.601  1.00 20.00     0.282 C 
HETATM    7  C7  UNL     1     -34.139   6.016   5.030  1.00 20.00     0.063 C 
HETATM    8  C8  UNL     1     -31.542   7.603   2.820  1.00 20.00     0.309 C 
HETATM    9  N9  UNL     1     -35.236   3.949   4.546  1.00 20.00    -0.298 NA
HETATM   10  N10 UNL     1     -32.819   6.993   3.195  1.00 20.00     0.085 N 
ENDROOT
TORSDOF 0
