REMARK  1 active torsions:
REMARK  status: ('A' for Active; 'I' for Inactive)
REMARK    1  A    between atoms: C3_3  and  C5_5 
ROOT
HETATM    1  C1  UNL     1     -34.932   5.579   3.073  1.00 20.00     0.022 A 
HETATM    2  C2  UNL     1     -34.157   6.350   2.158  1.00 20.00     0.028 A 
HETATM    3  C3  UNL     1     -34.357   5.530   4.324  1.00 20.00     0.048 A 
HETATM    4  C4  UNL     1     -33.021   6.861   2.745  1.00 20.00     0.052 A 
HETATM    5  S8  UNL     1     -32.890   6.411   4.392  1.00 20.00    -0.082 SA
HETATM    6 BR9  UNL     1     -31.739   7.938   1.849  1.00 20.00    -0.043 Br
ENDROOT
BRANCH   3   7
HETATM    7  C5  UNL     1     -34.847   4.838   5.536  1.00 20.00     0.393 C 
HETATM    8  F6  UNL     1     -35.041   5.713   6.563  1.00 20.00    -0.208 F 
HETATM    9  F7  UNL     1     -33.940   3.925   5.986  1.00 20.00    -0.208 F 
ENDBRANCH   3   7
TORSDOF 1
