REMARK  1 active torsions:
REMARK  status: ('A' for Active; 'I' for Inactive)
REMARK    1  A    between atoms: C3_3  and  C4_4 
ROOT
HETATM    1  C1  UNL     1     -33.577   6.528   4.826  1.00 20.00     0.067 A 
HETATM    2  C2  UNL     1     -34.014   5.608   3.908  1.00 20.00     0.080 A 
HETATM    3  C3  UNL     1     -32.940   7.159   2.931  1.00 20.00     0.208 A 
HETATM    4  C5  UNL     1     -33.826   6.400   6.277  1.00 20.00     0.062 C 
HETATM    5  C6  UNL     1     -34.812   4.394   4.143  1.00 20.00     0.067 C 
HETATM    6  C7  UNL     1     -34.941   5.356   6.535  1.00 20.00     0.006 C 
HETATM    7  C8  UNL     1     -34.793   4.087   5.659  1.00 20.00     0.007 C 
HETATM    8  N9  UNL     1     -32.883   7.522   4.199  1.00 20.00    -0.224 NA
HETATM    9  O11 UNL     1     -33.618   5.998   2.671  1.00 20.00    -0.292 OA
ENDROOT
BRANCH   3  10
HETATM   10  C4  UNL     1     -32.361   7.875   1.849  1.00 20.00     0.316 C 
HETATM   11  O10 UNL     1     -31.721   8.944   1.972  1.00 20.00    -0.298 OA
ENDBRANCH   3  10
TORSDOF 1
