REMARK  0 active torsions:
REMARK  status: ('A' for Active; 'I' for Inactive)
ROOT
HETATM    1  C1  UNL     1     -32.404   5.956   2.724  1.00 20.00    -0.002 C 
HETATM    2  C2  UNL     1     -32.285   6.693   3.962  1.00 20.00     0.009 C 
HETATM    3  C3  UNL     1     -33.611   5.366   2.650  1.00 20.00    -0.013 C 
HETATM    4  C4  UNL     1     -35.061   4.742   4.677  1.00 20.00     0.006 C 
HETATM    5  C5  UNL     1     -35.042   4.875   6.019  1.00 20.00     0.113 C 
HETATM    6  C6  UNL     1     -33.670   6.701   6.061  1.00 20.00     0.124 C 
HETATM    7  C7  UNL     1     -33.441   6.563   4.619  1.00 20.00    -0.029 C 
HETATM    8  C8  UNL     1     -34.450   5.803   3.817  1.00 20.00     0.066 C 
HETATM    9  N9  UNL     1     -34.451   5.906   6.730  1.00 20.00    -0.273 NA
ENDROOT
TORSDOF 0
