REMARK  0 active torsions:
REMARK  status: ('A' for Active; 'I' for Inactive)
ROOT
HETATM    1  C1  UNL     1     -32.879   6.804   3.436  1.00 20.00    -0.057 C 
HETATM    2  C2  UNL     1     -33.847   5.992   5.571  1.00 20.00    -0.057 C 
HETATM    3  C3  UNL     1     -32.664   7.944   2.764  1.00 20.00     0.016 C 
HETATM    4  C4  UNL     1     -34.440   6.453   6.682  1.00 20.00     0.016 C 
HETATM    5  C5  UNL     1     -32.674   6.691   4.928  1.00 20.00     0.070 C 
HETATM    6  C6  UNL     1     -33.372   5.543   2.760  1.00 20.00     0.306 C 
HETATM    7  C7  UNL     1     -34.322   4.746   4.854  1.00 20.00     0.306 C 
HETATM    8  C8  UNL     1     -35.775   5.695   3.142  1.00 20.00     0.310 C 
HETATM    9  N9  UNL     1     -34.551   4.940   3.410  1.00 20.00     0.091 N 
ENDROOT
TORSDOF 0
