REMARK  0 active torsions:
REMARK  status: ('A' for Active; 'I' for Inactive)
ROOT
HETATM    1  C1  UNL     1     -34.793   6.329   4.066  1.00 20.00     0.075 C 
HETATM    2  C2  UNL     1     -35.854   5.284   3.729  1.00 20.00     0.273 C 
HETATM    3  C3  UNL     1     -35.364   5.045   6.003  1.00 20.00     0.312 C 
HETATM    4  C4  UNL     1     -34.254   5.902   5.424  1.00 20.00     0.127 C 
HETATM    5  C5  UNL     1     -33.832   7.053   6.316  1.00 20.00     0.053 C 
HETATM    6  N6  UNL     1     -35.827   4.314   4.824  1.00 20.00     0.086 N 
HETATM    7  F7  UNL     1     -33.163   5.106   5.222  1.00 20.00    -0.241 F 
HETATM    8  H17 UNL     1     -36.751   3.915   4.981  1.00 20.00     0.316 HD
ENDROOT
TORSDOF 0
