REMARK  0 active torsions:
REMARK  status: ('A' for Active; 'I' for Inactive)
ROOT
HETATM    1  C1  UNL     1     -33.900   6.344   6.418  1.00 20.00     0.034 A 
HETATM    2  C2  UNL     1     -34.815   4.598   3.503  1.00 20.00     0.027 A 
HETATM    3  C3  UNL     1     -34.972   5.416   6.810  1.00 20.00     0.118 A 
HETATM    4  C4  UNL     1     -32.939   6.596   4.089  1.00 20.00     0.124 A 
HETATM    5  C5  UNL     1     -33.815   6.048   5.126  1.00 20.00     0.011 A 
HETATM    6  C6  UNL     1     -34.749   5.032   4.762  1.00 20.00     0.066 A 
HETATM    7  C7  UNL     1     -33.911   5.165   2.437  1.00 20.00     0.178 A 
HETATM    8  N8  UNL     1     -35.462   4.662   5.869  1.00 20.00    -0.261 NA
HETATM    9  N9  UNL     1     -32.955   6.219   2.858  1.00 20.00    -0.297 NA
ENDROOT
TORSDOF 0
