REMARK  0 active torsions:
REMARK  status: ('A' for Active; 'I' for Inactive)
ROOT
HETATM    1  C1  UNL     1     -33.755   6.269   5.262  1.00 20.00    -0.037 C 
HETATM    2  C2  UNL     1     -34.283   5.955   3.894  1.00 20.00     0.040 C 
HETATM    3  C3  UNL     1     -32.687   7.264   2.821  1.00 20.00     0.243 C 
HETATM    4  C4  UNL     1     -34.163   5.612   6.355  1.00 20.00    -0.022 C 
HETATM    5  C5  UNL     1     -32.712   7.343   5.300  1.00 20.00     0.049 C 
HETATM    6  C6  UNL     1     -31.831   7.235   4.070  1.00 20.00     0.110 C 
HETATM    7  C7  UNL     1     -35.469   5.026   3.756  1.00 20.00     0.071 C 
HETATM    8  C8  UNL     1     -35.169   4.512   6.338  1.00 20.00     0.036 C 
HETATM    9  N9  UNL     1     -33.783   6.429   2.793  1.00 20.00    -0.219 NA
HETATM   10  O10 UNL     1     -32.352   7.955   1.861  1.00 20.00    -0.271 OA
ENDROOT
TORSDOF 0
