REMARK  0 active torsions:
REMARK  status: ('A' for Active; 'I' for Inactive)
ROOT
HETATM    1  C1  UNL     1     -34.617   4.955   5.284  1.00 20.00     0.223 A 
HETATM    2  C2  UNL     1     -35.471   5.575   3.156  1.00 20.00     0.128 A 
HETATM    3  C3  UNL     1     -33.442   5.344   4.463  1.00 20.00     0.092 A 
HETATM    4  C4  UNL     1     -33.984   5.756   3.114  1.00 20.00     0.026 A 
HETATM    5  C5  UNL     1     -33.217   6.755   3.963  1.00 20.00    -0.029 A 
HETATM    6  C6  UNL     1     -33.936   7.909   4.614  1.00 20.00     0.016 C 
HETATM    7  C7  UNL     1     -31.821   7.106   3.509  1.00 20.00     0.016 C 
HETATM    8  N8  UNL     1     -35.743   5.080   4.490  1.00 20.00    -0.360 N 
HETATM    9  O9  UNL     1     -34.535   4.591   6.445  1.00 20.00    -0.273 OA
HETATM   10  H20 UNL     1     -36.677   4.847   4.813  1.00 20.00     0.162 HD
ENDROOT
TORSDOF 0
