REMARK  0 active torsions:
REMARK  status: ('A' for Active; 'I' for Inactive)
ROOT
HETATM    1  C1  UNL     1     -34.699   5.428   5.541  1.00 20.00     0.136 C 
HETATM    2  C2  UNL     1     -35.139   4.175   4.789  1.00 20.00     0.084 C 
HETATM    3  C3  UNL     1     -32.403   7.529   3.405  1.00 20.00     0.002 C 
HETATM    4  C4  UNL     1     -32.917   6.365   2.533  1.00 20.00     0.006 C 
HETATM    5  C5  UNL     1     -35.898   5.708   2.936  1.00 20.00     0.006 C 
HETATM    6  C6  UNL     1     -33.154   7.460   4.755  1.00 20.00     0.018 C 
HETATM    7  C7  UNL     1     -35.505   6.927   3.788  1.00 20.00     0.018 C 
HETATM    8  C8  UNL     1     -34.853   4.648   3.329  1.00 20.00    -0.002 C 
HETATM    9  C9  UNL     1     -33.577   5.453   3.547  1.00 20.00     0.006 C 
HETATM   10  C10 UNL     1     -34.236   6.443   4.520  1.00 20.00     0.024 C 
HETATM   11  O11 UNL     1     -34.740   5.587   6.749  1.00 20.00    -0.297 OA
ENDROOT
TORSDOF 0
