REMARK  2 active torsions:
REMARK  status: ('A' for Active; 'I' for Inactive)
REMARK    1  A    between atoms: C1_1  and  C8_8 
REMARK    2  A    between atoms: C8_8  and  O9_9 
ROOT
HETATM    1  C1  UNL     1     -34.297   6.756   4.970  1.00 20.00     0.026 A 
HETATM    2  C2  UNL     1     -33.722   6.210   3.671  1.00 20.00    -0.034 A 
HETATM    3  C3  UNL     1     -34.780   5.406   4.458  1.00 20.00    -0.034 A 
HETATM    4  C4  UNL     1     -34.128   6.912   2.391  1.00 20.00     0.016 C 
HETATM    5  C5  UNL     1     -32.293   5.719   3.607  1.00 20.00     0.016 C 
HETATM    6  C6  UNL     1     -34.387   4.129   5.167  1.00 20.00     0.016 C 
HETATM    7  C7  UNL     1     -36.199   5.338   3.932  1.00 20.00     0.016 C 
ENDROOT
BRANCH   1   8
HETATM    8  C8  UNL     1     -33.494   6.920   6.215  1.00 20.00     0.170 C 
BRANCH   8   9
HETATM    9  O9  UNL     1     -32.711   8.111   6.135  1.00 20.00    -0.400 OA
HETATM   10  H25 UNL     1     -32.213   8.167   6.964  1.00 20.00     0.209 HD
ENDBRANCH   8   9
ENDBRANCH   1   8
TORSDOF 2
