REMARK  0 active torsions:
REMARK  status: ('A' for Active; 'I' for Inactive)
ROOT
HETATM    1  C1  UNL     1     -34.066   6.190   5.477  1.00 20.00     0.136 C 
HETATM    2  C2  UNL     1     -34.019   4.689   5.638  1.00 20.00     0.084 C 
HETATM    3  C3  UNL     1     -32.038   7.218   3.341  1.00 20.00     0.002 C 
HETATM    4  C4  UNL     1     -32.062   5.683   3.487  1.00 20.00     0.006 C 
HETATM    5  C5  UNL     1     -35.747   4.683   3.806  1.00 20.00     0.006 C 
HETATM    6  C6  UNL     1     -33.489   7.725   3.498  1.00 20.00     0.018 C 
HETATM    7  C7  UNL     1     -35.704   6.235   3.676  1.00 20.00     0.018 C 
HETATM    8  C8  UNL     1     -34.279   4.297   4.170  1.00 20.00    -0.002 C 
HETATM    9  C9  UNL     1     -33.533   5.335   3.338  1.00 20.00     0.006 C 
HETATM   10  C10 UNL     1     -34.242   6.522   3.993  1.00 20.00     0.024 C 
HETATM   11  O11 UNL     1     -33.999   6.998   6.389  1.00 20.00    -0.297 OA
ENDROOT
TORSDOF 0
