REMARK  1 active torsions:
REMARK  status: ('A' for Active; 'I' for Inactive)
REMARK    1  A    between atoms: C3_3  and  C5_5 
ROOT
HETATM    1  C1  UNL     1     -32.669   6.928   3.182  1.00 20.00     0.221 A 
HETATM    2  C4  UNL     1     -33.970   7.271   3.930  1.00 20.00     0.138 A 
HETATM    3  C5  UNL     1     -34.072   5.745   4.210  1.00 20.00     0.060 A 
HETATM    4  C7  UNL     1     -35.187   5.005   3.490  1.00 20.00     0.044 C 
HETATM    5  N8  UNL     1     -32.806   5.611   3.492  1.00 20.00    -0.348 N 
HETATM    6  O9  UNL     1     -31.830   7.537   2.559  1.00 20.00    -0.273 OA
HETATM    7  H20 UNL     1     -32.223   4.821   3.251  1.00 20.00     0.163 HD
ENDROOT
BRANCH   3   8
HETATM    8  C3  UNL     1     -33.932   5.358   5.631  1.00 20.00    -0.065 C 
HETATM    9  C2  UNL     1     -33.731   6.267   6.597  1.00 20.00     0.016 C 
HETATM   10  C6  UNL     1     -34.028   3.891   5.930  1.00 20.00     0.045 C 
ENDBRANCH   3   8
TORSDOF 1
