REMARK  0 active torsions:
REMARK  status: ('A' for Active; 'I' for Inactive)
ROOT
HETATM    1  C1  UNL     1     -33.077   6.454   3.616  1.00 20.00     0.272 A 
HETATM    2  C2  UNL     1     -33.811   6.782   5.728  1.00 20.00     0.272 A 
HETATM    3  C3  UNL     1     -33.440   5.107   4.099  1.00 20.00     0.109 A 
HETATM    4  C4  UNL     1     -33.931   5.326   5.512  1.00 20.00     0.109 A 
HETATM    5  C5  UNL     1     -34.853   4.720   4.477  1.00 20.00    -0.021 A 
HETATM    6  C6  UNL     1     -36.016   5.521   3.948  1.00 20.00     0.016 C 
HETATM    7  C7  UNL     1     -35.151   3.247   4.602  1.00 20.00     0.016 C 
HETATM    8  O8  UNL     1     -32.643   6.686   2.499  1.00 20.00    -0.264 OA
HETATM    9  O9  UNL     1     -34.125   7.347   6.763  1.00 20.00    -0.264 OA
HETATM   10  O10 UNL     1     -33.294   7.378   4.606  1.00 20.00    -0.244 OA
ENDROOT
TORSDOF 0
