REMARK  0 active torsions:
REMARK  status: ('A' for Active; 'I' for Inactive)
ROOT
HETATM    1  C1  UNL     1     -34.871   3.789   5.463  1.00 20.00    -0.019 C 
HETATM    2  C2  UNL     1     -35.171   4.375   4.301  1.00 20.00     0.080 C 
HETATM    3  C3  UNL     1     -34.126   4.471   6.562  1.00 20.00     0.037 C 
HETATM    4 CL4  UNL     1     -34.734   5.990   3.930  1.00 20.00    -0.097 Cl
ENDROOT
TORSDOF 0
