REMARK  1 active torsions:
REMARK  status: ('A' for Active; 'I' for Inactive)
REMARK    1  A    between atoms: C7_7  and  N9_9 
ROOT
HETATM    1  C1  UNL     1     -33.798   5.038   2.466  1.00 20.00     0.031 C 
HETATM    2  C4  UNL     1     -34.389   5.306   3.853  1.00 20.00     0.019 C 
HETATM    3  C5  UNL     1     -32.655   5.993   2.099  1.00 20.00     0.273 C 
HETATM    4  C6  UNL     1     -33.086   7.465   4.001  1.00 20.00     0.288 C 
HETATM    5  C8  UNL     1     -33.433   6.140   4.690  1.00 20.00     0.086 C 
HETATM    6  N9  UNL     1     -32.963   7.353   2.537  1.00 20.00     0.094 N 
HETATM    7 BR10 UNL     1     -34.220   6.493   6.441  1.00 20.00    -0.089 Br
ENDROOT
BRANCH   6   8
HETATM    8  C7  UNL     1     -32.033   8.361   1.974  1.00 20.00     0.223 A 
HETATM    9  C2  UNL     1     -32.216   8.865   0.569  1.00 20.00     0.038 A 
HETATM   10  C3  UNL     1     -32.491   9.773   1.732  1.00 20.00     0.038 A 
ENDBRANCH   6   8
TORSDOF 1
