REMARK  1 active torsions:
REMARK  status: ('A' for Active; 'I' for Inactive)
REMARK    1  A    between atoms: C5_5  and  O7_7 
ROOT
HETATM    1  C1  UNL     1     -34.057   6.668   6.180  1.00 20.00     0.015 C 
HETATM    2  C2  UNL     1     -34.463   5.996   5.272  1.00 20.00    -0.075 C 
HETATM    3  C3  UNL     1     -36.095   5.808   3.363  1.00 20.00     0.221 A 
HETATM    4  C4  UNL     1     -34.153   5.301   2.871  1.00 20.00     0.221 A 
HETATM    5  C5  UNL     1     -34.951   5.186   4.179  1.00 20.00     0.162 A 
HETATM    6  O6  UNL     1     -35.301   5.811   2.156  1.00 20.00    -0.383 OA
ENDROOT
BRANCH   5   7
HETATM    7  O7  UNL     1     -35.179   3.848   4.662  1.00 20.00    -0.373 OA
HETATM    8  H13 UNL     1     -34.322   3.537   4.981  1.00 20.00     0.212 HD
ENDBRANCH   5   7
TORSDOF 1
