REMARK  2 active torsions:
REMARK  status: ('A' for Active; 'I' for Inactive)
REMARK    1  A    between atoms: C3_3  and  C4_4 
REMARK    2  A    between atoms: C3_3  and  O6_6 
ROOT
HETATM    1  C1  UNL     1     -34.063   5.293   5.561  1.00 20.00     0.081 C 
HETATM    2  C4  UNL     1     -33.793   5.485   4.131  1.00 20.00     0.212 C 
HETATM    3  N5  UNL     1     -34.278   5.138   6.691  1.00 20.00    -0.196 NA
HETATM    4 CL7  UNL     1     -35.352   5.464   3.262  1.00 20.00    -0.107 Cl
ENDROOT
BRANCH   2   5
HETATM    5  C3  UNL     1     -33.037   6.781   3.855  1.00 20.00     0.202 C 
BRANCH   5   6
HETATM    6  O6  UNL     1     -32.783   6.938   2.464  1.00 20.00    -0.394 OA
HETATM    7  C2  UNL     1     -32.045   8.123   2.200  1.00 20.00     0.201 C 
ENDBRANCH   5   6
ENDBRANCH   2   5
TORSDOF 2
