REMARK  2 active torsions:
REMARK  status: ('A' for Active; 'I' for Inactive)
REMARK    1  A    between atoms: C1_1  and  C2_2 
REMARK    2  A    between atoms: C3_3  and  C7_7 
ROOT
HETATM    1  C1  UNL     1     -32.916   6.565   3.432  1.00 20.00     0.061 C 
HETATM    2  C3  UNL     1     -33.315   6.317   4.692  1.00 20.00     0.022 C 
HETATM    3 CL9  UNL     1     -32.758   7.325   6.011  1.00 20.00    -0.088 Cl
ENDROOT
BRANCH   2   4
HETATM    4  C7  UNL     1     -34.264   5.176   5.111  1.00 20.00    -0.013 C 
HETATM    5  C4  UNL     1     -34.495   5.204   6.638  1.00 20.00     0.020 C 
HETATM    6  C5  UNL     1     -35.658   5.266   4.444  1.00 20.00     0.020 C 
HETATM    7  C6  UNL     1     -33.665   3.809   4.714  1.00 20.00     0.020 C 
ENDBRANCH   2   4
BRANCH   1   8
HETATM    8  C2  UNL     1     -32.004   7.659   3.018  1.00 20.00     0.260 C 
HETATM    9  O8  UNL     1     -31.685   7.820   1.845  1.00 20.00    -0.302 OA
ENDBRANCH   1   8
TORSDOF 2
