REMARK  2 active torsions:
REMARK  status: ('A' for Active; 'I' for Inactive)
REMARK    1  A    between atoms: C3_3  and  C4_4 
REMARK    2  A    between atoms: C3_3  and  O6_6 
ROOT
HETATM    1  C1  UNL     1     -33.888   6.798   5.614  1.00 20.00     0.081 C 
HETATM    2  C4  UNL     1     -33.954   6.216   4.268  1.00 20.00     0.212 C 
HETATM    3  N5  UNL     1     -33.834   7.262   6.676  1.00 20.00    -0.196 NA
HETATM    4 CL7  UNL     1     -34.770   4.633   4.386  1.00 20.00    -0.107 Cl
ENDROOT
BRANCH   2   5
HETATM    5  C3  UNL     1     -32.575   6.069   3.634  1.00 20.00     0.202 C 
BRANCH   5   6
HETATM    6  O6  UNL     1     -31.933   7.333   3.508  1.00 20.00    -0.394 OA
HETATM    7  C2  UNL     1     -32.435   8.063   2.398  1.00 20.00     0.201 C 
ENDBRANCH   5   6
ENDBRANCH   2   5
TORSDOF 2
