REMARK  2 active torsions:
REMARK  status: ('A' for Active; 'I' for Inactive)
REMARK    1  A    between atoms: C6_6  and  C7_7 
REMARK    2  A    between atoms: C7_7  and  C8_8 
ROOT
HETATM    1  C1  UNL     1     -32.693   7.465   2.978  1.00 20.00     0.059 C 
HETATM    2  C6  UNL     1     -32.777   6.497   4.086  1.00 20.00     0.129 C 
HETATM    3  N9  UNL     1     -32.623   8.227   2.105  1.00 20.00    -0.197 NA
ENDROOT
BRANCH   2   4
HETATM    4  C7  UNL     1     -34.202   5.912   4.243  1.00 20.00     0.002 C 
HETATM    5  C2  UNL     1     -34.652   5.299   2.901  1.00 20.00     0.011 C 
BRANCH   4   6
HETATM    6  C8  UNL     1     -34.326   4.911   5.455  1.00 20.00    -0.047 C 
HETATM    7  C3  UNL     1     -35.335   5.396   6.514  1.00 20.00     0.015 C 
HETATM    8  C4  UNL     1     -32.953   4.730   6.141  1.00 20.00     0.015 C 
HETATM    9  C5  UNL     1     -34.771   3.514   4.968  1.00 20.00     0.015 C 
ENDBRANCH   4   6
ENDBRANCH   2   4
TORSDOF 2
