REMARK  3 active torsions:
REMARK  status: ('A' for Active; 'I' for Inactive)
REMARK    1  A    between atoms: C6_6  and  C7_7 
REMARK    2  A    between atoms: C7_7  and  C8_8 
REMARK    3  A    between atoms: C8_8  and  C9_9 
ROOT
HETATM    1  C1  UNL     1     -33.786   6.620   5.301  1.00 20.00     0.069 C 
HETATM    2  C2  UNL     1     -34.484   3.634   5.429  1.00 20.00     0.002 C 
HETATM    3  C3  UNL     1     -35.542   4.233   4.503  1.00 20.00     0.002 C 
HETATM    4  C4  UNL     1     -33.148   4.242   5.000  1.00 20.00     0.024 C 
HETATM    5  C5  UNL     1     -34.797   5.175   3.557  1.00 20.00     0.024 C 
HETATM    6  C6  UNL     1     -33.515   5.560   4.307  1.00 20.00     0.049 C 
HETATM    7  N10 UNL     1     -33.998   7.452   6.082  1.00 20.00    -0.196 NA
ENDROOT
BRANCH   6   8
HETATM    8  C7  UNL     1     -32.416   6.030   3.355  1.00 20.00     0.026 C 
BRANCH   8   9
HETATM    9  C8  UNL     1     -32.814   7.320   2.645  1.00 20.00     0.017 C 
BRANCH   9  10
HETATM   10  C9  UNL     1     -31.699   7.798   1.725  1.00 20.00     0.114 C 
HETATM   11 CL11 UNL     1     -32.180   9.293   0.890  1.00 20.00    -0.130 Cl
ENDBRANCH   9  10
ENDBRANCH   8   9
ENDBRANCH   6   8
TORSDOF 3
