REMARK  0 active torsions:
REMARK  status: ('A' for Active; 'I' for Inactive)
ROOT
HETATM    1  C1  UNL     1     -32.669   6.381   4.003  1.00 20.00     0.069 C 
HETATM    2  C2  UNL     1     -34.829   3.925   5.905  1.00 20.00     0.002 C 
HETATM    3  C3  UNL     1     -35.193   5.246   6.583  1.00 20.00     0.002 C 
HETATM    4  C4  UNL     1     -33.746   4.257   4.879  1.00 20.00     0.024 C 
HETATM    5  C5  UNL     1     -34.313   6.315   5.935  1.00 20.00     0.024 C 
HETATM    6  C6  UNL     1     -33.941   5.744   4.561  1.00 20.00     0.045 C 
HETATM    7  C7  UNL     1     -35.046   5.935   3.596  1.00 20.00     0.031 C 
HETATM    8  N8  UNL     1     -31.704   6.865   3.579  1.00 20.00    -0.196 NA
ENDROOT
TORSDOF 0
