REMARK  1 active torsions:
REMARK  status: ('A' for Active; 'I' for Inactive)
REMARK    1  A    between atoms: C5_5  and  C6_6 
ROOT
HETATM    1  C1  UNL     1     -34.690   5.257   4.152  1.00 20.00     0.100 C 
HETATM    2  C2  UNL     1     -33.210   6.474   2.499  1.00 20.00     0.038 A 
HETATM    3  C3  UNL     1     -32.815   6.732   4.775  1.00 20.00     0.072 A 
HETATM    4  C4  UNL     1     -33.606   6.126   3.823  1.00 20.00     0.052 A 
HETATM    5  C5  UNL     1     -32.133   7.332   2.489  1.00 20.00    -0.002 A 
HETATM    6  N7  UNL     1     -35.571   4.551   4.419  1.00 20.00    -0.191 NA
HETATM    7  S8  UNL     1     -31.601   7.714   4.072  1.00 20.00    -0.104 SA
ENDROOT
BRANCH   5   8
HETATM    8  C6  UNL     1     -31.433   7.917   1.325  1.00 20.00     0.160 C 
HETATM    9 CL9  UNL     1     -32.395   9.225   0.590  1.00 20.00    -0.125 Cl
ENDBRANCH   5   8
TORSDOF 1
