REMARK  1 active torsions:
REMARK  status: ('A' for Active; 'I' for Inactive)
REMARK    1  A    between atoms: C6_6  and  C8_8 
ROOT
HETATM    1  C1  UNL     1     -36.301   5.338   4.130  1.00 20.00     0.069 C 
HETATM    2  C2  UNL     1     -32.921   5.758   2.483  1.00 20.00     0.002 C 
HETATM    3  C3  UNL     1     -33.039   7.056   3.282  1.00 20.00     0.002 C 
HETATM    4  C4  UNL     1     -34.235   5.006   2.695  1.00 20.00     0.024 C 
HETATM    5  C5  UNL     1     -34.418   7.028   3.940  1.00 20.00     0.024 C 
HETATM    6  C6  UNL     1     -34.791   5.543   4.020  1.00 20.00     0.049 C 
HETATM    7  N9  UNL     1     -37.447   5.182   4.214  1.00 20.00    -0.196 NA
ENDROOT
BRANCH   6   8
HETATM    8  C8  UNL     1     -34.125   4.895   5.170  1.00 20.00     0.020 C 
HETATM    9  C7  UNL     1     -34.586   5.469   6.469  1.00 20.00     0.007 C 
ENDBRANCH   6   8
TORSDOF 1
