REMARK  2 active torsions:
REMARK  status: ('A' for Active; 'I' for Inactive)
REMARK    1  A    between atoms: C1_1  and  C7_7 
REMARK    2  A    between atoms: C2_2  and  C3_3 
ROOT
HETATM    1  C1  UNL     1     -33.271   6.722   5.062  1.00 20.00    -0.013 C 
HETATM    2  C3  UNL     1     -33.586   6.416   3.791  1.00 20.00    -0.028 C 
HETATM    3  C4  UNL     1     -32.716   6.527   2.579  1.00 20.00     0.051 C 
ENDROOT
BRANCH   1   4
HETATM    4  C7  UNL     1     -34.162   6.611   6.277  1.00 20.00     0.000 C 
HETATM    5  C5  UNL     1     -34.028   5.221   6.899  1.00 20.00     0.013 C 
HETATM    6  C6  UNL     1     -33.794   7.691   7.295  1.00 20.00     0.013 C 
ENDBRANCH   1   4
BRANCH   2   7
HETATM    7  C2  UNL     1     -34.971   5.912   3.571  1.00 20.00     0.265 C 
HETATM    8  O8  UNL     1     -35.405   4.899   4.107  1.00 20.00    -0.302 OA
ENDBRANCH   2   7
TORSDOF 2
