REMARK  1 active torsions:
REMARK  status: ('A' for Active; 'I' for Inactive)
REMARK    1  A    between atoms: C1_1  and  C5_5 
ROOT
HETATM    1  C2  UNL     1     -35.145   5.054   6.188  1.00 20.00     0.029 C 
HETATM    2  C3  UNL     1     -35.084   4.308   4.876  1.00 20.00     0.047 C 
HETATM    3  C4  UNL     1     -34.223   6.224   5.926  1.00 20.00     0.169 C 
HETATM    4  C5  UNL     1     -34.973   5.440   3.863  1.00 20.00     0.110 C 
HETATM    5  C6  UNL     1     -34.169   5.066   2.629  1.00 20.00     0.053 C 
HETATM    6  O8  UNL     1     -34.351   6.544   4.534  1.00 20.00    -0.373 OA
ENDROOT
BRANCH   4   7
HETATM    7  C1  UNL     1     -36.325   5.934   3.432  1.00 20.00     0.268 C 
HETATM    8  O7  UNL     1     -37.323   5.222   3.389  1.00 20.00    -0.304 OA
ENDBRANCH   4   7
TORSDOF 1
