REMARK  0 active torsions:
REMARK  status: ('A' for Active; 'I' for Inactive)
ROOT
HETATM    1  C1  UNL     1     -33.435   7.115   3.543  1.00 20.00     0.095 C 
HETATM    2  C2  UNL     1     -35.144   3.904   4.638  1.00 20.00    -0.026 C 
HETATM    3  C3  UNL     1     -35.207   4.116   5.959  1.00 20.00    -0.001 C 
HETATM    4  C4  UNL     1     -34.528   4.910   3.710  1.00 20.00     0.077 C 
HETATM    5  C5  UNL     1     -34.634   5.350   6.592  1.00 20.00     0.298 C 
HETATM    6  C6  UNL     1     -34.320   6.285   4.376  1.00 20.00     0.329 C 
HETATM    7  N7  UNL     1     -32.737   7.769   2.886  1.00 20.00    -0.195 NA
HETATM    8  N8  UNL     1     -33.742   6.119   5.715  1.00 20.00     0.105 N 
HETATM    9  H16 UNL     1     -33.573   7.032   6.137  1.00 20.00     0.318 HD
ENDROOT
TORSDOF 0
