REMARK  3 active torsions:
REMARK  status: ('A' for Active; 'I' for Inactive)
REMARK    1  A    between atoms: C3_3  and  C8_8 
REMARK    2  A    between atoms: C3_3  and  O10_10 
REMARK    3  A    between atoms: C6_6  and  C8_8 
ROOT
HETATM    1  C1  UNL     1     -31.889   7.275   3.507  1.00 20.00    -0.026 C 
HETATM    2  C2  UNL     1     -32.800   6.860   4.392  1.00 20.00    -0.025 C 
HETATM    3  C4  UNL     1     -33.999   7.560   2.481  1.00 20.00     0.017 C 
HETATM    4  C5  UNL     1     -32.496   7.531   2.162  1.00 20.00     0.004 C 
HETATM    5  C6  UNL     1     -34.171   6.780   3.794  1.00 20.00     0.018 C 
HETATM    6  C7  UNL     1     -32.016   8.827   1.525  1.00 20.00     0.014 C 
ENDROOT
BRANCH   5   7
HETATM    7  C8  UNL     1     -34.605   5.336   3.569  1.00 20.00     0.118 C 
BRANCH   7   8
HETATM    8  C3  UNL     1     -35.096   4.692   4.840  1.00 20.00     0.140 C 
HETATM    9  O9  UNL     1     -35.168   5.223   5.938  1.00 20.00    -0.650 OA
BRANCH   8  10
HETATM   10  O10 UNL     1     -35.458   3.407   4.597  1.00 20.00    -0.776 OA
HETATM   11  H22 UNL     1     -35.783   2.959   5.407  1.00 20.00     0.167 HD
ENDBRANCH   8  10
ENDBRANCH   7   8
ENDBRANCH   5   7
TORSDOF 3
