REMARK  3 active torsions:
REMARK  status: ('A' for Active; 'I' for Inactive)
REMARK    1  A    between atoms: C1_1  and  C5_5 
REMARK    2  A    between atoms: C3_3  and  C4_4 
REMARK    3  A    between atoms: C3_3  and  C5_5 
ROOT
HETATM    1  C2  UNL     1     -35.565   4.976   4.746  1.00 20.00     0.017 C 
HETATM    2  C5  UNL     1     -34.103   5.407   4.833  1.00 20.00     0.044 C 
ENDROOT
BRANCH   2   3
HETATM    3  C1  UNL     1     -33.810   5.761   6.281  1.00 20.00     0.235 C 
HETATM    4  O6  UNL     1     -33.381   6.843   6.667  1.00 20.00    -0.306 OA
ENDBRANCH   2   3
BRANCH   2   5
HETATM    5  C3  UNL     1     -33.817   6.563   3.864  1.00 20.00     0.026 C 
BRANCH   5   6
HETATM    6  C4  UNL     1     -32.331   6.693   3.542  1.00 20.00     0.115 C 
HETATM    7 CL7  UNL     1     -32.060   8.029   2.398  1.00 20.00    -0.130 Cl
ENDBRANCH   5   6
ENDBRANCH   2   5
TORSDOF 3
