REMARK  0 active torsions:
REMARK  status: ('A' for Active; 'I' for Inactive)
ROOT
HETATM    1  C1  UNL     1     -35.254   4.792   3.936  1.00 20.00     0.068 C 
HETATM    2  C2  UNL     1     -31.631   7.466   4.312  1.00 20.00     0.009 A 
HETATM    3  C3  UNL     1     -31.583   8.093   3.065  1.00 20.00     0.019 A 
HETATM    4  C4  UNL     1     -33.899   7.494   2.624  1.00 20.00     0.028 A 
HETATM    5  C5  UNL     1     -32.818   6.870   4.702  1.00 20.00    -0.050 A 
HETATM    6  C6  UNL     1     -33.942   6.878   3.865  1.00 20.00    -0.033 A 
HETATM    7  C7  UNL     1     -32.709   8.107   2.227  1.00 20.00     0.011 A 
HETATM    8  C8  UNL     1     -33.097   6.118   5.965  1.00 20.00     0.041 C 
HETATM    9  C9  UNL     1     -34.635   6.099   5.967  1.00 20.00     0.028 C 
HETATM   10  C10 UNL     1     -35.091   6.141   4.492  1.00 20.00     0.126 C 
HETATM   11  N11 UNL     1     -35.383   3.727   3.496  1.00 20.00    -0.197 NA
HETATM   12 BR12 UNL     1     -32.610   8.959   0.541  1.00 20.00    -0.051 Br
ENDROOT
TORSDOF 0
