REMARK  1 active torsions:
REMARK  status: ('A' for Active; 'I' for Inactive)
REMARK    1  A    between atoms: C4_4  and  O6_6 
ROOT
HETATM    1  C1  UNL     1     -34.021   5.501   6.283  1.00 20.00     0.038 C 
HETATM    2  C2  UNL     1     -32.963   5.614   5.189  1.00 20.00     0.081 C 
HETATM    3  C3  UNL     1     -34.964   4.929   4.088  1.00 20.00     0.110 C 
HETATM    4  C4  UNL     1     -35.262   4.925   5.590  1.00 20.00     0.124 C 
HETATM    5  C5  UNL     1     -33.789   5.873   3.950  1.00 20.00     0.246 C 
HETATM    6  F7  UNL     1     -33.094   5.657   2.820  1.00 20.00    -0.206 F 
HETATM    7  F8  UNL     1     -34.219   7.156   3.935  1.00 20.00    -0.206 F 
ENDROOT
BRANCH   4   8
HETATM    8  O6  UNL     1     -35.495   3.599   6.040  1.00 20.00    -0.395 OA
HETATM    9  H16 UNL     1     -36.285   3.283   5.575  1.00 20.00     0.210 HD
ENDBRANCH   4   8
TORSDOF 1
