REMARK  4 active torsions:
REMARK  status: ('A' for Active; 'I' for Inactive)
REMARK    1  A    between atoms: C1_1  and  C6_6 
REMARK    2  A    between atoms: C1_1  and  C8_8 
REMARK    3  A    between atoms: C7_7  and  C8_8 
REMARK    4  A    between atoms: C7_7  and  C9_9 
ROOT
HETATM    1  C3  UNL     1     -31.829   5.711   2.603  1.00 20.00     0.018 C 
HETATM    2  C8  UNL     1     -31.905   7.010   3.404  1.00 20.00     0.051 C 
ENDROOT
BRANCH   2   3
HETATM    3  C1  UNL     1     -32.603   8.063   2.546  1.00 20.00     0.130 C 
HETATM    4  O10 UNL     1     -33.635   8.619   2.919  1.00 20.00    -0.298 OA
BRANCH   3   5
HETATM    5  C6  UNL     1     -31.968   8.353   1.195  1.00 20.00     0.074 C 
HETATM    6  C2  UNL     1     -32.216   9.775   0.725  1.00 20.00     0.013 C 
ENDBRANCH   3   5
ENDBRANCH   2   3
BRANCH   2   7
HETATM    7  C7  UNL     1     -32.638   6.786   4.738  1.00 20.00     0.015 C 
BRANCH   7   8
HETATM    8  C9  UNL     1     -33.846   5.829   4.663  1.00 20.00    -0.022 C 
HETATM    9  C4  UNL     1     -34.926   6.323   3.699  1.00 20.00     0.009 C 
HETATM   10  C5  UNL     1     -34.447   5.649   6.060  1.00 20.00     0.009 C 
ENDBRANCH   7   8
ENDBRANCH   2   7
TORSDOF 4
