REMARK  3 active torsions:
REMARK  status: ('A' for Active; 'I' for Inactive)
REMARK    1  A    between atoms: C4_4  and  C7_7 
REMARK    2  A    between atoms: C7_7  and  C8_8 
REMARK    3  A    between atoms: C8_8  and  C9_9 
ROOT
HETATM    1  C1  UNL     1     -34.375   5.379   3.696  1.00 20.00     0.141 C 
HETATM    2  C2  UNL     1     -35.434   4.587   4.420  1.00 20.00     0.152 C 
HETATM    3  C3  UNL     1     -34.099   6.337   5.910  1.00 20.00     0.086 C 
HETATM    4  C4  UNL     1     -33.369   6.072   4.600  1.00 20.00     0.065 C 
HETATM    5  O10 UNL     1     -34.313   5.410   2.470  1.00 20.00    -0.297 OA
HETATM    6  S11 UNL     1     -35.124   4.873   6.177  1.00 20.00    -0.161 SA
ENDROOT
BRANCH   4   7
HETATM    7  C7  UNL     1     -32.833   7.355   3.985  1.00 20.00     0.013 C 
BRANCH   7   8
HETATM    8  C8  UNL     1     -31.711   7.067   2.984  1.00 20.00     0.005 C 
BRANCH   8   9
HETATM    9  C9  UNL     1     -31.180   8.329   2.279  1.00 20.00    -0.023 C 
HETATM   10  C5  UNL     1     -32.314   9.008   1.507  1.00 20.00     0.009 C 
HETATM   11  C6  UNL     1     -30.021   8.023   1.329  1.00 20.00     0.009 C 
ENDBRANCH   8   9
ENDBRANCH   7   8
ENDBRANCH   4   7
TORSDOF 3
