REMARK  2 active torsions:
REMARK  status: ('A' for Active; 'I' for Inactive)
REMARK    1  A    between atoms: C5_5  and  C6_6 
REMARK    2  A    between atoms: C6_6  and  C7_7 
ROOT
HETATM    1  C1  UNL     1     -34.470   5.906   5.865  1.00 20.00     0.131 C 
HETATM    2  C2  UNL     1     -35.384   4.889   6.500  1.00 20.00     0.079 C 
HETATM    3  C3  UNL     1     -35.086   3.640   5.678  1.00 20.00     0.008 C 
HETATM    4  C4  UNL     1     -34.733   4.172   4.295  1.00 20.00     0.013 C 
HETATM    5  C5  UNL     1     -33.857   5.394   4.578  1.00 20.00     0.064 C 
HETATM    6  O8  UNL     1     -34.257   7.015   6.340  1.00 20.00    -0.298 OA
ENDROOT
BRANCH   5   7
HETATM    7  C6  UNL     1     -33.888   6.416   3.459  1.00 20.00     0.129 C 
BRANCH   7   8
HETATM    8  C7  UNL     1     -32.755   7.400   3.576  1.00 20.00     0.388 C 
HETATM    9  F9  UNL     1     -32.806   8.087   4.736  1.00 20.00    -0.171 F 
HETATM   10  F10 UNL     1     -32.823   8.297   2.566  1.00 20.00    -0.171 F 
HETATM   11  F11 UNL     1     -31.553   6.792   3.500  1.00 20.00    -0.171 F 
ENDBRANCH   7   8
ENDBRANCH   5   7
TORSDOF 2
