REMARK  2 active torsions:
REMARK  status: ('A' for Active; 'I' for Inactive)
REMARK    1  A    between atoms: C5_5  and  C6_6 
REMARK    2  A    between atoms: C6_6  and  C7_7 
ROOT
HETATM    1  C1  UNL     1     -34.527   5.853   5.459  1.00 20.00     0.131 C 
HETATM    2  C2  UNL     1     -34.453   4.377   5.760  1.00 20.00     0.079 C 
HETATM    3  C3  UNL     1     -35.084   3.769   4.513  1.00 20.00     0.008 C 
HETATM    4  C4  UNL     1     -34.728   4.740   3.395  1.00 20.00     0.013 C 
HETATM    5  C5  UNL     1     -34.927   6.121   4.022  1.00 20.00     0.064 C 
HETATM    6  O8  UNL     1     -34.289   6.725   6.285  1.00 20.00    -0.298 OA
ENDROOT
BRANCH   5   7
HETATM    7  C6  UNL     1     -34.087   7.197   3.364  1.00 20.00     0.129 C 
BRANCH   7   8
HETATM    8  C7  UNL     1     -32.631   7.060   3.722  1.00 20.00     0.388 C 
HETATM    9  F9  UNL     1     -32.431   7.165   5.053  1.00 20.00    -0.171 F 
HETATM   10  F10 UNL     1     -31.919   8.041   3.123  1.00 20.00    -0.171 F 
HETATM   11  F11 UNL     1     -32.123   5.878   3.313  1.00 20.00    -0.171 F 
ENDBRANCH   7   8
ENDBRANCH   5   7
TORSDOF 2
