REMARK  2 active torsions:
REMARK  status: ('A' for Active; 'I' for Inactive)
REMARK    1  A    between atoms: C6_6  and  C7_7 
REMARK    2  A    between atoms: C7_7  and  C8_8 
ROOT
HETATM    1  C1  UNL     1     -33.913   6.586   5.693  1.00 20.00     0.131 C 
HETATM    2  C2  UNL     1     -34.479   5.652   6.741  1.00 20.00     0.079 C 
HETATM    3  C3  UNL     1     -34.416   4.210   6.261  1.00 20.00     0.007 C 
HETATM    4  C4  UNL     1     -35.063   4.043   4.889  1.00 20.00     0.001 C 
HETATM    5  C5  UNL     1     -34.409   4.964   3.859  1.00 20.00     0.012 C 
HETATM    6  C6  UNL     1     -34.480   6.434   4.285  1.00 20.00     0.064 C 
HETATM    7  O9  UNL     1     -33.113   7.470   5.998  1.00 20.00    -0.298 OA
ENDROOT
BRANCH   6   8
HETATM    8  C7  UNL     1     -33.750   7.322   3.282  1.00 20.00     0.129 C 
BRANCH   8   9
HETATM    9  C8  UNL     1     -32.469   6.686   2.824  1.00 20.00     0.388 C 
HETATM   10  F10 UNL     1     -31.624   6.455   3.851  1.00 20.00    -0.171 F 
HETATM   11  F11 UNL     1     -31.842   7.512   1.957  1.00 20.00    -0.171 F 
HETATM   12  F12 UNL     1     -32.685   5.515   2.188  1.00 20.00    -0.171 F 
ENDBRANCH   8   9
ENDBRANCH   6   8
TORSDOF 2
