REMARK  2 active torsions:
REMARK  status: ('A' for Active; 'I' for Inactive)
REMARK    1  A    between atoms: C1_1  and  C3_3 
REMARK    2  A    between atoms: C2_2  and  C4_4 
ROOT
HETATM    1  C1  UNL     1     -33.701   6.808   4.724  1.00 20.00     0.223 C 
HETATM    2  C2  UNL     1     -34.613   6.082   5.390  1.00 20.00     0.223 C 
HETATM    3  F5  UNL     1     -32.778   7.495   5.440  1.00 20.00    -0.200 F 
HETATM    4  F6  UNL     1     -34.588   6.102   6.744  1.00 20.00    -0.200 F 
ENDROOT
BRANCH   1   5
HETATM    5  C3  UNL     1     -33.608   6.906   3.236  1.00 20.00     0.377 C 
HETATM    6  F7  UNL     1     -33.398   5.702   2.639  1.00 20.00    -0.180 F 
HETATM    7  F8  UNL     1     -32.554   7.689   2.880  1.00 20.00    -0.180 F 
HETATM    8 CL11 UNL     1     -35.098   7.617   2.583  1.00 20.00    -0.040 Cl
ENDBRANCH   1   5
BRANCH   2   9
HETATM    9  C4  UNL     1     -35.680   5.257   4.748  1.00 20.00     0.377 C 
HETATM   10  F9  UNL     1     -35.595   5.347   3.393  1.00 20.00    -0.180 F 
HETATM   11  F10 UNL     1     -35.574   3.933   5.042  1.00 20.00    -0.180 F 
HETATM   12 CL12 UNL     1     -37.280   5.831   5.261  1.00 20.00    -0.040 Cl
ENDBRANCH   2   9
TORSDOF 2
