REMARK  1 active torsions:
REMARK  status: ('A' for Active; 'I' for Inactive)
REMARK    1  A    between atoms: C4_4  and  C6_6 
ROOT
HETATM    1  C1  UNL     1     -33.473   7.891   2.425  1.00 20.00     0.039 A 
HETATM    2  C2  UNL     1     -31.940   6.508   3.607  1.00 20.00     0.129 A 
HETATM    3  C3  UNL     1     -31.124   8.011   2.073  1.00 20.00     0.140 A 
HETATM    4  C4  UNL     1     -33.250   6.893   3.368  1.00 20.00    -0.000 A 
HETATM    5  C5  UNL     1     -32.395   8.465   1.761  1.00 20.00     0.052 A 
HETATM    6  N8  UNL     1     -30.868   7.043   2.982  1.00 20.00    -0.271 NA
HETATM    7 CL10 UNL     1     -32.631   9.699   0.593  1.00 20.00    -0.083 Cl
ENDROOT
BRANCH   4   8
HETATM    8  C6  UNL     1     -34.354   6.273   4.079  1.00 20.00     0.017 C 
HETATM    9  C7  UNL     1     -34.397   6.374   5.605  1.00 20.00     0.062 C 
HETATM   10  S9  UNL     1     -35.647   5.476   3.313  1.00 20.00    -0.084 SA
ENDBRANCH   4   8
TORSDOF 1
