REMARK  1 active torsions:
REMARK  status: ('A' for Active; 'I' for Inactive)
REMARK    1  A    between atoms: C3_3  and  C9_9 
ROOT
HETATM    1  C1  UNL     1     -31.830   7.612   3.387  1.00 20.00     0.017 A 
HETATM    2  C2  UNL     1     -31.169   8.432   2.427  1.00 20.00     0.032 A 
HETATM    3  C3  UNL     1     -33.112   7.292   2.998  1.00 20.00    -0.011 A 
HETATM    4  C4  UNL     1     -31.971   8.707   1.341  1.00 20.00     0.075 A 
HETATM    5  S11 UNL     1     -33.514   7.979   1.482  1.00 20.00    -0.082 SA
HETATM    6 CL12 UNL     1     -31.585   9.648  -0.038  1.00 20.00    -0.076 Cl
ENDROOT
BRANCH   3   7
HETATM    7  C9  UNL     1     -34.134   6.451   3.728  1.00 20.00     0.033 C 
HETATM    8  C7  UNL     1     -33.640   5.894   5.068  1.00 20.00     0.088 C 
HETATM    9  C5  UNL     1     -34.540   4.698   5.250  1.00 20.00     0.127 C 
HETATM   10  C6  UNL     1     -35.305   4.359   3.996  1.00 20.00     0.079 C 
HETATM   11  O10 UNL     1     -34.640   4.074   6.299  1.00 20.00    -0.298 OA
HETATM   12  C8  UNL     1     -34.594   5.212   2.951  1.00 20.00     0.018 C 
ENDBRANCH   3   7
TORSDOF 1
