REMARK  0 active torsions:
REMARK  status: ('A' for Active; 'I' for Inactive)
ROOT
HETATM    1  C1  UNL     1     -34.149   4.262   6.490  1.00 20.00     0.017 C 
HETATM    2  C2  UNL     1     -34.563   4.700   5.452  1.00 20.00    -0.090 C 
HETATM    3  C3  UNL     1     -35.061   5.214   4.224  1.00 20.00     0.059 C 
HETATM    4  C4  UNL     1     -34.270   5.868   3.363  1.00 20.00    -0.022 C 
HETATM    5  C5  UNL     1     -32.817   6.120   3.600  1.00 20.00     0.036 C 
ENDROOT
TORSDOF 0
