REMARK  2 active torsions:
REMARK  status: ('A' for Active; 'I' for Inactive)
REMARK    1  A    between atoms: C1_1  and  C3_3 
REMARK    2  A    between atoms: C2_2  and  C8_8 
ROOT
HETATM    1  C4  UNL     1     -34.152   5.634   6.764  1.00 20.00     0.011 C 
HETATM    2  C5  UNL     1     -33.795   6.708   5.738  1.00 20.00     0.010 C 
HETATM    3  C6  UNL     1     -35.304   4.742   6.323  1.00 20.00     0.074 C 
HETATM    4  C7  UNL     1     -34.462   5.263   3.751  1.00 20.00     0.082 C 
HETATM    5  C8  UNL     1     -33.364   6.124   4.384  1.00 20.00     0.017 C 
HETATM    6  S11 UNL     1     -34.909   3.845   4.796  1.00 20.00    -0.168 SA
ENDROOT
BRANCH   5   7
HETATM    7  C2  UNL     1     -32.978   7.232   3.445  1.00 20.00    -0.018 C 
HETATM    8  C1  UNL     1     -31.748   7.369   2.935  1.00 20.00     0.046 C 
BRANCH   8   9
HETATM    9  C3  UNL     1     -31.430   8.491   2.009  1.00 20.00     0.145 C 
HETATM   10  C9  UNL     1     -30.020   8.563   1.486  1.00 20.00     0.096 C 
HETATM   11  O10 UNL     1     -32.267   9.333   1.690  1.00 20.00    -0.294 OA
ENDBRANCH   8   9
ENDBRANCH   5   7
TORSDOF 2
