REMARK  2 active torsions:
REMARK  status: ('A' for Active; 'I' for Inactive)
REMARK    1  A    between atoms: C6_6  and  C8_8 
REMARK    2  A    between atoms: C7_7  and  C9_9 
ROOT
HETATM    1  C1  UNL     1     -34.642   5.008   4.980  1.00 20.00     0.132 C 
HETATM    2  C2  UNL     1     -34.388   6.422   5.821  1.00 20.00     0.084 C 
HETATM    3  C6  UNL     1     -34.101   5.786   3.774  1.00 20.00     0.064 C 
HETATM    4  C7  UNL     1     -33.136   6.421   4.870  1.00 20.00     0.008 C 
HETATM    5  O10 UNL     1     -35.046   3.892   5.187  1.00 20.00    -0.298 OA
ENDROOT
BRANCH   3   6
HETATM    6  C8  UNL     1     -33.113   5.565   2.629  1.00 20.00    -0.003 C 
HETATM    7  C3  UNL     1     -33.214   6.884   1.817  1.00 20.00     0.006 C 
HETATM    8  C4  UNL     1     -32.700   7.926   2.843  1.00 20.00     0.005 C 
HETATM    9  C9  UNL     1     -32.091   7.060   3.960  1.00 20.00    -0.009 C 
HETATM   10  C5  UNL     1     -31.703   5.773   3.195  1.00 20.00     0.010 C 
ENDBRANCH   3   6
TORSDOF 2
