REMARK  2 active torsions:
REMARK  status: ('A' for Active; 'I' for Inactive)
REMARK    1  A    between atoms: C6_6  and  O11_11 
REMARK    2  A    between atoms: C9_9  and  O11_11 
ROOT
HETATM    1  C1  UNL     1     -33.668   6.093   6.785  1.00 20.00     0.002 C 
HETATM    2  C2  UNL     1     -34.665   6.687   5.759  1.00 20.00     0.015 C 
HETATM    3  C3  UNL     1     -33.807   4.739   6.047  1.00 20.00     0.015 C 
HETATM    4  C4  UNL     1     -34.040   4.744   2.898  1.00 20.00     0.069 C 
HETATM    5  C5  UNL     1     -35.234   4.877   3.888  1.00 20.00     0.173 C 
HETATM    6  C6  UNL     1     -33.237   5.773   3.749  1.00 20.00     0.135 C 
HETATM    7  C7  UNL     1     -34.273   5.548   4.841  1.00 20.00     0.015 C 
HETATM    8  O10 UNL     1     -36.245   5.715   3.383  1.00 20.00    -0.234 OA
ENDROOT
BRANCH   6   9
HETATM    9  O11 UNL     1     -33.158   7.098   3.188  1.00 20.00    -0.385 OA
BRANCH   9  10
HETATM   10  C9  UNL     1     -32.164   7.163   2.183  1.00 20.00     0.163 C 
HETATM   11  C8  UNL     1     -32.117   8.569   1.625  1.00 20.00     0.033 C 
ENDBRANCH   9  10
ENDBRANCH   6   9
TORSDOF 2
