REMARK  2 active torsions:
REMARK  status: ('A' for Active; 'I' for Inactive)
REMARK    1  A    between atoms: C3_3  and  C6_6 
REMARK    2  A    between atoms: C6_6  and  C7_7 
ROOT
HETATM    1  C1  UNL     1     -33.211   6.312   2.815  1.00 20.00    -0.176 C 
HETATM    2  C2  UNL     1     -32.626   7.276   2.173  1.00 20.00     0.091 C 
HETATM    3  C3  UNL     1     -33.796   5.343   3.459  1.00 20.00     0.067 C 
ENDROOT
BRANCH   3   4
HETATM    4  C6  UNL     1     -35.166   5.423   4.069  1.00 20.00     0.021 C 
BRANCH   4   5
HETATM    5  C7  UNL     1     -35.167   5.167   5.588  1.00 20.00    -0.021 C 
HETATM    6  C4  UNL     1     -34.305   6.181   6.345  1.00 20.00     0.009 C 
HETATM    7  C5  UNL     1     -34.671   3.749   5.878  1.00 20.00     0.009 C 
ENDBRANCH   4   5
ENDBRANCH   3   4
TORSDOF 2
