REMARK  3 active torsions:
REMARK  status: ('A' for Active; 'I' for Inactive)
REMARK    1  A    between atoms: C1_1  and  C6_6 
REMARK    2  A    between atoms: C6_6  and  C7_7 
REMARK    3  A    between atoms: C6_6  and  O9_9 
ROOT
HETATM    1  C2  UNL     1     -34.618   3.496   4.247  1.00 20.00     0.054 C 
HETATM    2  C6  UNL     1     -35.002   4.780   4.990  1.00 20.00     0.113 C 
ENDROOT
BRANCH   2   3
HETATM    3  C1  UNL     1     -36.128   5.445   4.205  1.00 20.00     0.269 C 
HETATM    4  O8  UNL     1     -37.246   5.675   4.657  1.00 20.00    -0.304 OA
ENDBRANCH   2   3
BRANCH   2   5
HETATM    5  C7  UNL     1     -33.811   5.771   5.241  1.00 20.00    -0.014 C 
HETATM    6  C3  UNL     1     -34.289   7.001   6.048  1.00 20.00     0.018 C 
HETATM    7  C4  UNL     1     -33.248   6.300   3.901  1.00 20.00     0.018 C 
HETATM    8  C5  UNL     1     -32.648   5.114   6.013  1.00 20.00     0.018 C 
ENDBRANCH   2   5
BRANCH   2   9
HETATM    9  O9  UNL     1     -35.560   4.405   6.252  1.00 20.00    -0.382 OA
HETATM   10  H23 UNL     1     -36.286   3.794   6.057  1.00 20.00     0.211 HD
ENDBRANCH   2   9
TORSDOF 3
