REMARK  4 active torsions:
REMARK  status: ('A' for Active; 'I' for Inactive)
REMARK    1  A    between atoms: C3_3  and  C4_4 
REMARK    2  A    between atoms: C3_3  and  C6_6 
REMARK    3  A    between atoms: C4_4  and  O7_7 
REMARK    4  A    between atoms: C5_5  and  C6_6 
ROOT
HETATM    1  C3  UNL     1     -33.769   6.382   4.182  1.00 20.00     0.031 C 
ENDROOT
BRANCH   1   2
HETATM    2  C4  UNL     1     -34.813   5.273   4.149  1.00 20.00     0.167 C 
BRANCH   2   3
HETATM    3  O7  UNL     1     -35.229   4.998   5.481  1.00 20.00    -0.396 OA
HETATM    4  C2  UNL     1     -34.303   4.155   6.153  1.00 20.00     0.201 C 
ENDBRANCH   2   3
ENDBRANCH   1   2
BRANCH   1   5
HETATM    5  C6  UNL     1     -33.219   6.761   2.795  1.00 20.00    -0.003 C 
HETATM    6  C1  UNL     1     -32.224   5.695   2.322  1.00 20.00     0.011 C 
BRANCH   5   7
HETATM    7  C5  UNL     1     -32.610   8.170   2.713  1.00 20.00     0.119 C 
HETATM    8 CL8  UNL     1     -32.150   8.653   1.062  1.00 20.00    -0.130 Cl
ENDBRANCH   5   7
ENDBRANCH   1   5
TORSDOF 4
