REMARK  2 active torsions:
REMARK  status: ('A' for Active; 'I' for Inactive)
REMARK    1  A    between atoms: C1_1  and  C6_6 
REMARK    2  A    between atoms: C2_2  and  C7_7 
ROOT
HETATM    1  C1  UNL     1     -33.388   6.491   3.070  1.00 20.00    -0.015 C 
HETATM    2  C2  UNL     1     -33.303   5.975   4.306  1.00 20.00    -0.021 C 
ENDROOT
BRANCH   2   3
HETATM    3  C7  UNL     1     -34.401   5.279   5.098  1.00 20.00    -0.034 C 
HETATM    4  C3  UNL     1     -34.640   6.076   6.393  1.00 20.00     0.018 C 
HETATM    5  C4  UNL     1     -35.740   5.153   4.349  1.00 20.00     0.018 C 
HETATM    6  C5  UNL     1     -33.911   3.866   5.462  1.00 20.00     0.018 C 
ENDBRANCH   2   3
BRANCH   1   7
HETATM    7  C6  UNL     1     -32.243   7.152   2.374  1.00 20.00     0.141 C 
HETATM    8 CL8  UNL     1     -32.661   8.834   1.985  1.00 20.00    -0.126 Cl
ENDBRANCH   1   7
TORSDOF 2
