REMARK  3 active torsions:
REMARK  status: ('A' for Active; 'I' for Inactive)
REMARK    1  A    between atoms: C1_1  and  C3_3 
REMARK    2  A    between atoms: C2_2  and  C6_6 
REMARK    3  A    between atoms: C3_3  and  O10_10 
ROOT
HETATM    1  C1  UNL     1     -34.217   5.780   4.500  1.00 20.00     0.014 C 
HETATM    2  C2  UNL     1     -33.594   5.722   3.299  1.00 20.00    -0.067 C 
HETATM    3  C7  UNL     1     -33.621   6.303   5.776  1.00 20.00     0.056 C 
HETATM    4  C8  UNL     1     -34.216   5.220   2.039  1.00 20.00     0.044 C 
ENDROOT
BRANCH   1   5
HETATM    5  C3  UNL     1     -35.632   5.331   4.591  1.00 20.00     0.171 C 
HETATM    6  O9  UNL     1     -36.571   5.807   3.976  1.00 20.00    -0.646 OA
BRANCH   5   7
HETATM    7  O10 UNL     1     -35.727   4.306   5.471  1.00 20.00    -0.773 OA
HETATM    8  H22 UNL     1     -36.649   3.984   5.560  1.00 20.00     0.167 HD
ENDBRANCH   5   7
ENDBRANCH   1   5
BRANCH   2   9
HETATM    9  C6  UNL     1     -32.150   6.142   3.129  1.00 20.00     0.015 A 
HETATM   10  C4  UNL     1     -31.867   7.173   2.110  1.00 20.00     0.010 A 
HETATM   11  C5  UNL     1     -31.793   7.506   3.570  1.00 20.00     0.010 A 
ENDBRANCH   2   9
TORSDOF 3
