REMARK  3 active torsions:
REMARK  status: ('A' for Active; 'I' for Inactive)
REMARK    1  A    between atoms: C4_4  and  O9_9 
REMARK    2  A    between atoms: C6_6  and  C7_7 
REMARK    3  A    between atoms: C6_6  and  N8_8 
ROOT
HETATM    1  C1  UNL     1     -33.636   6.242   5.739  1.00 20.00     0.064 C 
HETATM    2  C2  UNL     1     -32.652   6.999   4.860  1.00 20.00     0.275 C 
HETATM    3  C3  UNL     1     -33.934   5.745   3.378  1.00 20.00     0.304 C 
HETATM    4  C4  UNL     1     -34.532   5.489   4.757  1.00 20.00     0.150 C 
HETATM    5  N8  UNL     1     -32.555   6.143   3.679  1.00 20.00     0.092 N 
ENDROOT
BRANCH   5   6
HETATM    6  C6  UNL     1     -31.912   6.812   2.558  1.00 20.00     0.287 C 
BRANCH   6   7
HETATM    7  C7  UNL     1     -32.699   8.016   2.067  1.00 20.00     0.144 C 
HETATM    8 CL10 UNL     1     -31.886   8.805   0.693  1.00 20.00    -0.129 Cl
ENDBRANCH   6   7
ENDBRANCH   5   6
BRANCH   4   9
HETATM    9  O9  UNL     1     -34.508   4.096   5.040  1.00 20.00    -0.389 OA
HETATM   10  C5  UNL     1     -35.363   3.768   6.127  1.00 20.00     0.202 C 
ENDBRANCH   4   9
TORSDOF 3
