REMARK  0 active torsions:
REMARK  status: ('A' for Active; 'I' for Inactive)
ROOT
HETATM    1  C1  UNL     1     -33.756   6.064   3.039  1.00 20.00     0.109 C 
HETATM    2  C2  UNL     1     -32.497   6.376   3.859  1.00 20.00     0.226 C 
HETATM    3  C3  UNL     1     -33.477   5.921   6.083  1.00 20.00     0.230 C 
HETATM    4  C4  UNL     1     -34.022   4.639   5.406  1.00 20.00     0.076 C 
HETATM    5  C5  UNL     1     -31.653   7.421   3.125  1.00 20.00     0.043 C 
HETATM    6  C6  UNL     1     -34.514   6.690   6.909  1.00 20.00     0.043 C 
HETATM    7  C7  UNL     1     -34.870   3.763   6.327  1.00 20.00     0.023 C 
HETATM    8  N8  UNL     1     -32.856   6.899   5.174  1.00 20.00     0.093 N 
HETATM    9  S9  UNL     1     -34.973   5.010   3.893  1.00 20.00    -0.160 SA
HETATM   10  H24 UNL     1     -32.012   7.282   5.626  1.00 20.00     0.316 HD
ENDROOT
TORSDOF 0
