REMARK  4 active torsions:
REMARK  status: ('A' for Active; 'I' for Inactive)
REMARK    1  A    between atoms: C1_1  and  C6_6 
REMARK    2  A    between atoms: C2_2  and  C7_7 
REMARK    3  A    between atoms: C6_6  and  O9_9 
REMARK    4  A    between atoms: C8_8  and  O9_9 
ROOT
HETATM    1  C6  UNL     1     -33.280   6.079   3.512  1.00 20.00     0.196 C 
ENDROOT
BRANCH   1   2
HETATM    2  C1  UNL     1     -32.882   7.288   2.730  1.00 20.00    -0.004 C 
HETATM    3  C2  UNL     1     -31.983   7.269   1.735  1.00 20.00    -0.014 C 
BRANCH   3   4
HETATM    4  C7  UNL     1     -31.598   8.476   0.945  1.00 20.00     0.141 C 
HETATM    5 CL10 UNL     1     -32.680   8.656  -0.452  1.00 20.00    -0.126 Cl
ENDBRANCH   3   4
ENDBRANCH   1   2
BRANCH   1   6
HETATM    6  O9  UNL     1     -33.669   6.485   4.814  1.00 20.00    -0.378 OA
BRANCH   6   7
HETATM    7  C8  UNL     1     -34.476   5.492   5.448  1.00 20.00     0.050 C 
HETATM    8  C3  UNL     1     -33.667   4.201   5.550  1.00 20.00     0.045 C 
HETATM    9  C4  UNL     1     -34.837   6.012   6.838  1.00 20.00     0.045 C 
HETATM   10  C5  UNL     1     -35.736   5.281   4.609  1.00 20.00     0.045 C 
ENDBRANCH   6   7
ENDBRANCH   1   6
TORSDOF 4
