REMARK  0 active torsions:
REMARK  status: ('A' for Active; 'I' for Inactive)
ROOT
HETATM    1  C1  UNL     1     -33.522   5.880   3.006  1.00 20.00    -0.088 C 
HETATM    2  C2  UNL     1     -32.677   6.785   2.492  1.00 20.00     0.014 C 
HETATM    3  C3  UNL     1     -34.847   5.557   2.369  1.00 20.00     0.033 C 
HETATM    4  C4  UNL     1     -33.224   5.121   4.275  1.00 20.00     0.042 C 
HETATM    5  C5  UNL     1     -35.988   5.709   3.374  1.00 20.00     0.005 C 
HETATM    6  C6  UNL     1     -35.722   4.928   4.666  1.00 20.00     0.009 C 
HETATM    7  C7  UNL     1     -34.359   5.267   5.320  1.00 20.00    -0.044 C 
HETATM    8  C8  UNL     1     -34.102   4.285   6.478  1.00 20.00     0.015 C 
HETATM    9  C9  UNL     1     -34.377   6.695   5.900  1.00 20.00     0.015 C 
ENDROOT
TORSDOF 0
