REMARK  4 active torsions:
REMARK  status: ('A' for Active; 'I' for Inactive)
REMARK    1  A    between atoms: C2_2  and  C4_4 
REMARK    2  A    between atoms: C3_3  and  O7_7 
REMARK    3  A    between atoms: C4_4  and  C5_5 
REMARK    4  A    between atoms: C5_5  and  C6_6 
ROOT
HETATM    1  C1  UNL     1     -33.687   4.729   5.897  1.00 20.00     0.039 A 
HETATM    2  C2  UNL     1     -34.406   5.509   4.831  1.00 20.00     0.017 A 
HETATM    3  C3  UNL     1     -35.152   4.489   5.652  1.00 20.00     0.122 A 
ENDROOT
BRANCH   2   4
HETATM    4  C4  UNL     1     -34.086   5.272   3.364  1.00 20.00     0.008 C 
BRANCH   4   5
HETATM    5  C5  UNL     1     -32.791   5.972   2.952  1.00 20.00     0.015 C 
BRANCH   5   6
HETATM    6  C6  UNL     1     -32.903   7.480   3.131  1.00 20.00     0.114 C 
HETATM    7 CL8  UNL     1     -31.382   8.275   2.662  1.00 20.00    -0.130 Cl
ENDBRANCH   5   6
ENDBRANCH   4   5
ENDBRANCH   2   4
BRANCH   3   8
HETATM    8  O7  UNL     1     -35.488   3.246   5.016  1.00 20.00    -0.395 OA
HETATM    9  H19 UNL     1     -36.451   3.244   4.931  1.00 20.00     0.210 HD
ENDBRANCH   3   8
TORSDOF 4
