REMARK  3 active torsions:
REMARK  status: ('A' for Active; 'I' for Inactive)
REMARK    1  A    between atoms: C6_6  and  C8_8 
REMARK    2  A    between atoms: C6_6  and  C9_9 
REMARK    3  A    between atoms: C9_9  and  O10_10 
ROOT
HETATM    1  C1  UNL     1     -34.570   4.824   6.419  1.00 20.00     0.000 C 
HETATM    2  C2  UNL     1     -34.699   6.251   5.897  1.00 20.00     0.001 C 
HETATM    3  C3  UNL     1     -34.487   3.809   5.284  1.00 20.00     0.001 C 
HETATM    4  C4  UNL     1     -33.579   6.596   4.915  1.00 20.00     0.011 C 
HETATM    5  C5  UNL     1     -33.367   4.150   4.302  1.00 20.00     0.011 C 
HETATM    6  C6  UNL     1     -33.454   5.591   3.747  1.00 20.00    -0.019 C 
ENDROOT
BRANCH   6   7
HETATM    7  C8  UNL     1     -32.169   5.901   2.956  1.00 20.00     0.007 C 
HETATM    8  C7  UNL     1     -32.198   7.282   2.401  1.00 20.00     0.006 C 
ENDBRANCH   6   7
BRANCH   6   9
HETATM    9  C9  UNL     1     -34.648   5.729   2.783  1.00 20.00     0.173 C 
BRANCH   9  10
HETATM   10  O10 UNL     1     -35.827   5.456   3.509  1.00 20.00    -0.400 OA
HETATM   11  H28 UNL     1     -36.575   5.545   2.892  1.00 20.00     0.209 HD
ENDBRANCH   9  10
ENDBRANCH   6   9
TORSDOF 3
