REMARK  2 active torsions:
REMARK  status: ('A' for Active; 'I' for Inactive)
REMARK    1  A    between atoms: C2_2  and  C6_6 
REMARK    2  A    between atoms: C3_3  and  O7_7 
ROOT
HETATM    1  C1  UNL     1     -34.830   5.750   6.450  1.00 20.00     0.045 A 
HETATM    2  C2  UNL     1     -33.707   5.732   5.445  1.00 20.00     0.022 A 
HETATM    3  C3  UNL     1     -34.657   4.562   5.537  1.00 20.00     0.058 A 
HETATM    4  C4  UNL     1     -34.184   3.261   6.092  1.00 20.00     0.046 C 
ENDROOT
BRANCH   3   5
HETATM    5  O7  UNL     1     -35.638   4.425   4.495  1.00 20.00    -0.390 OA
HETATM    6  H19 UNL     1     -36.489   4.341   4.944  1.00 20.00     0.210 HD
ENDBRANCH   3   5
BRANCH   2   7
HETATM    7  C6  UNL     1     -33.729   6.665   4.283  1.00 20.00     0.003 C 
HETATM    8  C5  UNL     1     -32.893   6.183   3.125  1.00 20.00     0.005 C 
ENDBRANCH   2   7
TORSDOF 2
