REMARK  3 active torsions:
REMARK  status: ('A' for Active; 'I' for Inactive)
REMARK    1  A    between atoms: C1_1  and  C6_6 
REMARK    2  A    between atoms: C2_2  and  C7_7 
REMARK    3  A    between atoms: C3_3  and  C7_7 
ROOT
HETATM    1  C1  UNL     1     -32.710   6.950   2.998  1.00 20.00    -0.026 C 
HETATM    2  C2  UNL     1     -33.799   6.836   3.775  1.00 20.00    -0.020 C 
ENDROOT
BRANCH   2   3
HETATM    3  C7  UNL     1     -34.419   5.528   4.156  1.00 20.00     0.140 C 
BRANCH   3   4
HETATM    4  C3  UNL     1     -34.408   5.430   5.677  1.00 20.00     0.176 C 
HETATM    5  O8  UNL     1     -34.947   4.390   6.152  1.00 20.00    -0.648 OA
HETATM    6  O9  UNL     1     -33.874   6.406   6.275  1.00 20.00    -0.648 OA
ENDBRANCH   3   4
ENDBRANCH   2   3
BRANCH   1   7
HETATM    7  C6  UNL     1     -32.073   8.215   2.591  1.00 20.00     0.008 A 
HETATM    8  C4  UNL     1     -31.880   8.475   1.131  1.00 20.00     0.009 A 
HETATM    9  C5  UNL     1     -32.912   9.243   1.902  1.00 20.00     0.009 A 
ENDBRANCH   1   7
TORSDOF 3
