REMARK  3 active torsions:
REMARK  status: ('A' for Active; 'I' for Inactive)
REMARK    1  A    between atoms: C4_4  and  C5_5 
REMARK    2  A    between atoms: C5_5  and  C6_6 
REMARK    3  A    between atoms: C6_6  and  N8_8 
ROOT
HETATM    1  C1  UNL     1     -32.116   8.317   2.268  1.00 20.00     0.177 C 
HETATM    2  N7  UNL     1     -32.397   8.995   1.369  1.00 20.00    -0.172 NA
HETATM    3  N8  UNL     1     -31.806   7.495   3.318  1.00 20.00    -0.329 N 
HETATM    4  H18 UNL     1     -31.415   7.953   4.173  1.00 20.00     0.171 HD
ENDROOT
BRANCH   3   5
HETATM    5  C6  UNL     1     -32.386   6.201   3.552  1.00 20.00     0.132 C 
BRANCH   5   6
HETATM    6  C5  UNL     1     -33.652   6.277   4.397  1.00 20.00     0.025 C 
BRANCH   6   7
HETATM    7  C4  UNL     1     -34.261   4.909   4.668  1.00 20.00    -0.013 A 
HETATM    8  C2  UNL     1     -33.844   4.121   5.879  1.00 20.00     0.005 A 
HETATM    9  C3  UNL     1     -35.221   4.721   5.811  1.00 20.00     0.005 A 
ENDBRANCH   6   7
ENDBRANCH   5   6
ENDBRANCH   3   5
TORSDOF 3
