REMARK  1 active torsions:
REMARK  status: ('A' for Active; 'I' for Inactive)
REMARK    1  A    between atoms: C1_1  and  C7_7 
ROOT
HETATM    1  C2  UNL     1     -35.415   4.234   3.919  1.00 20.00     0.002 C 
HETATM    2  C3  UNL     1     -35.082   5.337   2.921  1.00 20.00     0.010 C 
HETATM    3  C4  UNL     1     -35.580   4.796   5.331  1.00 20.00     0.009 C 
HETATM    4  C5  UNL     1     -32.506   5.708   2.851  1.00 20.00     0.026 A 
HETATM    5  C6  UNL     1     -33.979   6.684   4.766  1.00 20.00     0.019 C 
HETATM    6  C7  UNL     1     -33.161   6.938   2.280  1.00 20.00     0.096 A 
HETATM    7  C8  UNL     1     -33.867   6.124   3.359  1.00 20.00    -0.025 A 
HETATM    8  C9  UNL     1     -34.353   5.605   5.812  1.00 20.00    -0.047 C 
HETATM    9  C10 UNL     1     -34.709   6.303   7.139  1.00 20.00     0.015 C 
HETATM   10  C11 UNL     1     -33.158   4.669   6.078  1.00 20.00     0.015 C 
ENDROOT
BRANCH   6  11
HETATM   11  C1  UNL     1     -32.589   8.227   2.618  1.00 20.00     0.177 C 
HETATM   12  O12 UNL     1     -31.353   8.343   2.392  1.00 20.00    -0.648 OA
HETATM   13  O13 UNL     1     -33.408   9.061   3.096  1.00 20.00    -0.648 OA
ENDBRANCH   6  11
TORSDOF 1
