REMARK  0 active torsions:
REMARK  status: ('A' for Active; 'I' for Inactive)
ROOT
HETATM    1  C1  UNL     1     -34.522   3.978   4.320  1.00 20.00     0.290 C 
HETATM    2  C2  UNL     1     -34.547   4.887   6.486  1.00 20.00     0.344 C 
HETATM    3  C3  UNL     1     -34.655   5.451   3.900  1.00 20.00     0.029 C 
HETATM    4  C4  UNL     1     -36.086   5.807   3.481  1.00 20.00     0.028 C 
HETATM    5  C5  UNL     1     -33.664   5.812   2.796  1.00 20.00     0.028 C 
HETATM    6  N6  UNL     1     -35.124   3.838   5.649  1.00 20.00     0.093 N 
HETATM    7  S7  UNL     1     -34.249   6.341   5.443  1.00 20.00    -0.128 SA
HETATM    8  H18 UNL     1     -36.129   3.997   5.573  1.00 20.00     0.316 HD
ENDROOT
TORSDOF 0
