REMARK  4 active torsions:
REMARK  status: ('A' for Active; 'I' for Inactive)
REMARK    1  A    between atoms: C2_2  and  C8_8 
REMARK    2  A    between atoms: C2_2  and  C9_9 
REMARK    3  A    between atoms: C3_3  and  C8_8 
REMARK    4  A    between atoms: C3_3  and  C10_10 
ROOT
HETATM    1  C3  UNL     1     -34.199   5.180   4.415  1.00 20.00     0.138 C 
HETATM    2  O11 UNL     1     -34.366   4.083   3.876  1.00 20.00    -0.297 OA
ENDROOT
BRANCH   1   3
HETATM    3  C8  UNL     1     -34.094   6.454   3.579  1.00 20.00     0.112 C 
BRANCH   3   4
HETATM    4  C2  UNL     1     -32.665   6.728   3.184  1.00 20.00    -0.083 C 
HETATM    5  C1  UNL     1     -31.779   5.728   3.051  1.00 20.00     0.014 C 
BRANCH   4   6
HETATM    6  C9  UNL     1     -32.262   8.166   2.950  1.00 20.00     0.029 C 
HETATM    7  C4  UNL     1     -32.447   8.604   1.504  1.00 20.00     0.010 C 
ENDBRANCH   4   6
ENDBRANCH   3   4
ENDBRANCH   1   3
BRANCH   1   8
HETATM    8  C10 UNL     1     -34.111   5.313   5.950  1.00 20.00     0.010 C 
HETATM    9  C5  UNL     1     -33.927   6.792   6.316  1.00 20.00     0.022 C 
HETATM   10  C6  UNL     1     -35.377   4.750   6.609  1.00 20.00     0.022 C 
HETATM   11  C7  UNL     1     -32.898   4.520   6.467  1.00 20.00     0.022 C 
ENDBRANCH   1   8
TORSDOF 4
