REMARK  3 active torsions:
REMARK  status: ('A' for Active; 'I' for Inactive)
REMARK    1  A    between atoms: C1_1  and  C5_5 
REMARK    2  A    between atoms: C3_3  and  C5_5 
REMARK    3  A    between atoms: C4_4  and  C5_5 
ROOT
HETATM    1  C5  UNL     1     -34.494   6.206   4.585  1.00 20.00     0.085 C 
ENDROOT
BRANCH   1   2
HETATM    2  C1  UNL     1     -34.636   6.021   6.097  1.00 20.00     0.224 C 
HETATM    3  O6  UNL     1     -35.110   4.998   6.585  1.00 20.00    -0.279 OA
HETATM    4 CL7  UNL     1     -34.059   7.394   6.999  1.00 20.00    -0.043 Cl
ENDBRANCH   1   2
BRANCH   1   5
HETATM    5  C3  UNL     1     -33.015   6.434   4.228  1.00 20.00     0.010 C 
HETATM    6  C2  UNL     1     -32.791   6.618   2.733  1.00 20.00     0.006 C 
ENDBRANCH   1   5
BRANCH   1   7
HETATM    7  C4  UNL     1     -35.024   4.964   3.859  1.00 20.00     0.128 C 
HETATM    8 CL8  UNL     1     -34.126   3.499   4.332  1.00 20.00    -0.130 Cl
ENDBRANCH   1   7
TORSDOF 3
