REMARK  5 active torsions:
REMARK  status: ('A' for Active; 'I' for Inactive)
REMARK    1  A    between atoms: C4_4  and  C7_7 
REMARK    2  A    between atoms: C5_5  and  C9_9 
REMARK    3  A    between atoms: C6_6  and  C9_9 
REMARK    4  A    between atoms: C7_7  and  C9_9 
REMARK    5  A    between atoms: C8_8  and  C9_9 
ROOT
HETATM    1  C9  UNL     1     -33.885   6.330   3.541  1.00 20.00    -0.029 C 
ENDROOT
BRANCH   1   2
HETATM    2  C5  UNL     1     -35.129   5.418   3.279  1.00 20.00     0.006 C 
HETATM    3  C2  UNL     1     -35.504   4.450   4.395  1.00 20.00     0.006 C 
ENDBRANCH   1   2
BRANCH   1   4
HETATM    4  C6  UNL     1     -32.602   5.471   3.780  1.00 20.00     0.006 C 
HETATM    5  C3  UNL     1     -32.185   4.549   2.640  1.00 20.00     0.006 C 
ENDBRANCH   1   4
BRANCH   1   6
HETATM    6  C7  UNL     1     -33.727   7.238   2.275  1.00 20.00     0.010 C 
BRANCH   6   7
HETATM    7  C4  UNL     1     -32.559   8.231   2.295  1.00 20.00    -0.004 C 
HETATM    8  C1  UNL     1     -32.563   9.107   1.049  1.00 20.00     0.005 C 
ENDBRANCH   6   7
ENDBRANCH   1   6
BRANCH   1   9
HETATM    9  C8  UNL     1     -34.078   7.186   4.828  1.00 20.00     0.124 C 
HETATM   10 CL10 UNL     1     -33.729   6.325   6.349  1.00 20.00    -0.130 Cl
ENDBRANCH   1   9
TORSDOF 5
