REMARK  2 active torsions:
REMARK  status: ('A' for Active; 'I' for Inactive)
REMARK    1  A    between atoms: C1_1  and  C2_2 
REMARK    2  A    between atoms: C1_1  and  C3_3 
ROOT
HETATM    1  C1  UNL     1     -33.647   5.741   5.005  1.00 20.00     0.299 C 
HETATM    2  F4  UNL     1     -33.473   6.712   5.947  1.00 20.00    -0.238 F 
ENDROOT
BRANCH   1   3
HETATM    3  C2  UNL     1     -33.476   6.377   3.644  1.00 20.00     0.392 C 
HETATM    4  F5  UNL     1     -32.217   6.860   3.508  1.00 20.00    -0.211 F 
HETATM    5  F6  UNL     1     -33.640   5.433   2.683  1.00 20.00    -0.211 F 
ENDBRANCH   1   3
BRANCH   1   6
HETATM    6  C3  UNL     1     -35.021   5.140   5.204  1.00 20.00     0.392 C 
HETATM    7  F7  UNL     1     -35.101   4.552   6.422  1.00 20.00    -0.211 F 
HETATM    8  F8  UNL     1     -35.223   4.166   4.283  1.00 20.00    -0.211 F 
ENDBRANCH   1   6
TORSDOF 2
