REMARK  0 active torsions:
REMARK  status: ('A' for Active; 'I' for Inactive)
ROOT
HETATM    1  C1  UNL     1     -33.939   5.309   5.677  1.00 20.00    -0.021 C 
HETATM    2  C2  UNL     1     -34.873   4.477   5.185  1.00 20.00    -0.025 C 
HETATM    3  C3  UNL     1     -33.373   6.084   3.421  1.00 20.00    -0.076 C 
HETATM    4  C4  UNL     1     -32.234   6.473   2.843  1.00 20.00    -0.027 C 
HETATM    5  C5  UNL     1     -34.415   5.145   2.824  1.00 20.00     0.043 C 
HETATM    6  C6  UNL     1     -35.395   6.602   4.433  1.00 20.00     0.022 C 
HETATM    7  C7  UNL     1     -33.902   6.522   4.775  1.00 20.00     0.037 C 
HETATM    8  C8  UNL     1     -35.468   5.144   3.960  1.00 20.00     0.013 C 
HETATM    9  C9  UNL     1     -31.247   7.397   3.477  1.00 20.00     0.036 C 
ENDROOT
TORSDOF 0
