REMARK  3 active torsions:
REMARK  status: ('A' for Active; 'I' for Inactive)
REMARK    1  A    between atoms: C2_2  and  C6_6 
REMARK    2  A    between atoms: C6_6  and  C7_7 
REMARK    3  A    between atoms: C7_7  and  C8_8 
ROOT
HETATM    1  C6  UNL     1     -33.909   6.119   4.120  1.00 20.00     0.027 C 
ENDROOT
BRANCH   1   2
HETATM    2  C2  UNL     1     -34.732   4.869   4.007  1.00 20.00    -0.031 C 
HETATM    3  C1  UNL     1     -35.017   4.067   5.044  1.00 20.00    -0.035 C 
HETATM    4  C3  UNL     1     -34.551   4.317   6.440  1.00 20.00     0.035 C 
ENDBRANCH   1   2
BRANCH   1   5
HETATM    5  C7  UNL     1     -33.220   6.504   2.805  1.00 20.00     0.007 C 
BRANCH   5   6
HETATM    6  C8  UNL     1     -32.308   7.746   2.874  1.00 20.00    -0.022 C 
HETATM    7  C4  UNL     1     -31.189   7.508   3.892  1.00 20.00     0.009 C 
HETATM    8  C5  UNL     1     -31.701   8.099   1.515  1.00 20.00     0.009 C 
ENDBRANCH   5   6
ENDBRANCH   1   5
TORSDOF 3
