REMARK  1 active torsions:
REMARK  status: ('A' for Active; 'I' for Inactive)
REMARK       I    between atoms: C1_1  and  N8_8 
REMARK    1  A    between atoms: C5_5  and  N8_8 
ROOT
HETATM    1  C2  UNL     1     -32.151   7.164   4.311  1.00 20.00     0.036 C 
HETATM    2  C3  UNL     1     -31.680   7.872   3.050  1.00 20.00     0.076 C 
HETATM    3  C4  UNL     1     -33.569   5.989   2.712  1.00 20.00     0.099 C 
HETATM    4  C5  UNL     1     -33.586   6.728   4.043  1.00 20.00     0.096 C 
HETATM    5  S10 UNL     1     -32.407   6.930   1.679  1.00 20.00    -0.167 SA
ENDROOT
BRANCH   4   6
HETATM    6  N8  UNL     1     -34.106   5.910   5.105  1.00 20.00    -0.351 N 
HETATM    7  C1  UNL     1     -35.070   4.915   4.875  1.00 20.00     0.215 C 
HETATM    8  C6  UNL     1     -35.055   3.713   5.785  1.00 20.00     0.117 C 
HETATM    9  O9  UNL     1     -35.914   4.979   3.977  1.00 20.00    -0.274 OA
HETATM   10  C7  UNL     1     -33.568   6.178   6.445  1.00 20.00     0.153 C 
ENDBRANCH   4   6
TORSDOF 1
