REMARK  3 active torsions:
REMARK  status: ('A' for Active; 'I' for Inactive)
REMARK    1  A    between atoms: C1_1  and  C8_8 
REMARK       I    between atoms: C1_1  and  N10_10 
REMARK    2  A    between atoms: C4_4  and  C9_9 
REMARK    3  A    between atoms: C9_9  and  N10_10 
ROOT
HETATM    1  C1  UNL     1     -33.611   5.902   4.225  1.00 20.00     0.219 C 
HETATM    2  C7  UNL     1     -31.661   7.379   4.755  1.00 20.00     0.152 C 
HETATM    3  N10 UNL     1     -32.527   6.683   3.812  1.00 20.00    -0.356 N 
HETATM    4  O11 UNL     1     -34.356   5.305   3.442  1.00 20.00    -0.273 OA
ENDROOT
BRANCH   3   5
HETATM    5  C9  UNL     1     -32.180   6.859   2.403  1.00 20.00     0.130 C 
BRANCH   5   6
HETATM    6  C4  UNL     1     -32.879   8.040   1.821  1.00 20.00     0.008 A 
HETATM    7  C2  UNL     1     -32.354   9.430   2.069  1.00 20.00     0.011 A 
HETATM    8  C3  UNL     1     -32.244   8.817   0.697  1.00 20.00    -0.013 A 
HETATM    9  C5  UNL     1     -33.081   9.332  -0.422  1.00 20.00     0.010 C 
ENDBRANCH   5   6
ENDBRANCH   3   5
BRANCH   1  10
HETATM   10  C8  UNL     1     -33.845   5.817   5.726  1.00 20.00     0.098 C 
HETATM   11  C6  UNL     1     -35.050   4.963   6.086  1.00 20.00     0.014 C 
ENDBRANCH   1  10
TORSDOF 3
