REMARK  1 active torsions:
REMARK  status: ('A' for Active; 'I' for Inactive)
REMARK    1  A    between atoms: C10_10  and  C11_11 
ROOT
HETATM    1  C1  UNL     1     -34.781   2.483   5.087  1.00 20.00     0.088 C 
HETATM    2  C2  UNL     1     -34.575   4.783   5.774  1.00 20.00    -0.070 C 
HETATM    3  C3  UNL     1     -34.368   3.479   6.007  1.00 20.00     0.096 C 
HETATM    4  C4  UNL     1     -34.145   5.856   6.738  1.00 20.00     0.035 C 
HETATM    5  C5  UNL     1     -35.239   5.285   4.517  1.00 20.00     0.039 C 
HETATM    6  C6  UNL     1     -33.276   6.902   6.039  1.00 20.00     0.005 C 
HETATM    7  C7  UNL     1     -33.942   7.447   4.772  1.00 20.00     0.005 C 
HETATM    8  C10 UNL     1     -34.378   6.339   3.797  1.00 20.00    -0.007 C 
HETATM    9  N12 UNL     1     -35.116   1.663   4.339  1.00 20.00    -0.192 NA
ENDROOT
BRANCH   8  10
HETATM   10  C11 UNL     1     -33.175   5.699   3.095  1.00 20.00    -0.010 A 
HETATM   11  C8  UNL     1     -33.337   5.127   1.724  1.00 20.00     0.005 A 
HETATM   12  C9  UNL     1     -32.548   6.390   1.928  1.00 20.00     0.005 A 
ENDBRANCH   8  10
TORSDOF 1
