REMARK  1 active torsions:
REMARK  status: ('A' for Active; 'I' for Inactive)
REMARK    1  A    between atoms: C8_8  and  C9_9 
ROOT
HETATM    1  C1  UNL     1     -33.090   8.268  -0.163  1.00 20.00     0.085 C 
HETATM    2  C2  UNL     1     -31.128   7.397   3.022  1.00 20.00     0.003 C 
HETATM    3  C3  UNL     1     -32.177   6.483   3.645  1.00 20.00     0.005 C 
HETATM    4  C6  UNL     1     -31.413   7.657   1.543  1.00 20.00     0.041 C 
HETATM    5  C7  UNL     1     -33.885   7.285   1.959  1.00 20.00     0.046 C 
HETATM    6  C9  UNL     1     -33.600   7.024   3.450  1.00 20.00    -0.008 C 
HETATM    7  C10 UNL     1     -32.834   8.184   1.285  1.00 20.00     0.125 C 
HETATM    8  N11 UNL     1     -33.292   8.334  -1.304  1.00 20.00    -0.195 NA
HETATM    9 CL12 UNL     1     -32.983   9.866   1.905  1.00 20.00    -0.103 Cl
ENDROOT
BRANCH   6  10
HETATM   10  C8  UNL     1     -34.617   6.074   4.029  1.00 20.00    -0.010 A 
HETATM   11  C4  UNL     1     -34.648   4.636   3.589  1.00 20.00     0.005 A 
HETATM   12  C5  UNL     1     -34.186   4.988   4.975  1.00 20.00     0.005 A 
ENDBRANCH   6  10
TORSDOF 1
