REMARK  1 active torsions:
REMARK  status: ('A' for Active; 'I' for Inactive)
REMARK    1  A    between atoms: C9_9  and  C10_10 
ROOT
HETATM    1  C1  UNL     1     -32.225   8.505   2.154  1.00 20.00     0.064 C 
HETATM    2  C2  UNL     1     -32.269   7.846   5.216  1.00 20.00     0.002 C 
HETATM    3  C3  UNL     1     -31.219   7.471   4.170  1.00 20.00     0.019 C 
HETATM    4  C4  UNL     1     -33.404   6.828   5.266  1.00 20.00     0.005 C 
HETATM    5  C7  UNL     1     -32.993   6.248   2.838  1.00 20.00     0.024 C 
HETATM    6  C8  UNL     1     -31.818   7.233   2.779  1.00 20.00     0.093 C 
HETATM    7  C10 UNL     1     -34.051   6.628   3.889  1.00 20.00    -0.009 C 
HETATM    8  N11 UNL     1     -32.546   9.506   1.661  1.00 20.00    -0.197 NA
ENDROOT
BRANCH   7   9
HETATM    9  C9  UNL     1     -35.138   5.585   3.955  1.00 20.00    -0.010 A 
HETATM   10  C5  UNL     1     -34.837   4.210   4.483  1.00 20.00     0.005 A 
HETATM   11  C6  UNL     1     -35.691   5.153   5.284  1.00 20.00     0.005 A 
ENDBRANCH   7   9
TORSDOF 1
