REMARK  1 active torsions:
REMARK  status: ('A' for Active; 'I' for Inactive)
REMARK    1  A    between atoms: C8_8  and  C9_9 
ROOT
HETATM    1  C1  UNL     1     -35.310   5.399   3.302  1.00 20.00     0.004 C 
HETATM    2  C2  UNL     1     -34.194   6.246   2.688  1.00 20.00     0.005 C 
HETATM    3  C5  UNL     1     -34.757   4.367   4.282  1.00 20.00     0.040 C 
HETATM    4  C6  UNL     1     -32.781   5.906   4.761  1.00 20.00     0.045 C 
HETATM    5  C7  UNL     1     -33.731   4.417   6.674  1.00 20.00     0.207 A 
HETATM    6  C9  UNL     1     -33.349   6.937   3.773  1.00 20.00    -0.008 C 
HETATM    7  C10 UNL     1     -33.869   5.023   5.298  1.00 20.00     0.083 A 
HETATM    8  O11 UNL     1     -34.564   5.562   6.431  1.00 20.00    -0.375 OA
ENDROOT
BRANCH   6   9
HETATM    9  C8  UNL     1     -32.246   7.755   3.155  1.00 20.00    -0.010 A 
HETATM   10  C3  UNL     1     -31.269   7.115   2.208  1.00 20.00     0.005 A 
HETATM   11  C4  UNL     1     -32.285   8.096   1.691  1.00 20.00     0.005 A 
ENDBRANCH   6   9
TORSDOF 1
