REMARK  1 active torsions:
REMARK  status: ('A' for Active; 'I' for Inactive)
REMARK    1  A    between atoms: C8_8  and  C9_9 
ROOT
HETATM    1  C1  UNL     1     -35.619   5.513   3.132  1.00 20.00     0.004 C 
HETATM    2  C2  UNL     1     -35.384   6.980   3.511  1.00 20.00     0.005 C 
HETATM    3  C5  UNL     1     -34.811   4.514   3.959  1.00 20.00     0.040 C 
HETATM    4  C6  UNL     1     -33.738   6.378   5.352  1.00 20.00     0.045 C 
HETATM    5  C7  UNL     1     -35.277   4.615   6.517  1.00 20.00     0.207 A 
HETATM    6  C9  UNL     1     -34.000   7.257   4.113  1.00 20.00    -0.008 C 
HETATM    7  C10 UNL     1     -34.486   5.071   5.308  1.00 20.00     0.083 A 
HETATM    8  O11 UNL     1     -33.976   4.092   6.228  1.00 20.00    -0.375 OA
ENDROOT
BRANCH   6   9
HETATM    9  C8  UNL     1     -32.903   7.136   3.082  1.00 20.00    -0.010 A 
HETATM   10  C3  UNL     1     -32.563   8.302   2.197  1.00 20.00     0.005 A 
HETATM   11  C4  UNL     1     -31.604   7.869   3.270  1.00 20.00     0.005 A 
ENDBRANCH   6   9
TORSDOF 1
