REMARK  1 active torsions:
REMARK  status: ('A' for Active; 'I' for Inactive)
REMARK    1  A    between atoms: C1_1  and  C2_2 
ROOT
HETATM    1  C1  UNL     1     -34.229   5.095   3.634  1.00 20.00     0.401 C 
HETATM    2  F3  UNL     1     -33.253   5.798   3.010  1.00 20.00    -0.210 F 
HETATM    3  F4  UNL     1     -35.385   5.781   3.448  1.00 20.00    -0.210 F 
ENDROOT
BRANCH   1   4
HETATM    4  C2  UNL     1     -33.938   5.003   5.113  1.00 20.00     0.330 C 
HETATM    5  F5  UNL     1     -33.851   6.262   5.618  1.00 20.00    -0.227 F 
HETATM    6 CL6  UNL     1     -35.222   4.126   5.962  1.00 20.00    -0.084 Cl
ENDBRANCH   1   4
TORSDOF 1
