REMARK  2 active torsions:
REMARK  status: ('A' for Active; 'I' for Inactive)
REMARK    1  A    between atoms: C3_3  and  C6_6 
REMARK    2  A    between atoms: C3_3  and  O8_8 
ROOT
HETATM    1  C1  UNL     1     -32.397   8.360   2.200  1.00 20.00     0.013 C 
HETATM    2  C2  UNL     1     -32.692   7.280   2.634  1.00 20.00    -0.103 C 
HETATM    3  C4  UNL     1     -34.060   5.268   2.258  1.00 20.00     0.034 C 
HETATM    4  C6  UNL     1     -33.047   5.952   3.169  1.00 20.00     0.159 C 
ENDROOT
BRANCH   4   5
HETATM    5  C3  UNL     1     -33.607   6.063   4.577  1.00 20.00     0.273 C 
HETATM    6  O7  UNL     1     -33.781   7.111   5.185  1.00 20.00    -0.264 OA
BRANCH   5   7
HETATM    7  O8  UNL     1     -33.888   4.812   5.053  1.00 20.00    -0.326 OA
HETATM    8  C5  UNL     1     -34.431   4.763   6.377  1.00 20.00     0.213 C 
ENDBRANCH   5   7
ENDBRANCH   4   5
TORSDOF 2
