REMARK  1 active torsions:
REMARK  status: ('A' for Active; 'I' for Inactive)
REMARK    1  A    between atoms: C1_1  and  C2_2 
ROOT
HETATM    1  C1  UNL     1     -34.277   6.148   3.978  1.00 20.00     0.385 C 
HETATM    2  F3  UNL     1     -34.874   5.466   2.969  1.00 20.00    -0.212 F 
HETATM    3  F4  UNL     1     -32.945   5.905   3.882  1.00 20.00    -0.212 F 
ENDROOT
BRANCH   1   4
HETATM    4  C2  UNL     1     -34.790   5.676   5.324  1.00 20.00     0.242 C 
HETATM    5 CL5  UNL     1     -34.461   3.942   5.540  1.00 20.00    -0.102 Cl
HETATM    6 CL6  UNL     1     -34.034   6.601   6.646  1.00 20.00    -0.102 Cl
ENDBRANCH   1   4
TORSDOF 1
