REMARK  0 active torsions:
REMARK  status: ('A' for Active; 'I' for Inactive)
ROOT
HETATM    1  C1  UNL     1     -33.201   7.468   4.464  1.00 20.00     0.005 C 
HETATM    2  C2  UNL     1     -32.207   6.912   3.446  1.00 20.00     0.026 C 
HETATM    3  C3  UNL     1     -33.533   6.422   5.527  1.00 20.00     0.042 C 
HETATM    4  C4  UNL     1     -34.471   4.037   5.853  1.00 20.00     0.309 C 
HETATM    5  C5  UNL     1     -35.484   5.099   4.374  1.00 20.00     0.309 C 
HETATM    6  C6  UNL     1     -32.715   5.605   2.853  1.00 20.00     0.169 C 
HETATM    7  C7  UNL     1     -34.011   5.130   4.858  1.00 20.00     0.113 C 
HETATM    8  N8  UNL     1     -35.871   4.451   5.641  1.00 20.00     0.089 N 
HETATM    9  O9  UNL     1     -33.023   4.682   3.896  1.00 20.00    -0.377 OA
HETATM   10  H22 UNL     1     -36.503   3.661   5.507  1.00 20.00     0.316 HD
ENDROOT
TORSDOF 0
