REMARK  0 active torsions:
REMARK  status: ('A' for Active; 'I' for Inactive)
ROOT
HETATM    1  C1  UNL     1     -33.139   7.157   3.282  1.00 20.00     0.127 C 
HETATM    2  C2  UNL     1     -32.533   6.928   4.648  1.00 20.00     0.079 C 
HETATM    3  C3  UNL     1     -34.069   6.081   2.768  1.00 20.00     0.079 C 
HETATM    4  C4  UNL     1     -33.617   6.583   5.660  1.00 20.00     0.017 C 
HETATM    5  C5  UNL     1     -35.120   5.732   3.815  1.00 20.00     0.017 C 
HETATM    6  C6  UNL     1     -35.090   3.440   5.808  1.00 20.00     0.002 C 
HETATM    7  C7  UNL     1     -35.462   4.873   6.231  1.00 20.00     0.009 C 
HETATM    8  C8  UNL     1     -33.767   4.002   5.258  1.00 20.00     0.009 C 
HETATM    9  C9  UNL     1     -34.457   5.400   5.162  1.00 20.00    -0.040 C 
HETATM   10  O10 UNL     1     -32.813   8.116   2.583  1.00 20.00    -0.298 OA
ENDROOT
TORSDOF 0
