REMARK  1 active torsions:
REMARK  status: ('A' for Active; 'I' for Inactive)
REMARK    1  A    between atoms: C6_6  and  O8_8 
ROOT
HETATM    1  C1  UNL     1     -32.946   6.827   3.071  1.00 20.00     0.064 C 
HETATM    2  C2  UNL     1     -35.245   6.000   3.490  1.00 20.00     0.022 C 
HETATM    3  C3  UNL     1     -35.106   4.696   4.260  1.00 20.00     0.033 C 
HETATM    4  C4  UNL     1     -33.707   6.301   5.371  1.00 20.00     0.051 C 
HETATM    5  C5  UNL     1     -34.090   6.873   3.996  1.00 20.00     0.095 C 
HETATM    6  C6  UNL     1     -34.695   5.169   5.644  1.00 20.00     0.119 C 
HETATM    7  N7  UNL     1     -32.044   6.790   2.341  1.00 20.00    -0.197 NA
ENDROOT
BRANCH   6   8
HETATM    8  O8  UNL     1     -34.088   4.134   6.392  1.00 20.00    -0.396 OA
HETATM    9  H17 UNL     1     -33.856   4.512   7.255  1.00 20.00     0.210 HD
ENDBRANCH   6   8
TORSDOF 1
