REMARK  0 active torsions:
REMARK  status: ('A' for Active; 'I' for Inactive)
ROOT
HETATM    1  C1  UNL     1     -34.653   4.971   3.172  1.00 20.00     0.013 C 
HETATM    2  C2  UNL     1     -33.567   5.864   2.511  1.00 20.00     0.080 C 
HETATM    3  C3  UNL     1     -35.230   4.881   5.785  1.00 20.00     0.274 C 
HETATM    4  C4  UNL     1     -33.626   6.628   6.233  1.00 20.00     0.280 C 
HETATM    5  C5  UNL     1     -34.836   5.613   4.530  1.00 20.00     0.025 C 
HETATM    6  C6  UNL     1     -33.420   6.019   4.874  1.00 20.00     0.092 C 
HETATM    7  C7  UNL     1     -33.032   6.773   3.632  1.00 20.00     0.249 C 
HETATM    8  N8  UNL     1     -34.590   5.684   6.862  1.00 20.00     0.084 N 
HETATM    9  F9  UNL     1     -31.708   6.975   3.541  1.00 20.00    -0.206 F 
HETATM   10  F10 UNL     1     -33.645   7.977   3.582  1.00 20.00    -0.206 F 
HETATM   11  H21 UNL     1     -35.300   6.220   7.360  1.00 20.00     0.315 HD
ENDROOT
TORSDOF 0
