REMARK  3 active torsions:
REMARK  status: ('A' for Active; 'I' for Inactive)
REMARK    1  A    between atoms: C1_1  and  C3_3 
REMARK       I    between atoms: C3_3  and  N10_10 
REMARK    2  A    between atoms: C8_8  and  C9_9 
REMARK    3  A    between atoms: C8_8  and  N10_10 
ROOT
HETATM    1  C3  UNL     1     -32.498   6.794   3.275  1.00 20.00     0.240 C 
HETATM    2  N10 UNL     1     -33.061   6.809   4.544  1.00 20.00    -0.357 N 
HETATM    3  O11 UNL     1     -32.000   5.815   2.730  1.00 20.00    -0.269 OA
HETATM    4  H28 UNL     1     -33.426   7.684   4.918  1.00 20.00     0.162 HD
ENDROOT
BRANCH   2   5
HETATM    5  C8  UNL     1     -33.124   5.646   5.388  1.00 20.00     0.131 C 
BRANCH   5   6
HETATM    6  C9  UNL     1     -34.404   4.800   5.209  1.00 20.00    -0.035 C 
HETATM    7  C5  UNL     1     -34.055   3.365   4.782  1.00 20.00     0.016 C 
HETATM    8  C6  UNL     1     -35.225   4.761   6.509  1.00 20.00     0.016 C 
HETATM    9  C7  UNL     1     -35.262   5.449   4.107  1.00 20.00     0.016 C 
ENDBRANCH   5   6
ENDBRANCH   2   5
BRANCH   1  10
HETATM   10  C1  UNL     1     -32.560   8.130   2.620  1.00 20.00     0.070 C 
HETATM   11  C2  UNL     1     -32.063   8.303   1.388  1.00 20.00    -0.026 C 
HETATM   12  C4  UNL     1     -32.090   9.611   0.668  1.00 20.00     0.036 C 
ENDBRANCH   1  10
TORSDOF 3
