REMARK  2 active torsions:
REMARK  status: ('A' for Active; 'I' for Inactive)
REMARK    1  A    between atoms: C5_5  and  C6_6 
REMARK    2  A    between atoms: C6_6  and  C7_7 
ROOT
HETATM    1  C1  UNL     1     -32.569   8.815   2.182  1.00 20.00     0.012 C 
HETATM    2  C2  UNL     1     -32.338   7.822   2.815  1.00 20.00    -0.117 C 
HETATM    3  C5  UNL     1     -32.047   6.604   3.589  1.00 20.00     0.098 C 
ENDROOT
BRANCH   3   4
HETATM    4  C6  UNL     1     -33.287   5.693   3.732  1.00 20.00     0.011 C 
HETATM    5  C3  UNL     1     -33.749   5.180   2.359  1.00 20.00     0.012 C 
BRANCH   4   6
HETATM    6  C7  UNL     1     -34.411   6.404   4.532  1.00 20.00     0.082 C 
HETATM    7  C4  UNL     1     -33.947   6.924   5.889  1.00 20.00     0.027 C 
HETATM    8 CL8  UNL     1     -35.847   5.359   4.772  1.00 20.00    -0.125 Cl
ENDBRANCH   4   6
ENDBRANCH   3   4
TORSDOF 2
