REMARK  3 active torsions:
REMARK  status: ('A' for Active; 'I' for Inactive)
REMARK    1  A    between atoms: C2_2  and  C6_6 
REMARK    2  A    between atoms: C6_6  and  C7_7 
REMARK    3  A    between atoms: C7_7  and  C8_8 
ROOT
HETATM    1  C4  UNL     1     -33.861   5.868   2.559  1.00 20.00     0.011 C 
HETATM    2  C7  UNL     1     -33.513   6.846   3.693  1.00 20.00    -0.001 C 
ENDROOT
BRANCH   2   3
HETATM    3  C6  UNL     1     -32.228   7.653   3.380  1.00 20.00     0.038 C 
BRANCH   3   4
HETATM    4  C2  UNL     1     -32.267   8.421   2.076  1.00 20.00    -0.093 C 
HETATM    5  C1  UNL     1     -31.350   8.221   1.116  1.00 20.00     0.014 C 
HETATM    6  C3  UNL     1     -33.401   9.387   1.884  1.00 20.00     0.042 C 
ENDBRANCH   3   4
ENDBRANCH   2   3
BRANCH   2   7
HETATM    7  C8  UNL     1     -33.481   6.134   5.066  1.00 20.00     0.057 C 
HETATM    8  C5  UNL     1     -33.171   7.061   6.235  1.00 20.00     0.022 C 
HETATM    9 BR9  UNL     1     -35.155   5.193   5.462  1.00 20.00    -0.091 Br
ENDBRANCH   2   7
TORSDOF 3
