REMARK  2 active torsions:
REMARK  status: ('A' for Active; 'I' for Inactive)
REMARK    1  A    between atoms: C2_2  and  C7_7 
REMARK    2  A    between atoms: C7_7  and  C8_8 
ROOT
HETATM    1  C7  UNL     1     -32.973   5.703   3.985  1.00 20.00     0.035 C 
ENDROOT
BRANCH   1   2
HETATM    2  C2  UNL     1     -32.080   6.899   4.173  1.00 20.00    -0.030 C 
HETATM    3  C1  UNL     1     -31.879   7.834   3.233  1.00 20.00    -0.035 C 
HETATM    4  C3  UNL     1     -32.514   7.805   1.883  1.00 20.00     0.035 C 
ENDBRANCH   1   2
BRANCH   1   5
HETATM    5  C8  UNL     1     -34.207   5.637   4.926  1.00 20.00    -0.048 C 
HETATM    6  C4  UNL     1     -34.233   4.321   5.724  1.00 20.00     0.014 C 
HETATM    7  C5  UNL     1     -35.516   5.769   4.127  1.00 20.00     0.014 C 
HETATM    8  C6  UNL     1     -34.119   6.810   5.921  1.00 20.00     0.014 C 
ENDBRANCH   1   5
TORSDOF 2
