REMARK  2 active torsions:
REMARK  status: ('A' for Active; 'I' for Inactive)
REMARK    1  A    between atoms: C2_2  and  C9_9 
REMARK    2  A    between atoms: C6_6  and  C9_9 
ROOT
HETATM    1  C3  UNL     1     -35.045   3.900   5.623  1.00 20.00     0.002 C 
HETATM    2  C4  UNL     1     -35.480   4.717   4.402  1.00 20.00     0.006 C 
HETATM    3  C5  UNL     1     -34.320   4.868   6.560  1.00 20.00     0.020 C 
HETATM    4  C6  UNL     1     -34.663   6.014   4.459  1.00 20.00     0.008 C 
HETATM    5  C7  UNL     1     -34.586   6.250   5.972  1.00 20.00     0.086 C 
HETATM    6 CL10 UNL     1     -33.391   7.449   6.490  1.00 20.00    -0.125 Cl
ENDROOT
BRANCH   4   7
HETATM    7  C9  UNL     1     -33.335   5.852   3.764  1.00 20.00     0.039 C 
BRANCH   7   8
HETATM    8  C2  UNL     1     -32.703   7.172   3.395  1.00 20.00    -0.093 C 
HETATM    9  C1  UNL     1     -31.515   7.546   3.896  1.00 20.00     0.014 C 
HETATM   10  C8  UNL     1     -33.477   8.066   2.469  1.00 20.00     0.042 C 
ENDBRANCH   7   8
ENDBRANCH   4   7
TORSDOF 2
