REMARK  2 active torsions:
REMARK  status: ('A' for Active; 'I' for Inactive)
REMARK    1  A    between atoms: C5_5  and  C6_6 
REMARK    2  A    between atoms: C6_6  and  C7_7 
ROOT
HETATM    1  C1  UNL     1     -32.215   8.198   2.042  1.00 20.00     0.012 C 
HETATM    2  C2  UNL     1     -32.455   7.490   2.981  1.00 20.00    -0.117 C 
HETATM    3  C5  UNL     1     -32.743   6.619   4.133  1.00 20.00     0.098 C 
ENDROOT
BRANCH   3   4
HETATM    4  C6  UNL     1     -34.260   6.422   4.352  1.00 20.00     0.011 C 
HETATM    5  C3  UNL     1     -34.836   5.430   3.330  1.00 20.00     0.012 C 
BRANCH   4   6
HETATM    6  C7  UNL     1     -34.552   6.035   5.825  1.00 20.00     0.082 C 
HETATM    7  C4  UNL     1     -33.987   4.672   6.216  1.00 20.00     0.027 C 
HETATM    8 CL8  UNL     1     -33.952   7.265   6.982  1.00 20.00    -0.125 Cl
ENDBRANCH   4   6
ENDBRANCH   3   4
TORSDOF 2
