REMARK  4 active torsions:
REMARK  status: ('A' for Active; 'I' for Inactive)
REMARK    1  A    between atoms: C3_3  and  C6_6 
REMARK    2  A    between atoms: C3_3  and  C7_7 
REMARK    3  A    between atoms: C5_5  and  C8_8 
REMARK    4  A    between atoms: C7_7  and  C8_8 
ROOT
HETATM    1  C1  UNL     1     -32.625   9.019   0.862  1.00 20.00     0.012 C 
HETATM    2  C2  UNL     1     -32.465   8.187   1.712  1.00 20.00    -0.117 C 
HETATM    3  C5  UNL     1     -32.264   7.169   2.754  1.00 20.00     0.093 C 
ENDROOT
BRANCH   3   4
HETATM    4  C8  UNL     1     -33.600   6.569   3.201  1.00 20.00     0.019 C 
BRANCH   4   5
HETATM    5  C7  UNL     1     -33.429   5.502   4.281  1.00 20.00     0.079 C 
BRANCH   5   6
HETATM    6  C3  UNL     1     -34.737   4.875   4.740  1.00 20.00     0.126 C 
HETATM    7  O9  UNL     1     -34.782   4.020   5.623  1.00 20.00    -0.298 OA
BRANCH   6   8
HETATM    8  C6  UNL     1     -35.982   5.350   4.010  1.00 20.00     0.074 C 
HETATM    9  C4  UNL     1     -37.253   4.708   4.537  1.00 20.00     0.013 C 
ENDBRANCH   6   8
ENDBRANCH   5   6
ENDBRANCH   4   5
ENDBRANCH   3   4
TORSDOF 4
