REMARK  2 active torsions:
REMARK  status: ('A' for Active; 'I' for Inactive)
REMARK    1  A    between atoms: C5_5  and  N8_8 
REMARK    2  A    between atoms: C6_6  and  N8_8 
ROOT
HETATM    1  N8  UNL     1     -33.765   6.699   3.766  1.00 20.00     0.097 N 
HETATM    2  H22 UNL     1     -34.328   7.112   3.027  1.00 20.00     0.317 HD
ENDROOT
BRANCH   1   3
HETATM    3  C5  UNL     1     -32.349   6.857   3.421  1.00 20.00     0.225 A 
HETATM    4  C1  UNL     1     -31.883   6.668   2.001  1.00 20.00     0.042 A 
HETATM    5  C4  UNL     1     -31.837   8.034   2.628  1.00 20.00     0.016 A 
HETATM    6  C7  UNL     1     -32.736   9.116   2.134  1.00 20.00     0.012 C 
ENDBRANCH   1   3
BRANCH   1   7
HETATM    7  C6  UNL     1     -34.103   5.293   3.910  1.00 20.00     0.268 C 
HETATM    8  C2  UNL     1     -35.585   5.179   4.266  1.00 20.00     0.205 C 
HETATM    9  O9  UNL     1     -35.275   5.017   5.673  1.00 20.00    -0.387 OA
HETATM   10  C3  UNL     1     -33.865   4.878   5.362  1.00 20.00     0.205 C 
ENDBRANCH   1   7
TORSDOF 2
