REMARK  0 active torsions:
REMARK  status: ('A' for Active; 'I' for Inactive)
ROOT
HETATM    1  C1  UNL     1     -32.785   7.428   6.437  1.00 20.00     0.002 A 
HETATM    2  C2  UNL     1     -33.827   6.500   6.497  1.00 20.00     0.009 A 
HETATM    3  C3  UNL     1     -32.234   7.807   5.204  1.00 20.00     0.019 A 
HETATM    4  C4  UNL     1     -34.305   5.971   5.308  1.00 20.00    -0.032 A 
HETATM    5  C5  UNL     1     -33.758   6.356   4.077  1.00 20.00    -0.033 A 
HETATM    6  C6  UNL     1     -32.717   7.266   4.010  1.00 20.00     0.017 A 
HETATM    7  C7  UNL     1     -34.415   5.625   2.948  1.00 20.00     0.042 C 
HETATM    8  C8  UNL     1     -35.710   5.144   3.625  1.00 20.00     0.030 C 
HETATM    9  C9  UNL     1     -35.386   4.951   5.117  1.00 20.00     0.116 C 
HETATM   10 CL10 UNL     1     -34.755   3.322   5.439  1.00 20.00    -0.120 Cl
HETATM   11 BR11 UNL     1     -31.933   7.780   2.371  1.00 20.00    -0.051 Br
ENDROOT
TORSDOF 0
