REMARK  3 active torsions:
REMARK  status: ('A' for Active; 'I' for Inactive)
REMARK    1  A    between atoms: C4_4  and  C9_9 
REMARK    2  A    between atoms: C5_5  and  C10_10 
REMARK    3  A    between atoms: C9_9  and  C11_11 
ROOT
HETATM    1  C1  UNL     1     -31.729   6.936   3.894  1.00 20.00     0.006 C 
HETATM    2  C2  UNL     1     -32.420   7.482   5.141  1.00 20.00     0.021 C 
HETATM    3  C3  UNL     1     -33.775   5.560   3.358  1.00 20.00     0.010 C 
HETATM    4  C4  UNL     1     -32.718   6.522   2.798  1.00 20.00    -0.014 C 
HETATM    5  C5  UNL     1     -34.491   6.092   4.615  1.00 20.00     0.004 C 
HETATM    6  C6  UNL     1     -33.461   6.502   5.687  1.00 20.00     0.086 C 
HETATM    7 CL12 UNL     1     -34.261   7.251   7.106  1.00 20.00    -0.125 Cl
ENDROOT
BRANCH   4   8
HETATM    8  C9  UNL     1     -33.357   7.736   2.118  1.00 20.00     0.004 C 
BRANCH   8   9
HETATM    9  C11 UNL     1     -32.298   8.642   1.500  1.00 20.00    -0.004 C 
HETATM   10  C8  UNL     1     -31.468   7.893   0.470  1.00 20.00     0.005 C 
ENDBRANCH   8   9
ENDBRANCH   4   8
BRANCH   5  11
HETATM   11  C10 UNL     1     -35.470   5.028   5.123  1.00 20.00     0.001 C 
HETATM   12  C7  UNL     1     -34.756   3.793   5.556  1.00 20.00     0.005 C 
ENDBRANCH   5  11
TORSDOF 3
