REMARK  2 active torsions:
REMARK  status: ('A' for Active; 'I' for Inactive)
REMARK    1  A    between atoms: C7_7  and  C9_9 
REMARK    2  A    between atoms: C8_8  and  C9_9 
ROOT
HETATM    1  C1  UNL     1     -32.405   9.630   1.223  1.00 20.00     0.012 C 
HETATM    2  C2  UNL     1     -32.470   8.578   1.797  1.00 20.00    -0.117 C 
HETATM    3  C8  UNL     1     -32.546   7.287   2.495  1.00 20.00     0.093 C 
ENDROOT
BRANCH   3   4
HETATM    4  C9  UNL     1     -33.206   7.453   3.856  1.00 20.00     0.024 C 
BRANCH   4   5
HETATM    5  C7  UNL     1     -33.298   6.129   4.586  1.00 20.00     0.056 C 
HETATM    6  C3  UNL     1     -34.427   5.253   4.084  1.00 20.00     0.131 C 
HETATM    7  C4  UNL     1     -35.205   4.629   5.216  1.00 20.00     0.079 C 
HETATM    8  O10 UNL     1     -34.687   5.068   2.902  1.00 20.00    -0.298 OA
HETATM    9  C5  UNL     1     -34.329   4.957   6.419  1.00 20.00     0.008 C 
HETATM   10  C6  UNL     1     -33.673   6.284   6.061  1.00 20.00     0.013 C 
ENDBRANCH   4   5
ENDBRANCH   3   4
TORSDOF 2
