REMARK  0 active torsions:
REMARK  status: ('A' for Active; 'I' for Inactive)
ROOT
HETATM    1  C1  UNL     1     -33.434   6.978   3.650  1.00 20.00     0.101 C 
HETATM    2  C2  UNL     1     -35.025   5.345   6.728  1.00 20.00     0.005 C 
HETATM    3  C3  UNL     1     -34.997   3.934   6.153  1.00 20.00     0.030 C 
HETATM    4  C4  UNL     1     -34.151   6.280   5.894  1.00 20.00     0.057 C 
HETATM    5  C5  UNL     1     -35.331   3.933   4.665  1.00 20.00     0.272 C 
HETATM    6  C6  UNL     1     -34.476   6.222   4.385  1.00 20.00     0.240 C 
HETATM    7  C7  UNL     1     -35.830   6.888   4.076  1.00 20.00     0.066 C 
HETATM    8  N8  UNL     1     -32.618   7.570   3.076  1.00 20.00    -0.195 NA
HETATM    9  N9  UNL     1     -34.455   4.828   3.903  1.00 20.00     0.106 N 
HETATM   10  H21 UNL     1     -33.501   4.466   3.907  1.00 20.00     0.318 HD
ENDROOT
TORSDOF 0
