REMARK  6 active torsions:
REMARK  status: ('A' for Active; 'I' for Inactive)
REMARK    1  A    between atoms: C4_4  and  C6_6 
REMARK    2  A    between atoms: C5_5  and  C7_7 
REMARK    3  A    between atoms: C6_6  and  C8_8 
REMARK    4  A    between atoms: C7_7  and  C9_9 
REMARK    5  A    between atoms: C8_8  and  C9_9 
REMARK    6  A    between atoms: C9_9  and  O10_10 
ROOT
HETATM    1  C1  UNL     1     -32.369   8.564   0.427  1.00 20.00     0.012 C 
HETATM    2  C2  UNL     1     -32.155   8.305   1.579  1.00 20.00    -0.117 C 
HETATM    3  C4  UNL     1     -31.893   7.993   2.991  1.00 20.00     0.093 C 
ENDROOT
BRANCH   3   4
HETATM    4  C6  UNL     1     -31.771   6.488   3.240  1.00 20.00     0.014 C 
BRANCH   4   5
HETATM    5  C8  UNL     1     -33.039   5.714   2.850  1.00 20.00     0.032 C 
BRANCH   5   6
HETATM    6  C9  UNL     1     -34.258   6.151   3.674  1.00 20.00     0.118 C 
BRANCH   6   7
HETATM    7  C7  UNL     1     -34.109   5.879   5.177  1.00 20.00     0.031 C 
BRANCH   7   8
HETATM    8  C5  UNL     1     -33.837   4.413   5.512  1.00 20.00    -0.002 C 
HETATM    9  C3  UNL     1     -34.983   3.520   5.058  1.00 20.00     0.005 C 
ENDBRANCH   7   8
ENDBRANCH   6   7
BRANCH   6  10
HETATM   10  O10 UNL     1     -35.414   5.448   3.215  1.00 20.00    -0.396 OA
HETATM   11  H26 UNL     1     -35.488   5.634   2.267  1.00 20.00     0.210 HD
ENDBRANCH   6  10
ENDBRANCH   5   6
ENDBRANCH   4   5
ENDBRANCH   3   4
TORSDOF 6
