REMARK  4 active torsions:
REMARK  status: ('A' for Active; 'I' for Inactive)
REMARK    1  A    between atoms: C3_3  and  C7_7 
REMARK    2  A    between atoms: C3_3  and  C9_9 
REMARK    3  A    between atoms: C6_6  and  C8_8 
REMARK    4  A    between atoms: C7_7  and  C8_8 
ROOT
HETATM    1  C1  UNL     1     -32.977   9.691   1.332  1.00 20.00     0.012 C 
HETATM    2  C2  UNL     1     -32.368   8.778   1.818  1.00 20.00    -0.117 C 
HETATM    3  C6  UNL     1     -31.618   7.663   2.413  1.00 20.00     0.093 C 
ENDROOT
BRANCH   3   4
HETATM    4  C8  UNL     1     -32.552   6.521   2.810  1.00 20.00     0.019 C 
BRANCH   4   5
HETATM    5  C7  UNL     1     -33.616   6.990   3.801  1.00 20.00     0.079 C 
BRANCH   5   6
HETATM    6  C3  UNL     1     -34.589   5.883   4.180  1.00 20.00     0.130 C 
HETATM    7  O10 UNL     1     -35.628   5.681   3.551  1.00 20.00    -0.298 OA
BRANCH   6   8
HETATM    8  C9  UNL     1     -34.220   5.050   5.407  1.00 20.00     0.047 C 
HETATM    9  C4  UNL     1     -34.712   3.613   5.259  1.00 20.00     0.017 C 
HETATM   10  C5  UNL     1     -34.796   5.698   6.660  1.00 20.00     0.017 C 
ENDBRANCH   6   8
ENDBRANCH   5   6
ENDBRANCH   4   5
ENDBRANCH   3   4
TORSDOF 4
