REMARK  2 active torsions:
REMARK  status: ('A' for Active; 'I' for Inactive)
REMARK    1  A    between atoms: C5_5  and  N8_8 
REMARK    2  A    between atoms: C6_6  and  N8_8 
ROOT
HETATM    1  N8  UNL     1     -33.221   6.237   3.033  1.00 20.00     0.097 N 
HETATM    2  H22 UNL     1     -33.564   6.152   2.080  1.00 20.00     0.317 HD
ENDROOT
BRANCH   1   3
HETATM    3  C5  UNL     1     -32.387   7.439   3.127  1.00 20.00     0.225 A 
HETATM    4  C1  UNL     1     -32.799   8.698   2.409  1.00 20.00     0.042 A 
HETATM    5  C4  UNL     1     -31.585   7.939   1.950  1.00 20.00     0.016 A 
HETATM    6  C7  UNL     1     -31.594   7.242   0.632  1.00 20.00     0.012 C 
ENDBRANCH   1   3
BRANCH   1   7
HETATM    7  C6  UNL     1     -34.345   6.321   3.951  1.00 20.00     0.268 C 
HETATM    8  C2  UNL     1     -33.861   5.950   5.352  1.00 20.00     0.205 C 
HETATM    9  O9  UNL     1     -34.367   4.598   5.211  1.00 20.00    -0.387 OA
HETATM   10  C3  UNL     1     -35.051   4.966   3.985  1.00 20.00     0.205 C 
ENDBRANCH   1   7
TORSDOF 2
