REMARK  2 active torsions:
REMARK  status: ('A' for Active; 'I' for Inactive)
REMARK    1  A    between atoms: C1_1  and  C6_6 
REMARK    2  A    between atoms: C1_1  and  C8_8 
ROOT
HETATM    1  C2  UNL     1     -34.411   5.789   6.325  1.00 20.00     0.027 C 
HETATM    2  C3  UNL     1     -33.362   6.374   5.385  1.00 20.00     0.016 C 
HETATM    3  C4  UNL     1     -35.172   4.658   5.647  1.00 20.00     0.167 C 
HETATM    4  C5  UNL     1     -34.778   5.540   3.484  1.00 20.00     0.179 C 
HETATM    5  C6  UNL     1     -33.988   6.723   4.035  1.00 20.00     0.079 C 
HETATM    6  O10 UNL     1     -35.759   5.105   4.425  1.00 20.00    -0.390 OA
ENDROOT
BRANCH   5   7
HETATM    7  C1  UNL     1     -32.919   7.129   3.071  1.00 20.00     0.132 C 
HETATM    8  O9  UNL     1     -31.788   6.648   3.139  1.00 20.00    -0.298 OA
BRANCH   7   9
HETATM    9  C8  UNL     1     -33.316   8.155   2.026  1.00 20.00     0.074 C 
HETATM   10  C7  UNL     1     -32.166   8.531   1.109  1.00 20.00     0.013 C 
ENDBRANCH   7   9
ENDBRANCH   5   7
TORSDOF 2
