REMARK  4 active torsions:
REMARK  status: ('A' for Active; 'I' for Inactive)
REMARK    1  A    between atoms: C3_3  and  C9_9 
REMARK    2  A    between atoms: C6_6  and  C8_8 
REMARK    3  A    between atoms: C7_7  and  C9_9 
REMARK    4  A    between atoms: C8_8  and  C9_9 
ROOT
HETATM    1  C1  UNL     1     -32.679   9.619   2.012  1.00 20.00     0.012 C 
HETATM    2  C2  UNL     1     -32.364   8.462   2.057  1.00 20.00    -0.117 C 
HETATM    3  C6  UNL     1     -31.975   7.045   2.112  1.00 20.00     0.093 C 
ENDROOT
BRANCH   3   4
HETATM    4  C8  UNL     1     -33.150   6.169   2.559  1.00 20.00     0.024 C 
BRANCH   4   5
HETATM    5  C9  UNL     1     -33.717   6.603   3.923  1.00 20.00     0.055 C 
BRANCH   5   6
HETATM    6  C3  UNL     1     -34.926   5.762   4.337  1.00 20.00     0.127 C 
HETATM    7  C4  UNL     1     -36.101   5.745   3.391  1.00 20.00     0.091 C 
HETATM    8  O10 UNL     1     -34.946   5.101   5.376  1.00 20.00    -0.298 OA
ENDBRANCH   5   6
BRANCH   5   9
HETATM    9  C7  UNL     1     -32.650   6.581   5.031  1.00 20.00     0.007 C 
HETATM   10  C5  UNL     1     -33.135   7.040   6.400  1.00 20.00     0.006 C 
ENDBRANCH   5   9
ENDBRANCH   4   5
ENDBRANCH   3   4
TORSDOF 4
