REMARK  3 active torsions:
REMARK  status: ('A' for Active; 'I' for Inactive)
REMARK    1  A    between atoms: C1_1  and  C5_5 
REMARK    2  A    between atoms: C1_1  and  C8_8 
REMARK    3  A    between atoms: C8_8  and  C9_9 
ROOT
HETATM    1  C1  UNL     1     -32.397   7.057   2.992  1.00 20.00     0.133 C 
HETATM    2  O10 UNL     1     -31.350   6.943   3.627  1.00 20.00    -0.297 OA
ENDROOT
BRANCH   1   3
HETATM    3  C5  UNL     1     -33.718   6.857   3.650  1.00 20.00     0.081 C 
HETATM    4  C2  UNL     1     -34.496   5.673   3.112  1.00 20.00     0.040 C 
HETATM    5  C3  UNL     1     -35.469   5.403   4.238  1.00 20.00     0.168 C 
HETATM    6  O11 UNL     1     -34.783   5.726   5.454  1.00 20.00    -0.390 OA
HETATM    7  C4  UNL     1     -33.625   6.512   5.129  1.00 20.00     0.179 C 
ENDBRANCH   1   3
BRANCH   1   8
HETATM    8  C8  UNL     1     -32.431   7.362   1.502  1.00 20.00     0.082 C 
BRANCH   8   9
HETATM    9  C9  UNL     1     -31.830   8.726   1.134  1.00 20.00    -0.016 C 
HETATM   10  C6  UNL     1     -32.581   9.871   1.820  1.00 20.00     0.010 C 
HETATM   11  C7  UNL     1     -31.866   8.922  -0.383  1.00 20.00     0.010 C 
ENDBRANCH   8   9
ENDBRANCH   1   8
TORSDOF 3
