REMARK  2 active torsions:
REMARK  status: ('A' for Active; 'I' for Inactive)
REMARK    1  A    between atoms: C7_7  and  C9_9 
REMARK    2  A    between atoms: C8_8  and  C9_9 
ROOT
HETATM    1  C1  UNL     1     -32.527   9.230   1.267  1.00 20.00     0.012 C 
HETATM    2  C2  UNL     1     -32.456   8.391   2.123  1.00 20.00    -0.117 C 
HETATM    3  C8  UNL     1     -32.364   7.366   3.171  1.00 20.00     0.093 C 
ENDROOT
BRANCH   3   4
HETATM    4  C9  UNL     1     -33.702   6.666   3.353  1.00 20.00     0.024 C 
BRANCH   4   5
HETATM    5  C7  UNL     1     -33.621   5.600   4.427  1.00 20.00     0.056 C 
HETATM    6  C3  UNL     1     -33.758   6.160   5.829  1.00 20.00     0.131 C 
HETATM    7  C4  UNL     1     -34.688   5.331   6.679  1.00 20.00     0.079 C 
HETATM    8  O10 UNL     1     -33.188   7.166   6.231  1.00 20.00    -0.298 OA
HETATM    9  C5  UNL     1     -34.896   4.097   5.811  1.00 20.00     0.008 C 
HETATM   10  C6  UNL     1     -34.792   4.616   4.383  1.00 20.00     0.013 C 
ENDBRANCH   4   5
ENDBRANCH   3   4
TORSDOF 2
