REMARK  4 active torsions:
REMARK  status: ('A' for Active; 'I' for Inactive)
REMARK    1  A    between atoms: C4_4  and  C8_8 
REMARK    2  A    between atoms: C8_8  and  C11_11 
REMARK    3  A    between atoms: C9_9  and  C10_10 
REMARK    4  A    between atoms: C10_10  and  C11_11 
ROOT
HETATM    1  C1  UNL     1     -33.918   4.781   6.722  1.00 20.00     0.002 C 
HETATM    2  C2  UNL     1     -33.085   5.699   5.823  1.00 20.00     0.006 C 
HETATM    3  C3  UNL     1     -35.104   4.314   5.879  1.00 20.00     0.020 C 
HETATM    4  C4  UNL     1     -33.703   5.581   4.427  1.00 20.00     0.004 C 
HETATM    5  C5  UNL     1     -35.176   5.323   4.741  1.00 20.00     0.086 C 
HETATM    6 CL12 UNL     1     -36.080   4.692   3.354  1.00 20.00    -0.125 Cl
ENDROOT
BRANCH   4   7
HETATM    7  C8  UNL     1     -33.457   6.813   3.569  1.00 20.00     0.010 C 
BRANCH   7   8
HETATM    8  C11 UNL     1     -32.024   6.904   3.013  1.00 20.00    -0.018 C 
HETATM    9  C7  UNL     1     -31.065   7.342   4.126  1.00 20.00     0.010 C 
BRANCH   8  10
HETATM   10  C10 UNL     1     -31.878   7.796   1.763  1.00 20.00     0.004 C 
BRANCH  10  11
HETATM   11  C9  UNL     1     -32.536   9.175   1.864  1.00 20.00    -0.004 C 
HETATM   12  C6  UNL     1     -32.271  10.004   0.615  1.00 20.00     0.005 C 
ENDBRANCH  10  11
ENDBRANCH   8  10
ENDBRANCH   7   8
ENDBRANCH   4   7
TORSDOF 4
