REMARK  4 active torsions:
REMARK  status: ('A' for Active; 'I' for Inactive)
REMARK    1  A    between atoms: C3_3  and  C9_9 
REMARK    2  A    between atoms: C6_6  and  C8_8 
REMARK    3  A    between atoms: C7_7  and  C9_9 
REMARK    4  A    between atoms: C8_8  and  C9_9 
ROOT
HETATM    1  C1  UNL     1     -32.846  10.046   1.798  1.00 20.00     0.012 C 
HETATM    2  C2  UNL     1     -32.412   8.928   1.862  1.00 20.00    -0.117 C 
HETATM    3  C6  UNL     1     -31.881   7.560   1.937  1.00 20.00     0.093 C 
ENDROOT
BRANCH   3   4
HETATM    4  C8  UNL     1     -32.050   6.981   3.346  1.00 20.00     0.024 C 
BRANCH   4   5
HETATM    5  C9  UNL     1     -33.530   6.847   3.749  1.00 20.00     0.055 C 
BRANCH   5   6
HETATM    6  C3  UNL     1     -33.700   6.690   5.261  1.00 20.00     0.127 C 
HETATM    7  C4  UNL     1     -33.133   7.786   6.128  1.00 20.00     0.091 C 
HETATM    8  O10 UNL     1     -34.293   5.735   5.763  1.00 20.00    -0.298 OA
ENDBRANCH   5   6
BRANCH   5   9
HETATM    9  C7  UNL     1     -34.238   5.695   3.013  1.00 20.00     0.007 C 
HETATM   10  C5  UNL     1     -35.718   5.538   3.339  1.00 20.00     0.006 C 
ENDBRANCH   5   9
ENDBRANCH   4   5
ENDBRANCH   3   4
TORSDOF 4
