REMARK  3 active torsions:
REMARK  status: ('A' for Active; 'I' for Inactive)
REMARK    1  A    between atoms: C6_6  and  C9_9 
REMARK    2  A    between atoms: C7_7  and  O10_10 
REMARK    3  A    between atoms: C8_8  and  C9_9 
ROOT
HETATM    1  C1  UNL     1     -31.298   7.580   3.482  1.00 20.00     0.012 C 
HETATM    2  C2  UNL     1     -31.873   6.637   3.012  1.00 20.00    -0.117 C 
HETATM    3  C8  UNL     1     -32.572   5.481   2.436  1.00 20.00     0.093 C 
ENDROOT
BRANCH   3   4
HETATM    4  C9  UNL     1     -33.992   5.400   2.971  1.00 20.00     0.019 C 
BRANCH   4   5
HETATM    5  C6  UNL     1     -33.996   5.252   4.485  1.00 20.00     0.015 C 
HETATM    6  C4  UNL     1     -33.829   6.580   5.219  1.00 20.00     0.007 C 
HETATM    7  C3  UNL     1     -34.384   6.325   6.621  1.00 20.00     0.003 C 
HETATM    8  C5  UNL     1     -35.218   5.048   6.527  1.00 20.00     0.032 C 
HETATM    9  C7  UNL     1     -35.323   4.739   5.038  1.00 20.00     0.122 C 
BRANCH   9  10
HETATM   10  O10 UNL     1     -35.473   3.352   4.805  1.00 20.00    -0.395 OA
HETATM   11  H24 UNL     1     -36.288   3.072   5.255  1.00 20.00     0.210 HD
ENDBRANCH   9  10
ENDBRANCH   4   5
ENDBRANCH   3   4
TORSDOF 3
