REMARK  2 active torsions:
REMARK  status: ('A' for Active; 'I' for Inactive)
REMARK    1  A    between atoms: C1_1  and  C7_7 
REMARK    2  A    between atoms: C7_7  and  S10_10 
ROOT
HETATM    1  C1  UNL     1     -33.597   6.723   4.496  1.00 20.00     0.061 A 
HETATM    2  C2  UNL     1     -33.996   6.543   5.804  1.00 20.00     0.006 A 
HETATM    3  C3  UNL     1     -34.915   4.995   4.203  1.00 20.00     0.072 A 
HETATM    4  C4  UNL     1     -33.633   7.295   7.021  1.00 20.00     0.058 C 
HETATM    5  C5  UNL     1     -35.658   3.897   3.547  1.00 20.00     0.078 C 
HETATM    6  N8  UNL     1     -34.123   5.836   3.577  1.00 20.00    -0.249 NA
HETATM    7  S9  UNL     1     -35.075   5.213   5.898  1.00 20.00    -0.078 SA
ENDROOT
BRANCH   1   8
HETATM    8  C7  UNL     1     -32.645   7.790   3.993  1.00 20.00     0.093 C 
HETATM    9  C6  UNL     1     -31.268   7.707   4.650  1.00 20.00     0.028 C 
BRANCH   8  10
HETATM   10  S10 UNL     1     -32.484   7.719   2.173  1.00 20.00    -0.172 SA
HETATM   11  H21 UNL     1     -31.621   8.738   2.080  1.00 20.00     0.102 HD
ENDBRANCH   8  10
ENDBRANCH   1   8
TORSDOF 2
