REMARK  2 active torsions:
REMARK  status: ('A' for Active; 'I' for Inactive)
REMARK    1  A    between atoms: C4_4  and  C5_5 
REMARK    2  A    between atoms: C5_5  and  C7_7 
ROOT
HETATM    1  C1  UNL     1     -33.907   5.247   5.797  1.00 20.00     0.033 A 
HETATM    2  C2  UNL     1     -34.986   4.665   6.424  1.00 20.00     0.088 A 
HETATM    3  C3  UNL     1     -35.273   4.403   4.218  1.00 20.00     0.102 A 
HETATM    4  C4  UNL     1     -34.088   5.082   4.401  1.00 20.00     0.027 A 
HETATM    5  N10 UNL     1     -35.810   4.155   5.455  1.00 20.00    -0.374 N 
HETATM    6  H22 UNL     1     -36.680   3.671   5.625  1.00 20.00     0.164 HD
ENDROOT
BRANCH   4   7
HETATM    7  C5  UNL     1     -33.209   5.530   3.318  1.00 20.00     0.165 C 
HETATM    8  O11 UNL     1     -32.685   4.787   2.496  1.00 20.00    -0.292 OA
BRANCH   7   9
HETATM    9  C7  UNL     1     -32.952   6.971   3.218  1.00 20.00     0.065 A 
HETATM   10  C6  UNL     1     -31.556   7.489   3.457  1.00 20.00     0.018 A 
HETATM   11  C8  UNL     1     -32.127   7.492   2.067  1.00 20.00    -0.006 A 
HETATM   12  C9  UNL     1     -32.489   8.779   1.409  1.00 20.00     0.011 C 
ENDBRANCH   7   9
ENDBRANCH   4   7
TORSDOF 2
