REMARK  2 active torsions:
REMARK  status: ('A' for Active; 'I' for Inactive)
REMARK    1  A    between atoms: C4_4  and  C5_5 
REMARK    2  A    between atoms: C5_5  and  C6_6 
ROOT
HETATM    1  C1  UNL     1     -34.831   4.502   3.602  1.00 20.00     0.034 A 
HETATM    2  C2  UNL     1     -34.556   4.104   5.875  1.00 20.00     0.069 A 
HETATM    3  C3  UNL     1     -35.086   3.627   4.697  1.00 20.00     0.018 A 
HETATM    4  C4  UNL     1     -34.115   5.615   3.985  1.00 20.00    -0.015 A 
HETATM    5  S7  UNL     1     -33.753   5.602   5.659  1.00 20.00    -0.105 SA
HETATM    6 BR9  UNL     1     -36.042   2.017   4.506  1.00 20.00    -0.051 Br
ENDROOT
BRANCH   4   7
HETATM    7  C5  UNL     1     -33.657   6.747   3.151  1.00 20.00     0.061 C 
BRANCH   7   8
HETATM    8  C6  UNL     1     -32.178   6.685   2.743  1.00 20.00     0.119 C 
HETATM    9 CL8  UNL     1     -31.720   8.069   1.720  1.00 20.00    -0.130 Cl
ENDBRANCH   7   8
ENDBRANCH   4   7
TORSDOF 2
