REMARK  2 active torsions:
REMARK  status: ('A' for Active; 'I' for Inactive)
REMARK    1  A    between atoms: C1_1  and  C7_7 
REMARK    2  A    between atoms: C7_7  and  S10_10 
ROOT
HETATM    1  C1  UNL     1     -34.003   5.029   4.569  1.00 20.00     0.061 A 
HETATM    2  C2  UNL     1     -33.936   5.435   5.885  1.00 20.00     0.006 A 
HETATM    3  C3  UNL     1     -34.981   3.299   5.498  1.00 20.00     0.072 A 
HETATM    4  C4  UNL     1     -33.370   6.665   6.473  1.00 20.00     0.058 C 
HETATM    5  C5  UNL     1     -35.659   1.994   5.658  1.00 20.00     0.078 C 
HETATM    6  N8  UNL     1     -34.602   3.804   4.345  1.00 20.00    -0.249 NA
HETATM    7  S9  UNL     1     -34.650   4.244   6.892  1.00 20.00    -0.078 SA
ENDROOT
BRANCH   1   8
HETATM    8  C7  UNL     1     -33.482   5.797   3.371  1.00 20.00     0.093 C 
HETATM    9  C6  UNL     1     -34.132   7.171   3.220  1.00 20.00     0.028 C 
BRANCH   8  10
HETATM   10  S10 UNL     1     -33.695   4.838   1.829  1.00 20.00    -0.172 SA
HETATM   11  H21 UNL     1     -33.159   5.765   1.025  1.00 20.00     0.102 HD
ENDBRANCH   8  10
ENDBRANCH   1   8
TORSDOF 2
