REMARK  3 active torsions:
REMARK  status: ('A' for Active; 'I' for Inactive)
REMARK    1  A    between atoms: C4_4  and  C8_8 
REMARK    2  A    between atoms: C8_8  and  N11_11 
REMARK    3  A    between atoms: C9_9  and  N11_11 
ROOT
HETATM    1  C1  UNL     1     -34.122   6.075   4.986  1.00 20.00     0.095 C 
HETATM    2  C6  UNL     1     -33.673   5.309   2.686  1.00 20.00     0.059 C 
HETATM    3  C9  UNL     1     -33.738   6.499   3.634  1.00 20.00     0.324 C 
HETATM    4  N10 UNL     1     -34.429   5.741   6.054  1.00 20.00    -0.195 NA
ENDROOT
BRANCH   3   5
HETATM    5  N11 UNL     1     -32.445   7.201   3.677  1.00 20.00     0.102 N 
HETATM    6  C7  UNL     1     -32.559   8.385   4.542  1.00 20.00     0.311 C 
BRANCH   5   7
HETATM    7  C8  UNL     1     -31.998   7.557   2.358  1.00 20.00     0.278 C 
BRANCH   7   8
HETATM    8  C4  UNL     1     -32.946   8.502   1.705  1.00 20.00     0.018 A 
HETATM    9  C2  UNL     1     -32.488   9.357   0.552  1.00 20.00     0.011 A 
HETATM   10  C3  UNL     1     -32.778   9.988   1.888  1.00 20.00    -0.012 A 
HETATM   11  C5  UNL     1     -33.974  10.860   2.061  1.00 20.00     0.010 C 
ENDBRANCH   7   8
ENDBRANCH   5   7
ENDBRANCH   3   5
TORSDOF 3
