REMARK  3 active torsions:
REMARK  status: ('A' for Active; 'I' for Inactive)
REMARK    1  A    between atoms: C5_5  and  C9_9 
REMARK    2  A    between atoms: C8_8  and  N10_10 
REMARK    3  A    between atoms: C9_9  and  N10_10 
ROOT
HETATM    1  C1  UNL     1     -31.921   8.787   0.394  1.00 20.00     0.013 C 
HETATM    2  C2  UNL     1     -31.863   8.131   1.398  1.00 20.00    -0.087 C 
HETATM    3  C8  UNL     1     -31.786   7.333   2.624  1.00 20.00     0.364 C 
ENDROOT
BRANCH   3   4
HETATM    4  N10 UNL     1     -33.040   6.595   2.843  1.00 20.00     0.095 N 
HETATM    5  C7  UNL     1     -33.055   5.391   1.997  1.00 20.00     0.310 C 
BRANCH   4   6
HETATM    6  C9  UNL     1     -33.218   6.264   4.230  1.00 20.00     0.278 C 
BRANCH   6   7
HETATM    7  C5  UNL     1     -34.653   6.024   4.547  1.00 20.00     0.018 A 
HETATM    8  C3  UNL     1     -35.297   4.705   4.207  1.00 20.00     0.011 A 
HETATM    9  C4  UNL     1     -35.096   5.090   5.649  1.00 20.00    -0.012 A 
HETATM   10  C6  UNL     1     -34.128   4.341   6.499  1.00 20.00     0.010 C 
ENDBRANCH   6   7
ENDBRANCH   4   6
ENDBRANCH   3   4
TORSDOF 3
