REMARK  4 active torsions:
REMARK  status: ('A' for Active; 'I' for Inactive)
REMARK    1  A    between atoms: C8_8  and  C11_11 
REMARK    2  A    between atoms: C9_9  and  C10_10 
REMARK    3  A    between atoms: C10_10  and  C11_11 
REMARK    4  A    between atoms: C11_11  and  O12_12 
ROOT
HETATM    1  C1  UNL     1     -31.904   9.143   0.402  1.00 20.00     0.012 C 
HETATM    2  C2  UNL     1     -31.792   8.448   1.375  1.00 20.00    -0.117 C 
HETATM    3  C9  UNL     1     -31.650   7.597   2.564  1.00 20.00     0.095 C 
ENDROOT
BRANCH   3   4
HETATM    4  C10 UNL     1     -32.995   7.326   3.248  1.00 20.00     0.044 C 
BRANCH   4   5
HETATM    5  C11 UNL     1     -32.883   6.449   4.501  1.00 20.00     0.123 C 
BRANCH   5   6
HETATM    6  C8  UNL     1     -34.120   6.607   5.392  1.00 20.00     0.018 C 
HETATM    7  C6  UNL     1     -34.044   5.692   6.629  1.00 20.00     0.034 C 
HETATM    8  C4  UNL     1     -34.479   4.279   6.367  1.00 20.00    -0.030 C 
HETATM    9  C3  UNL     1     -35.153   3.910   5.269  1.00 20.00    -0.031 C 
HETATM   10  C5  UNL     1     -35.568   4.873   4.198  1.00 20.00     0.027 C 
HETATM   11  C7  UNL     1     -35.416   6.340   4.612  1.00 20.00     0.011 C 
ENDBRANCH   5   6
BRANCH   5  12
HETATM   12  O12 UNL     1     -32.774   5.084   4.111  1.00 20.00    -0.395 OA
HETATM   13  H28 UNL     1     -31.985   5.018   3.551  1.00 20.00     0.210 HD
ENDBRANCH   5  12
ENDBRANCH   4   5
ENDBRANCH   3   4
TORSDOF 4
