REMARK  4 active torsions:
REMARK  status: ('A' for Active; 'I' for Inactive)
REMARK    1  A    between atoms: C6_6  and  C10_10 
REMARK    2  A    between atoms: C8_8  and  C9_9 
REMARK    3  A    between atoms: C9_9  and  C10_10 
REMARK    4  A    between atoms: C10_10  and  O11_11 
ROOT
HETATM    1  C1  UNL     1     -35.424   4.616   6.070  1.00 20.00    -0.031 C 
HETATM    2  C2  UNL     1     -34.582   5.472   6.663  1.00 20.00    -0.030 C 
HETATM    3  C3  UNL     1     -35.467   4.403   4.587  1.00 20.00     0.027 C 
HETATM    4  C4  UNL     1     -33.615   6.332   5.903  1.00 20.00     0.034 C 
HETATM    5  C5  UNL     1     -34.265   5.008   3.854  1.00 20.00     0.011 C 
HETATM    6  C6  UNL     1     -33.925   6.401   4.397  1.00 20.00     0.018 C 
ENDROOT
BRANCH   6   7
HETATM    7  C10 UNL     1     -32.756   7.020   3.633  1.00 20.00     0.122 C 
BRANCH   7   8
HETATM    8  C9  UNL     1     -33.192   7.513   2.251  1.00 20.00     0.032 C 
BRANCH   8   9
HETATM    9  C8  UNL     1     -32.022   8.099   1.457  1.00 20.00    -0.002 C 
HETATM   10  C7  UNL     1     -32.459   8.546   0.071  1.00 20.00     0.005 C 
ENDBRANCH   8   9
ENDBRANCH   7   8
BRANCH   7  11
HETATM   11  O11 UNL     1     -31.730   6.041   3.506  1.00 20.00    -0.395 OA
HETATM   12  H29 UNL     1     -31.470   5.794   4.407  1.00 20.00     0.210 HD
ENDBRANCH   7  11
ENDBRANCH   6   7
TORSDOF 4
