REMARK  4 active torsions:
REMARK  status: ('A' for Active; 'I' for Inactive)
REMARK    1  A    between atoms: C4_4  and  C8_8 
REMARK    2  A    between atoms: C5_5  and  C9_9 
REMARK    3  A    between atoms: C8_8  and  N10_10 
REMARK    4  A    between atoms: C9_9  and  N10_10 
ROOT
HETATM    1  C7  UNL     1     -34.414   5.290   2.181  1.00 20.00     0.310 C 
HETATM    2  N10 UNL     1     -33.464   6.330   2.606  1.00 20.00     0.087 N 
ENDROOT
BRANCH   2   3
HETATM    3  C8  UNL     1     -32.956   6.068   3.925  1.00 20.00     0.277 C 
BRANCH   3   4
HETATM    4  C4  UNL     1     -33.931   6.489   4.971  1.00 20.00     0.018 A 
HETATM    5  C1  UNL     1     -33.845   5.919   6.363  1.00 20.00     0.011 A 
HETATM    6  C3  UNL     1     -35.017   5.572   5.483  1.00 20.00    -0.012 A 
HETATM    7  C6  UNL     1     -35.194   4.182   4.979  1.00 20.00     0.010 C 
ENDBRANCH   3   4
ENDBRANCH   2   3
BRANCH   2   8
HETATM    8  C9  UNL     1     -32.375   6.433   1.622  1.00 20.00     0.305 C 
BRANCH   8   9
HETATM    9  C5  UNL     1     -31.673   7.743   1.731  1.00 20.00     0.173 A 
HETATM   10  C2  UNL     1     -32.436   9.017   1.966  1.00 20.00     0.201 A 
HETATM   11  O11 UNL     1     -31.949   8.656   0.664  1.00 20.00    -0.379 OA
ENDBRANCH   8   9
ENDBRANCH   2   8
TORSDOF 4
