REMARK  2 active torsions:
REMARK  status: ('A' for Active; 'I' for Inactive)
REMARK    1  A    between atoms: C6_6  and  C8_8 
REMARK    2  A    between atoms: C8_8  and  N9_9 
ROOT
HETATM    1  C1  UNL     1     -31.986   8.080   2.250  1.00 20.00     0.157 C 
HETATM    2  N9  UNL     1     -32.053   7.538   3.295  1.00 20.00    -0.275 NA
HETATM    3  S10 UNL     1     -31.890   8.825   0.846  1.00 20.00    -0.055 SA
ENDROOT
BRANCH   2   4
HETATM    4  C8  UNL     1     -32.568   6.178   3.258  1.00 20.00     0.159 C 
BRANCH   4   5
HETATM    5  C6  UNL     1     -33.838   6.124   4.109  1.00 20.00    -0.026 C 
HETATM    6  C4  UNL     1     -33.560   6.521   5.565  1.00 20.00     0.011 C 
HETATM    7  C2  UNL     1     -34.690   5.886   6.372  1.00 20.00     0.001 C 
HETATM    8  C3  UNL     1     -35.196   4.706   5.542  1.00 20.00     0.001 C 
HETATM    9  C5  UNL     1     -34.349   4.686   4.272  1.00 20.00     0.011 C 
HETATM   10  C7  UNL     1     -34.909   7.029   3.478  1.00 20.00     0.017 C 
ENDBRANCH   4   5
ENDBRANCH   2   4
TORSDOF 2
