REMARK  3 active torsions:
REMARK  status: ('A' for Active; 'I' for Inactive)
REMARK    1  A    between atoms: C4_4  and  C8_8 
REMARK    2  A    between atoms: C7_7  and  N10_10 
REMARK    3  A    between atoms: C8_8  and  N10_10 
ROOT
HETATM    1  C1  UNL     1     -32.359   8.791   1.436  1.00 20.00     0.089 C 
HETATM    2  C7  UNL     1     -32.214   7.462   2.029  1.00 20.00     0.394 C 
HETATM    3  N9  UNL     1     -32.470   9.845   0.964  1.00 20.00    -0.195 NA
ENDROOT
BRANCH   2   4
HETATM    4  N10 UNL     1     -33.259   7.222   3.037  1.00 20.00     0.097 N 
HETATM    5  C6  UNL     1     -32.884   7.880   4.298  1.00 20.00     0.311 C 
BRANCH   4   6
HETATM    6  C8  UNL     1     -33.489   5.816   3.228  1.00 20.00     0.278 C 
BRANCH   6   7
HETATM    7  C4  UNL     1     -34.588   5.577   4.204  1.00 20.00     0.018 A 
HETATM    8  C2  UNL     1     -35.003   4.171   4.549  1.00 20.00     0.011 A 
HETATM    9  C3  UNL     1     -34.280   5.013   5.567  1.00 20.00    -0.012 A 
HETATM   10  C5  UNL     1     -35.001   5.521   6.767  1.00 20.00     0.010 C 
ENDBRANCH   6   7
ENDBRANCH   4   6
ENDBRANCH   2   4
TORSDOF 3
