REMARK  3 active torsions:
REMARK  status: ('A' for Active; 'I' for Inactive)
REMARK    1  A    between atoms: C5_5  and  C6_6 
REMARK    2  A    between atoms: C5_5  and  C7_7 
REMARK    3  A    between atoms: C7_7  and  C8_8 
ROOT
HETATM    1  C1  UNL     1     -33.285   4.353   2.896  1.00 20.00     0.011 C 
HETATM    2  C7  UNL     1     -33.355   5.436   3.987  1.00 20.00    -0.010 C 
ENDROOT
BRANCH   2   3
HETATM    3  C5  UNL     1     -33.519   6.839   3.339  1.00 20.00     0.020 C 
BRANCH   3   4
HETATM    4  C6  UNL     1     -32.383   7.301   2.423  1.00 20.00     0.115 C 
HETATM    5 CL9  UNL     1     -32.710   8.887   1.691  1.00 20.00    -0.130 Cl
ENDBRANCH   3   4
ENDBRANCH   2   3
BRANCH   2   6
HETATM    6  C8  UNL     1     -34.447   5.129   5.087  1.00 20.00    -0.048 C 
HETATM    7  C2  UNL     1     -34.407   6.203   6.198  1.00 20.00     0.015 C 
HETATM    8  C3  UNL     1     -34.250   3.751   5.745  1.00 20.00     0.015 C 
HETATM    9  C4  UNL     1     -35.865   5.173   4.473  1.00 20.00     0.015 C 
ENDBRANCH   2   6
TORSDOF 3
