REMARK  3 active torsions:
REMARK  status: ('A' for Active; 'I' for Inactive)
REMARK    1  A    between atoms: C1_1  and  C6_6 
REMARK    2  A    between atoms: C6_6  and  C7_7 
REMARK    3  A    between atoms: C7_7  and  C8_8 
ROOT
HETATM    1  C2  UNL     1     -32.989   7.252   5.383  1.00 20.00     0.011 C 
HETATM    2  C7  UNL     1     -33.721   6.335   4.383  1.00 20.00    -0.003 C 
ENDROOT
BRANCH   2   3
HETATM    3  C6  UNL     1     -32.686   5.755   3.389  1.00 20.00     0.101 C 
BRANCH   3   4
HETATM    4  C1  UNL     1     -31.566   6.728   3.044  1.00 20.00     0.219 C 
HETATM    5  O9  UNL     1     -31.771   7.835   2.556  1.00 20.00    -0.280 OA
HETATM    6 CL10 UNL     1     -30.003   6.095   3.484  1.00 20.00    -0.044 Cl
ENDBRANCH   3   4
ENDBRANCH   2   3
BRANCH   2   7
HETATM    7  C8  UNL     1     -34.594   5.224   5.080  1.00 20.00    -0.048 C 
HETATM    8  C3  UNL     1     -35.853   4.914   4.240  1.00 20.00     0.015 C 
HETATM    9  C4  UNL     1     -35.084   5.718   6.460  1.00 20.00     0.015 C 
HETATM   10  C5  UNL     1     -33.817   3.910   5.285  1.00 20.00     0.015 C 
ENDBRANCH   2   7
TORSDOF 3
