REMARK  3 active torsions:
REMARK  status: ('A' for Active; 'I' for Inactive)
REMARK    1  A    between atoms: C4_4  and  C8_8 
REMARK    2  A    between atoms: C7_7  and  N10_10 
REMARK    3  A    between atoms: C8_8  and  N10_10 
ROOT
HETATM    1  C1  UNL     1     -31.898   8.310   1.839  1.00 20.00     0.089 C 
HETATM    2  C7  UNL     1     -31.746   7.691   3.155  1.00 20.00     0.394 C 
HETATM    3  N9  UNL     1     -32.015   8.804   0.795  1.00 20.00    -0.195 NA
ENDROOT
BRANCH   2   4
HETATM    4  N10 UNL     1     -32.936   6.898   3.501  1.00 20.00     0.097 N 
HETATM    5  C6  UNL     1     -32.871   5.594   2.824  1.00 20.00     0.311 C 
BRANCH   4   6
HETATM    6  C8  UNL     1     -33.066   6.744   4.924  1.00 20.00     0.278 C 
BRANCH   6   7
HETATM    7  C4  UNL     1     -34.304   5.992   5.274  1.00 20.00     0.018 A 
HETATM    8  C2  UNL     1     -34.635   5.707   6.715  1.00 20.00     0.011 A 
HETATM    9  C3  UNL     1     -34.209   4.585   5.804  1.00 20.00    -0.012 A 
HETATM   10  C5  UNL     1     -35.196   3.556   5.373  1.00 20.00     0.010 C 
ENDBRANCH   6   7
ENDBRANCH   4   6
ENDBRANCH   2   4
TORSDOF 3
