REMARK  3 active torsions:
REMARK  status: ('A' for Active; 'I' for Inactive)
REMARK    1  A    between atoms: C5_5  and  C9_9 
REMARK    2  A    between atoms: C8_8  and  N10_10 
REMARK    3  A    between atoms: C9_9  and  N10_10 
ROOT
HETATM    1  C1  UNL     1     -34.562   4.940   6.303  1.00 20.00     0.013 C 
HETATM    2  C2  UNL     1     -34.588   5.454   5.218  1.00 20.00    -0.087 C 
HETATM    3  C8  UNL     1     -34.626   6.080   3.894  1.00 20.00     0.364 C 
ENDROOT
BRANCH   3   4
HETATM    4  N10 UNL     1     -33.349   6.749   3.599  1.00 20.00     0.095 N 
HETATM    5  C7  UNL     1     -32.363   5.749   3.157  1.00 20.00     0.310 C 
BRANCH   4   6
HETATM    6  C9  UNL     1     -33.515   7.789   2.622  1.00 20.00     0.278 C 
BRANCH   6   7
HETATM    7  C5  UNL     1     -32.232   8.502   2.370  1.00 20.00     0.018 A 
HETATM    8  C3  UNL     1     -32.175   9.628   1.371  1.00 20.00     0.011 A 
HETATM    9  C4  UNL     1     -31.506   8.314   1.064  1.00 20.00    -0.012 A 
HETATM   10  C6  UNL     1     -30.020   8.219   1.041  1.00 20.00     0.010 C 
ENDBRANCH   6   7
ENDBRANCH   4   6
ENDBRANCH   3   4
TORSDOF 3
