REMARK  2 active torsions:
REMARK  status: ('A' for Active; 'I' for Inactive)
REMARK    1  A    between atoms: C6_6  and  C8_8 
REMARK    2  A    between atoms: C8_8  and  N9_9 
ROOT
HETATM    1  C1  UNL     1     -32.304   7.793   2.227  1.00 20.00     0.332 C 
HETATM    2  N9  UNL     1     -32.403   6.693   2.635  1.00 20.00    -0.247 NA
HETATM    3  O10 UNL     1     -32.205   8.890   1.815  1.00 20.00    -0.260 OA
ENDROOT
BRANCH   2   4
HETATM    4  C8  UNL     1     -32.482   6.586   4.085  1.00 20.00     0.162 C 
BRANCH   4   5
HETATM    5  C6  UNL     1     -33.805   5.906   4.444  1.00 20.00    -0.026 C 
HETATM    6  C4  UNL     1     -34.209   6.189   5.897  1.00 20.00     0.011 C 
HETATM    7  C2  UNL     1     -35.150   5.047   6.276  1.00 20.00     0.001 C 
HETATM    8  C3  UNL     1     -34.804   3.884   5.348  1.00 20.00     0.001 C 
HETATM    9  C5  UNL     1     -33.671   4.377   4.450  1.00 20.00     0.011 C 
HETATM   10  C7  UNL     1     -34.894   6.367   3.461  1.00 20.00     0.017 C 
ENDBRANCH   4   5
ENDBRANCH   2   4
TORSDOF 2
