REMARK  2 active torsions:
REMARK  status: ('A' for Active; 'I' for Inactive)
REMARK    1  A    between atoms: C3_3  and  C8_8 
REMARK    2  A    between atoms: C10_10  and  N11_11 
ROOT
HETATM    1  C1  UNL     1     -31.952   9.747   0.543  1.00 20.00     0.013 C 
HETATM    2  C2  UNL     1     -32.522   9.085   1.368  1.00 20.00    -0.087 C 
HETATM    3  C10 UNL     1     -33.222   8.281   2.372  1.00 20.00     0.364 C 
ENDROOT
BRANCH   3   4
HETATM    4  N11 UNL     1     -32.338   7.254   2.918  1.00 20.00     0.100 N 
HETATM    5  C6  UNL     1     -32.222   6.090   2.032  1.00 20.00     0.273 C 
HETATM    6  C4  UNL     1     -33.462   5.193   2.012  1.00 20.00     0.031 C 
HETATM    7  C5  UNL     1     -33.863   4.769   3.421  1.00 20.00     0.015 C 
HETATM    8  C8  UNL     1     -33.986   5.982   4.342  1.00 20.00     0.083 C 
HETATM    9  C7  UNL     1     -32.723   6.853   4.278  1.00 20.00     0.285 C 
BRANCH   8  10
HETATM   10  C3  UNL     1     -34.220   5.529   5.753  1.00 20.00     0.129 C 
HETATM   11  C9  UNL     1     -34.395   6.606   6.790  1.00 20.00     0.091 C 
HETATM   12  O12 UNL     1     -34.270   4.336   6.047  1.00 20.00    -0.298 OA
ENDBRANCH   8  10
ENDBRANCH   3   4
TORSDOF 2
