REMARK  4 active torsions:
REMARK  status: ('A' for Active; 'I' for Inactive)
REMARK    1  A    between atoms: C2_2  and  C5_5 
REMARK    2  A    between atoms: C5_5  and  C6_6 
REMARK    3  A    between atoms: C6_6  and  C8_8 
REMARK    4  A    between atoms: C7_7  and  C8_8 
ROOT
HETATM    1  C1  UNL     1     -32.656   8.890   2.049  1.00 20.00    -0.111 C 
HETATM    2  C2  UNL     1     -32.590   7.713   2.277  1.00 20.00    -0.107 C 
HETATM    3  C3  UNL     1     -32.738  10.323   1.774  1.00 20.00     0.112 C 
ENDROOT
BRANCH   2   4
HETATM    4  C5  UNL     1     -32.511   6.272   2.553  1.00 20.00     0.094 C 
BRANCH   4   5
HETATM    5  C6  UNL     1     -32.973   5.922   3.970  1.00 20.00     0.017 C 
BRANCH   5   6
HETATM    6  C8  UNL     1     -34.405   6.377   4.334  1.00 20.00    -0.004 C 
HETATM    7  C4  UNL     1     -35.417   5.672   3.421  1.00 20.00     0.011 C 
BRANCH   6   8
HETATM    8  C7  UNL     1     -34.770   6.200   5.816  1.00 20.00     0.119 C 
HETATM    9 CL9  UNL     1     -34.780   4.502   6.351  1.00 20.00    -0.130 Cl
ENDBRANCH   6   8
ENDBRANCH   5   6
ENDBRANCH   4   5
ENDBRANCH   2   4
TORSDOF 4
