REMARK  1 active torsions:
REMARK  status: ('A' for Active; 'I' for Inactive)
REMARK    1  A    between atoms: C6_6  and  C9_9 
ROOT
HETATM    1  C1  UNL     1     -34.525   4.800   5.242  1.00 20.00    -0.085 C 
HETATM    2  C2  UNL     1     -34.314   3.477   5.220  1.00 20.00     0.014 C 
HETATM    3  C3  UNL     1     -34.673   5.590   6.512  1.00 20.00     0.059 C 
HETATM    4  C4  UNL     1     -34.608   5.642   3.998  1.00 20.00     0.065 C 
HETATM    5  C5  UNL     1     -33.699   6.763   6.498  1.00 20.00     0.172 C 
HETATM    6  C6  UNL     1     -33.658   6.842   4.092  1.00 20.00     0.128 C 
HETATM    7  O10 UNL     1     -33.856   7.559   5.320  1.00 20.00    -0.385 OA
ENDROOT
BRANCH   6   8
HETATM    8  C9  UNL     1     -32.189   6.471   3.888  1.00 20.00     0.007 C 
HETATM    9  C7  UNL     1     -31.981   5.814   2.524  1.00 20.00     0.012 C 
HETATM   10  C8  UNL     1     -31.295   7.703   4.029  1.00 20.00     0.012 C 
ENDBRANCH   6   8
TORSDOF 1
