REMARK  0 active torsions:
REMARK  status: ('A' for Active; 'I' for Inactive)
ROOT
HETATM    1  C1  UNL     1     -33.896   6.407   5.810  1.00 20.00    -0.088 C 
HETATM    2  C2  UNL     1     -34.362   7.134   6.836  1.00 20.00     0.014 C 
HETATM    3  C3  UNL     1     -32.767   6.878   4.932  1.00 20.00     0.037 C 
HETATM    4  C4  UNL     1     -34.471   5.064   5.440  1.00 20.00     0.042 C 
HETATM    5  C5  UNL     1     -33.750   5.492   3.046  1.00 20.00     0.013 C 
HETATM    6  C6  UNL     1     -33.180   6.865   3.452  1.00 20.00    -0.014 C 
HETATM    7  C7  UNL     1     -34.908   5.008   3.956  1.00 20.00    -0.044 C 
HETATM    8  C8  UNL     1     -31.993   7.235   2.563  1.00 20.00     0.010 C 
HETATM    9  C9  UNL     1     -36.169   5.867   3.732  1.00 20.00     0.015 C 
HETATM   10  C10 UNL     1     -35.255   3.552   3.591  1.00 20.00     0.015 C 
ENDROOT
TORSDOF 0
