REMARK  3 active torsions:
REMARK  status: ('A' for Active; 'I' for Inactive)
REMARK    1  A    between atoms: C3_3  and  C5_5 
REMARK    2  A    between atoms: C5_5  and  C7_7 
REMARK    3  A    between atoms: C6_6  and  C7_7 
ROOT
HETATM    1  C5  UNL     1     -32.012   7.305   2.753  1.00 20.00     0.010 C 
ENDROOT
BRANCH   1   2
HETATM    2  C3  UNL     1     -32.392   7.973   1.464  1.00 20.00    -0.014 A 
HETATM    3  C1  UNL     1     -32.497   9.471   1.389  1.00 20.00     0.005 A 
HETATM    4  C2  UNL     1     -31.372   8.760   0.690  1.00 20.00     0.005 A 
ENDBRANCH   1   2
BRANCH   1   5
HETATM    5  C7  UNL     1     -33.226   6.967   3.640  1.00 20.00    -0.004 C 
HETATM    6  C4  UNL     1     -33.965   5.718   3.146  1.00 20.00     0.011 C 
BRANCH   5   7
HETATM    7  C6  UNL     1     -32.830   6.836   5.121  1.00 20.00     0.119 C 
HETATM    8 CL8  UNL     1     -34.218   6.626   6.216  1.00 20.00    -0.130 Cl
ENDBRANCH   5   7
ENDBRANCH   1   5
TORSDOF 3
