REMARK  2 active torsions:
REMARK  status: ('A' for Active; 'I' for Inactive)
REMARK    1  A    between atoms: C5_5  and  C7_7 
REMARK    2  A    between atoms: C6_6  and  C7_7 
ROOT
HETATM    1  C3  UNL     1     -32.837   4.269   3.694  1.00 20.00     0.016 C 
HETATM    2  C4  UNL     1     -34.988   5.511   3.494  1.00 20.00     0.016 C 
HETATM    3  C7  UNL     1     -33.711   5.360   4.355  1.00 20.00    -0.032 C 
ENDROOT
BRANCH   3   4
HETATM    4  C5  UNL     1     -32.902   6.686   4.282  1.00 20.00     0.123 C 
HETATM    5 CL8  UNL     1     -32.494   7.203   2.625  1.00 20.00    -0.130 Cl
ENDBRANCH   3   4
BRANCH   3   6
HETATM    6  C6  UNL     1     -34.099   4.975   5.832  1.00 20.00    -0.014 C 
HETATM    7  C1  UNL     1     -34.855   3.643   5.950  1.00 20.00     0.010 C 
HETATM    8  C2  UNL     1     -34.911   6.055   6.566  1.00 20.00     0.010 C 
ENDBRANCH   3   6
TORSDOF 2
