REMARK  3 active torsions:
REMARK  status: ('A' for Active; 'I' for Inactive)
REMARK    1  A    between atoms: C1_1  and  C5_5 
REMARK    2  A    between atoms: C1_1  and  C7_7 
REMARK    3  A    between atoms: C6_6  and  C7_7 
ROOT
HETATM    1  C3  UNL     1     -35.582   6.503   4.223  1.00 20.00     0.023 C 
HETATM    2  C4  UNL     1     -34.170   5.004   2.832  1.00 20.00     0.023 C 
HETATM    3  C7  UNL     1     -34.275   5.687   4.208  1.00 20.00     0.014 C 
ENDROOT
BRANCH   3   4
HETATM    4  C1  UNL     1     -33.069   6.636   4.404  1.00 20.00     0.148 C 
HETATM    5  O8  UNL     1     -32.965   7.326   5.422  1.00 20.00    -0.296 OA
BRANCH   4   6
HETATM    6  C5  UNL     1     -32.029   6.692   3.299  1.00 20.00     0.193 C 
HETATM    7 CL9  UNL     1     -32.465   7.927   2.104  1.00 20.00    -0.123 Cl
ENDBRANCH   4   6
ENDBRANCH   3   4
BRANCH   3   8
HETATM    8  C6  UNL     1     -34.299   4.601   5.312  1.00 20.00     0.012 C 
HETATM    9  C2  UNL     1     -34.409   5.129   6.737  1.00 20.00     0.006 C 
ENDBRANCH   3   8
TORSDOF 3
