REMARK  1 active torsions:
REMARK  status: ('A' for Active; 'I' for Inactive)
REMARK    1  A    between atoms: C6_6  and  N8_8 
ROOT
HETATM    1  C1  UNL     1     -32.292   6.767   3.019  1.00 20.00     0.158 C 
HETATM    2  N8  UNL     1     -32.399   5.693   3.476  1.00 20.00    -0.265 NA
HETATM    3  S9  UNL     1     -32.115   8.217   2.386  1.00 20.00    -0.055 SA
ENDROOT
BRANCH   2   4
HETATM    4  C6  UNL     1     -33.649   5.459   4.202  1.00 20.00     0.051 C 
HETATM    5  C4  UNL     1     -33.777   6.436   5.370  1.00 20.00     0.033 C 
HETATM    6  C2  UNL     1     -34.701   5.736   6.363  1.00 20.00     0.002 C 
HETATM    7  C3  UNL     1     -34.595   4.240   6.065  1.00 20.00     0.002 C 
HETATM    8  C5  UNL     1     -33.610   4.104   4.906  1.00 20.00     0.033 C 
HETATM    9  C7  UNL     1     -34.807   5.573   3.212  1.00 20.00     0.041 C 
ENDBRANCH   2   4
TORSDOF 1
