REMARK  4 active torsions:
REMARK  status: ('A' for Active; 'I' for Inactive)
REMARK    1  A    between atoms: C1_1  and  C12_12 
REMARK    2  A    between atoms: C6_6  and  C10_10 
REMARK    3  A    between atoms: C7_7  and  C11_11 
REMARK    4  A    between atoms: C11_11  and  C12_12 
ROOT
HETATM    1  C2  UNL     1     -33.227   4.393   3.235  1.00 20.00     0.001 C 
HETATM    2  C3  UNL     1     -34.742   4.512   3.390  1.00 20.00     0.005 C 
HETATM    3  C4  UNL     1     -32.589   5.735   2.884  1.00 20.00     0.005 C 
HETATM    4  C5  UNL     1     -34.483   6.941   4.046  1.00 20.00     0.009 C 
HETATM    5  C6  UNL     1     -35.160   5.603   4.385  1.00 20.00    -0.014 C 
HETATM    6  C7  UNL     1     -32.958   6.826   3.897  1.00 20.00    -0.013 C 
ENDROOT
BRANCH   6   7
HETATM    7  C11 UNL     1     -32.358   8.169   3.480  1.00 20.00     0.015 C 
BRANCH   7   8
HETATM    8  C12 UNL     1     -32.837   8.618   2.097  1.00 20.00     0.043 C 
HETATM    9  C9  UNL     1     -32.664  10.127   1.936  1.00 20.00     0.017 C 
BRANCH   8  10
HETATM   10  C1  UNL     1     -32.090   7.943   0.960  1.00 20.00     0.235 C 
HETATM   11  O13 UNL     1     -30.931   7.545   1.018  1.00 20.00    -0.306 OA
ENDBRANCH   8  10
ENDBRANCH   7   8
ENDBRANCH   6   7
BRANCH   5  12
HETATM   12  C10 UNL     1     -34.894   5.182   5.832  1.00 20.00     0.000 C 
HETATM   13  C8  UNL     1     -35.595   3.909   6.174  1.00 20.00     0.005 C 
ENDBRANCH   5  12
TORSDOF 4
