REMARK  0 active torsions:
REMARK  status: ('A' for Active; 'I' for Inactive)
ROOT
HETATM    1  C1  UNL     1     -34.968   5.058   5.398  1.00 20.00    -0.066 C 
HETATM    2  C2  UNL     1     -35.085   4.015   6.231  1.00 20.00     0.016 C 
HETATM    3  C3  UNL     1     -35.544   5.057   4.008  1.00 20.00     0.037 C 
HETATM    4  C4  UNL     1     -34.226   6.313   5.764  1.00 20.00     0.201 C 
HETATM    5  C5  UNL     1     -34.479   5.505   3.007  1.00 20.00     0.030 C 
HETATM    6  C6  UNL     1     -33.793   6.786   3.475  1.00 20.00     0.168 C 
HETATM    7  O7  UNL     1     -33.231   6.603   4.777  1.00 20.00    -0.387 OA
ENDROOT
TORSDOF 0
