REMARK  2 active torsions:
REMARK  status: ('A' for Active; 'I' for Inactive)
REMARK    1  A    between atoms: C7_7  and  C8_8 
REMARK    2  A    between atoms: C7_7  and  N9_9 
ROOT
HETATM    1  C1  UNL     1     -35.105   5.076   3.886  1.00 20.00     0.038 C 
HETATM    2  C2  UNL     1     -34.113   5.804   3.001  1.00 20.00     0.235 C 
HETATM    3  C3  UNL     1     -33.799   6.448   5.349  1.00 20.00     0.243 C 
HETATM    4  C4  UNL     1     -34.428   5.053   5.260  1.00 20.00    -0.022 C 
HETATM    5  C5  UNL     1     -35.448   4.829   6.380  1.00 20.00     0.016 C 
HETATM    6  C6  UNL     1     -33.352   3.956   5.338  1.00 20.00     0.016 C 
HETATM    7  N9  UNL     1     -33.527   6.861   3.910  1.00 20.00    -0.069 N 
HETATM    8  H27 UNL     1     -34.063   7.728   3.743  1.00 20.00     0.280 HD
ENDROOT
BRANCH   7   9
HETATM    9  C7  UNL     1     -32.095   7.180   3.620  1.00 20.00     0.250 C 
BRANCH   9  10
HETATM   10  C8  UNL     1     -31.952   7.682   2.195  1.00 20.00     0.142 C 
HETATM   11 CL10 UNL     1     -32.938   9.137   1.912  1.00 20.00    -0.129 Cl
ENDBRANCH   9  10
ENDBRANCH   7   9
TORSDOF 2
