REMARK  2 active torsions:
REMARK  status: ('A' for Active; 'I' for Inactive)
REMARK    1  A    between atoms: C1_1  and  C5_5 
REMARK    2  A    between atoms: C1_1  and  C6_6 
ROOT
HETATM    1  C2  UNL     1     -35.064   5.903   3.613  1.00 20.00     0.023 C 
HETATM    2  C3  UNL     1     -34.817   4.502   4.152  1.00 20.00     0.075 C 
HETATM    3  C4  UNL     1     -33.759   6.507   5.602  1.00 20.00     0.086 C 
HETATM    4  C5  UNL     1     -33.949   6.808   4.122  1.00 20.00     0.066 C 
HETATM    5  S8  UNL     1     -34.131   4.740   5.812  1.00 20.00    -0.168 SA
ENDROOT
BRANCH   4   6
HETATM    6  C1  UNL     1     -32.671   6.612   3.358  1.00 20.00     0.145 C 
HETATM    7  O7  UNL     1     -32.401   5.521   2.857  1.00 20.00    -0.296 OA
BRANCH   6   8
HETATM    8  C6  UNL     1     -31.772   7.823   3.260  1.00 20.00     0.193 C 
HETATM    9 CL9  UNL     1     -32.153   8.771   1.815  1.00 20.00    -0.123 Cl
ENDBRANCH   6   8
ENDBRANCH   4   6
TORSDOF 2
