REMARK  5 active torsions:
REMARK  status: ('A' for Active; 'I' for Inactive)
REMARK    1  A    between atoms: C6_6  and  C7_7 
REMARK    2  A    between atoms: C6_6  and  C9_9 
REMARK    3  A    between atoms: C7_7  and  C11_11 
REMARK    4  A    between atoms: C8_8  and  C9_9 
REMARK    5  A    between atoms: C8_8  and  C10_10 
ROOT
HETATM    1  C6  UNL     1     -32.606   7.222   3.214  1.00 20.00     0.005 C 
ENDROOT
BRANCH   1   2
HETATM    2  C7  UNL     1     -32.190   7.399   1.745  1.00 20.00     0.008 C 
BRANCH   2   3
HETATM    3  C11 UNL     1     -31.948   8.863   1.285  1.00 20.00    -0.051 C 
HETATM    4  C3  UNL     1     -31.603   8.929  -0.213  1.00 20.00     0.014 C 
HETATM    5  C4  UNL     1     -30.820   9.522   2.095  1.00 20.00     0.014 C 
HETATM    6  C5  UNL     1     -33.248   9.659   1.518  1.00 20.00     0.014 C 
ENDBRANCH   2   3
ENDBRANCH   1   2
BRANCH   1   7
HETATM    7  C9  UNL     1     -32.899   5.756   3.602  1.00 20.00    -0.017 C 
HETATM    8  C1  UNL     1     -34.024   5.153   2.750  1.00 20.00     0.010 C 
BRANCH   7   9
HETATM    9  C8  UNL     1     -33.286   5.621   5.096  1.00 20.00     0.024 C 
BRANCH   9  10
HETATM   10  C10 UNL     1     -34.771   5.816   5.439  1.00 20.00     0.078 C 
HETATM   11  C2  UNL     1     -34.953   6.079   6.931  1.00 20.00     0.026 C 
HETATM   12 CL12 UNL     1     -35.733   4.379   4.986  1.00 20.00    -0.125 Cl
ENDBRANCH   9  10
ENDBRANCH   7   9
ENDBRANCH   1   7
TORSDOF 5
