REMARK  0 active torsions:
REMARK  status: ('A' for Active; 'I' for Inactive)
ROOT
HETATM    1  C1  UNL     1     -32.681   8.788   1.734  1.00 20.00     0.088 C 
HETATM    2  C2  UNL     1     -33.059   7.049   3.358  1.00 20.00    -0.070 C 
HETATM    3  C3  UNL     1     -32.930   8.350   3.058  1.00 20.00     0.096 C 
HETATM    4  C4  UNL     1     -32.950   5.970   2.318  1.00 20.00     0.035 C 
HETATM    5  C5  UNL     1     -33.367   6.589   4.760  1.00 20.00     0.039 C 
HETATM    6  C6  UNL     1     -34.220   5.115   2.274  1.00 20.00     0.009 C 
HETATM    7  C7  UNL     1     -33.843   5.123   4.805  1.00 20.00    -0.011 C 
HETATM    8  C8  UNL     1     -34.835   4.799   3.661  1.00 20.00    -0.014 C 
HETATM    9  C9  UNL     1     -34.385   4.777   6.193  1.00 20.00     0.010 C 
HETATM   10  C10 UNL     1     -36.189   5.505   3.810  1.00 20.00     0.010 C 
HETATM   11  N11 UNL     1     -32.477   9.153   0.651  1.00 20.00    -0.192 NA
ENDROOT
TORSDOF 0
