REMARK  3 active torsions:
REMARK  status: ('A' for Active; 'I' for Inactive)
REMARK    1  A    between atoms: C2_2  and  C3_3 
REMARK    2  A    between atoms: C2_2  and  S8_8 
REMARK    3  A    between atoms: C3_3  and  C4_4 
ROOT
HETATM    1  C3  UNL     1     -33.111   5.768   4.078  1.00 20.00     0.174 C 
HETATM    2 BR9  UNL     1     -33.014   4.277   2.789  1.00 20.00    -0.081 Br
ENDROOT
BRANCH   1   3
HETATM    3  C2  UNL     1     -33.263   7.060   3.275  1.00 20.00     0.098 C 
BRANCH   3   4
HETATM    4  S8  UNL     1     -31.680   7.676   2.625  1.00 20.00    -0.172 SA
HETATM    5  C1  UNL     1     -32.308   9.122   1.742  1.00 20.00     0.089 C 
ENDBRANCH   3   4
ENDBRANCH   1   3
BRANCH   1   6
HETATM    6  C4  UNL     1     -34.251   5.471   5.037  1.00 20.00     0.401 C 
HETATM    7  F5  UNL     1     -34.305   6.365   6.048  1.00 20.00    -0.170 F 
HETATM    8  F6  UNL     1     -34.126   4.239   5.582  1.00 20.00    -0.170 F 
HETATM    9  F7  UNL     1     -35.447   5.498   4.408  1.00 20.00    -0.170 F 
ENDBRANCH   1   6
TORSDOF 3
