REMARK  5 active torsions:
REMARK  status: ('A' for Active; 'I' for Inactive)
REMARK    1  A    between atoms: C6_6  and  C7_7 
REMARK    2  A    between atoms: C7_7  and  C10_10 
REMARK    3  A    between atoms: C8_8  and  C9_9 
REMARK    4  A    between atoms: C8_8  and  C10_10 
REMARK    5  A    between atoms: C9_9  and  O11_11 
ROOT
HETATM    1  C1  UNL     1     -32.833   9.892   1.999  1.00 20.00     0.012 C 
HETATM    2  C2  UNL     1     -32.426   8.767   1.904  1.00 20.00    -0.117 C 
HETATM    3  C6  UNL     1     -31.928   7.387   1.785  1.00 20.00     0.093 C 
ENDROOT
BRANCH   3   4
HETATM    4  C7  UNL     1     -32.105   6.627   3.106  1.00 20.00     0.021 C 
BRANCH   4   5
HETATM    5  C10 UNL     1     -33.572   6.436   3.589  1.00 20.00    -0.045 C 
HETATM    6  C4  UNL     1     -34.503   6.163   2.385  1.00 20.00     0.015 C 
HETATM    7  C5  UNL     1     -34.075   7.705   4.300  1.00 20.00     0.015 C 
BRANCH   5   8
HETATM    8  C8  UNL     1     -33.666   5.186   4.525  1.00 20.00     0.040 C 
BRANCH   8   9
HETATM    9  C9  UNL     1     -35.035   4.865   5.147  1.00 20.00     0.114 C 
HETATM   10  C3  UNL     1     -34.869   4.022   6.408  1.00 20.00     0.039 C 
BRANCH   9  11
HETATM   11  O11 UNL     1     -35.826   4.126   4.224  1.00 20.00    -0.396 OA
HETATM   12  H29 UNL     1     -36.678   3.961   4.656  1.00 20.00     0.210 HD
ENDBRANCH   9  11
ENDBRANCH   8   9
ENDBRANCH   5   8
ENDBRANCH   4   5
ENDBRANCH   3   4
TORSDOF 5
