REMARK  3 active torsions:
REMARK  status: ('A' for Active; 'I' for Inactive)
REMARK    1  A    between atoms: C6_6  and  C7_7 
REMARK    2  A    between atoms: C6_6  and  C8_8 
REMARK    3  A    between atoms: C7_7  and  C9_9 
ROOT
HETATM    1  C1  UNL     1     -32.905   4.997   3.087  1.00 20.00     0.011 C 
HETATM    2  C7  UNL     1     -33.570   6.373   3.268  1.00 20.00    -0.010 C 
ENDROOT
BRANCH   2   3
HETATM    3  C6  UNL     1     -34.219   6.475   4.679  1.00 20.00     0.024 C 
BRANCH   3   4
HETATM    4  C8  UNL     1     -35.280   5.413   5.024  1.00 20.00     0.078 C 
HETATM    5  C2  UNL     1     -36.221   5.182   3.846  1.00 20.00     0.026 C 
HETATM    6 CL10 UNL     1     -34.517   3.855   5.462  1.00 20.00    -0.125 Cl
ENDBRANCH   3   4
ENDBRANCH   2   3
BRANCH   2   7
HETATM    7  C9  UNL     1     -32.593   7.573   2.947  1.00 20.00    -0.048 C 
HETATM    8  C3  UNL     1     -33.291   8.943   3.043  1.00 20.00     0.015 C 
HETATM    9  C4  UNL     1     -31.399   7.572   3.929  1.00 20.00     0.015 C 
HETATM   10  C5  UNL     1     -32.003   7.431   1.526  1.00 20.00     0.015 C 
ENDBRANCH   2   7
TORSDOF 3
