REMARK  1 active torsions:
REMARK  status: ('A' for Active; 'I' for Inactive)
REMARK    1  A    between atoms: C7_7  and  C8_8 
ROOT
HETATM    1  C1  UNL     1     -32.164   7.804   2.642  1.00 20.00     0.064 C 
HETATM    2  C2  UNL     1     -33.619   5.076   2.406  1.00 20.00     0.002 C 
HETATM    3  C3  UNL     1     -32.186   5.340   2.877  1.00 20.00     0.019 C 
HETATM    4  C4  UNL     1     -34.683   5.868   3.166  1.00 20.00     0.013 C 
HETATM    5  C5  UNL     1     -32.961   6.825   4.787  1.00 20.00     0.032 C 
HETATM    6  C6  UNL     1     -32.007   6.681   3.588  1.00 20.00     0.093 C 
HETATM    7  C7  UNL     1     -34.325   6.119   4.632  1.00 20.00     0.095 C 
HETATM    8  N9  UNL     1     -32.287   8.685   1.898  1.00 20.00    -0.197 NA
ENDROOT
BRANCH   7   9
HETATM    9  C8  UNL     1     -34.381   4.822   5.448  1.00 20.00     0.391 C 
HETATM   10  F10 UNL     1     -35.599   4.272   5.347  1.00 20.00    -0.171 F 
HETATM   11  F11 UNL     1     -33.469   3.955   4.988  1.00 20.00    -0.171 F 
HETATM   12  F12 UNL     1     -34.124   5.084   6.738  1.00 20.00    -0.171 F 
ENDBRANCH   7   9
TORSDOF 1
