REMARK  3 active torsions:
REMARK  status: ('A' for Active; 'I' for Inactive)
REMARK    1  A    between atoms: C5_5  and  C7_7 
REMARK    2  A    between atoms: C6_6  and  C7_7 
REMARK    3  A    between atoms: C6_6  and  C8_8 
ROOT
HETATM    1  C1  UNL     1     -32.210   9.826   0.998  1.00 20.00     0.012 C 
HETATM    2  C2  UNL     1     -32.177   8.727   1.479  1.00 20.00    -0.117 C 
HETATM    3  C5  UNL     1     -32.133   7.377   2.061  1.00 20.00     0.097 C 
ENDROOT
BRANCH   3   4
HETATM    4  C7  UNL     1     -32.751   7.290   3.470  1.00 20.00    -0.006 C 
HETATM    5  C3  UNL     1     -31.815   7.891   4.527  1.00 20.00     0.011 C 
BRANCH   4   6
HETATM    6  C6  UNL     1     -33.167   5.862   3.895  1.00 20.00     0.025 C 
BRANCH   6   7
HETATM    7  C8  UNL     1     -34.336   5.770   4.889  1.00 20.00     0.078 C 
HETATM    8  C4  UNL     1     -33.848   5.963   6.321  1.00 20.00     0.026 C 
HETATM    9 CL9  UNL     1     -35.160   4.187   4.770  1.00 20.00    -0.125 Cl
ENDBRANCH   6   7
ENDBRANCH   4   6
ENDBRANCH   3   4
TORSDOF 3
