REMARK  4 active torsions:
REMARK  status: ('A' for Active; 'I' for Inactive)
REMARK    1  A    between atoms: C5_5  and  C8_8 
REMARK    2  A    between atoms: C6_6  and  C9_9 
REMARK    3  A    between atoms: C9_9  and  C10_10 
REMARK    4  A    between atoms: C10_10  and  O11_11 
ROOT
HETATM    1  C1  UNL     1     -33.939   8.183   2.312  1.00 20.00     0.005 C 
HETATM    2  C2  UNL     1     -31.568   7.322   2.203  1.00 20.00     0.005 C 
HETATM    3  C3  UNL     1     -34.220   7.261   3.496  1.00 20.00     0.005 C 
HETATM    4  C4  UNL     1     -31.849   6.399   3.388  1.00 20.00     0.005 C 
HETATM    5  C5  UNL     1     -32.457   8.571   2.234  1.00 20.00    -0.015 C 
HETATM    6  C6  UNL     1     -33.331   6.011   3.465  1.00 20.00    -0.013 C 
ENDROOT
BRANCH   6   7
HETATM    7  C9  UNL     1     -33.595   5.130   4.685  1.00 20.00     0.030 C 
BRANCH   7   8
HETATM    8  C10 UNL     1     -35.028   4.631   4.711  1.00 20.00     0.164 C 
BRANCH   8   9
HETATM    9  O11 UNL     1     -35.208   3.836   5.874  1.00 20.00    -0.401 OA
HETATM   10  H31 UNL     1     -36.130   3.531   5.866  1.00 20.00     0.209 HD
ENDBRANCH   8   9
ENDBRANCH   7   8
ENDBRANCH   6   7
BRANCH   5  11
HETATM   11  C8  UNL     1     -32.193   9.451   1.013  1.00 20.00     0.000 C 
HETATM   12  C7  UNL     1     -32.511   8.738  -0.260  1.00 20.00     0.005 C 
ENDBRANCH   5  11
TORSDOF 4
