REMARK  0 active torsions:
REMARK  status: ('A' for Active; 'I' for Inactive)
ROOT
HETATM    1  C1  UNL     1     -31.610   7.944   2.063  1.00 20.00     0.088 C 
HETATM    2  C2  UNL     1     -32.665   6.407   3.588  1.00 20.00    -0.070 C 
HETATM    3  C3  UNL     1     -31.764   7.372   3.350  1.00 20.00     0.096 C 
HETATM    4  C4  UNL     1     -33.569   5.868   2.512  1.00 20.00     0.035 C 
HETATM    5  C5  UNL     1     -32.860   5.808   4.957  1.00 20.00     0.039 C 
HETATM    6  C6  UNL     1     -35.034   5.940   2.949  1.00 20.00     0.009 C 
HETATM    7  C7  UNL     1     -34.337   5.885   5.385  1.00 20.00    -0.011 C 
HETATM    8  C8  UNL     1     -35.290   5.281   4.319  1.00 20.00    -0.014 C 
HETATM    9  C9  UNL     1     -34.525   5.264   6.770  1.00 20.00     0.010 C 
HETATM   10  C10 UNL     1     -35.212   3.753   4.212  1.00 20.00     0.010 C 
HETATM   11  N11 UNL     1     -31.479   8.417   1.011  1.00 20.00    -0.192 NA
ENDROOT
TORSDOF 0
