REMARK  2 active torsions:
REMARK  status: ('A' for Active; 'I' for Inactive)
REMARK    1  A    between atoms: C4_4  and  C9_9 
REMARK    2  A    between atoms: C9_9  and  C10_10 
ROOT
HETATM    1  C1  UNL     1     -32.221   7.600   4.312  1.00 20.00     0.005 C 
HETATM    2  C2  UNL     1     -33.148   6.817   5.248  1.00 20.00     0.005 C 
HETATM    3  C3  UNL     1     -33.859   6.905   2.528  1.00 20.00     0.009 C 
HETATM    4  C4  UNL     1     -32.397   7.240   2.828  1.00 20.00    -0.013 C 
HETATM    5  C5  UNL     1     -33.570   5.472   4.647  1.00 20.00    -0.015 C 
HETATM    6  C6  UNL     1     -34.355   5.675   3.322  1.00 20.00    -0.015 C 
HETATM    7  C7  UNL     1     -34.298   4.617   5.683  1.00 20.00     0.010 C 
HETATM    8  C8  UNL     1     -35.876   5.771   3.487  1.00 20.00     0.010 C 
ENDROOT
BRANCH   4   9
HETATM    9  C9  UNL     1     -31.891   8.370   1.934  1.00 20.00     0.020 C 
BRANCH   9  10
HETATM   10  C10 UNL     1     -32.677   9.663   2.097  1.00 20.00     0.115 C 
HETATM   11 CL11 UNL     1     -32.082  10.949   1.023  1.00 20.00    -0.130 Cl
ENDBRANCH   9  10
ENDBRANCH   4   9
TORSDOF 2
