REMARK  1 active torsions:
REMARK  status: ('A' for Active; 'I' for Inactive)
REMARK    1  A    between atoms: C6_6  and  C8_8 
ROOT
HETATM    1  C1  UNL     1     -32.735   6.813   4.567  1.00 20.00     0.016 C 
HETATM    2  C2  UNL     1     -33.509   5.578   2.494  1.00 20.00     0.016 C 
HETATM    3  C3  UNL     1     -31.681   7.549   3.740  1.00 20.00     0.041 C 
HETATM    4  C4  UNL     1     -32.457   6.310   1.661  1.00 20.00     0.041 C 
HETATM    5  C5  UNL     1     -32.636   8.913   1.729  1.00 20.00     0.207 A 
HETATM    6  C6  UNL     1     -33.068   5.437   3.963  1.00 20.00     0.093 C 
HETATM    7  C7  UNL     1     -32.111   7.619   2.305  1.00 20.00     0.082 A 
HETATM    8  O9  UNL     1     -31.292   8.470   1.492  1.00 20.00    -0.375 OA
ENDROOT
BRANCH   6   9
HETATM    9  C8  UNL     1     -34.150   4.738   4.784  1.00 20.00     0.391 C 
HETATM   10  F10 UNL     1     -33.740   4.590   6.053  1.00 20.00    -0.171 F 
HETATM   11  F11 UNL     1     -35.277   5.464   4.772  1.00 20.00    -0.171 F 
HETATM   12  F12 UNL     1     -34.407   3.527   4.267  1.00 20.00    -0.171 F 
ENDBRANCH   6   9
TORSDOF 1
