REMARK  4 active torsions:
REMARK  status: ('A' for Active; 'I' for Inactive)
REMARK    1  A    between atoms: C5_5  and  C6_6 
REMARK    2  A    between atoms: C6_6  and  C8_8 
REMARK    3  A    between atoms: C7_7  and  C8_8 
REMARK    4  A    between atoms: C7_7  and  C9_9 
ROOT
HETATM    1  C1  UNL     1     -32.890  10.876   1.722  1.00 20.00     0.012 C 
HETATM    2  C2  UNL     1     -32.457   9.780   1.490  1.00 20.00    -0.117 C 
HETATM    3  C5  UNL     1     -31.925   8.441   1.203  1.00 20.00     0.093 C 
ENDROOT
BRANCH   3   4
HETATM    4  C6  UNL     1     -31.923   7.535   2.438  1.00 20.00     0.016 C 
BRANCH   4   5
HETATM    5  C8  UNL     1     -33.297   7.319   3.119  1.00 20.00    -0.016 C 
HETATM    6  C3  UNL     1     -33.632   8.563   3.952  1.00 20.00     0.010 C 
BRANCH   5   7
HETATM    7  C7  UNL     1     -33.311   6.033   3.978  1.00 20.00     0.024 C 
BRANCH   7   8
HETATM    8  C9  UNL     1     -34.626   5.722   4.712  1.00 20.00     0.078 C 
HETATM    9  C4  UNL     1     -34.488   4.465   5.565  1.00 20.00     0.026 C 
HETATM   10 CL10 UNL     1     -35.968   5.488   3.553  1.00 20.00    -0.125 Cl
ENDBRANCH   7   8
ENDBRANCH   5   7
ENDBRANCH   4   5
ENDBRANCH   3   4
TORSDOF 4
