REMARK  2 active torsions:
REMARK  status: ('A' for Active; 'I' for Inactive)
REMARK    1  A    between atoms: C1_1  and  C5_5 
REMARK    2  A    between atoms: C1_1  and  C11_11 
ROOT
HETATM    1  C2  UNL     1     -33.622   6.065   2.348  1.00 20.00     0.012 C 
HETATM    2  C3  UNL     1     -34.006   4.788   3.086  1.00 20.00     0.005 C 
HETATM    3  C4  UNL     1     -33.289   7.240   4.553  1.00 20.00     0.016 C 
HETATM    4  C5  UNL     1     -32.683   6.929   3.185  1.00 20.00     0.056 C 
HETATM    5  C6  UNL     1     -34.624   5.081   4.464  1.00 20.00    -0.015 C 
HETATM    6  C7  UNL     1     -33.675   5.960   5.315  1.00 20.00    -0.014 C 
HETATM    7  C8  UNL     1     -34.975   3.759   5.153  1.00 20.00     0.010 C 
HETATM    8  C9  UNL     1     -34.284   6.340   6.668  1.00 20.00     0.010 C 
ENDROOT
BRANCH   4   9
HETATM    9  C1  UNL     1     -32.396   8.212   2.467  1.00 20.00     0.130 C 
HETATM   10  O12 UNL     1     -32.672   9.298   2.975  1.00 20.00    -0.298 OA
BRANCH   9  11
HETATM   11  C11 UNL     1     -31.756   8.083   1.098  1.00 20.00     0.074 C 
HETATM   12  C10 UNL     1     -32.617   8.665  -0.008  1.00 20.00     0.013 C 
ENDBRANCH   9  11
ENDBRANCH   4   9
TORSDOF 2
