REMARK  2 active torsions:
REMARK  status: ('A' for Active; 'I' for Inactive)
REMARK    1  A    between atoms: C5_5  and  C7_7 
REMARK    2  A    between atoms: C6_6  and  S11_11 
ROOT
HETATM    1  C1  UNL     1     -34.217   4.950   3.195  1.00 20.00     0.002 C 
HETATM    2  C2  UNL     1     -33.423   4.558   4.440  1.00 20.00     0.013 C 
HETATM    3  C3  UNL     1     -33.520   6.057   2.407  1.00 20.00     0.015 C 
HETATM    4  C4  UNL     1     -32.421   6.880   4.534  1.00 20.00     0.028 C 
HETATM    5  C5  UNL     1     -33.088   5.754   5.342  1.00 20.00     0.094 C 
HETATM    6  C6  UNL     1     -33.229   7.273   3.291  1.00 20.00     0.045 C 
ENDROOT
BRANCH   5   7
HETATM    7  C7  UNL     1     -34.321   6.254   6.100  1.00 20.00     0.391 C 
HETATM    8  F8  UNL     1     -33.978   7.257   6.922  1.00 20.00    -0.171 F 
HETATM    9  F9  UNL     1     -35.244   6.696   5.234  1.00 20.00    -0.171 F 
HETATM   10  F10 UNL     1     -34.848   5.257   6.826  1.00 20.00    -0.171 F 
ENDBRANCH   5   7
BRANCH   6  11
HETATM   11  S11 UNL     1     -32.315   8.531   2.335  1.00 20.00    -0.177 SA
HETATM   12  H22 UNL     1     -33.264   8.699   1.407  1.00 20.00     0.102 HD
ENDBRANCH   6  11
TORSDOF 2
