REMARK  4 active torsions:
REMARK  status: ('A' for Active; 'I' for Inactive)
REMARK    1  A    between atoms: C2_2  and  C7_7 
REMARK    2  A    between atoms: C3_3  and  C8_8 
REMARK    3  A    between atoms: C7_7  and  C9_9 
REMARK    4  A    between atoms: C8_8  and  C9_9 
ROOT
HETATM    1  C1  UNL     1     -32.262   8.104   1.513  1.00 20.00    -0.111 C 
HETATM    2  C2  UNL     1     -32.317   7.202   2.304  1.00 20.00    -0.107 C 
HETATM    3  C4  UNL     1     -32.199   9.202   0.549  1.00 20.00     0.112 C 
ENDROOT
BRANCH   2   4
HETATM    4  C7  UNL     1     -32.378   6.099   3.275  1.00 20.00     0.098 C 
BRANCH   4   5
HETATM    5  C9  UNL     1     -33.777   5.462   3.401  1.00 20.00    -0.001 C 
HETATM    6  C6  UNL     1     -34.422   5.249   2.026  1.00 20.00     0.011 C 
BRANCH   5   7
HETATM    7  C8  UNL     1     -34.693   6.278   4.331  1.00 20.00     0.083 C 
BRANCH   7   8
HETATM    8  C3  UNL     1     -34.399   6.082   5.811  1.00 20.00     0.123 C 
HETATM    9  C5  UNL     1     -34.507   4.669   6.326  1.00 20.00     0.091 C 
HETATM   10  O10 UNL     1     -34.120   7.010   6.568  1.00 20.00    -0.298 OA
ENDBRANCH   7   8
ENDBRANCH   5   7
ENDBRANCH   4   5
ENDBRANCH   2   4
TORSDOF 4
