REMARK  0 active torsions:
REMARK  status: ('A' for Active; 'I' for Inactive)
ROOT
HETATM    1  C1  UNL     1     -32.578   9.787   1.824  1.00 20.00     0.088 C 
HETATM    2  C2  UNL     1     -32.617   7.649   2.933  1.00 20.00    -0.070 C 
HETATM    3  C3  UNL     1     -32.748   8.380   1.816  1.00 20.00     0.096 C 
HETATM    4  C4  UNL     1     -32.281   8.278   4.261  1.00 20.00     0.035 C 
HETATM    5  C5  UNL     1     -32.834   6.162   2.955  1.00 20.00     0.039 C 
HETATM    6  C6  UNL     1     -32.674   7.385   5.445  1.00 20.00     0.009 C 
HETATM    7  C7  UNL     1     -33.952   5.761   3.941  1.00 20.00    -0.011 C 
HETATM    8  C8  UNL     1     -34.014   6.678   5.196  1.00 20.00    -0.014 C 
HETATM    9  C9  UNL     1     -35.314   5.733   3.236  1.00 20.00     0.010 C 
HETATM   10  C10 UNL     1     -34.442   5.888   6.434  1.00 20.00     0.010 C 
HETATM   11  N11 UNL     1     -32.440  10.939   1.822  1.00 20.00    -0.192 NA
ENDROOT
TORSDOF 0
