REMARK  2 active torsions:
REMARK  status: ('A' for Active; 'I' for Inactive)
REMARK    1  A    between atoms: C1_1  and  C10_10 
REMARK    2  A    between atoms: C5_5  and  C10_10 
ROOT
HETATM    1  C2  UNL     1     -32.530   7.369   3.911  1.00 20.00     0.005 C 
HETATM    2  C3  UNL     1     -33.318   6.840   5.108  1.00 20.00     0.005 C 
HETATM    3  C4  UNL     1     -33.606   5.625   2.433  1.00 20.00     0.009 C 
HETATM    4  C5  UNL     1     -33.257   7.113   2.586  1.00 20.00    -0.008 C 
HETATM    5  C6  UNL     1     -33.666   5.353   4.948  1.00 20.00    -0.015 C 
HETATM    6  C7  UNL     1     -34.412   5.070   3.622  1.00 20.00    -0.015 C 
HETATM    7  C8  UNL     1     -34.422   4.845   6.177  1.00 20.00     0.010 C 
HETATM    8  C9  UNL     1     -35.854   5.590   3.595  1.00 20.00     0.010 C 
ENDROOT
BRANCH   4   9
HETATM    9  C10 UNL     1     -32.408   7.589   1.407  1.00 20.00     0.074 C 
BRANCH   9  10
HETATM   10  C1  UNL     1     -32.466   9.081   1.227  1.00 20.00     0.231 C 
HETATM   11  O11 UNL     1     -33.097   9.854   1.939  1.00 20.00    -0.307 OA
ENDBRANCH   9  10
ENDBRANCH   4   9
TORSDOF 2
