REMARK  2 active torsions:
REMARK  status: ('A' for Active; 'I' for Inactive)
REMARK    1  A    between atoms: C8_8  and  C11_11 
REMARK    2  A    between atoms: C8_8  and  O12_12 
ROOT
HETATM    1  C1  UNL     1     -31.322   7.861   1.918  1.00 20.00     0.012 C 
HETATM    2  C2  UNL     1     -31.972   6.929   2.305  1.00 20.00    -0.115 C 
HETATM    3  C11 UNL     1     -32.757   5.783   2.766  1.00 20.00     0.131 C 
ENDROOT
BRANCH   3   4
HETATM    4  C8  UNL     1     -33.804   6.218   3.797  1.00 20.00     0.069 C 
HETATM    5  C4  UNL     1     -34.636   5.016   4.289  1.00 20.00     0.043 C 
HETATM    6  C6  UNL     1     -34.073   4.421   5.583  1.00 20.00    -0.015 C 
HETATM    7  C3  UNL     1     -34.104   5.457   6.722  1.00 20.00     0.008 C 
HETATM    8  C9  UNL     1     -34.824   3.153   5.983  1.00 20.00     0.010 C 
HETATM    9  C7  UNL     1     -33.959   6.912   6.237  1.00 20.00    -0.015 C 
HETATM   10  C5  UNL     1     -33.123   6.980   4.954  1.00 20.00     0.043 C 
HETATM   11  C10 UNL     1     -33.363   7.791   7.335  1.00 20.00     0.010 C 
BRANCH   4  12
HETATM   12  O12 UNL     1     -34.714   7.104   3.134  1.00 20.00    -0.389 OA
HETATM   13  H30 UNL     1     -35.375   7.361   3.794  1.00 20.00     0.210 HD
ENDBRANCH   4  12
ENDBRANCH   3   4
TORSDOF 2
