REMARK  3 active torsions:
REMARK  status: ('A' for Active; 'I' for Inactive)
REMARK    1  A    between atoms: C1_1  and  C12_12 
REMARK    2  A    between atoms: C5_5  and  C11_11 
REMARK    3  A    between atoms: C11_11  and  C12_12 
ROOT
HETATM    1  C2  UNL     1     -33.211   7.350   5.242  1.00 20.00     0.005 C 
HETATM    2  C3  UNL     1     -33.997   6.143   5.762  1.00 20.00     0.005 C 
HETATM    3  C4  UNL     1     -32.498   5.734   3.437  1.00 20.00     0.009 C 
HETATM    4  C5  UNL     1     -32.757   7.203   3.781  1.00 20.00    -0.013 C 
HETATM    5  C6  UNL     1     -34.754   5.422   4.642  1.00 20.00    -0.015 C 
HETATM    6  C7  UNL     1     -33.770   4.870   3.577  1.00 20.00    -0.015 C 
HETATM    7  C8  UNL     1     -35.627   4.308   5.225  1.00 20.00     0.010 C 
HETATM    8  C9  UNL     1     -34.469   4.723   2.220  1.00 20.00     0.010 C 
ENDROOT
BRANCH   4   9
HETATM    9  C11 UNL     1     -31.524   8.062   3.509  1.00 20.00     0.015 C 
BRANCH   9  10
HETATM   10  C12 UNL     1     -31.024   7.925   2.067  1.00 20.00     0.043 C 
HETATM   11  C10 UNL     1     -32.118   8.329   1.082  1.00 20.00     0.017 C 
BRANCH  10  12
HETATM   12  C1  UNL     1     -29.802   8.779   1.778  1.00 20.00     0.235 C 
HETATM   13  O13 UNL     1     -29.751   9.673   0.939  1.00 20.00    -0.306 OA
ENDBRANCH  10  12
ENDBRANCH   9  10
ENDBRANCH   4   9
TORSDOF 3
