REMARK  1 active torsions:
REMARK  status: ('A' for Active; 'I' for Inactive)
REMARK    1  A    between atoms: C7_7  and  C8_8 
ROOT
HETATM    1  C1  UNL     1     -32.316   8.892   1.296  1.00 20.00     0.064 C 
HETATM    2  C2  UNL     1     -31.907   7.184   3.101  1.00 20.00     0.020 C 
HETATM    3  C3  UNL     1     -33.819   6.880   1.478  1.00 20.00     0.020 C 
HETATM    4  C4  UNL     1     -32.018   5.714   3.511  1.00 20.00     0.015 C 
HETATM    5  C5  UNL     1     -33.934   5.410   1.885  1.00 20.00     0.015 C 
HETATM    6  C6  UNL     1     -32.392   7.411   1.664  1.00 20.00     0.093 C 
HETATM    7  C7  UNL     1     -33.424   5.138   3.305  1.00 20.00     0.093 C 
HETATM    8  N9  UNL     1     -32.258  10.017   1.017  1.00 20.00    -0.197 NA
ENDROOT
BRANCH   7   9
HETATM    9  C8  UNL     1     -34.364   5.663   4.314  1.00 20.00     0.391 C 
HETATM   10  F10 UNL     1     -33.922   5.374   5.547  1.00 20.00    -0.171 F 
HETATM   11  F11 UNL     1     -34.472   6.995   4.192  1.00 20.00    -0.171 F 
HETATM   12  F12 UNL     1     -35.575   5.111   4.145  1.00 20.00    -0.171 F 
ENDBRANCH   7   9
TORSDOF 1
