REMARK  1 active torsions:
REMARK  status: ('A' for Active; 'I' for Inactive)
REMARK    1  A    between atoms: C5_5  and  C7_7 
ROOT
HETATM    1  C1  UNL     1     -36.123   5.931   4.055  1.00 20.00     0.002 C 
HETATM    2  C2  UNL     1     -34.922   6.244   3.174  1.00 20.00     0.013 C 
HETATM    3  C3  UNL     1     -35.774   5.040   5.249  1.00 20.00     0.020 C 
HETATM    4  C4  UNL     1     -33.685   6.479   5.416  1.00 20.00     0.033 C 
HETATM    5  C5  UNL     1     -33.823   6.972   3.960  1.00 20.00     0.095 C 
HETATM    6  C6  UNL     1     -34.309   5.110   5.693  1.00 20.00     0.083 C 
HETATM    7 CL11 UNL     1     -33.349   3.811   4.914  1.00 20.00    -0.125 Cl
ENDROOT
BRANCH   5   8
HETATM    8  C7  UNL     1     -32.494   6.916   3.205  1.00 20.00     0.391 C 
HETATM    9  F8  UNL     1     -31.565   7.634   3.856  1.00 20.00    -0.171 F 
HETATM   10  F9  UNL     1     -32.073   5.646   3.109  1.00 20.00    -0.171 F 
HETATM   11  F10 UNL     1     -32.645   7.419   1.971  1.00 20.00    -0.171 F 
ENDBRANCH   5   8
TORSDOF 1
