REMARK  3 active torsions:
REMARK  status: ('A' for Active; 'I' for Inactive)
REMARK    1  A    between atoms: C6_6  and  C7_7 
REMARK    2  A    between atoms: C6_6  and  C8_8 
REMARK    3  A    between atoms: C7_7  and  C9_9 
ROOT
HETATM    1  C1  UNL     1     -32.937   4.538   3.060  1.00 20.00     0.011 C 
HETATM    2  C7  UNL     1     -33.116   5.677   4.080  1.00 20.00    -0.010 C 
ENDROOT
BRANCH   2   3
HETATM    3  C6  UNL     1     -33.246   7.042   3.344  1.00 20.00     0.024 C 
BRANCH   3   4
HETATM    4  C8  UNL     1     -32.077   7.441   2.424  1.00 20.00     0.078 C 
HETATM    5  C2  UNL     1     -30.790   7.613   3.226  1.00 20.00     0.026 C 
HETATM    6 CL10 UNL     1     -32.425   8.969   1.563  1.00 20.00    -0.125 Cl
ENDBRANCH   3   4
ENDBRANCH   2   3
BRANCH   2   7
HETATM    7  C9  UNL     1     -34.292   5.407   5.100  1.00 20.00    -0.048 C 
HETATM    8  C3  UNL     1     -34.406   6.507   6.172  1.00 20.00     0.015 C 
HETATM    9  C4  UNL     1     -35.642   5.322   4.353  1.00 20.00     0.015 C 
HETATM   10  C5  UNL     1     -34.092   4.053   5.818  1.00 20.00     0.015 C 
ENDBRANCH   2   7
TORSDOF 3
