REMARK  2 active torsions:
REMARK  status: ('A' for Active; 'I' for Inactive)
REMARK    1  A    between atoms: C5_5  and  C6_6 
REMARK    2  A    between atoms: C6_6  and  C7_7 
ROOT
HETATM    1  C1  UNL     1     -35.063   3.895   5.155  1.00 20.00     0.027 C 
HETATM    2  C2  UNL     1     -34.723   4.596   3.844  1.00 20.00     0.009 C 
HETATM    3  C3  UNL     1     -35.272   4.910   6.271  1.00 20.00     0.167 C 
HETATM    4  C4  UNL     1     -33.869   6.509   5.227  1.00 20.00     0.172 C 
HETATM    5  C5  UNL     1     -33.569   5.585   4.044  1.00 20.00     0.010 C 
HETATM    6  O8  UNL     1     -34.127   5.750   6.409  1.00 20.00    -0.391 OA
ENDROOT
BRANCH   5   7
HETATM    7  C6  UNL     1     -33.302   6.384   2.774  1.00 20.00     0.017 C 
BRANCH   7   8
HETATM    8  C7  UNL     1     -31.925   7.019   2.809  1.00 20.00     0.085 C 
HETATM    9 BR9  UNL     1     -31.605   7.980   1.146  1.00 20.00    -0.096 Br
ENDBRANCH   7   8
ENDBRANCH   5   7
TORSDOF 2
