REMARK  2 active torsions:
REMARK  status: ('A' for Active; 'I' for Inactive)
REMARK    1  A    between atoms: C5_5  and  C6_6 
REMARK    2  A    between atoms: C6_6  and  C7_7 
ROOT
HETATM    1  C1  UNL     1     -33.958   4.769   5.658  1.00 20.00     0.027 C 
HETATM    2  C2  UNL     1     -33.821   6.284   5.621  1.00 20.00     0.009 C 
HETATM    3  C3  UNL     1     -35.055   4.293   4.705  1.00 20.00     0.167 C 
HETATM    4  C4  UNL     1     -34.070   5.782   3.143  1.00 20.00     0.172 C 
HETATM    5  C5  UNL     1     -33.560   6.782   4.189  1.00 20.00     0.010 C 
HETATM    6  O8  UNL     1     -35.273   5.173   3.601  1.00 20.00    -0.391 OA
ENDROOT
BRANCH   5   7
HETATM    7  C6  UNL     1     -32.084   7.092   3.953  1.00 20.00     0.021 C 
BRANCH   7   8
HETATM    8  C7  UNL     1     -31.776   7.507   2.520  1.00 20.00     0.115 C 
HETATM    9 CL9  UNL     1     -32.648   8.984   2.049  1.00 20.00    -0.130 Cl
ENDBRANCH   7   8
ENDBRANCH   5   7
TORSDOF 2
