REMARK  4 active torsions:
REMARK  status: ('A' for Active; 'I' for Inactive)
REMARK    1  A    between atoms: C3_3  and  C4_4 
REMARK    2  A    between atoms: C4_4  and  C5_5 
REMARK    3  A    between atoms: C5_5  and  C6_6 
REMARK    4  A    between atoms: C5_5  and  O7_7 
ROOT
HETATM    1  C5  UNL     1     -32.764   6.598   5.009  1.00 20.00     0.226 C 
ENDROOT
BRANCH   1   2
HETATM    2  C4  UNL     1     -33.955   6.222   5.892  1.00 20.00     0.045 C 
BRANCH   2   3
HETATM    3  C3  UNL     1     -34.243   4.749   5.855  1.00 20.00    -0.012 A 
HETATM    4  C1  UNL     1     -35.591   4.230   6.273  1.00 20.00     0.005 A 
HETATM    5  C2  UNL     1     -35.185   4.188   4.826  1.00 20.00     0.005 A 
ENDBRANCH   2   3
ENDBRANCH   1   2
BRANCH   1   6
HETATM    6  C6  UNL     1     -33.170   6.749   3.556  1.00 20.00     0.413 C 
HETATM    7  F8  UNL     1     -33.635   5.588   3.046  1.00 20.00    -0.168 F 
HETATM    8  F9  UNL     1     -32.125   7.146   2.798  1.00 20.00    -0.168 F 
HETATM    9  F10 UNL     1     -34.143   7.677   3.424  1.00 20.00    -0.168 F 
ENDBRANCH   1   6
BRANCH   1  10
HETATM   10  O7  UNL     1     -32.233   7.842   5.461  1.00 20.00    -0.387 OA
HETATM   11  H19 UNL     1     -31.960   7.706   6.382  1.00 20.00     0.210 HD
ENDBRANCH   1  10
TORSDOF 4
