REMARK  4 active torsions:
REMARK  status: ('A' for Active; 'I' for Inactive)
REMARK    1  A    between atoms: C1_1  and  C8_8 
REMARK    2  A    between atoms: C1_1  and  C9_9 
REMARK    3  A    between atoms: C4_4  and  C8_8 
REMARK    4  A    between atoms: C9_9  and  C10_10 
ROOT
HETATM    1  C1  UNL     1     -31.953   7.112   3.394  1.00 20.00     0.128 C 
HETATM    2  O11 UNL     1     -31.317   7.804   4.189  1.00 20.00    -0.298 OA
ENDROOT
BRANCH   1   3
HETATM    3  C8  UNL     1     -32.180   7.533   1.954  1.00 20.00     0.082 C 
BRANCH   3   4
HETATM    4  C4  UNL     1     -32.184   9.016   1.755  1.00 20.00    -0.008 A 
HETATM    5  C2  UNL     1     -32.816   9.614   0.529  1.00 20.00     0.005 A 
HETATM    6  C3  UNL     1     -33.467   9.792   1.872  1.00 20.00     0.005 A 
ENDBRANCH   3   4
ENDBRANCH   1   3
BRANCH   1   7
HETATM    7  C9  UNL     1     -32.570   5.789   3.823  1.00 20.00     0.086 C 
BRANCH   7   8
HETATM    8  C10 UNL     1     -33.974   5.897   4.460  1.00 20.00    -0.045 C 
HETATM    9  C5  UNL     1     -34.502   4.518   4.889  1.00 20.00     0.015 C 
HETATM   10  C6  UNL     1     -34.977   6.546   3.493  1.00 20.00     0.015 C 
HETATM   11  C7  UNL     1     -33.861   6.785   5.715  1.00 20.00     0.015 C 
ENDBRANCH   7   8
ENDBRANCH   1   7
TORSDOF 4
