REMARK  5 active torsions:
REMARK  status: ('A' for Active; 'I' for Inactive)
REMARK    1  A    between atoms: C3_3  and  C5_5 
REMARK    2  A    between atoms: C5_5  and  C8_8 
REMARK    3  A    between atoms: C6_6  and  C7_7 
REMARK    4  A    between atoms: C7_7  and  C8_8 
REMARK    5  A    between atoms: C8_8  and  O9_9 
ROOT
HETATM    1  C8  UNL     1     -33.082   7.107   3.296  1.00 20.00     0.118 C 
ENDROOT
BRANCH   1   2
HETATM    2  C5  UNL     1     -33.818   5.827   3.708  1.00 20.00     0.036 C 
BRANCH   2   3
HETATM    3  C3  UNL     1     -34.654   5.976   4.969  1.00 20.00    -0.012 A 
HETATM    4  C1  UNL     1     -35.072   4.761   5.749  1.00 20.00     0.005 A 
HETATM    5  C2  UNL     1     -34.047   5.702   6.316  1.00 20.00     0.005 A 
ENDBRANCH   2   3
ENDBRANCH   1   2
BRANCH   1   6
HETATM    6  C7  UNL     1     -32.593   7.080   1.842  1.00 20.00     0.031 C 
BRANCH   6   7
HETATM    7  C6  UNL     1     -31.848   8.363   1.457  1.00 20.00    -0.002 C 
HETATM    8  C4  UNL     1     -32.746   9.584   1.579  1.00 20.00     0.005 C 
ENDBRANCH   6   7
ENDBRANCH   1   6
BRANCH   1   9
HETATM    9  O9  UNL     1     -31.946   7.260   4.150  1.00 20.00    -0.396 OA
HETATM   10  H25 UNL     1     -31.501   8.073   3.869  1.00 20.00     0.210 HD
ENDBRANCH   1   9
TORSDOF 5
