REMARK  4 active torsions:
REMARK  status: ('A' for Active; 'I' for Inactive)
REMARK    1  A    between atoms: C5_5  and  C7_7 
REMARK    2  A    between atoms: C6_6  and  C8_8 
REMARK    3  A    between atoms: C7_7  and  C8_8 
REMARK    4  A    between atoms: C8_8  and  O9_9 
ROOT
HETATM    1  C8  UNL     1     -33.358   5.549   3.070  1.00 20.00     0.122 C 
ENDROOT
BRANCH   1   2
HETATM    2  C6  UNL     1     -32.305   6.512   2.538  1.00 20.00     0.014 A 
HETATM    3  C3  UNL     1     -32.603   7.982   2.439  1.00 20.00     0.007 A 
HETATM    4  C4  UNL     1     -31.627   7.481   3.466  1.00 20.00     0.007 A 
ENDBRANCH   1   2
BRANCH   1   5
HETATM    5  C7  UNL     1     -33.796   5.935   4.485  1.00 20.00     0.036 C 
BRANCH   5   6
HETATM    6  C5  UNL     1     -34.878   5.010   5.026  1.00 20.00    -0.012 A 
HETATM    7  C1  UNL     1     -34.504   3.766   5.783  1.00 20.00     0.005 A 
HETATM    8  C2  UNL     1     -35.131   4.925   6.506  1.00 20.00     0.005 A 
ENDBRANCH   5   6
ENDBRANCH   1   5
BRANCH   1   9
HETATM    9  O9  UNL     1     -34.491   5.583   2.206  1.00 20.00    -0.395 OA
HETATM   10  H23 UNL     1     -34.178   5.310   1.330  1.00 20.00     0.210 HD
ENDBRANCH   1   9
TORSDOF 4
