REMARK  2 active torsions:
REMARK  status: ('A' for Active; 'I' for Inactive)
REMARK    1  A    between atoms: C3_3  and  C9_9 
REMARK    2  A    between atoms: C9_9  and  C10_10 
ROOT
HETATM    1  C1  UNL     1     -32.119   6.782   4.220  1.00 20.00     0.006 C 
HETATM    2  C2  UNL     1     -33.240   6.739   5.258  1.00 20.00     0.016 C 
HETATM    3  C3  UNL     1     -32.807   6.472   2.888  1.00 20.00    -0.009 C 
HETATM    4  C4  UNL     1     -33.791   5.362   3.300  1.00 20.00    -0.000 C 
HETATM    5  C5  UNL     1     -34.307   5.810   4.675  1.00 20.00     0.062 C 
HETATM    6  C6  UNL     1     -34.910   5.085   2.303  1.00 20.00     0.011 C 
HETATM    7 BR11 UNL     1     -34.585   4.270   5.836  1.00 20.00    -0.091 Br
ENDROOT
BRANCH   3   8
HETATM    8  C9  UNL     1     -33.455   7.719   2.285  1.00 20.00     0.009 C 
BRANCH   8   9
HETATM    9  C10 UNL     1     -32.469   8.877   2.074  1.00 20.00    -0.022 C 
HETATM   10  C7  UNL     1     -31.324   8.505   1.131  1.00 20.00     0.009 C 
HETATM   11  C8  UNL     1     -33.216  10.095   1.526  1.00 20.00     0.009 C 
ENDBRANCH   8   9
ENDBRANCH   3   8
TORSDOF 2
