REMARK  1 active torsions:
REMARK  status: ('A' for Active; 'I' for Inactive)
REMARK    1  A    between atoms: C5_5  and  C9_9 
ROOT
HETATM    1  C1  UNL     1     -31.677   8.563   1.240  1.00 20.00     0.012 C 
HETATM    2  C2  UNL     1     -32.408   8.329   2.162  1.00 20.00    -0.117 C 
HETATM    3  C9  UNL     1     -33.304   8.050   3.290  1.00 20.00     0.098 C 
ENDROOT
BRANCH   3   4
HETATM    4  C5  UNL     1     -33.115   6.630   3.806  1.00 20.00     0.002 C 
HETATM    5  C3  UNL     1     -33.391   5.570   2.726  1.00 20.00     0.007 C 
HETATM    6  C4  UNL     1     -34.134   4.427   3.424  1.00 20.00     0.021 C 
HETATM    7  C7  UNL     1     -34.023   4.732   4.913  1.00 20.00     0.086 C 
HETATM    8  C6  UNL     1     -34.061   6.261   4.961  1.00 20.00     0.005 C 
HETATM    9 CL10 UNL     1     -35.331   3.975   5.840  1.00 20.00    -0.125 Cl
HETATM   10  C8  UNL     1     -33.623   6.836   6.303  1.00 20.00     0.012 C 
ENDBRANCH   3   4
TORSDOF 1
