REMARK  1 active torsions:
REMARK  status: ('A' for Active; 'I' for Inactive)
REMARK    1  A    between atoms: C5_5  and  C9_9 
ROOT
HETATM    1  C1  UNL     1     -32.543   8.153   2.118  1.00 20.00     0.012 C 
HETATM    2  C2  UNL     1     -32.564   7.571   3.167  1.00 20.00    -0.117 C 
HETATM    3  C9  UNL     1     -32.580   6.856   4.448  1.00 20.00     0.098 C 
ENDROOT
BRANCH   3   4
HETATM    4  C5  UNL     1     -33.951   6.947   5.110  1.00 20.00     0.002 C 
HETATM    5  C3  UNL     1     -33.859   6.692   6.627  1.00 20.00     0.007 C 
HETATM    6  C4  UNL     1     -35.025   5.768   6.964  1.00 20.00     0.021 C 
HETATM    7  C7  UNL     1     -35.207   4.923   5.708  1.00 20.00     0.086 C 
HETATM    8  C6  UNL     1     -35.031   5.963   4.591  1.00 20.00     0.005 C 
HETATM    9 CL10 UNL     1     -33.993   3.613   5.660  1.00 20.00    -0.125 Cl
HETATM   10  C8  UNL     1     -34.836   5.403   3.188  1.00 20.00     0.012 C 
ENDBRANCH   3   4
TORSDOF 1
