REMARK  1 active torsions:
REMARK  status: ('A' for Active; 'I' for Inactive)
REMARK    1  A    between atoms: C7_7  and  C9_9 
ROOT
HETATM    1  C1  UNL     1     -31.696   8.209   2.574  1.00 20.00     0.012 C 
HETATM    2  C2  UNL     1     -32.312   7.189   2.723  1.00 20.00    -0.117 C 
HETATM    3  C9  UNL     1     -33.054   5.939   2.898  1.00 20.00     0.098 C 
ENDROOT
BRANCH   3   4
HETATM    4  C7  UNL     1     -34.348   6.176   3.680  1.00 20.00     0.008 C 
HETATM    5  C5  UNL     1     -35.347   5.032   3.464  1.00 20.00     0.013 C 
HETATM    6  C4  UNL     1     -34.930   3.942   4.446  1.00 20.00     0.079 C 
HETATM    7  C3  UNL     1     -34.333   4.745   5.573  1.00 20.00     0.131 C 
HETATM    8  C6  UNL     1     -34.184   6.211   5.212  1.00 20.00     0.056 C 
HETATM    9  O10 UNL     1     -34.015   4.261   6.652  1.00 20.00    -0.298 OA
HETATM   10  C8  UNL     1     -32.897   6.820   5.735  1.00 20.00     0.018 C 
ENDBRANCH   3   4
TORSDOF 1
