REMARK  3 active torsions:
REMARK  status: ('A' for Active; 'I' for Inactive)
REMARK    1  A    between atoms: C1_1  and  C4_4 
REMARK    2  A    between atoms: C1_1  and  C6_6 
REMARK    3  A    between atoms: N7_7  and  O8_8 
ROOT
HETATM    1  C1  UNL     1     -34.229   5.922   4.605  1.00 20.00     0.043 C 
HETATM    2  N7  UNL     1     -35.279   5.180   4.430  1.00 20.00    -0.145 NA
ENDROOT
BRANCH   1   3
HETATM    3  C4  UNL     1     -33.672   6.038   6.003  1.00 20.00     0.036 A 
HETATM    4  C2  UNL     1     -32.921   7.269   6.354  1.00 20.00     0.011 A 
HETATM    5  C3  UNL     1     -34.290   7.031   6.917  1.00 20.00     0.011 A 
ENDBRANCH   1   3
BRANCH   1   6
HETATM    6  C6  UNL     1     -33.534   6.718   3.515  1.00 20.00     0.053 C 
HETATM    7  C5  UNL     1     -32.078   6.307   3.399  1.00 20.00     0.011 C 
ENDBRANCH   1   6
BRANCH   2   8
HETATM    8  O8  UNL     1     -35.706   4.607   5.628  1.00 20.00    -0.266 OA
HETATM    9  H19 UNL     1     -36.479   4.095   5.336  1.00 20.00     0.247 HD
ENDBRANCH   2   8
TORSDOF 3
