REMARK  1 active torsions:
REMARK  status: ('A' for Active; 'I' for Inactive)
REMARK    1  A    between atoms: C6_6  and  N9_9 
ROOT
HETATM    1  C1  UNL     1     -32.242   6.879   3.372  1.00 20.00     0.158 C 
HETATM    2  N9  UNL     1     -32.486   6.321   4.376  1.00 20.00    -0.270 NA
HETATM    3  S10 UNL     1     -31.882   7.628   2.013  1.00 20.00    -0.055 SA
ENDROOT
BRANCH   2   4
HETATM    4  C6  UNL     1     -33.893   6.374   4.784  1.00 20.00     0.113 C 
HETATM    5  C3  UNL     1     -33.992   6.333   6.308  1.00 20.00     0.028 C 
HETATM    6  C2  UNL     1     -35.183   5.432   6.593  1.00 20.00     0.007 C 
HETATM    7  C4  UNL     1     -35.110   4.361   5.505  1.00 20.00    -0.013 C 
HETATM    8  C5  UNL     1     -34.650   5.137   4.253  1.00 20.00     0.010 C 
HETATM    9  C7  UNL     1     -34.125   3.249   5.871  1.00 20.00     0.010 C 
HETATM   10  C8  UNL     1     -35.846   5.565   3.399  1.00 20.00     0.012 C 
ENDBRANCH   2   4
TORSDOF 1
