REMARK  1 active torsions:
REMARK  status: ('A' for Active; 'I' for Inactive)
REMARK    1  A    between atoms: C5_5  and  C8_8 
ROOT
HETATM    1  C1  UNL     1     -31.989   8.593   0.789  1.00 20.00     0.018 A 
HETATM    2  C2  UNL     1     -31.851   7.573   1.725  1.00 20.00     0.010 A 
HETATM    3  C3  UNL     1     -32.830   9.658   1.081  1.00 20.00     0.087 A 
HETATM    4  C4  UNL     1     -33.378   8.724   3.164  1.00 20.00     0.095 A 
HETATM    5  C5  UNL     1     -32.551   7.635   2.927  1.00 20.00    -0.038 A 
HETATM    6  N12 UNL     1     -33.492   9.693   2.245  1.00 20.00    -0.375 N 
HETATM    7  H28 UNL     1     -34.104  10.484   2.439  1.00 20.00     0.164 HD
ENDROOT
BRANCH   5   8
HETATM    8  C8  UNL     1     -32.414   6.530   3.962  1.00 20.00     0.025 C 
HETATM    9  C6  UNL     1     -32.605   6.999   5.419  1.00 20.00     0.011 C 
HETATM   10  C7  UNL     1     -34.018   6.578   5.845  1.00 20.00     0.021 C 
HETATM   11  C10 UNL     1     -34.632   5.869   4.639  1.00 20.00     0.086 C 
HETATM   12  C9  UNL     1     -33.427   5.367   3.842  1.00 20.00     0.008 C 
HETATM   13 CL13 UNL     1     -35.728   4.561   5.131  1.00 20.00    -0.125 Cl
HETATM   14  C11 UNL     1     -33.765   4.918   2.426  1.00 20.00     0.012 C 
ENDBRANCH   5   8
TORSDOF 1
