REMARK  2 active torsions:
REMARK  status: ('A' for Active; 'I' for Inactive)
REMARK    1  A    between atoms: C4_4  and  C5_5 
REMARK    2  A    between atoms: C5_5  and  C7_7 
ROOT
HETATM    1  C3  UNL     1     -35.352   5.980   3.403  1.00 20.00     0.207 A 
HETATM    2  C5  UNL     1     -34.089   5.723   4.189  1.00 20.00     0.085 A 
HETATM    3  O8  UNL     1     -34.379   5.015   2.976  1.00 20.00    -0.375 OA
ENDROOT
BRANCH   2   4
HETATM    4  C4  UNL     1     -34.085   4.865   5.447  1.00 20.00     0.022 A 
HETATM    5  C1  UNL     1     -34.457   5.405   6.799  1.00 20.00     0.008 A 
HETATM    6  C2  UNL     1     -35.348   4.404   6.119  1.00 20.00     0.008 A 
ENDBRANCH   2   4
BRANCH   2   7
HETATM    7  C7  UNL     1     -32.960   6.698   4.042  1.00 20.00     0.036 C 
HETATM    8  C6  UNL     1     -32.996   7.435   2.731  1.00 20.00     0.008 C 
ENDBRANCH   2   7
TORSDOF 2
