REMARK  1 active torsions:
REMARK  status: ('A' for Active; 'I' for Inactive)
REMARK    1  A    between atoms: C7_7  and  C9_9 
ROOT
HETATM    1  C1  UNL     1     -31.605   8.248   1.072  1.00 20.00     0.012 C 
HETATM    2  C2  UNL     1     -32.269   8.166   2.069  1.00 20.00    -0.117 C 
HETATM    3  C9  UNL     1     -33.081   8.073   3.287  1.00 20.00     0.098 C 
ENDROOT
BRANCH   3   4
HETATM    4  C7  UNL     1     -33.256   6.626   3.723  1.00 20.00     0.008 C 
HETATM    5  C5  UNL     1     -33.957   5.779   2.658  1.00 20.00     0.013 C 
HETATM    6  C4  UNL     1     -34.387   4.519   3.399  1.00 20.00     0.079 C 
HETATM    7  C3  UNL     1     -34.657   5.049   4.784  1.00 20.00     0.131 C 
HETATM    8  C6  UNL     1     -34.157   6.470   4.960  1.00 20.00     0.056 C 
HETATM    9  O10 UNL     1     -35.213   4.398   5.660  1.00 20.00    -0.298 OA
HETATM   10  C8  UNL     1     -33.418   6.667   6.271  1.00 20.00     0.018 C 
ENDBRANCH   3   4
TORSDOF 1
