REMARK  1 active torsions:
REMARK  status: ('A' for Active; 'I' for Inactive)
REMARK    1  A    between atoms: C4_4  and  C7_7 
ROOT
HETATM    1  C5  UNL     1     -31.968   6.683   4.353  1.00 20.00     0.011 C 
HETATM    2  C6  UNL     1     -32.794   5.629   5.075  1.00 20.00     0.021 C 
HETATM    3  C7  UNL     1     -32.580   6.750   2.941  1.00 20.00     0.025 C 
HETATM    4  C8  UNL     1     -34.033   6.196   3.072  1.00 20.00     0.008 C 
HETATM    5  C9  UNL     1     -34.201   5.935   4.582  1.00 20.00     0.086 C 
HETATM    6  C10 UNL     1     -34.208   4.971   2.169  1.00 20.00     0.012 C 
HETATM    7 CL12 UNL     1     -35.352   4.666   5.026  1.00 20.00    -0.125 Cl
ENDROOT
BRANCH   3   8
HETATM    8  C4  UNL     1     -32.501   8.133   2.329  1.00 20.00    -0.029 A 
HETATM    9  C1  UNL     1     -33.101   9.317   2.820  1.00 20.00     0.034 A 
HETATM   10  C2  UNL     1     -32.754  10.314   1.939  1.00 20.00     0.142 A 
HETATM   11  O11 UNL     1     -31.979   9.819   0.939  1.00 20.00    -0.334 OA
HETATM   12  C3  UNL     1     -31.830   8.491   1.184  1.00 20.00     0.148 A 
ENDBRANCH   3   8
TORSDOF 1
