REMARK  2 active torsions:
REMARK  status: ('A' for Active; 'I' for Inactive)
REMARK    1  A    between atoms: C7_7  and  C10_10 
REMARK    2  A    between atoms: C9_9  and  C10_10 
ROOT
HETATM    1  C1  UNL     1     -32.265   9.607   0.942  1.00 20.00     0.012 C 
HETATM    2  C2  UNL     1     -32.308   8.675   1.697  1.00 20.00    -0.117 C 
HETATM    3  C9  UNL     1     -32.356   7.534   2.622  1.00 20.00     0.093 C 
ENDROOT
BRANCH   3   4
HETATM    4  C10 UNL     1     -33.754   6.949   2.653  1.00 20.00     0.017 C 
BRANCH   4   5
HETATM    5  C7  UNL     1     -33.824   5.774   3.618  1.00 20.00    -0.002 C 
HETATM    6  C5  UNL     1     -35.208   5.121   3.648  1.00 20.00     0.013 C 
HETATM    7  C4  UNL     1     -35.172   4.218   4.873  1.00 20.00     0.079 C 
HETATM    8  C3  UNL     1     -34.263   4.984   5.800  1.00 20.00     0.131 C 
HETATM    9  C6  UNL     1     -33.521   6.102   5.093  1.00 20.00     0.055 C 
HETATM   10  O11 UNL     1     -34.136   4.723   6.990  1.00 20.00    -0.298 OA
HETATM   11  C8  UNL     1     -34.027   7.447   5.595  1.00 20.00     0.018 C 
ENDBRANCH   4   5
ENDBRANCH   3   4
TORSDOF 2
