REMARK  2 active torsions:
REMARK  status: ('A' for Active; 'I' for Inactive)
REMARK    1  A    between atoms: C3_3  and  C8_8 
REMARK    2  A    between atoms: C8_8  and  C9_9 
ROOT
HETATM    1  C1  UNL     1     -33.227   7.283   5.206  1.00 20.00     0.006 C 
HETATM    2  C2  UNL     1     -33.790   6.278   6.206  1.00 20.00     0.021 C 
HETATM    3  C3  UNL     1     -33.786   6.881   3.824  1.00 20.00    -0.009 C 
HETATM    4  C4  UNL     1     -34.627   5.606   4.081  1.00 20.00     0.004 C 
HETATM    5  C5  UNL     1     -34.020   5.032   5.364  1.00 20.00     0.086 C 
HETATM    6  C6  UNL     1     -34.695   4.604   2.935  1.00 20.00     0.012 C 
HETATM    7 CL10 UNL     1     -35.085   3.876   6.183  1.00 20.00    -0.125 Cl
ENDROOT
BRANCH   3   8
HETATM    8  C8  UNL     1     -32.654   6.729   2.810  1.00 20.00     0.005 C 
BRANCH   8   9
HETATM    9  C9  UNL     1     -31.907   8.044   2.615  1.00 20.00    -0.004 C 
HETATM   10  C7  UNL     1     -32.830   9.128   2.084  1.00 20.00     0.005 C 
ENDBRANCH   8   9
ENDBRANCH   3   8
TORSDOF 2
