REMARK  2 active torsions:
REMARK  status: ('A' for Active; 'I' for Inactive)
REMARK    1  A    between atoms: C5_5  and  C9_9 
REMARK    2  A    between atoms: C9_9  and  C10_10 
ROOT
HETATM    1  C1  UNL     1     -34.555   5.631   5.482  1.00 20.00     0.131 C 
HETATM    2  C2  UNL     1     -33.685   6.717   6.063  1.00 20.00     0.079 C 
HETATM    3  C3  UNL     1     -32.763   7.042   4.894  1.00 20.00     0.013 C 
HETATM    4  C4  UNL     1     -34.373   5.496   3.983  1.00 20.00     0.055 C 
HETATM    5  C5  UNL     1     -33.623   6.797   3.652  1.00 20.00    -0.003 C 
HETATM    6  C6  UNL     1     -35.695   5.361   3.249  1.00 20.00     0.018 C 
HETATM    7  O11 UNL     1     -35.317   4.946   6.152  1.00 20.00    -0.298 OA
ENDROOT
BRANCH   5   8
HETATM    8  C9  UNL     1     -32.790   6.703   2.383  1.00 20.00     0.009 C 
BRANCH   8   9
HETATM    9  C10 UNL     1     -32.440   8.072   1.773  1.00 20.00    -0.022 C 
HETATM   10  C7  UNL     1     -33.685   8.875   1.393  1.00 20.00     0.009 C 
HETATM   11  C8  UNL     1     -31.585   8.876   2.755  1.00 20.00     0.009 C 
ENDBRANCH   8   9
ENDBRANCH   5   8
TORSDOF 2
