REMARK  2 active torsions:
REMARK  status: ('A' for Active; 'I' for Inactive)
REMARK    1  A    between atoms: C2_2  and  C10_10 
REMARK    2  A    between atoms: C7_7  and  C10_10 
ROOT
HETATM    1  C1  UNL     1     -31.797   7.705   1.743  1.00 20.00    -0.111 C 
HETATM    2  C2  UNL     1     -32.095   6.865   2.548  1.00 20.00    -0.107 C 
HETATM    3  C8  UNL     1     -31.435   8.727   0.762  1.00 20.00     0.112 C 
ENDROOT
BRANCH   2   4
HETATM    4  C10 UNL     1     -32.446   5.836   3.529  1.00 20.00     0.099 C 
BRANCH   4   5
HETATM    5  C7  UNL     1     -33.883   6.002   3.999  1.00 20.00     0.008 C 
HETATM    6  C5  UNL     1     -34.283   4.956   5.042  1.00 20.00     0.013 C 
HETATM    7  C4  UNL     1     -35.798   5.074   5.133  1.00 20.00     0.079 C 
HETATM    8  C3  UNL     1     -36.167   5.464   3.725  1.00 20.00     0.131 C 
HETATM    9  C6  UNL     1     -34.963   5.885   2.905  1.00 20.00     0.056 C 
HETATM   10  O11 UNL     1     -37.315   5.447   3.297  1.00 20.00    -0.298 OA
HETATM   11  C9  UNL     1     -34.701   4.856   1.816  1.00 20.00     0.018 C 
ENDBRANCH   4   5
ENDBRANCH   2   4
TORSDOF 2
