REMARK  2 active torsions:
REMARK  status: ('A' for Active; 'I' for Inactive)
REMARK    1  A    between atoms: C4_4  and  C9_9 
REMARK    2  A    between atoms: C6_6  and  N10_10 
ROOT
HETATM    1  C1  UNL     1     -32.282   8.905   1.393  1.00 20.00     0.158 C 
HETATM    2  N10 UNL     1     -32.280   7.799   1.786  1.00 20.00    -0.270 NA
HETATM    3  S11 UNL     1     -32.264  10.397   0.836  1.00 20.00    -0.055 SA
ENDROOT
BRANCH   2   4
HETATM    4  C6  UNL     1     -33.136   7.560   2.943  1.00 20.00     0.113 C 
HETATM    5  C3  UNL     1     -34.541   7.143   2.512  1.00 20.00     0.028 C 
HETATM    6  C2  UNL     1     -35.033   6.165   3.582  1.00 20.00     0.007 C 
HETATM    7  C4  UNL     1     -33.910   6.083   4.622  1.00 20.00    -0.009 C 
HETATM    8  C5  UNL     1     -32.632   6.408   3.824  1.00 20.00     0.010 C 
HETATM    9  C7  UNL     1     -32.072   5.220   3.035  1.00 20.00     0.012 C 
BRANCH   7  10
HETATM   10  C9  UNL     1     -33.906   4.770   5.389  1.00 20.00     0.000 C 
HETATM   11  C8  UNL     1     -35.190   4.552   6.121  1.00 20.00     0.005 C 
ENDBRANCH   7  10
ENDBRANCH   2   4
TORSDOF 2
