REMARK  3 active torsions:
REMARK  status: ('A' for Active; 'I' for Inactive)
REMARK    1  A    between atoms: C5_5  and  C7_7 
REMARK    2  A    between atoms: C5_5  and  C8_8 
REMARK    3  A    between atoms: C8_8  and  O9_9 
ROOT
HETATM    1  C1  UNL     1     -32.678   7.065   2.767  1.00 20.00     0.001 C 
HETATM    2  C2  UNL     1     -31.997   5.811   3.313  1.00 20.00     0.001 C 
HETATM    3  C3  UNL     1     -34.156   6.938   3.127  1.00 20.00     0.011 C 
HETATM    4  C4  UNL     1     -33.095   4.985   3.979  1.00 20.00     0.011 C 
HETATM    5  C5  UNL     1     -34.192   5.997   4.339  1.00 20.00    -0.019 C 
ENDROOT
BRANCH   5   6
HETATM    6  C7  UNL     1     -33.855   6.747   5.638  1.00 20.00     0.007 C 
HETATM    7  C6  UNL     1     -33.888   5.838   6.821  1.00 20.00     0.006 C 
ENDBRANCH   5   6
BRANCH   5   8
HETATM    8  C8  UNL     1     -35.556   5.320   4.487  1.00 20.00     0.173 C 
BRANCH   8   9
HETATM    9  O9  UNL     1     -35.389   4.163   5.279  1.00 20.00    -0.400 OA
HETATM   10  H25 UNL     1     -36.263   3.743   5.365  1.00 20.00     0.209 HD
ENDBRANCH   8   9
ENDBRANCH   5   8
TORSDOF 3
