REMARK  1 active torsions:
REMARK  status: ('A' for Active; 'I' for Inactive)
REMARK    1  A    between atoms: C1_1  and  N8_8 
ROOT
HETATM    1  C2  UNL     1     -34.496   3.826   5.378  1.00 20.00     0.008 C 
HETATM    2  C3  UNL     1     -34.203   3.739   3.864  1.00 20.00     0.026 C 
HETATM    3  C4  UNL     1     -35.909   5.349   4.223  1.00 20.00     0.031 C 
HETATM    4  C5  UNL     1     -34.021   6.288   5.311  1.00 20.00     0.130 C 
HETATM    5  C6  UNL     1     -35.118   5.231   5.533  1.00 20.00     0.006 C 
HETATM    6  C7  UNL     1     -34.673   5.111   3.354  1.00 20.00     0.087 C 
HETATM    7  N8  UNL     1     -33.745   6.108   3.892  1.00 20.00    -0.354 N 
ENDROOT
BRANCH   7   8
HETATM    8  C1  UNL     1     -32.736   6.721   3.198  1.00 20.00     0.351 C 
HETATM    9  O9  UNL     1     -31.909   7.509   3.640  1.00 20.00    -0.284 OA
ENDBRANCH   7   8
TORSDOF 1
