REMARK  4 active torsions:
REMARK  status: ('A' for Active; 'I' for Inactive)
REMARK    1  A    between atoms: C3_3  and  C5_5 
REMARK    2  A    between atoms: C5_5  and  N8_8 
REMARK    3  A    between atoms: C6_6  and  C7_7 
REMARK    4  A    between atoms: C7_7  and  N8_8 
ROOT
HETATM    1  N8  UNL     1     -33.476   6.418   4.116  1.00 20.00     0.089 N 
HETATM    2  H23 UNL     1     -32.751   5.751   4.393  1.00 20.00     0.316 HD
ENDROOT
BRANCH   1   3
HETATM    3  C5  UNL     1     -33.254   6.803   2.726  1.00 20.00     0.274 C 
BRANCH   3   4
HETATM    4  C3  UNL     1     -32.184   7.836   2.618  1.00 20.00     0.014 A 
HETATM    5  C1  UNL     1     -31.469   8.053   1.313  1.00 20.00     0.007 A 
HETATM    6  C2  UNL     1     -32.423   9.093   1.829  1.00 20.00     0.007 A 
ENDBRANCH   3   4
ENDBRANCH   1   3
BRANCH   1   7
HETATM    7  C7  UNL     1     -34.782   5.818   4.292  1.00 20.00     0.230 C 
HETATM    8  C4  UNL     1     -34.887   4.567   3.428  1.00 20.00     0.043 C 
BRANCH   7   9
HETATM    9  C6  UNL     1     -35.047   5.563   5.778  1.00 20.00     0.149 C 
HETATM   10 CL9  UNL     1     -34.393   6.837   6.840  1.00 20.00    -0.128 Cl
ENDBRANCH   7   9
ENDBRANCH   1   7
TORSDOF 4
