REMARK  3 active torsions:
REMARK  status: ('A' for Active; 'I' for Inactive)
REMARK    1  A    between atoms: C1_1  and  C2_2 
REMARK    2  A    between atoms: C1_1  and  C3_3 
REMARK    3  A    between atoms: C2_2  and  C4_4 
ROOT
HETATM    1  C2  UNL     1     -33.110   5.543   4.303  1.00 20.00     0.196 C 
ENDROOT
BRANCH   1   2
HETATM    2  C1  UNL     1     -33.391   6.797   3.491  1.00 20.00     0.148 C 
HETATM    3  O5  UNL     1     -34.482   7.362   3.524  1.00 20.00    -0.296 OA
BRANCH   2   4
HETATM    4  C3  UNL     1     -32.231   7.294   2.655  1.00 20.00     0.193 C 
HETATM    5 CL9  UNL     1     -32.676   8.761   1.771  1.00 20.00    -0.123 Cl
ENDBRANCH   2   4
ENDBRANCH   1   2
BRANCH   1   6
HETATM    6  C4  UNL     1     -34.285   5.103   5.145  1.00 20.00     0.394 C 
HETATM    7  F6  UNL     1     -33.995   3.995   5.860  1.00 20.00    -0.171 F 
HETATM    8  F7  UNL     1     -35.345   4.814   4.358  1.00 20.00    -0.171 F 
HETATM    9  F8  UNL     1     -34.668   6.071   6.004  1.00 20.00    -0.171 F 
ENDBRANCH   1   6
TORSDOF 3
