REMARK  2 active torsions:
REMARK  status: ('A' for Active; 'I' for Inactive)
REMARK    1  A    between atoms: C1_1  and  N11_11 
REMARK    2  A    between atoms: C7_7  and  C10_10 
ROOT
HETATM    1  C2  UNL     1     -33.005   5.032   1.876  1.00 20.00     0.020 C 
HETATM    2  C3  UNL     1     -34.225   5.180   2.785  1.00 20.00     0.006 C 
HETATM    3  C4  UNL     1     -33.148   6.595   4.660  1.00 20.00     0.025 C 
HETATM    4  C5  UNL     1     -32.370   6.354   1.453  1.00 20.00     0.125 C 
HETATM    5  C6  UNL     1     -31.875   6.879   3.867  1.00 20.00     0.125 C 
HETATM    6  C7  UNL     1     -33.864   5.290   4.277  1.00 20.00    -0.010 C 
HETATM    7  N11 UNL     1     -32.181   7.334   2.515  1.00 20.00    -0.359 N 
ENDROOT
BRANCH   6   8
HETATM    8  C10 UNL     1     -35.133   5.144   5.126  1.00 20.00    -0.019 C 
HETATM    9  C8  UNL     1     -36.055   4.089   4.524  1.00 20.00     0.010 C 
HETATM   10  C9  UNL     1     -34.771   4.791   6.564  1.00 20.00     0.010 C 
ENDBRANCH   6   8
BRANCH   7  11
HETATM   11  C1  UNL     1     -32.247   8.692   2.230  1.00 20.00     0.350 C 
HETATM   12  O12 UNL     1     -32.455   9.217   1.141  1.00 20.00    -0.284 OA
ENDBRANCH   7  11
TORSDOF 2
