REMARK  1 active torsions:
REMARK  status: ('A' for Active; 'I' for Inactive)
REMARK    1  A    between atoms: C1_1  and  N8_8 
ROOT
HETATM    1  C2  UNL     1     -35.371   4.739   6.291  1.00 20.00     0.022 C 
HETATM    2  C3  UNL     1     -35.222   4.011   4.959  1.00 20.00     0.032 C 
HETATM    3  C4  UNL     1     -34.083   5.538   6.379  1.00 20.00     0.126 C 
HETATM    4  C5  UNL     1     -34.528   5.046   4.044  1.00 20.00     0.027 C 
HETATM    5  C6  UNL     1     -33.614   4.332   3.042  1.00 20.00     0.038 C 
HETATM    6  C7  UNL     1     -35.566   5.896   3.297  1.00 20.00     0.038 C 
HETATM    7  N8  UNL     1     -33.771   5.876   5.000  1.00 20.00    -0.351 N 
ENDROOT
BRANCH   7   8
HETATM    8  C1  UNL     1     -32.895   6.886   4.667  1.00 20.00     0.351 C 
HETATM    9  O9  UNL     1     -32.573   7.240   3.538  1.00 20.00    -0.284 OA
ENDBRANCH   7   8
TORSDOF 1
