REMARK  1 active torsions:
REMARK  status: ('A' for Active; 'I' for Inactive)
REMARK    1  A    between atoms: C6_6  and  C7_7 
ROOT
HETATM    1  C1  UNL     1     -32.438   7.531   2.405  1.00 20.00     0.065 C 
HETATM    2  C7  UNL     1     -32.175   6.459   3.378  1.00 20.00     0.186 C 
HETATM    3  N8  UNL     1     -32.645   8.376   1.637  1.00 20.00    -0.197 NA
ENDROOT
BRANCH   2   4
HETATM    4  C6  UNL     1     -33.445   6.011   4.021  1.00 20.00     0.085 A 
HETATM    5  C4  UNL     1     -33.737   6.421   5.312  1.00 20.00     0.143 A 
HETATM    6  C2  UNL     1     -34.928   5.984   5.879  1.00 20.00     0.069 A 
HETATM    7  F10 UNL     1     -32.905   7.213   5.999  1.00 20.00    -0.204 F 
HETATM    8  C5  UNL     1     -35.780   5.162   5.149  1.00 20.00     0.054 A 
HETATM    9  C3  UNL     1     -35.397   4.809   3.865  1.00 20.00     0.141 A 
HETATM   10 CL11 UNL     1     -37.258   4.604   5.816  1.00 20.00    -0.083 Cl
HETATM   11  N9  UNL     1     -34.247   5.213   3.280  1.00 20.00    -0.260 NA
ENDBRANCH   2   4
TORSDOF 1
