REMARK  0 active torsions:
REMARK  status: ('A' for Active; 'I' for Inactive)
ROOT
HETATM    1  C1  UNL     1     -32.554   7.704   2.453  1.00 20.00    -0.074 C 
HETATM    2  C2  UNL     1     -32.156   8.653   1.603  1.00 20.00    -0.085 C 
HETATM    3  C3  UNL     1     -32.238   6.232   2.356  1.00 20.00     0.039 C 
HETATM    4  C4  UNL     1     -34.765   7.331   3.465  1.00 20.00     0.009 C 
HETATM    5  C5  UNL     1     -34.505   5.814   3.383  1.00 20.00     0.005 C 
HETATM    6  C6  UNL     1     -32.738   6.835   4.611  1.00 20.00     0.014 C 
HETATM    7  C7  UNL     1     -33.362   7.907   3.716  1.00 20.00     0.015 C 
HETATM    8  C8  UNL     1     -32.981   5.708   3.603  1.00 20.00    -0.010 C 
HETATM    9  C9  UNL     1     -32.525  10.098   1.789  1.00 20.00     0.043 C 
HETATM   10  C10 UNL     1     -31.309   8.344   0.400  1.00 20.00     0.043 C 
ENDROOT
TORSDOF 0
