REMARK  2 active torsions:
REMARK  status: ('A' for Active; 'I' for Inactive)
REMARK    1  A    between atoms: C1_1  and  C3_3 
REMARK    2  A    between atoms: C2_2  and  C5_5 
ROOT
HETATM    1  C1  UNL     1     -33.285   6.551   3.766  1.00 20.00     0.004 C 
HETATM    2  C2  UNL     1     -33.655   5.320   4.145  1.00 20.00     0.049 C 
ENDROOT
BRANCH   1   3
HETATM    3  C3  UNL     1     -32.666   6.821   2.488  1.00 20.00     0.007 C 
HETATM    4  C4  UNL     1     -32.295   8.048   2.105  1.00 20.00     0.056 C 
HETATM    5 BR8  UNL     1     -31.499   8.434   0.474  1.00 20.00    -0.064 Br
ENDBRANCH   1   3
BRANCH   2   6
HETATM    6  C5  UNL     1     -34.291   5.096   5.473  1.00 20.00     0.145 C 
HETATM    7  C6  UNL     1     -33.891   6.037   6.579  1.00 20.00     0.096 C 
HETATM    8  O7  UNL     1     -35.081   4.177   5.675  1.00 20.00    -0.294 OA
ENDBRANCH   2   6
TORSDOF 2
