REMARK  0 active torsions:
REMARK  status: ('A' for Active; 'I' for Inactive)
ROOT
HETATM    1  C1  UNL     1     -32.581   7.469   2.104  1.00 20.00     0.102 C 
HETATM    2  C2  UNL     1     -34.167   5.653   2.553  1.00 20.00     0.075 A 
HETATM    3  C3  UNL     1     -33.338   6.656   3.005  1.00 20.00     0.075 A 
HETATM    4  C4  UNL     1     -33.345   6.757   4.426  1.00 20.00     0.084 A 
HETATM    5  C5  UNL     1     -34.181   5.828   5.006  1.00 20.00     0.097 A 
HETATM    6  N6  UNL     1     -31.967   8.129   1.373  1.00 20.00    -0.191 NA
HETATM    7  S7  UNL     1     -34.951   4.839   3.840  1.00 20.00    -0.086 SA
HETATM    8 CL8  UNL     1     -32.413   7.912   5.291  1.00 20.00    -0.080 Cl
HETATM    9 CL9  UNL     1     -34.513   5.571   6.671  1.00 20.00    -0.074 Cl
ENDROOT
TORSDOF 0
