REMARK  1 active torsions:
REMARK  status: ('A' for Active; 'I' for Inactive)
REMARK    1  A    between atoms: C2_2  and  C3_3 
ROOT
HETATM    1  C1  UNL     1     -33.521   6.553   3.247  1.00 20.00     0.112 C 
HETATM    2  C2  UNL     1     -34.528   6.004   3.934  1.00 20.00     0.090 C 
HETATM    3 CL6  UNL     1     -31.975   6.940   3.886  1.00 20.00    -0.095 Cl
HETATM    4 CL7  UNL     1     -36.060   5.645   3.210  1.00 20.00    -0.080 Cl
ENDROOT
BRANCH   2   5
HETATM    5  C3  UNL     1     -34.399   5.659   5.386  1.00 20.00     0.167 C 
HETATM    6  C4  UNL     1     -34.579   4.226   5.823  1.00 20.00     0.097 C 
HETATM    7  O5  UNL     1     -34.150   6.532   6.218  1.00 20.00    -0.292 OA
ENDBRANCH   2   5
TORSDOF 1
