REMARK  5 active torsions:
REMARK  status: ('A' for Active; 'I' for Inactive)
REMARK    1  A    between atoms: C2_2  and  C9_9 
REMARK    2  A    between atoms: C3_3  and  C8_8 
REMARK    3  A    between atoms: C4_4  and  C10_10 
REMARK    4  A    between atoms: C8_8  and  C9_9 
REMARK    5  A    between atoms: C10_10  and  O11_11 
ROOT
HETATM    1  C3  UNL     1     -35.285   5.891   3.896  1.00 20.00    -0.027 C 
HETATM    2  C4  UNL     1     -35.499   5.030   4.903  1.00 20.00     0.006 C 
ENDROOT
BRANCH   1   3
HETATM    3  C8  UNL     1     -34.178   6.911   3.892  1.00 20.00     0.035 C 
BRANCH   3   4
HETATM    4  C9  UNL     1     -33.260   6.781   2.661  1.00 20.00     0.006 C 
HETATM    5  C5  UNL     1     -32.213   5.691   2.901  1.00 20.00     0.014 C 
BRANCH   4   6
HETATM    6  C2  UNL     1     -32.564   8.085   2.352  1.00 20.00    -0.032 C 
HETATM    7  C1  UNL     1     -31.703   8.251   1.341  1.00 20.00     0.007 C 
ENDBRANCH   4   6
ENDBRANCH   3   4
ENDBRANCH   1   3
BRANCH   2   8
HETATM    8  C10 UNL     1     -34.705   4.910   6.185  1.00 20.00     0.068 C 
HETATM    9  C6  UNL     1     -35.489   4.423   7.409  1.00 20.00     0.050 C 
HETATM   10  C7  UNL     1     -33.501   3.993   5.950  1.00 20.00     0.050 C 
BRANCH   8  11
HETATM   11  O11 UNL     1     -34.185   6.208   6.496  1.00 20.00    -0.387 OA
HETATM   12  H29 UNL     1     -33.683   6.107   7.317  1.00 20.00     0.211 HD
ENDBRANCH   8  11
ENDBRANCH   2   8
TORSDOF 5
