REMARK  4 active torsions:
REMARK  status: ('A' for Active; 'I' for Inactive)
REMARK    1  A    between atoms: C3_3  and  C7_7 
REMARK    2  A    between atoms: C6_6  and  C7_7 
REMARK    3  A    between atoms: C6_6  and  N9_9 
REMARK    4  A    between atoms: C8_8  and  N9_9 
ROOT
HETATM    1  C6  UNL     1     -32.160   6.183   2.493  1.00 20.00     0.290 C 
ENDROOT
BRANCH   1   2
HETATM    2  C7  UNL     1     -33.617   5.769   2.710  1.00 20.00     0.114 C 
HETATM    3 CL10 UNL     1     -33.859   4.060   2.237  1.00 20.00    -0.123 Cl
BRANCH   2   4
HETATM    4  C3  UNL     1     -34.095   5.977   4.142  1.00 20.00     0.006 A 
HETATM    5  C1  UNL     1     -35.293   5.228   4.657  1.00 20.00     0.006 A 
HETATM    6  C2  UNL     1     -33.919   4.889   5.165  1.00 20.00     0.006 A 
ENDBRANCH   2   4
ENDBRANCH   1   2
BRANCH   1   7
HETATM    7  N9  UNL     1     -31.950   7.585   2.767  1.00 20.00     0.088 N 
HETATM    8  H26 UNL     1     -30.956   7.761   2.940  1.00 20.00     0.316 HD
BRANCH   7   9
HETATM    9  C8  UNL     1     -32.385   8.419   1.649  1.00 20.00     0.212 C 
HETATM   10  C4  UNL     1     -31.294   8.439   0.589  1.00 20.00     0.042 C 
HETATM   11  C5  UNL     1     -32.693   9.816   2.167  1.00 20.00     0.042 C 
ENDBRANCH   7   9
ENDBRANCH   1   7
TORSDOF 4
