REMARK  3 active torsions:
REMARK  status: ('A' for Active; 'I' for Inactive)
REMARK    1  A    between atoms: C2_2  and  C8_8 
REMARK    2  A    between atoms: C4_4  and  C7_7 
REMARK    3  A    between atoms: C7_7  and  C8_8 
ROOT
HETATM    1  C7  UNL     1     -33.546   6.242   5.175  1.00 20.00     0.034 C 
ENDROOT
BRANCH   1   2
HETATM    2  C4  UNL     1     -34.615   5.877   6.168  1.00 20.00    -0.030 C 
HETATM    3  C3  UNL     1     -35.178   4.662   6.246  1.00 20.00    -0.035 C 
HETATM    4  C5  UNL     1     -34.815   3.520   5.356  1.00 20.00     0.035 C 
ENDBRANCH   1   2
BRANCH   1   5
HETATM    5  C8  UNL     1     -34.122   6.779   3.851  1.00 20.00     0.007 C 
HETATM    6  C6  UNL     1     -35.031   5.727   3.211  1.00 20.00     0.014 C 
BRANCH   5   7
HETATM    7  C2  UNL     1     -33.026   7.150   2.881  1.00 20.00    -0.032 C 
HETATM    8  C1  UNL     1     -31.720   7.034   3.148  1.00 20.00     0.007 C 
ENDBRANCH   5   7
ENDBRANCH   1   5
TORSDOF 3
