REMARK  1 active torsions:
REMARK  status: ('A' for Active; 'I' for Inactive)
REMARK    1  A    between atoms: C5_5  and  C8_8 
ROOT
HETATM    1  C1  UNL     1     -34.098   7.583   3.177  1.00 20.00     0.047 C 
HETATM    2  C2  UNL     1     -34.653   6.545   3.816  1.00 20.00    -0.009 C 
HETATM    3  C3  UNL     1     -32.645   7.595   2.886  1.00 20.00     0.149 C 
HETATM    4  C6  UNL     1     -31.829   6.374   3.242  1.00 20.00     0.084 C 
HETATM    5  C7  UNL     1     -32.391   5.679   4.476  1.00 20.00     0.025 C 
HETATM    6  C8  UNL     1     -33.895   5.346   4.347  1.00 20.00    -0.003 C 
HETATM    7  C11 UNL     1     -34.116   4.157   3.397  1.00 20.00     0.024 C 
HETATM    8  O12 UNL     1     -32.147   8.559   2.309  1.00 20.00    -0.293 OA
ENDROOT
BRANCH   6   9
HETATM    9  C5  UNL     1     -34.412   4.958   5.712  1.00 20.00    -0.076 C 
HETATM   10  C4  UNL     1     -34.366   5.820   6.745  1.00 20.00    -0.027 C 
HETATM   11  C9  UNL     1     -33.843   7.200   6.747  1.00 20.00     0.036 C 
HETATM   12  C10 UNL     1     -34.966   3.565   5.810  1.00 20.00     0.044 C 
ENDBRANCH   6   9
TORSDOF 1
