REMARK  0 active torsions:
REMARK  status: ('A' for Active; 'I' for Inactive)
ROOT
HETATM    1  C1  UNL     1     -33.843   5.857   6.711  1.00 20.00     0.001 C 
HETATM    2  C2  UNL     1     -34.308   5.345   5.561  1.00 20.00     0.076 C 
HETATM    3  C3  UNL     1     -33.374   7.254   6.968  1.00 20.00     0.038 C 
HETATM    4 CL4  UNL     1     -34.445   6.283   4.112  1.00 20.00    -0.076 Cl
HETATM    5 BR5  UNL     1     -34.850   3.557   5.437  1.00 20.00    -0.038 Br
ENDROOT
TORSDOF 0
