REMARK  0 active torsions:
REMARK  status: ('A' for Active; 'I' for Inactive)
ROOT
HETATM    1  C1  UNL     1     -32.779   8.755   2.421  1.00 20.00     0.085 C 
HETATM    2  C2  UNL     1     -33.098   4.932   2.911  1.00 20.00     0.004 C 
HETATM    3  C3  UNL     1     -33.240   6.357   2.377  1.00 20.00     0.041 C 
HETATM    4  C4  UNL     1     -33.891   7.811   4.380  1.00 20.00     0.042 C 
HETATM    5  C5  UNL     1     -33.248   4.650   4.404  1.00 20.00     0.009 C 
HETATM    6  C6  UNL     1     -34.003   6.808   5.527  1.00 20.00     0.011 C 
HETATM    7  C7  UNL     1     -32.857   7.543   3.271  1.00 20.00     0.125 C 
HETATM    8  C8  UNL     1     -34.378   5.347   5.188  1.00 20.00    -0.048 C 
HETATM    9  C9  UNL     1     -34.521   4.600   6.540  1.00 20.00     0.015 C 
HETATM   10  C10 UNL     1     -35.734   5.250   4.472  1.00 20.00     0.015 C 
HETATM   11  N11 UNL     1     -32.719   9.703   1.755  1.00 20.00    -0.195 NA
HETATM   12 CL12 UNL     1     -31.204   7.353   3.938  1.00 20.00    -0.103 Cl
ENDROOT
TORSDOF 0
