REMARK  0 active torsions:
REMARK  status: ('A' for Active; 'I' for Inactive)
ROOT
HETATM    1  C1  UNL     1     -32.226   7.904   2.655  1.00 20.00     0.064 C 
HETATM    2  C2  UNL     1     -33.956   7.368   5.415  1.00 20.00     0.002 C 
HETATM    3  C3  UNL     1     -32.481   7.268   5.028  1.00 20.00     0.019 C 
HETATM    4  C4  UNL     1     -33.142   5.667   3.085  1.00 20.00     0.020 C 
HETATM    5  C5  UNL     1     -34.500   6.062   5.998  1.00 20.00     0.008 C 
HETATM    6  C6  UNL     1     -33.523   4.594   4.107  1.00 20.00     0.010 C 
HETATM    7  C7  UNL     1     -32.210   6.769   3.603  1.00 20.00     0.093 C 
HETATM    8  C8  UNL     1     -34.747   4.901   5.007  1.00 20.00    -0.048 C 
HETATM    9  C9  UNL     1     -36.008   5.188   4.165  1.00 20.00     0.015 C 
HETATM   10  C10 UNL     1     -35.038   3.632   5.843  1.00 20.00     0.015 C 
HETATM   11  N11 UNL     1     -32.238   8.795   1.912  1.00 20.00    -0.197 NA
ENDROOT
TORSDOF 0
