REMARK  1 active torsions:
REMARK  status: ('A' for Active; 'I' for Inactive)
REMARK    1  A    between atoms: C3_3  and  C8_8 
ROOT
HETATM    1  C1  UNL     1     -33.179   7.414   1.967  1.00 20.00     0.022 A 
HETATM    2  C2  UNL     1     -31.742   8.058   3.677  1.00 20.00     0.057 A 
HETATM    3  C3  UNL     1     -32.771   7.215   3.318  1.00 20.00    -0.045 A 
HETATM    4  C4  UNL     1     -32.446   8.401   1.345  1.00 20.00    -0.021 A 
HETATM    5  C10 UNL     1     -32.563   8.898  -0.043  1.00 20.00     0.056 C 
HETATM    6  S11 UNL     1     -31.272   9.083   2.388  1.00 20.00    -0.106 SA
ENDROOT
BRANCH   3   7
HETATM    7  C8  UNL     1     -33.395   6.199   4.246  1.00 20.00     0.033 C 
HETATM    8  C6  UNL     1     -34.493   5.360   3.580  1.00 20.00     0.010 C 
HETATM    9  C5  UNL     1     -35.305   4.780   4.737  1.00 20.00     0.002 C 
HETATM   10  C7  UNL     1     -34.957   5.610   5.974  1.00 20.00     0.016 C 
HETATM   11  C9  UNL     1     -34.127   6.778   5.458  1.00 20.00     0.066 C 
HETATM   12 BR12 UNL     1     -32.889   7.400   6.816  1.00 20.00    -0.090 Br
ENDBRANCH   3   7
TORSDOF 1
