REMARK  2 active torsions:
REMARK  status: ('A' for Active; 'I' for Inactive)
REMARK    1  A    between atoms: C8_8  and  C10_10 
REMARK    2  A    between atoms: C10_10  and  C11_11 
ROOT
HETATM    1  C1  UNL     1     -36.397   4.636   4.426  1.00 20.00     0.064 C 
HETATM    2  C2  UNL     1     -33.880   6.450   5.552  1.00 20.00     0.002 C 
HETATM    3  C3  UNL     1     -34.097   4.964   5.267  1.00 20.00     0.019 C 
HETATM    4  C4  UNL     1     -34.782   5.577   2.834  1.00 20.00     0.019 C 
HETATM    5  C5  UNL     1     -32.683   7.027   4.796  1.00 20.00     0.005 C 
HETATM    6  C6  UNL     1     -33.335   5.969   2.534  1.00 20.00     0.006 C 
HETATM    7  C7  UNL     1     -34.969   4.652   4.043  1.00 20.00     0.093 C 
HETATM    8  C8  UNL     1     -32.887   7.232   3.289  1.00 20.00    -0.014 C 
HETATM    9  N12 UNL     1     -37.518   4.623   4.726  1.00 20.00    -0.197 NA
ENDROOT
BRANCH   8  10
HETATM   10  C10 UNL     1     -31.586   7.764   2.674  1.00 20.00     0.004 C 
BRANCH  10  11
HETATM   11  C11 UNL     1     -31.845   8.403   1.317  1.00 20.00    -0.004 C 
HETATM   12  C9  UNL     1     -32.833   9.552   1.435  1.00 20.00     0.005 C 
ENDBRANCH  10  11
ENDBRANCH   8  10
TORSDOF 2
