REMARK  1 active torsions:
REMARK  status: ('A' for Active; 'I' for Inactive)
REMARK    1  A    between atoms: C6_6  and  S9_9 
ROOT
HETATM    1  C1  UNL     1     -34.939   5.597   3.756  1.00 20.00     0.080 C 
HETATM    2  C2  UNL     1     -34.597   6.267   6.736  1.00 20.00     0.003 C 
HETATM    3  C3  UNL     1     -34.682   4.741   6.692  1.00 20.00     0.003 C 
HETATM    4  C4  UNL     1     -33.665   6.676   5.594  1.00 20.00     0.036 C 
HETATM    5  C5  UNL     1     -33.790   4.298   5.531  1.00 20.00     0.036 C 
HETATM    6  C6  UNL     1     -33.733   5.512   4.600  1.00 20.00     0.096 C 
HETATM    7  N8  UNL     1     -35.889   5.663   3.092  1.00 20.00    -0.196 NA
ENDROOT
BRANCH   6   8
HETATM    8  S9  UNL     1     -32.243   5.458   3.547  1.00 20.00    -0.148 SA
HETATM    9  C7  UNL     1     -32.468   7.041   2.709  1.00 20.00     0.091 C 
ENDBRANCH   6   8
TORSDOF 1
