REMARK  5 active torsions:
REMARK  status: ('A' for Active; 'I' for Inactive)
REMARK    1  A    between atoms: C5_5  and  C7_7 
REMARK    2  A    between atoms: C6_6  and  C8_8 
REMARK    3  A    between atoms: C7_7  and  C9_9 
REMARK    4  A    between atoms: C8_8  and  C9_9 
REMARK    5  A    between atoms: C9_9  and  S11_11 
ROOT
HETATM    1  C1  UNL     1     -33.041   5.809   2.852  1.00 20.00     0.080 C 
HETATM    2  C9  UNL     1     -33.568   6.543   4.024  1.00 20.00     0.096 C 
HETATM    3  N10 UNL     1     -32.630   5.232   1.932  1.00 20.00    -0.196 NA
ENDROOT
BRANCH   2   4
HETATM    4  C7  UNL     1     -34.491   5.611   4.858  1.00 20.00     0.035 C 
BRANCH   4   5
HETATM    5  C5  UNL     1     -33.828   4.323   5.370  1.00 20.00    -0.002 C 
HETATM    6  C2  UNL     1     -34.827   3.447   6.114  1.00 20.00     0.005 C 
ENDBRANCH   4   5
ENDBRANCH   2   4
BRANCH   2   7
HETATM    7  C8  UNL     1     -34.313   7.825   3.572  1.00 20.00     0.035 C 
BRANCH   7   8
HETATM    8  C6  UNL     1     -33.431   9.012   3.149  1.00 20.00    -0.002 C 
HETATM    9  C3  UNL     1     -32.473   8.615   2.034  1.00 20.00     0.005 C 
ENDBRANCH   7   8
ENDBRANCH   2   7
BRANCH   2  10
HETATM   10  S11 UNL     1     -32.147   6.979   5.129  1.00 20.00    -0.148 SA
HETATM   11  C4  UNL     1     -33.102   7.827   6.401  1.00 20.00     0.091 C 
ENDBRANCH   2  10
TORSDOF 5
