REMARK  1 active torsions:
REMARK  status: ('A' for Active; 'I' for Inactive)
REMARK    1  A    between atoms: C3_3  and  C8_8 
ROOT
HETATM    1  C1  UNL     1     -33.058   7.848   2.708  1.00 20.00     0.022 A 
HETATM    2  C2  UNL     1     -31.082   7.525   3.887  1.00 20.00     0.057 A 
HETATM    3  C3  UNL     1     -32.396   7.137   3.750  1.00 20.00    -0.046 A 
HETATM    4  C4  UNL     1     -32.225   8.754   2.089  1.00 20.00    -0.021 A 
HETATM    5  C10 UNL     1     -32.532   9.675   0.973  1.00 20.00     0.056 C 
HETATM    6  S11 UNL     1     -30.651   8.743   2.763  1.00 20.00    -0.106 SA
ENDROOT
BRANCH   3   7
HETATM    7  C8  UNL     1     -33.061   6.077   4.605  1.00 20.00     0.020 C 
HETATM    8  C5  UNL     1     -33.046   6.387   6.110  1.00 20.00     0.010 C 
HETATM    9  C6  UNL     1     -34.171   5.554   6.733  1.00 20.00     0.016 C 
HETATM   10  C9  UNL     1     -35.011   5.034   5.573  1.00 20.00     0.058 C 
HETATM   11  C7  UNL     1     -34.554   5.816   4.351  1.00 20.00     0.025 C 
HETATM   12 BR12 UNL     1     -34.688   3.122   5.308  1.00 20.00    -0.091 Br
ENDBRANCH   3   7
TORSDOF 1
