REMARK  1 active torsions:
REMARK  status: ('A' for Active; 'I' for Inactive)
REMARK    1  A    between atoms: C4_4  and  C8_8 
ROOT
HETATM    1  C5  UNL     1     -31.572   7.354   3.890  1.00 20.00     0.011 C 
HETATM    2  C6  UNL     1     -31.361   8.494   2.888  1.00 20.00     0.021 C 
HETATM    3  C7  UNL     1     -33.344   7.326   2.251  1.00 20.00     0.029 C 
HETATM    4  C8  UNL     1     -32.653   6.428   3.288  1.00 20.00     0.020 C 
HETATM    5  C9  UNL     1     -32.175   8.103   1.663  1.00 20.00     0.083 C 
HETATM    6 CL11 UNL     1     -32.703   9.506   0.724  1.00 20.00    -0.125 Cl
ENDROOT
BRANCH   4   7
HETATM    7  C4  UNL     1     -33.535   5.752   4.316  1.00 20.00    -0.047 A 
HETATM    8  C1  UNL     1     -34.562   4.820   3.992  1.00 20.00     0.015 A 
HETATM    9  C2  UNL     1     -35.213   4.356   5.113  1.00 20.00     0.050 A 
HETATM   10  S10 UNL     1     -34.587   5.045   6.551  1.00 20.00    -0.113 SA
HETATM   11  C3  UNL     1     -33.440   5.966   5.674  1.00 20.00     0.057 A 
ENDBRANCH   4   7
TORSDOF 1
