REMARK  1 active torsions:
REMARK  status: ('A' for Active; 'I' for Inactive)
REMARK    1  A    between atoms: C4_4  and  C10_10 
ROOT
HETATM    1  C5  UNL     1     -34.288   5.451   6.990  1.00 20.00     0.001 C 
HETATM    2  C6  UNL     1     -35.398   4.408   6.936  1.00 20.00     0.001 C 
HETATM    3  C7  UNL     1     -34.182   6.344   5.757  1.00 20.00     0.009 C 
HETATM    4  C8  UNL     1     -35.631   3.696   5.606  1.00 20.00     0.020 C 
HETATM    5  C9  UNL     1     -33.914   4.537   3.916  1.00 20.00     0.029 C 
HETATM    6  C10 UNL     1     -33.292   5.735   4.657  1.00 20.00     0.020 C 
HETATM    7  C11 UNL     1     -34.366   3.374   4.809  1.00 20.00     0.083 C 
HETATM    8 CL13 UNL     1     -34.723   1.972   3.731  1.00 20.00    -0.125 Cl
ENDROOT
BRANCH   6   9
HETATM    9  C4  UNL     1     -32.870   6.802   3.653  1.00 20.00    -0.047 A 
HETATM   10  C1  UNL     1     -31.987   6.560   2.561  1.00 20.00     0.015 A 
HETATM   11  C2  UNL     1     -31.771   7.694   1.809  1.00 20.00     0.050 A 
HETATM   12  S12 UNL     1     -32.632   9.043   2.420  1.00 20.00    -0.113 SA
HETATM   13  C3  UNL     1     -33.296   8.111   3.694  1.00 20.00     0.057 A 
ENDBRANCH   6   9
TORSDOF 1
