REMARK  3 active torsions:
REMARK  status: ('A' for Active; 'I' for Inactive)
REMARK    1  A    between atoms: C4_4  and  C9_9 
REMARK    2  A    between atoms: C8_8  and  C9_9 
REMARK    3  A    between atoms: C9_9  and  O10_10 
ROOT
HETATM    1  C9  UNL     1     -33.091   6.396   2.665  1.00 20.00     0.155 C 
ENDROOT
BRANCH   1   2
HETATM    2  C4  UNL     1     -32.871   7.774   2.079  1.00 20.00    -0.022 A 
HETATM    3  C1  UNL     1     -33.322   8.979   2.690  1.00 20.00     0.017 A 
HETATM    4  C2  UNL     1     -32.992  10.091   1.948  1.00 20.00     0.050 A 
HETATM    5  S11 UNL     1     -32.141   9.681   0.519  1.00 20.00    -0.113 SA
HETATM    6  C3  UNL     1     -32.213   8.011   0.892  1.00 20.00     0.059 A 
ENDBRANCH   1   2
BRANCH   1   7
HETATM    7  C8  UNL     1     -34.333   6.323   3.540  1.00 20.00     0.019 C 
HETATM    8  C6  UNL     1     -34.126   6.646   5.041  1.00 20.00     0.007 C 
HETATM    9  C5  UNL     1     -33.994   5.132   5.295  1.00 20.00     0.001 C 
HETATM   10  C7  UNL     1     -34.770   4.904   3.983  1.00 20.00     0.007 C 
ENDBRANCH   1   7
BRANCH   1  11
HETATM   11  O10 UNL     1     -31.944   6.060   3.448  1.00 20.00    -0.391 OA
HETATM   12  H23 UNL     1     -31.187   6.075   2.843  1.00 20.00     0.210 HD
ENDBRANCH   1  11
TORSDOF 3
