REMARK  1 active torsions:
REMARK  status: ('A' for Active; 'I' for Inactive)
REMARK    1  A    between atoms: C7_7  and  C11_11 
ROOT
HETATM    1  C1  UNL     1     -35.141   5.309   2.903  1.00 20.00     0.004 C 
HETATM    2  C2  UNL     1     -34.520   6.702   3.063  1.00 20.00     0.005 C 
HETATM    3  C3  UNL     1     -33.044   6.635   5.196  1.00 20.00     0.008 C 
HETATM    4  C4  UNL     1     -35.589   4.650   4.203  1.00 20.00     0.040 C 
HETATM    5  C5  UNL     1     -34.121   5.831   5.920  1.00 20.00     0.041 C 
HETATM    6  C6  UNL     1     -33.529   3.391   5.203  1.00 20.00     0.207 A 
HETATM    7  C7  UNL     1     -33.100   6.664   3.656  1.00 20.00    -0.011 C 
HETATM    8  C8  UNL     1     -34.490   4.558   5.220  1.00 20.00     0.082 A 
HETATM    9  O12 UNL     1     -34.637   3.440   6.111  1.00 20.00    -0.375 OA
ENDROOT
BRANCH   7  10
HETATM   10  C11 UNL     1     -32.283   7.860   3.152  1.00 20.00    -0.019 C 
HETATM   11  C9  UNL     1     -30.887   7.844   3.766  1.00 20.00     0.010 C 
HETATM   12  C10 UNL     1     -32.207   7.846   1.630  1.00 20.00     0.010 C 
ENDBRANCH   7  10
TORSDOF 1
