REMARK  2 active torsions:
REMARK  status: ('A' for Active; 'I' for Inactive)
REMARK    1  A    between atoms: C5_5  and  S11_11 
REMARK    2  A    between atoms: C9_9  and  S11_11 
ROOT
HETATM    1  C1  UNL     1     -34.012   6.519   5.376  1.00 20.00     0.080 C 
HETATM    2  C2  UNL     1     -34.987   4.065   3.937  1.00 20.00     0.005 C 
HETATM    3  C3  UNL     1     -33.824   4.925   3.399  1.00 20.00     0.036 C 
HETATM    4  C4  UNL     1     -35.828   5.357   4.020  1.00 20.00     0.036 C 
HETATM    5  C5  UNL     1     -34.498   6.151   4.066  1.00 20.00     0.097 C 
HETATM    6  N10 UNL     1     -33.623   6.814   6.428  1.00 20.00    -0.196 NA
ENDROOT
BRANCH   5   7
HETATM    7  S11 UNL     1     -34.521   7.614   2.970  1.00 20.00    -0.135 SA
BRANCH   7   8
HETATM    8  C9  UNL     1     -32.730   8.007   3.043  1.00 20.00    -0.001 C 
HETATM    9  C6  UNL     1     -31.951   6.706   3.257  1.00 20.00     0.026 C 
HETATM   10  C7  UNL     1     -32.325   8.659   1.718  1.00 20.00     0.026 C 
HETATM   11  C8  UNL     1     -32.487   8.972   4.207  1.00 20.00     0.026 C 
ENDBRANCH   7   8
ENDBRANCH   5   7
TORSDOF 2
