REMARK  1 active torsions:
REMARK  status: ('A' for Active; 'I' for Inactive)
REMARK    1  A    between atoms: C4_4  and  C10_10 
ROOT
HETATM    1  C5  UNL     1     -33.419   6.181   5.552  1.00 20.00     0.135 C 
HETATM    2  C6  UNL     1     -34.116   5.152   6.417  1.00 20.00     0.079 C 
HETATM    3  C7  UNL     1     -35.489   4.811   5.858  1.00 20.00     0.007 C 
HETATM    4  C8  UNL     1     -35.415   4.406   4.389  1.00 20.00     0.001 C 
HETATM    5  C9  UNL     1     -34.787   5.518   3.550  1.00 20.00     0.017 C 
HETATM    6  C10 UNL     1     -33.382   5.886   4.054  1.00 20.00     0.088 C 
HETATM    7  O11 UNL     1     -32.830   7.134   6.064  1.00 20.00    -0.297 OA
ENDROOT
BRANCH   6   8
HETATM    8  C4  UNL     1     -32.769   7.013   3.244  1.00 20.00    -0.040 A 
HETATM    9  C1  UNL     1     -31.464   7.537   3.473  1.00 20.00     0.015 A 
HETATM   10  C2  UNL     1     -31.153   8.554   2.597  1.00 20.00     0.050 A 
HETATM   11  S12 UNL     1     -32.432   8.873   1.505  1.00 20.00    -0.113 SA
HETATM   12  C3  UNL     1     -33.406   7.649   2.202  1.00 20.00     0.057 A 
ENDBRANCH   6   8
TORSDOF 1
