REMARK  4 active torsions:
REMARK  status: ('A' for Active; 'I' for Inactive)
REMARK    1  A    between atoms: C5_5  and  C7_7 
REMARK    2  A    between atoms: C5_5  and  O10_10 
REMARK    3  A    between atoms: C6_6  and  C7_7 
REMARK    4  A    between atoms: C7_7  and  N8_8 
ROOT
HETATM    1  C1  UNL     1     -36.411   5.783   3.678  1.00 20.00     0.332 C 
HETATM    2  N8  UNL     1     -35.378   5.585   3.163  1.00 20.00    -0.240 NA
HETATM    3  O9  UNL     1     -37.454   5.978   4.186  1.00 20.00    -0.260 OA
ENDROOT
BRANCH   2   4
HETATM    4  C7  UNL     1     -34.220   6.035   3.953  1.00 20.00     0.139 C 
BRANCH   4   5
HETATM    5  C5  UNL     1     -33.820   4.900   4.895  1.00 20.00     0.194 C 
BRANCH   5   6
HETATM    6  O10 UNL     1     -34.919   4.595   5.748  1.00 20.00    -0.394 OA
HETATM    7  C4  UNL     1     -35.009   5.514   6.827  1.00 20.00     0.201 C 
ENDBRANCH   5   6
ENDBRANCH   4   5
BRANCH   4   8
HETATM    8  C6  UNL     1     -33.077   6.466   3.008  1.00 20.00     0.004 C 
HETATM    9  C2  UNL     1     -31.873   6.987   3.801  1.00 20.00     0.012 C 
HETATM   10  C3  UNL     1     -33.499   7.503   1.964  1.00 20.00     0.012 C 
ENDBRANCH   4   8
ENDBRANCH   2   4
TORSDOF 4
