REMARK  2 active torsions:
REMARK  status: ('A' for Active; 'I' for Inactive)
REMARK    1  A    between atoms: C6_6  and  C9_9 
REMARK    2  A    between atoms: C9_9  and  C10_10 
ROOT
HETATM    1  C1  UNL     1     -34.746   4.865   3.276  1.00 20.00     0.002 C 
HETATM    2  C2  UNL     1     -33.357   5.476   3.104  1.00 20.00     0.005 C 
HETATM    3  C3  UNL     1     -32.904   6.961   5.116  1.00 20.00     0.006 C 
HETATM    4  C4  UNL     1     -35.572   5.264   4.495  1.00 20.00     0.020 C 
HETATM    5  C5  UNL     1     -34.109   6.707   6.018  1.00 20.00     0.020 C 
HETATM    6  C6  UNL     1     -33.191   6.916   3.606  1.00 20.00    -0.014 C 
HETATM    7  C7  UNL     1     -34.862   5.386   5.843  1.00 20.00     0.082 C 
HETATM    8 CL11 UNL     1     -33.833   3.974   6.204  1.00 20.00    -0.125 Cl
ENDROOT
BRANCH   6   9
HETATM    9  C9  UNL     1     -32.019   7.574   2.863  1.00 20.00     0.004 C 
BRANCH   9  10
HETATM   10  C10 UNL     1     -32.436   8.012   1.465  1.00 20.00    -0.004 C 
HETATM   11  C8  UNL     1     -31.282   8.685   0.738  1.00 20.00     0.005 C 
ENDBRANCH   9  10
ENDBRANCH   6   9
TORSDOF 2
