REMARK  0 active torsions:
REMARK  status: ('A' for Active; 'I' for Inactive)
ROOT
HETATM    1  C1  UNL     1     -32.883   7.530   4.987  1.00 20.00     0.004 C 
HETATM    2  C2  UNL     1     -31.833   7.393   3.885  1.00 20.00     0.040 C 
HETATM    3  C3  UNL     1     -33.169   6.095   2.068  1.00 20.00     0.041 C 
HETATM    4  C4  UNL     1     -34.233   6.859   4.721  1.00 20.00     0.009 C 
HETATM    5  C5  UNL     1     -33.287   5.013   3.145  1.00 20.00     0.012 C 
HETATM    6  C6  UNL     1     -32.716   8.641   1.784  1.00 20.00     0.207 A 
HETATM    7  C7  UNL     1     -32.432   7.340   2.508  1.00 20.00     0.082 A 
HETATM    8  C8  UNL     1     -34.217   5.358   4.340  1.00 20.00    -0.048 C 
HETATM    9  C9  UNL     1     -33.787   4.513   5.556  1.00 20.00     0.015 C 
HETATM   10  C10 UNL     1     -35.665   4.958   3.977  1.00 20.00     0.015 C 
HETATM   11  O11 UNL     1     -31.554   7.860   1.492  1.00 20.00    -0.375 OA
ENDROOT
TORSDOF 0
