REMARK  2 active torsions:
REMARK  status: ('A' for Active; 'I' for Inactive)
REMARK    1  A    between atoms: C8_8  and  C10_10 
REMARK    2  A    between atoms: C10_10  and  C11_11 
ROOT
HETATM    1  C1  UNL     1     -34.566   4.192   4.910  1.00 20.00     0.064 C 
HETATM    2  C2  UNL     1     -32.679   6.705   5.110  1.00 20.00     0.002 C 
HETATM    3  C3  UNL     1     -34.204   6.643   5.027  1.00 20.00     0.019 C 
HETATM    4  C4  UNL     1     -34.398   5.386   2.745  1.00 20.00     0.019 C 
HETATM    5  C5  UNL     1     -31.907   6.387   3.834  1.00 20.00     0.005 C 
HETATM    6  C6  UNL     1     -33.871   6.691   2.149  1.00 20.00     0.006 C 
HETATM    7  C7  UNL     1     -34.810   5.478   4.229  1.00 20.00     0.093 C 
HETATM    8  C8  UNL     1     -32.418   7.033   2.536  1.00 20.00    -0.014 C 
HETATM    9  N12 UNL     1     -34.374   3.181   5.446  1.00 20.00    -0.197 NA
ENDROOT
BRANCH   8  10
HETATM   10  C10 UNL     1     -32.210   8.550   2.541  1.00 20.00     0.004 C 
BRANCH  10  11
HETATM   11  C11 UNL     1     -32.209   9.105   1.124  1.00 20.00    -0.004 C 
HETATM   12  C9  UNL     1     -32.028  10.614   1.130  1.00 20.00     0.005 C 
ENDBRANCH  10  11
ENDBRANCH   8  10
TORSDOF 2
