REMARK  1 active torsions:
REMARK  status: ('A' for Active; 'I' for Inactive)
REMARK    1  A    between atoms: C4_4  and  C8_8 
ROOT
HETATM    1  C5  UNL     1     -34.758   3.586   5.230  1.00 20.00     0.002 C 
HETATM    2  C6  UNL     1     -34.946   4.549   4.058  1.00 20.00     0.011 C 
HETATM    3  C7  UNL     1     -34.700   4.487   6.454  1.00 20.00     0.021 C 
HETATM    4  C8  UNL     1     -34.406   5.917   4.534  1.00 20.00     0.037 C 
HETATM    5  C9  UNL     1     -33.865   5.657   5.953  1.00 20.00     0.090 C 
HETATM    6 CL11 UNL     1     -34.019   7.076   7.008  1.00 20.00    -0.124 Cl
ENDROOT
BRANCH   4   7
HETATM    7  C4  UNL     1     -33.376   6.529   3.610  1.00 20.00    -0.046 A 
HETATM    8  C1  UNL     1     -32.127   5.919   3.298  1.00 20.00     0.015 A 
HETATM    9  C2  UNL     1     -31.378   6.686   2.434  1.00 20.00     0.050 A 
HETATM   10  S10 UNL     1     -32.180   8.136   2.003  1.00 20.00    -0.113 SA
HETATM   11  C3  UNL     1     -33.534   7.740   2.973  1.00 20.00     0.057 A 
ENDBRANCH   4   7
TORSDOF 1
