REMARK  1 active torsions:
REMARK  status: ('A' for Active; 'I' for Inactive)
REMARK    1  A    between atoms: C4_4  and  C8_8 
ROOT
HETATM    1  C5  UNL     1     -34.141   5.448   5.574  1.00 20.00     0.002 C 
HETATM    2  C6  UNL     1     -33.338   6.600   4.965  1.00 20.00     0.011 C 
HETATM    3  C7  UNL     1     -35.035   4.910   4.458  1.00 20.00     0.021 C 
HETATM    4  C8  UNL     1     -33.968   6.865   3.586  1.00 20.00     0.037 C 
HETATM    5  C9  UNL     1     -34.442   5.459   3.163  1.00 20.00     0.090 C 
HETATM    6 CL11 UNL     1     -33.091   4.414   2.619  1.00 20.00    -0.124 Cl
ENDROOT
BRANCH   4   7
HETATM    7  C4  UNL     1     -33.141   7.632   2.576  1.00 20.00    -0.046 A 
HETATM    8  C1  UNL     1     -31.878   7.192   2.085  1.00 20.00     0.015 A 
HETATM    9  C2  UNL     1     -31.339   8.076   1.176  1.00 20.00     0.050 A 
HETATM   10  S10 UNL     1     -32.354   9.431   0.919  1.00 20.00    -0.113 SA
HETATM   11  C3  UNL     1     -33.519   8.836   2.023  1.00 20.00     0.057 A 
ENDBRANCH   4   7
TORSDOF 1
