REMARK  2 active torsions:
REMARK  status: ('A' for Active; 'I' for Inactive)
REMARK    1  A    between atoms: C6_6  and  C9_9 
REMARK    2  A    between atoms: C9_9  and  C10_10 
ROOT
HETATM    1  C1  UNL     1     -34.237   4.996   6.481  1.00 20.00     0.002 C 
HETATM    2  C2  UNL     1     -34.496   6.408   5.963  1.00 20.00     0.005 C 
HETATM    3  C3  UNL     1     -34.745   5.832   3.430  1.00 20.00     0.006 C 
HETATM    4  C4  UNL     1     -34.583   3.846   5.538  1.00 20.00     0.020 C 
HETATM    5  C5  UNL     1     -36.065   5.192   3.859  1.00 20.00     0.020 C 
HETATM    6  C6  UNL     1     -34.077   6.707   4.514  1.00 20.00    -0.014 C 
HETATM    7  C7  UNL     1     -35.899   3.957   4.760  1.00 20.00     0.082 C 
HETATM    8 CL11 UNL     1     -37.300   3.827   5.871  1.00 20.00    -0.125 Cl
ENDROOT
BRANCH   6   9
HETATM    9  C9  UNL     1     -32.556   6.690   4.351  1.00 20.00     0.004 C 
BRANCH   9  10
HETATM   10  C10 UNL     1     -32.159   6.949   2.904  1.00 20.00    -0.004 C 
HETATM   11  C8  UNL     1     -32.685   8.293   2.426  1.00 20.00     0.005 C 
ENDBRANCH   9  10
ENDBRANCH   6   9
TORSDOF 2
