REMARK  1 active torsions:
REMARK  status: ('A' for Active; 'I' for Inactive)
REMARK    1  A    between atoms: C3_3  and  C8_8 
ROOT
HETATM    1  C1  UNL     1     -32.692   7.202   2.348  1.00 20.00     0.022 A 
HETATM    2  C2  UNL     1     -34.119   8.035   3.983  1.00 20.00     0.057 A 
HETATM    3  C3  UNL     1     -33.511   6.907   3.476  1.00 20.00    -0.046 A 
HETATM    4  C4  UNL     1     -32.705   8.544   2.036  1.00 20.00    -0.021 A 
HETATM    5  C10 UNL     1     -31.991   9.242   0.945  1.00 20.00     0.056 C 
HETATM    6  S11 UNL     1     -33.701   9.442   3.100  1.00 20.00    -0.106 SA
ENDROOT
BRANCH   3   7
HETATM    7  C8  UNL     1     -33.691   5.519   4.048  1.00 20.00     0.020 C 
HETATM    8  C5  UNL     1     -33.978   5.486   5.565  1.00 20.00     0.010 C 
HETATM    9  C6  UNL     1     -35.363   4.865   5.711  1.00 20.00     0.016 C 
HETATM   10  C9  UNL     1     -35.452   3.935   4.517  1.00 20.00     0.058 C 
HETATM   11  C7  UNL     1     -34.854   4.755   3.386  1.00 20.00     0.025 C 
HETATM   12 BR12 UNL     1     -37.279   3.429   4.146  1.00 20.00    -0.091 Br
ENDBRANCH   3   7
TORSDOF 1
