REMARK  1 active torsions:
REMARK  status: ('A' for Active; 'I' for Inactive)
REMARK    1  A    between atoms: C4_4  and  C9_9 
ROOT
HETATM    1  C5  UNL     1     -35.305   5.345   3.009  1.00 20.00     0.002 C 
HETATM    2  C6  UNL     1     -33.906   5.202   2.402  1.00 20.00     0.009 C 
HETATM    3  C7  UNL     1     -35.271   5.408   4.532  1.00 20.00     0.020 C 
HETATM    4  C8  UNL     1     -32.907   6.271   4.460  1.00 20.00     0.029 C 
HETATM    5  C9  UNL     1     -32.881   6.239   2.914  1.00 20.00     0.020 C 
HETATM    6  C10 UNL     1     -34.315   6.494   5.015  1.00 20.00     0.083 C 
HETATM    7 CL12 UNL     1     -34.266   6.498   6.802  1.00 20.00    -0.125 Cl
ENDROOT
BRANCH   5   8
HETATM    8  C4  UNL     1     -32.941   7.636   2.299  1.00 20.00    -0.047 A 
HETATM    9  C1  UNL     1     -34.067   8.502   2.403  1.00 20.00     0.015 A 
HETATM   10  C2  UNL     1     -33.859   9.702   1.759  1.00 20.00     0.050 A 
HETATM   11  S11 UNL     1     -32.310   9.780   1.031  1.00 20.00    -0.113 SA
HETATM   12  C3  UNL     1     -31.914   8.206   1.578  1.00 20.00     0.057 A 
ENDBRANCH   5   8
TORSDOF 1
