REMARK  2 active torsions:
REMARK  status: ('A' for Active; 'I' for Inactive)
REMARK    1  A    between atoms: C4_4  and  C9_9 
REMARK    2  A    between atoms: C5_5  and  S11_11 
ROOT
HETATM    1  C1  UNL     1     -34.200   5.169   4.146  1.00 20.00     0.080 C 
HETATM    2  C2  UNL     1     -33.949   7.692   3.922  1.00 20.00     0.041 C 
HETATM    3  C3  UNL     1     -32.172   6.565   3.497  1.00 20.00     0.041 C 
HETATM    4  C4  UNL     1     -33.054   7.533   2.664  1.00 20.00    -0.006 C 
HETATM    5  C5  UNL     1     -33.393   6.335   4.423  1.00 20.00     0.097 C 
HETATM    6  N10 UNL     1     -34.847   4.232   3.924  1.00 20.00    -0.196 NA
ENDROOT
BRANCH   5   7
HETATM    7  S11 UNL     1     -32.941   6.380   6.194  1.00 20.00    -0.148 SA
HETATM    8  C8  UNL     1     -34.611   6.439   6.877  1.00 20.00     0.091 C 
ENDBRANCH   5   7
BRANCH   4   9
HETATM    9  C9  UNL     1     -32.379   8.788   2.149  1.00 20.00    -0.019 C 
HETATM   10  C6  UNL     1     -31.503   8.481   0.932  1.00 20.00     0.010 C 
HETATM   11  C7  UNL     1     -33.413   9.861   1.797  1.00 20.00     0.010 C 
ENDBRANCH   4   9
TORSDOF 2
