REMARK  2 active torsions:
REMARK  status: ('A' for Active; 'I' for Inactive)
REMARK    1  A    between atoms: C7_7  and  C10_10 
REMARK    2  A    between atoms: C10_10  and  C11_11 
ROOT
HETATM    1  C1  UNL     1     -33.841   6.849   5.996  1.00 20.00     0.004 C 
HETATM    2  C2  UNL     1     -32.676   6.911   5.009  1.00 20.00     0.005 C 
HETATM    3  C3  UNL     1     -33.891   6.009   2.917  1.00 20.00     0.007 C 
HETATM    4  C4  UNL     1     -34.451   5.461   6.159  1.00 20.00     0.040 C 
HETATM    5  C5  UNL     1     -35.159   5.597   3.664  1.00 20.00     0.040 C 
HETATM    6  C6  UNL     1     -34.496   3.307   4.700  1.00 20.00     0.207 A 
HETATM    7  C7  UNL     1     -33.117   7.172   3.558  1.00 20.00    -0.014 C 
HETATM    8  C8  UNL     1     -34.845   4.773   4.881  1.00 20.00     0.082 A 
HETATM    9  O12 UNL     1     -35.802   3.718   5.105  1.00 20.00    -0.375 OA
ENDROOT
BRANCH   7  10
HETATM   10  C10 UNL     1     -31.889   7.494   2.699  1.00 20.00     0.004 C 
BRANCH  10  11
HETATM   11  C11 UNL     1     -32.293   8.188   1.405  1.00 20.00    -0.004 C 
HETATM   12  C9  UNL     1     -31.074   8.530   0.564  1.00 20.00     0.005 C 
ENDBRANCH  10  11
ENDBRANCH   7  10
TORSDOF 2
