REMARK  2 active torsions:
REMARK  status: ('A' for Active; 'I' for Inactive)
REMARK    1  A    between atoms: C8_8  and  C10_10 
REMARK    2  A    between atoms: C10_10  and  C11_11 
ROOT
HETATM    1  C1  UNL     1     -32.975   9.052   0.266  1.00 20.00     0.064 C 
HETATM    2  C2  UNL     1     -31.557   7.439   3.438  1.00 20.00     0.002 C 
HETATM    3  C3  UNL     1     -31.655   7.895   1.985  1.00 20.00     0.019 C 
HETATM    4  C4  UNL     1     -34.017   8.855   2.498  1.00 20.00     0.019 C 
HETATM    5  C5  UNL     1     -32.525   6.302   3.765  1.00 20.00     0.005 C 
HETATM    6  C6  UNL     1     -34.560   7.432   2.649  1.00 20.00     0.006 C 
HETATM    7  C7  UNL     1     -32.702   8.983   1.717  1.00 20.00     0.093 C 
HETATM    8  C8  UNL     1     -34.002   6.704   3.884  1.00 20.00    -0.014 C 
HETATM    9  N12 UNL     1     -33.188   9.106  -0.873  1.00 20.00    -0.197 NA
ENDROOT
BRANCH   8  10
HETATM   10  C10 UNL     1     -34.842   5.451   4.165  1.00 20.00     0.004 C 
BRANCH  10  11
HETATM   11  C11 UNL     1     -34.382   4.761   5.441  1.00 20.00    -0.004 C 
HETATM   12  C9  UNL     1     -34.488   5.696   6.635  1.00 20.00     0.005 C 
ENDBRANCH  10  11
ENDBRANCH   8  10
TORSDOF 2
