REMARK  1 active torsions:
REMARK  status: ('A' for Active; 'I' for Inactive)
REMARK    1  A    between atoms: C8_8  and  C11_11 
ROOT
HETATM    1  C1  UNL     1     -32.355   8.533   2.407  1.00 20.00     0.064 C 
HETATM    2  C2  UNL     1     -33.326   5.650   1.979  1.00 20.00     0.002 C 
HETATM    3  C3  UNL     1     -32.020   6.082   2.643  1.00 20.00     0.019 C 
HETATM    4  C4  UNL     1     -33.006   7.500   4.564  1.00 20.00     0.019 C 
HETATM    5  C5  UNL     1     -34.280   4.885   2.890  1.00 20.00     0.005 C 
HETATM    6  C6  UNL     1     -34.451   7.051   4.329  1.00 20.00     0.006 C 
HETATM    7  C7  UNL     1     -32.066   7.438   3.356  1.00 20.00     0.093 C 
HETATM    8  C8  UNL     1     -34.687   5.536   4.223  1.00 20.00    -0.011 C 
HETATM    9  N12 UNL     1     -32.582   9.394   1.662  1.00 20.00    -0.197 NA
ENDROOT
BRANCH   8  10
HETATM   10  C11 UNL     1     -34.100   4.762   5.409  1.00 20.00    -0.019 C 
HETATM   11  C9  UNL     1     -34.481   5.437   6.722  1.00 20.00     0.010 C 
HETATM   12  C10 UNL     1     -34.577   3.314   5.385  1.00 20.00     0.010 C 
ENDBRANCH   8  10
TORSDOF 1
