REMARK  2 active torsions:
REMARK  status: ('A' for Active; 'I' for Inactive)
REMARK    1  A    between atoms: C4_4  and  C10_10 
REMARK    2  A    between atoms: C9_9  and  C10_10 
ROOT
HETATM    1  C1  UNL     1     -32.771   9.082   0.261  1.00 20.00     0.012 C 
HETATM    2  C2  UNL     1     -32.825   8.341   1.204  1.00 20.00    -0.117 C 
HETATM    3  C9  UNL     1     -32.888   7.433   2.360  1.00 20.00     0.097 C 
ENDROOT
BRANCH   3   4
HETATM    4  C10 UNL     1     -34.207   6.675   2.420  1.00 20.00     0.046 C 
BRANCH   4   5
HETATM    5  C4  UNL     1     -34.250   5.787   3.607  1.00 20.00    -0.081 C 
HETATM    6  C3  UNL     1     -34.984   4.659   3.663  1.00 20.00    -0.004 C 
HETATM    7  C8  UNL     1     -35.038   3.751   4.858  1.00 20.00     0.105 C 
HETATM    8  C7  UNL     1     -33.944   4.039   5.890  1.00 20.00     0.024 C 
HETATM    9 CL11 UNL     1     -34.921   2.048   4.329  1.00 20.00    -0.121 Cl
HETATM   10  C6  UNL     1     -33.799   5.541   6.107  1.00 20.00     0.006 C 
HETATM   11  C5  UNL     1     -33.433   6.244   4.798  1.00 20.00     0.034 C 
ENDBRANCH   4   5
ENDBRANCH   3   4
TORSDOF 2
