REMARK  3 active torsions:
REMARK  status: ('A' for Active; 'I' for Inactive)
REMARK    1  A    between atoms: C4_4  and  C10_10 
REMARK    2  A    between atoms: C8_8  and  O11_11 
REMARK    3  A    between atoms: C9_9  and  C10_10 
ROOT
HETATM    1  C1  UNL     1     -31.839   9.586   0.002  1.00 20.00     0.012 C 
HETATM    2  C2  UNL     1     -32.439   9.045   0.890  1.00 20.00    -0.117 C 
HETATM    3  C9  UNL     1     -33.176   8.384   1.977  1.00 20.00     0.097 C 
ENDROOT
BRANCH   3   4
HETATM    4  C10 UNL     1     -32.485   7.112   2.447  1.00 20.00     0.046 C 
BRANCH   4   5
HETATM    5  C4  UNL     1     -33.272   6.452   3.539  1.00 20.00    -0.080 C 
HETATM    6  C3  UNL     1     -33.028   6.696   4.839  1.00 20.00     0.007 C 
HETATM    7  C8  UNL     1     -33.814   6.081   5.960  1.00 20.00     0.141 C 
HETATM    8  C7  UNL     1     -35.119   5.433   5.492  1.00 20.00     0.036 C 
HETATM    9  C6  UNL     1     -34.901   4.621   4.223  1.00 20.00     0.007 C 
HETATM   10  C5  UNL     1     -34.355   5.499   3.094  1.00 20.00     0.034 C 
BRANCH   7  11
HETATM   11  O11 UNL     1     -34.117   7.095   6.914  1.00 20.00    -0.392 OA
HETATM   12  H25 UNL     1     -34.623   6.667   7.622  1.00 20.00     0.210 HD
ENDBRANCH   7  11
ENDBRANCH   4   5
ENDBRANCH   3   4
TORSDOF 3
