REMARK  1 active torsions:
REMARK  status: ('A' for Active; 'I' for Inactive)
REMARK    1  A    between atoms: C2_2  and  C8_8 
ROOT
HETATM    1  C1  UNL     1     -34.807   5.606   6.114  1.00 20.00     0.053 C 
HETATM    2  C2  UNL     1     -35.294   5.093   4.975  1.00 20.00    -0.072 C 
HETATM    3  C3  UNL     1     -34.068   6.891   6.109  1.00 20.00     0.150 C 
HETATM    4  C4  UNL     1     -35.093   5.746   3.630  1.00 20.00     0.043 C 
HETATM    5  C5  UNL     1     -33.946   7.655   4.808  1.00 20.00     0.092 C 
HETATM    6  C9  UNL     1     -33.902   6.729   3.582  1.00 20.00    -0.037 C 
HETATM    7  C10 UNL     1     -32.565   5.959   3.541  1.00 20.00     0.015 C 
HETATM    8  C11 UNL     1     -34.000   7.578   2.301  1.00 20.00     0.015 C 
HETATM    9  O12 UNL     1     -33.622   7.341   7.164  1.00 20.00    -0.293 OA
ENDROOT
BRANCH   2  10
HETATM   10  C8  UNL     1     -36.093   3.822   4.972  1.00 20.00     0.014 A 
HETATM   11  C6  UNL     1     -37.297   3.753   5.846  1.00 20.00     0.010 A 
HETATM   12  C7  UNL     1     -37.450   3.852   4.358  1.00 20.00     0.010 A 
ENDBRANCH   2  10
TORSDOF 1
