REMARK  1 active torsions:
REMARK  status: ('A' for Active; 'I' for Inactive)
REMARK    1  A    between atoms: C4_4  and  C6_6 
ROOT
HETATM    1  C5  UNL     1     -33.631   7.826   2.405  1.00 20.00     0.001 C 
HETATM    2  C6  UNL     1     -33.213   7.047   3.415  1.00 20.00    -0.048 C 
HETATM    3  C7  UNL     1     -31.801   7.394   3.799  1.00 20.00     0.041 C 
HETATM    4  C8  UNL     1     -31.312   8.207   2.599  1.00 20.00     0.028 C 
HETATM    5  C9  UNL     1     -32.576   8.789   1.970  1.00 20.00     0.106 C 
HETATM    6 CL11 UNL     1     -32.449   8.874   0.207  1.00 20.00    -0.121 Cl
ENDROOT
BRANCH   2   7
HETATM    7  C4  UNL     1     -33.996   6.016   4.120  1.00 20.00    -0.006 A 
HETATM    8  C1  UNL     1     -34.323   5.952   5.496  1.00 20.00     0.038 A 
HETATM    9  C2  UNL     1     -35.064   4.805   5.658  1.00 20.00     0.142 A 
HETATM   10  O10 UNL     1     -35.213   4.160   4.471  1.00 20.00    -0.334 OA
HETATM   11  C3  UNL     1     -34.560   4.904   3.540  1.00 20.00     0.153 A 
ENDBRANCH   2   7
TORSDOF 1
