REMARK  4 active torsions:
REMARK  status: ('A' for Active; 'I' for Inactive)
REMARK    1  A    between atoms: C2_2  and  C8_8 
REMARK    2  A    between atoms: C8_8  and  C11_11 
REMARK    3  A    between atoms: C9_9  and  C10_10 
REMARK    4  A    between atoms: C10_10  and  C11_11 
ROOT
HETATM    1  C1  UNL     1     -33.307   4.799   4.552  1.00 20.00    -0.004 C 
HETATM    2  C2  UNL     1     -33.658   5.402   3.409  1.00 20.00    -0.082 C 
HETATM    3  C3  UNL     1     -35.129   5.672   3.359  1.00 20.00     0.036 C 
HETATM    4  C4  UNL     1     -35.664   4.800   4.497  1.00 20.00     0.028 C 
HETATM    5  C5  UNL     1     -34.483   4.571   5.443  1.00 20.00     0.105 C 
HETATM    6 CL12 UNL     1     -34.467   5.753   6.770  1.00 20.00    -0.121 Cl
ENDROOT
BRANCH   2   7
HETATM    7  C8  UNL     1     -32.758   5.815   2.302  1.00 20.00     0.038 C 
BRANCH   7   8
HETATM    8  C11 UNL     1     -32.263   7.272   2.380  1.00 20.00    -0.015 C 
HETATM    9  C7  UNL     1     -31.398   7.499   3.626  1.00 20.00     0.010 C 
BRANCH   8  10
HETATM   10  C10 UNL     1     -33.390   8.325   2.331  1.00 20.00     0.004 C 
BRANCH  10  11
HETATM   11  C9  UNL     1     -32.930   9.690   1.814  1.00 20.00    -0.004 C 
HETATM   12  C6  UNL     1     -32.393   9.593   0.394  1.00 20.00     0.005 C 
ENDBRANCH  10  11
ENDBRANCH   8  10
ENDBRANCH   7   8
ENDBRANCH   2   7
TORSDOF 4
