REMARK  2 active torsions:
REMARK  status: ('A' for Active; 'I' for Inactive)
REMARK    1  A    between atoms: C4_4  and  C12_12 
REMARK    2  A    between atoms: C11_11  and  C12_12 
ROOT
HETATM    1  C1  UNL     1     -31.104   8.781  -0.321  1.00 20.00     0.012 C 
HETATM    2  C2  UNL     1     -31.406   8.187   0.677  1.00 20.00    -0.117 C 
HETATM    3  C11 UNL     1     -31.774   7.457   1.900  1.00 20.00     0.097 C 
ENDROOT
BRANCH   3   4
HETATM    4  C12 UNL     1     -33.108   7.922   2.464  1.00 20.00     0.046 C 
BRANCH   4   5
HETATM    5  C4  UNL     1     -33.443   7.172   3.721  1.00 20.00    -0.075 C 
HETATM    6  C3  UNL     1     -33.007   7.592   4.918  1.00 20.00     0.053 C 
HETATM    7  C5  UNL     1     -33.393   6.874   6.157  1.00 20.00     0.150 C 
HETATM    8  C7  UNL     1     -34.355   5.710   6.054  1.00 20.00     0.092 C 
HETATM    9  O13 UNL     1     -32.975   7.270   7.244  1.00 20.00    -0.293 OA
HETATM   10  C8  UNL     1     -34.221   4.949   4.725  1.00 20.00    -0.037 C 
HETATM   11  C6  UNL     1     -34.300   5.943   3.545  1.00 20.00     0.043 C 
HETATM   12  C9  UNL     1     -35.370   3.931   4.605  1.00 20.00     0.015 C 
HETATM   13  C10 UNL     1     -32.888   4.170   4.687  1.00 20.00     0.015 C 
ENDBRANCH   4   5
ENDBRANCH   3   4
TORSDOF 2
