REMARK  1 active torsions:
REMARK  status: ('A' for Active; 'I' for Inactive)
REMARK    1  A    between atoms: C2_2  and  C10_10 
ROOT
HETATM    1  C1  UNL     1     -33.868   8.370   2.566  1.00 20.00    -0.004 C 
HETATM    2  C2  UNL     1     -32.983   7.501   3.071  1.00 20.00    -0.078 C 
HETATM    3  C3  UNL     1     -31.632   7.669   2.449  1.00 20.00     0.036 C 
HETATM    4  C4  UNL     1     -31.938   8.531   1.222  1.00 20.00     0.028 C 
HETATM    5  C9  UNL     1     -33.253   9.252   1.531  1.00 20.00     0.105 C 
HETATM    6 CL12 UNL     1     -32.970  10.868   2.214  1.00 20.00    -0.121 Cl
ENDROOT
BRANCH   2   7
HETATM    7  C10 UNL     1     -33.228   6.474   4.159  1.00 20.00     0.018 C 
HETATM    8  C5  UNL     1     -33.662   7.209   5.421  1.00 20.00     0.035 C 
HETATM    9  C7  UNL     1     -34.156   6.218   6.468  1.00 20.00     0.168 C 
HETATM   10  O11 UNL     1     -35.207   5.407   5.943  1.00 20.00    -0.391 OA
HETATM   11  C8  UNL     1     -34.779   4.627   4.826  1.00 20.00     0.168 C 
HETATM   12  C6  UNL     1     -34.322   5.526   3.683  1.00 20.00     0.035 C 
ENDBRANCH   2   7
TORSDOF 1
