REMARK  0 active torsions:
REMARK  status: ('A' for Active; 'I' for Inactive)
ROOT
HETATM    1  C1  UNL     1     -32.561   7.156   3.803  1.00 20.00     0.067 C 
HETATM    2  C2  UNL     1     -33.816   6.452   4.082  1.00 20.00     0.127 C 
HETATM    3  C3  UNL     1     -33.865   5.824   5.469  1.00 20.00     0.030 C 
HETATM    4  C4  UNL     1     -34.090   5.248   3.175  1.00 20.00     0.136 C 
HETATM    5  C5  UNL     1     -35.007   4.825   5.294  1.00 20.00     0.123 C 
HETATM    6  C6  UNL     1     -34.106   6.821   6.595  1.00 20.00     0.014 C 
HETATM    7  C7  UNL     1     -32.868   4.450   2.728  1.00 20.00     0.041 C 
HETATM    8  C8  UNL     1     -34.938   3.643   6.244  1.00 20.00     0.040 C 
HETATM    9  N9  UNL     1     -31.568   7.714   3.582  1.00 20.00    -0.197 NA
HETATM   10  O10 UNL     1     -34.920   4.349   3.940  1.00 20.00    -0.380 OA
ENDROOT
TORSDOF 0
