REMARK  2 active torsions:
REMARK  status: ('A' for Active; 'I' for Inactive)
REMARK    1  A    between atoms: C4_4  and  C9_9 
REMARK    2  A    between atoms: C8_8  and  O10_10 
ROOT
HETATM    1  C1  UNL     1     -32.582   9.124   1.288  1.00 20.00     0.012 C 
HETATM    2  C2  UNL     1     -32.286   8.120   1.876  1.00 20.00    -0.113 C 
HETATM    3  C9  UNL     1     -31.905   6.900   2.584  1.00 20.00     0.127 C 
ENDROOT
BRANCH   3   4
HETATM    4  C4  UNL     1     -33.089   6.359   3.330  1.00 20.00    -0.070 C 
HETATM    5  C3  UNL     1     -33.342   6.702   4.605  1.00 20.00     0.008 C 
HETATM    6  C8  UNL     1     -34.498   6.159   5.395  1.00 20.00     0.141 C 
HETATM    7  C7  UNL     1     -35.149   4.937   4.743  1.00 20.00     0.036 C 
HETATM    8  C6  UNL     1     -35.324   5.146   3.245  1.00 20.00     0.007 C 
HETATM    9  C5  UNL     1     -33.978   5.409   2.565  1.00 20.00     0.035 C 
BRANCH   6  10
HETATM   10  O10 UNL     1     -34.033   5.799   6.693  1.00 20.00    -0.392 OA
HETATM   11  H22 UNL     1     -34.800   5.454   7.176  1.00 20.00     0.210 HD
ENDBRANCH   6  10
ENDBRANCH   3   4
TORSDOF 2
