REMARK  1 active torsions:
REMARK  status: ('A' for Active; 'I' for Inactive)
REMARK    1  A    between atoms: C2_2  and  C10_10 
ROOT
HETATM    1  C1  UNL     1     -33.956   7.151   3.761  1.00 20.00    -0.003 C 
HETATM    2  C2  UNL     1     -32.709   7.083   3.255  1.00 20.00    -0.075 C 
HETATM    3  C3  UNL     1     -31.972   5.764   3.170  1.00 20.00     0.034 C 
HETATM    4  C4  UNL     1     -32.862   4.535   3.364  1.00 20.00     0.006 C 
HETATM    5  C5  UNL     1     -33.831   4.741   4.524  1.00 20.00     0.024 C 
HETATM    6  C6  UNL     1     -34.711   5.976   4.312  1.00 20.00     0.105 C 
HETATM    7 CL11 UNL     1     -36.053   5.600   3.186  1.00 20.00    -0.121 Cl
ENDROOT
BRANCH   2   8
HETATM    8  C10 UNL     1     -31.976   8.261   2.729  1.00 20.00    -0.028 C 
HETATM    9  C7  UNL     1     -31.654   8.037   1.243  1.00 20.00     0.019 C 
HETATM   10  C8  UNL     1     -30.667   8.452   3.512  1.00 20.00     0.019 C 
HETATM   11  C9  UNL     1     -32.840   9.523   2.879  1.00 20.00     0.019 C 
ENDBRANCH   2   8
TORSDOF 1
