REMARK  0 active torsions:
REMARK  status: ('A' for Active; 'I' for Inactive)
ROOT
HETATM    1  C1  UNL     1     -33.700   5.837   5.520  1.00 20.00     0.019 A 
HETATM    2  C2  UNL     1     -34.415   4.760   5.994  1.00 20.00     0.050 A 
HETATM    3  C3  UNL     1     -34.536   4.944   3.544  1.00 20.00     0.061 A 
HETATM    4  C4  UNL     1     -33.770   5.944   4.101  1.00 20.00    -0.023 A 
HETATM    5  C5  UNL     1     -33.626   8.137   2.972  1.00 20.00     0.058 A 
HETATM    6  C6  UNL     1     -33.139   6.942   3.334  1.00 20.00    -0.043 A 
HETATM    7  C7  UNL     1     -32.578   8.797   2.182  1.00 20.00     0.150 A 
HETATM    8  C8  UNL     1     -31.741   6.691   2.833  1.00 20.00     0.047 A 
HETATM    9  C9  UNL     1     -31.358   7.942   2.050  1.00 20.00     0.087 A 
HETATM   10  O10 UNL     1     -32.708   9.912   1.699  1.00 20.00    -0.293 OA
HETATM   11  S11 UNL     1     -35.168   3.883   4.730  1.00 20.00    -0.113 SA
ENDROOT
TORSDOF 0
