REMARK  1 active torsions:
REMARK  status: ('A' for Active; 'I' for Inactive)
REMARK    1  A    between atoms: C2_2  and  C10_10 
ROOT
HETATM    1  C1  UNL     1     -33.777   7.469   2.155  1.00 20.00    -0.004 C 
HETATM    2  C2  UNL     1     -33.767   6.731   3.282  1.00 20.00    -0.076 C 
HETATM    3  C3  UNL     1     -32.486   6.506   4.057  1.00 20.00     0.034 C 
HETATM    4  C4  UNL     1     -31.342   7.442   3.661  1.00 20.00     0.006 C 
HETATM    5  C5  UNL     1     -31.248   7.577   2.144  1.00 20.00     0.024 C 
HETATM    6  C9  UNL     1     -32.558   8.094   1.541  1.00 20.00     0.105 C 
HETATM    7 CL12 UNL     1     -32.680   9.870   1.747  1.00 20.00    -0.121 Cl
ENDROOT
BRANCH   2   8
HETATM    8  C10 UNL     1     -34.995   6.104   3.868  1.00 20.00     0.040 C 
HETATM    9  C6  UNL     1     -34.855   4.607   4.057  1.00 20.00     0.037 C 
HETATM   10  C7  UNL     1     -34.177   4.494   5.407  1.00 20.00     0.168 C 
HETATM   11  O11 UNL     1     -34.569   5.644   6.168  1.00 20.00    -0.390 OA
HETATM   12  C8  UNL     1     -35.234   6.572   5.296  1.00 20.00     0.176 C 
ENDBRANCH   2   8
TORSDOF 1
