REMARK  1 active torsions:
REMARK  status: ('A' for Active; 'I' for Inactive)
REMARK    1  A    between atoms: C3_3  and  C5_5 
ROOT
HETATM    1  C1  UNL     1     -31.404   8.105   1.679  1.00 20.00     0.109 A 
HETATM    2  C2  UNL     1     -32.483   8.943   1.672  1.00 20.00     0.107 A 
HETATM    3  C3  UNL     1     -32.820   7.409   3.231  1.00 20.00     0.113 A 
HETATM    4  C10 UNL     1     -30.738   6.081   2.996  1.00 20.00     0.157 C 
HETATM    5  N11 UNL     1     -31.639   7.165   2.654  1.00 20.00    -0.346 N 
HETATM    6  N12 UNL     1     -33.343   8.488   2.642  1.00 20.00    -0.350 N 
HETATM    7  H27 UNL     1     -34.239   8.909   2.874  1.00 20.00     0.166 HD
ENDROOT
BRANCH   3   8
HETATM    8  C5  UNL     1     -33.456   6.637   4.327  1.00 20.00    -0.016 C 
HETATM    9  C4  UNL     1     -34.657   6.050   4.154  1.00 20.00     0.004 C 
HETATM   10  C9  UNL     1     -35.369   5.267   5.220  1.00 20.00     0.105 C 
HETATM   11  C8  UNL     1     -34.756   5.442   6.613  1.00 20.00     0.024 C 
HETATM   12 CL13 UNL     1     -35.346   3.539   4.745  1.00 20.00    -0.121 Cl
HETATM   13  C7  UNL     1     -33.230   5.438   6.562  1.00 20.00     0.006 C 
HETATM   14  C6  UNL     1     -32.715   6.549   5.642  1.00 20.00     0.042 C 
ENDBRANCH   3   8
TORSDOF 1
