REMARK  1 active torsions:
REMARK  status: ('A' for Active; 'I' for Inactive)
REMARK    1  A    between atoms: C2_2  and  C9_9 
ROOT
HETATM    1  C1  UNL     1     -34.327   4.259   3.994  1.00 20.00    -0.004 C 
HETATM    2  C2  UNL     1     -33.607   5.386   4.162  1.00 20.00    -0.078 C 
HETATM    3  C3  UNL     1     -33.760   6.228   5.411  1.00 20.00     0.034 C 
HETATM    4  C4  UNL     1     -35.005   5.893   6.236  1.00 20.00     0.006 C 
HETATM    5  C5  UNL     1     -35.164   4.384   6.384  1.00 20.00     0.024 C 
HETATM    6  C8  UNL     1     -35.296   3.724   5.009  1.00 20.00     0.105 C 
HETATM    7 CL10 UNL     1     -35.080   1.957   5.176  1.00 20.00    -0.121 Cl
ENDROOT
BRANCH   2   8
HETATM    8  C9  UNL     1     -32.653   5.904   3.151  1.00 20.00     0.014 A 
HETATM    9  C6  UNL     1     -32.956   7.215   2.509  1.00 20.00     0.010 A 
HETATM   10  C7  UNL     1     -31.840   7.102   3.504  1.00 20.00     0.010 A 
ENDBRANCH   2   8
TORSDOF 1
