REMARK  1 active torsions:
REMARK  status: ('A' for Active; 'I' for Inactive)
REMARK    1  A    between atoms: C2_2  and  C9_9 
ROOT
HETATM    1  C1  UNL     1     -33.725   8.516   2.081  1.00 20.00    -0.004 C 
HETATM    2  C2  UNL     1     -33.002   7.475   2.513  1.00 20.00    -0.076 C 
HETATM    3  C3  UNL     1     -31.565   7.600   2.115  1.00 20.00     0.036 C 
HETATM    4  C4  UNL     1     -31.610   8.703   1.055  1.00 20.00     0.028 C 
HETATM    5  C8  UNL     1     -32.888   9.498   1.329  1.00 20.00     0.105 C 
HETATM    6 CL11 UNL     1     -32.571  10.919   2.349  1.00 20.00    -0.121 Cl
ENDROOT
BRANCH   2   7
HETATM    7  C9  UNL     1     -33.485   6.320   3.320  1.00 20.00     0.040 C 
HETATM    8  C5  UNL     1     -34.116   6.717   4.640  1.00 20.00     0.037 C 
HETATM    9  C6  UNL     1     -34.938   5.492   4.973  1.00 20.00     0.168 C 
HETATM   10  O10 UNL     1     -35.396   4.959   3.724  1.00 20.00    -0.390 OA
HETATM   11  C7  UNL     1     -34.616   5.539   2.666  1.00 20.00     0.176 C 
ENDBRANCH   2   7
TORSDOF 1
