REMARK  1 active torsions:
REMARK  status: ('A' for Active; 'I' for Inactive)
REMARK    1  A    between atoms: C2_2  and  C8_8 
ROOT
HETATM    1  C1  UNL     1     -32.285   6.894   4.119  1.00 20.00    -0.004 C 
HETATM    2  C2  UNL     1     -33.448   6.402   4.566  1.00 20.00    -0.079 C 
HETATM    3  C3  UNL     1     -34.221   5.738   3.469  1.00 20.00     0.036 C 
HETATM    4  C4  UNL     1     -33.169   5.584   2.369  1.00 20.00     0.028 C 
HETATM    5  C5  UNL     1     -32.097   6.638   2.661  1.00 20.00     0.105 C 
HETATM    6 CL9  UNL     1     -32.384   8.136   1.748  1.00 20.00    -0.121 Cl
ENDROOT
BRANCH   2   7
HETATM    7  C8  UNL     1     -33.988   6.494   5.946  1.00 20.00     0.006 C 
HETATM    8  C6  UNL     1     -34.239   5.099   6.524  1.00 20.00     0.014 C 
HETATM    9  C7  UNL     1     -33.050   7.288   6.858  1.00 20.00     0.014 C 
ENDBRANCH   2   7
TORSDOF 1
