REMARK  0 active torsions:
REMARK  status: ('A' for Active; 'I' for Inactive)
ROOT
HETATM    1  C1  UNL     1     -34.308   5.046   5.618  1.00 20.00     0.067 C 
HETATM    2  C2  UNL     1     -33.622   5.323   4.354  1.00 20.00     0.127 C 
HETATM    3  C3  UNL     1     -32.781   6.603   4.330  1.00 20.00     0.030 C 
HETATM    4  C4  UNL     1     -34.525   5.446   3.118  1.00 20.00     0.136 C 
HETATM    5  C5  UNL     1     -32.654   6.807   2.818  1.00 20.00     0.123 C 
HETATM    6  C6  UNL     1     -33.411   7.794   5.058  1.00 20.00     0.014 C 
HETATM    7  C7  UNL     1     -35.986   5.808   3.354  1.00 20.00     0.041 C 
HETATM    8  C8  UNL     1     -32.254   8.191   2.344  1.00 20.00     0.040 C 
HETATM    9  N9  UNL     1     -34.851   4.827   6.620  1.00 20.00    -0.197 NA
HETATM   10  O10 UNL     1     -33.944   6.470   2.284  1.00 20.00    -0.380 OA
ENDROOT
TORSDOF 0
