REMARK  1 active torsions:
REMARK  status: ('A' for Active; 'I' for Inactive)
REMARK    1  A    between atoms: C2_2  and  C10_10 
ROOT
HETATM    1  C1  UNL     1     -33.537   5.717   3.676  1.00 20.00    -0.003 C 
HETATM    2  C2  UNL     1     -32.935   6.751   4.290  1.00 20.00    -0.075 C 
HETATM    3  C3  UNL     1     -33.099   7.013   5.767  1.00 20.00     0.034 C 
HETATM    4  C4  UNL     1     -34.233   6.215   6.416  1.00 20.00     0.006 C 
HETATM    5  C5  UNL     1     -34.255   4.775   5.911  1.00 20.00     0.024 C 
HETATM    6  C6  UNL     1     -34.393   4.709   4.386  1.00 20.00     0.105 C 
HETATM    7 CL11 UNL     1     -36.096   4.981   3.900  1.00 20.00    -0.121 Cl
ENDROOT
BRANCH   2   8
HETATM    8  C10 UNL     1     -32.052   7.709   3.545  1.00 20.00    -0.028 C 
HETATM    9  C7  UNL     1     -30.640   7.671   4.148  1.00 20.00     0.019 C 
HETATM   10  C8  UNL     1     -32.619   9.133   3.659  1.00 20.00     0.019 C 
HETATM   11  C9  UNL     1     -31.987   7.310   2.062  1.00 20.00     0.019 C 
ENDBRANCH   2   8
TORSDOF 1
