REMARK  1 active torsions:
REMARK  status: ('A' for Active; 'I' for Inactive)
REMARK    1  A    between atoms: C2_2  and  C11_11 
ROOT
HETATM    1  C1  UNL     1     -33.361   6.781   4.488  1.00 20.00     0.053 C 
HETATM    2  C2  UNL     1     -33.373   6.471   3.182  1.00 20.00    -0.072 C 
HETATM    3  C3  UNL     1     -34.136   5.975   5.464  1.00 20.00     0.149 C 
HETATM    4  C4  UNL     1     -34.206   5.350   2.615  1.00 20.00     0.035 C 
HETATM    5  C5  UNL     1     -34.860   4.744   4.968  1.00 20.00     0.083 C 
HETATM    6  C6  UNL     1     -35.346   4.939   3.542  1.00 20.00     0.012 C 
HETATM    7  O12 UNL     1     -34.123   6.281   6.655  1.00 20.00    -0.293 OA
ENDROOT
BRANCH   2   8
HETATM    8  C11 UNL     1     -32.533   7.242   2.181  1.00 20.00     0.014 C 
HETATM    9  C9  UNL     1     -31.068   7.135   2.593  1.00 20.00     0.009 C 
HETATM   10  C7  UNL     1     -30.787   8.422   3.358  1.00 20.00     0.001 C 
HETATM   11  C8  UNL     1     -31.604   9.454   2.602  1.00 20.00     0.001 C 
HETATM   12  C10 UNL     1     -32.898   8.725   2.254  1.00 20.00     0.009 C 
ENDBRANCH   2   8
TORSDOF 1
