REMARK  1 active torsions:
REMARK  status: ('A' for Active; 'I' for Inactive)
REMARK    1  A    between atoms: C4_4  and  C8_8 
ROOT
HETATM    1  C1  UNL     1     -32.332   8.490   1.126  1.00 20.00     0.012 C 
HETATM    2  C2  UNL     1     -32.160   7.679   1.995  1.00 20.00    -0.113 C 
HETATM    3  C8  UNL     1     -31.943   6.689   3.054  1.00 20.00     0.126 C 
ENDROOT
BRANCH   3   4
HETATM    4  C4  UNL     1     -33.242   6.126   3.504  1.00 20.00    -0.071 C 
HETATM    5  C3  UNL     1     -33.747   6.154   4.744  1.00 20.00    -0.003 C 
HETATM    6  C7  UNL     1     -35.063   5.453   4.823  1.00 20.00     0.105 C 
HETATM    7  C6  UNL     1     -35.452   5.312   3.349  1.00 20.00     0.028 C 
HETATM    8 CL9  UNL     1     -34.852   3.869   5.600  1.00 20.00    -0.121 Cl
HETATM    9  C5  UNL     1     -34.144   5.397   2.559  1.00 20.00     0.036 C 
ENDBRANCH   3   4
TORSDOF 1
