REMARK  2 active torsions:
REMARK  status: ('A' for Active; 'I' for Inactive)
REMARK    1  A    between atoms: C2_2  and  C9_9 
REMARK    2  A    between atoms: C4_4  and  C9_9 
ROOT
HETATM    1  C1  UNL     1     -33.021   5.779   4.933  1.00 20.00    -0.004 C 
HETATM    2  C2  UNL     1     -33.081   6.055   3.616  1.00 20.00    -0.079 C 
HETATM    3  C5  UNL     1     -34.299   5.686   2.796  1.00 20.00     0.034 C 
HETATM    4  C6  UNL     1     -35.530   5.323   3.630  1.00 20.00     0.006 C 
HETATM    5  C7  UNL     1     -35.150   4.416   4.796  1.00 20.00     0.024 C 
HETATM    6  C8  UNL     1     -34.099   5.069   5.700  1.00 20.00     0.105 C 
HETATM    7 CL10 UNL     1     -34.872   6.252   6.800  1.00 20.00    -0.121 Cl
ENDROOT
BRANCH   2   8
HETATM    8  C9  UNL     1     -31.997   6.746   2.876  1.00 20.00     0.060 C 
BRANCH   8   9
HETATM    9  C4  UNL     1     -32.186   8.230   2.868  1.00 20.00    -0.033 C 
HETATM   10  C3  UNL     1     -32.330   8.958   1.754  1.00 20.00     0.007 C 
ENDBRANCH   8   9
ENDBRANCH   2   8
TORSDOF 2
