REMARK  2 active torsions:
REMARK  status: ('A' for Active; 'I' for Inactive)
REMARK    1  A    between atoms: C3_3  and  C8_8 
REMARK    2  A    between atoms: C8_8  and  C9_9 
ROOT
HETATM    1  C1  UNL     1     -31.321   8.037   2.920  1.00 20.00     0.044 A 
HETATM    2  C2  UNL     1     -32.476   8.311   2.216  1.00 20.00     0.005 A 
HETATM    3  C3  UNL     1     -32.675   6.658   3.957  1.00 20.00     0.081 A 
HETATM    4  C4  UNL     1     -30.001   8.662   2.701  1.00 20.00     0.071 C 
HETATM    5  C5  UNL     1     -32.711   9.254   1.105  1.00 20.00     0.058 C 
HETATM    6  N10 UNL     1     -31.434   7.089   3.918  1.00 20.00    -0.249 NA
HETATM    7  S11 UNL     1     -33.760   7.348   2.821  1.00 20.00    -0.077 SA
ENDROOT
BRANCH   3   8
HETATM    8  C8  UNL     1     -33.193   5.607   4.931  1.00 20.00     0.059 C 
HETATM    9  C6  UNL     1     -32.929   4.210   4.346  1.00 20.00     0.018 C 
BRANCH   8  10
HETATM   10  C9  UNL     1     -34.684   5.826   5.300  1.00 20.00     0.088 C 
HETATM   11  C7  UNL     1     -35.102   5.077   6.567  1.00 20.00     0.027 C 
HETATM   12 CL12 UNL     1     -35.757   5.275   3.967  1.00 20.00    -0.125 Cl
ENDBRANCH   8  10
ENDBRANCH   3   8
TORSDOF 2
