REMARK  1 active torsions:
REMARK  status: ('A' for Active; 'I' for Inactive)
REMARK    1  A    between atoms: C6_6  and  O11_11 
ROOT
HETATM    1  C1  UNL     1     -36.337   4.623   4.719  1.00 20.00     0.095 C 
HETATM    2  C2  UNL     1     -34.604   5.785   5.881  1.00 20.00     0.022 C 
HETATM    3  C3  UNL     1     -35.163   5.433   4.710  1.00 20.00     0.021 C 
HETATM    4  C4  UNL     1     -34.583   5.862   3.382  1.00 20.00     0.058 C 
HETATM    5  C5  UNL     1     -32.969   7.299   4.669  1.00 20.00     0.045 C 
HETATM    6  C6  UNL     1     -33.370   6.633   5.990  1.00 20.00     0.143 C 
HETATM    7  C7  UNL     1     -33.116   6.360   3.454  1.00 20.00    -0.041 C 
HETATM    8  C8  UNL     1     -32.145   5.168   3.562  1.00 20.00     0.015 C 
HETATM    9  C9  UNL     1     -32.780   7.135   2.168  1.00 20.00     0.015 C 
HETATM   10  N10 UNL     1     -37.291   3.963   4.726  1.00 20.00    -0.192 NA
ENDROOT
BRANCH   6  11
HETATM   11  O11 UNL     1     -33.600   7.644   6.968  1.00 20.00    -0.392 OA
HETATM   12  H24 UNL     1     -32.788   8.172   7.015  1.00 20.00     0.210 HD
ENDBRANCH   6  11
TORSDOF 1
