REMARK  0 active torsions:
REMARK  status: ('A' for Active; 'I' for Inactive)
ROOT
HETATM    1  C1  UNL     1     -32.971   6.319   4.051  1.00 20.00     0.064 C 
HETATM    2  C2  UNL     1     -34.985   4.927   3.599  1.00 20.00     0.020 C 
HETATM    3  C3  UNL     1     -35.304   3.780   4.558  1.00 20.00     0.017 C 
HETATM    4  C4  UNL     1     -34.427   5.545   5.909  1.00 20.00     0.035 C 
HETATM    5  C5  UNL     1     -34.355   6.036   4.455  1.00 20.00     0.094 C 
HETATM    6  C6  UNL     1     -35.472   4.441   5.913  1.00 20.00     0.059 C 
HETATM    7  N7  UNL     1     -31.878   6.543   3.732  1.00 20.00    -0.197 NA
HETATM    8 BR8  UNL     1     -37.265   5.188   6.101  1.00 20.00    -0.091 Br
ENDROOT
TORSDOF 0
