REMARK  2 active torsions:
REMARK  status: ('A' for Active; 'I' for Inactive)
REMARK    1  A    between atoms: C5_5  and  C6_6 
REMARK    2  A    between atoms: C5_5  and  C7_7 
ROOT
HETATM    1  C1  UNL     1     -32.479   8.179   2.485  1.00 20.00     0.068 C 
HETATM    2  C3  UNL     1     -31.744   5.875   2.812  1.00 20.00     0.031 C 
HETATM    3  C4  UNL     1     -31.644   7.507   4.701  1.00 20.00     0.031 C 
HETATM    4  C7  UNL     1     -32.457   7.075   3.472  1.00 20.00     0.043 C 
HETATM    5  N8  UNL     1     -32.485   9.038   1.705  1.00 20.00    -0.196 NA
ENDROOT
BRANCH   4   6
HETATM    6  C5  UNL     1     -33.899   6.631   3.852  1.00 20.00     0.043 C 
BRANCH   6   7
HETATM    7  C6  UNL     1     -34.068   5.494   4.882  1.00 20.00     0.080 C 
HETATM    8  C2  UNL     1     -35.465   4.884   4.782  1.00 20.00     0.026 C 
HETATM    9 CL9  UNL     1     -33.821   6.054   6.559  1.00 20.00    -0.125 Cl
ENDBRANCH   6   7
ENDBRANCH   4   6
TORSDOF 2
