REMARK  0 active torsions:
REMARK  status: ('A' for Active; 'I' for Inactive)
ROOT
HETATM    1  C1  UNL     1     -32.450   7.885   2.532  1.00 20.00     0.064 C 
HETATM    2  C2  UNL     1     -33.426   5.594   2.532  1.00 20.00     0.021 C 
HETATM    3  C3  UNL     1     -34.578   5.353   3.504  1.00 20.00     0.021 C 
HETATM    4  C4  UNL     1     -33.037   6.749   4.661  1.00 20.00     0.039 C 
HETATM    5  C5  UNL     1     -32.491   6.595   3.233  1.00 20.00     0.094 C 
HETATM    6  C6  UNL     1     -33.915   5.521   4.861  1.00 20.00     0.083 C 
HETATM    7  N7  UNL     1     -32.417   8.905   1.979  1.00 20.00    -0.197 NA
HETATM    8 CL8  UNL     1     -35.093   5.739   6.163  1.00 20.00    -0.125 Cl
ENDROOT
TORSDOF 0
