REMARK  1 active torsions:
REMARK  status: ('A' for Active; 'I' for Inactive)
REMARK    1  A    between atoms: C4_4  and  C7_7 
ROOT
HETATM    1  C1  UNL     1     -33.776   6.867   2.422  1.00 20.00     0.034 A 
HETATM    2  C2  UNL     1     -34.480   6.485   3.600  1.00 20.00     0.026 A 
HETATM    3  C3  UNL     1     -32.646   7.601   2.709  1.00 20.00    -0.019 A 
HETATM    4  C4  UNL     1     -33.861   6.941   4.743  1.00 20.00     0.018 A 
HETATM    5  C5  UNL     1     -31.659   8.177   1.770  1.00 20.00     0.056 C 
HETATM    6  S8  UNL     1     -32.437   7.826   4.394  1.00 20.00    -0.097 SA
HETATM    7 BR10 UNL     1     -36.068   5.473   3.529  1.00 20.00    -0.050 Br
ENDROOT
BRANCH   4   8
HETATM    8  C7  UNL     1     -34.262   6.763   6.158  1.00 20.00     0.119 C 
HETATM    9  C6  UNL     1     -33.308   7.401   7.183  1.00 20.00     0.032 C 
HETATM   10 CL9  UNL     1     -34.446   5.016   6.547  1.00 20.00    -0.120 Cl
ENDBRANCH   4   8
TORSDOF 1
