REMARK  0 active torsions:
REMARK  status: ('A' for Active; 'I' for Inactive)
ROOT
HETATM    1  C1  UNL     1     -32.720   7.157   3.174  1.00 20.00     0.095 C 
HETATM    2  C2  UNL     1     -34.603   5.859   3.992  1.00 20.00     0.011 C 
HETATM    3  C3  UNL     1     -33.475   6.547   4.202  1.00 20.00     0.020 C 
HETATM    4  C4  UNL     1     -33.107   6.577   5.652  1.00 20.00     0.051 C 
HETATM    5  C5  UNL     1     -34.403   6.122   6.327  1.00 20.00     0.029 C 
HETATM    6  C6  UNL     1     -35.170   5.325   5.268  1.00 20.00     0.106 C 
HETATM    7  N7  UNL     1     -32.100   7.657   2.331  1.00 20.00    -0.192 NA
HETATM    8 CL8  UNL     1     -34.838   3.583   5.388  1.00 20.00    -0.121 Cl
ENDROOT
TORSDOF 0
