REMARK  0 active torsions:
REMARK  status: ('A' for Active; 'I' for Inactive)
ROOT
HETATM    1  C1  UNL     1     -32.781   7.175   3.114  1.00 20.00     0.064 C 
HETATM    2  C2  UNL     1     -33.199   6.643   5.513  1.00 20.00     0.021 C 
HETATM    3  C3  UNL     1     -34.619   6.309   5.968  1.00 20.00     0.021 C 
HETATM    4  C4  UNL     1     -34.419   5.427   3.772  1.00 20.00     0.039 C 
HETATM    5  C5  UNL     1     -33.076   6.107   4.078  1.00 20.00     0.094 C 
HETATM    6  C6  UNL     1     -35.019   5.100   5.134  1.00 20.00     0.083 C 
HETATM    7  N7  UNL     1     -32.547   8.019   2.353  1.00 20.00    -0.197 NA
HETATM    8 CL8  UNL     1     -34.309   3.602   5.800  1.00 20.00    -0.125 Cl
ENDROOT
TORSDOF 0
