REMARK  2 active torsions:
REMARK  status: ('A' for Active; 'I' for Inactive)
REMARK    1  A    between atoms: C3_3  and  C4_4 
REMARK    2  A    between atoms: C4_4  and  C5_5 
ROOT
HETATM    1  C1  UNL     1     -32.513   7.555   2.142  1.00 20.00     0.059 C 
HETATM    2  C3  UNL     1     -32.961   6.327   2.812  1.00 20.00     0.125 C 
HETATM    3  N6  UNL     1     -32.159   8.524   1.612  1.00 20.00    -0.197 NA
ENDROOT
BRANCH   2   4
HETATM    4  C4  UNL     1     -33.420   6.585   4.252  1.00 20.00     0.034 C 
BRANCH   4   5
HETATM    5  C5  UNL     1     -33.853   5.334   5.033  1.00 20.00     0.079 C 
HETATM    6  C2  UNL     1     -35.057   4.668   4.376  1.00 20.00     0.026 C 
HETATM    7 CL7  UNL     1     -34.273   5.744   6.723  1.00 20.00    -0.125 Cl
ENDBRANCH   4   5
ENDBRANCH   2   4
TORSDOF 2
