REMARK  3 active torsions:
REMARK  status: ('A' for Active; 'I' for Inactive)
REMARK    1  A    between atoms: C4_4  and  C5_5 
REMARK    2  A    between atoms: C5_5  and  C7_7 
REMARK    3  A    between atoms: C6_6  and  C7_7 
ROOT
HETATM    1  C1  UNL     1     -32.507   8.360   2.406  1.00 20.00     0.059 C 
HETATM    2  C4  UNL     1     -33.231   7.081   2.451  1.00 20.00     0.125 C 
HETATM    3  N8  UNL     1     -31.936   9.369   2.369  1.00 20.00    -0.197 NA
ENDROOT
BRANCH   2   4
HETATM    4  C5  UNL     1     -33.549   6.683   3.897  1.00 20.00     0.034 C 
BRANCH   4   5
HETATM    5  C7  UNL     1     -34.289   5.337   4.006  1.00 20.00     0.086 C 
HETATM    6 CL9  UNL     1     -36.007   5.531   3.524  1.00 20.00    -0.125 Cl
BRANCH   5   7
HETATM    7  C6  UNL     1     -34.162   4.702   5.415  1.00 20.00    -0.004 C 
HETATM    8  C2  UNL     1     -34.750   5.609   6.503  1.00 20.00     0.011 C 
HETATM    9  C3  UNL     1     -34.768   3.299   5.529  1.00 20.00     0.011 C 
ENDBRANCH   5   7
ENDBRANCH   4   5
ENDBRANCH   2   4
TORSDOF 3
