REMARK  0 active torsions:
REMARK  status: ('A' for Active; 'I' for Inactive)
ROOT
HETATM    1  C1  UNL     1     -33.046   6.049   3.408  1.00 20.00     0.071 C 
HETATM    2  C2  UNL     1     -34.205   6.619   5.520  1.00 20.00     0.052 C 
HETATM    3  C3  UNL     1     -34.877   5.763   6.574  1.00 20.00     0.169 C 
HETATM    4  C4  UNL     1     -33.938   4.346   4.975  1.00 20.00     0.192 C 
HETATM    5  C5  UNL     1     -34.157   5.702   4.307  1.00 20.00     0.069 C 
HETATM    6  C6  UNL     1     -35.480   5.730   3.531  1.00 20.00     0.033 C 
HETATM    7  N7  UNL     1     -32.170   6.324   2.698  1.00 20.00    -0.196 NA
HETATM    8  O8  UNL     1     -34.560   4.400   6.268  1.00 20.00    -0.389 OA
ENDROOT
TORSDOF 0
