REMARK  2 active torsions:
REMARK  status: ('A' for Active; 'I' for Inactive)
REMARK    1  A    between atoms: C5_5  and  C8_8 
REMARK    2  A    between atoms: C8_8  and  C9_9 
ROOT
HETATM    1  C1  UNL     1     -32.207   7.969   1.701  1.00 20.00     0.068 C 
HETATM    2  C6  UNL     1     -31.521   7.454   4.008  1.00 20.00     0.031 C 
HETATM    3  C7  UNL     1     -32.138   5.629   2.420  1.00 20.00     0.031 C 
HETATM    4  C9  UNL     1     -32.461   7.073   2.853  1.00 20.00     0.046 C 
HETATM    5  N10 UNL     1     -32.003   8.669   0.797  1.00 20.00    -0.196 NA
ENDROOT
BRANCH   4   6
HETATM    6  C8  UNL     1     -33.955   7.128   3.277  1.00 20.00     0.062 C 
BRANCH   6   7
HETATM    7  C5  UNL     1     -34.484   5.933   4.039  1.00 20.00    -0.050 A 
HETATM    8  C2  UNL     1     -35.818   5.445   3.927  1.00 20.00     0.014 A 
HETATM    9  C3  UNL     1     -36.037   4.347   4.729  1.00 20.00     0.050 A 
HETATM   10  S11 UNL     1     -34.638   3.908   5.613  1.00 20.00    -0.113 SA
HETATM   11  C4  UNL     1     -33.734   5.189   4.924  1.00 20.00     0.056 A 
ENDBRANCH   6   7
ENDBRANCH   4   6
TORSDOF 2
