REMARK  1 active torsions:
REMARK  status: ('A' for Active; 'I' for Inactive)
REMARK    1  A    between atoms: C5_5  and  C9_9 
ROOT
HETATM    1  C1  UNL     1     -34.147   6.126   5.434  1.00 20.00     0.069 C 
HETATM    2  C2  UNL     1     -32.205   5.642   3.051  1.00 20.00     0.006 C 
HETATM    3  C3  UNL     1     -33.423   4.825   3.462  1.00 20.00     0.024 C 
HETATM    4  C4  UNL     1     -34.107   7.152   3.178  1.00 20.00     0.029 C 
HETATM    5  C5  UNL     1     -32.829   6.858   2.373  1.00 20.00    -0.013 C 
HETATM    6  C6  UNL     1     -34.410   5.876   3.999  1.00 20.00     0.046 C 
HETATM    7  C7  UNL     1     -35.860   5.419   3.832  1.00 20.00     0.031 C 
HETATM    8  N10 UNL     1     -33.941   6.323   6.559  1.00 20.00    -0.196 NA
ENDROOT
BRANCH   5   9
HETATM    9  C9  UNL     1     -31.882   8.045   2.296  1.00 20.00     0.000 C 
HETATM   10  C8  UNL     1     -32.520   9.227   1.637  1.00 20.00     0.005 C 
ENDBRANCH   5   9
TORSDOF 1
