REMARK  2 active torsions:
REMARK  status: ('A' for Active; 'I' for Inactive)
REMARK    1  A    between atoms: C6_6  and  C10_10 
REMARK    2  A    between atoms: C7_7  and  C11_11 
ROOT
HETATM    1  C1  UNL     1     -34.074   6.605   5.124  1.00 20.00     0.069 C 
HETATM    2  C2  UNL     1     -31.533   5.982   3.586  1.00 20.00     0.002 C 
HETATM    3  C3  UNL     1     -31.592   7.459   3.195  1.00 20.00     0.005 C 
HETATM    4  C4  UNL     1     -32.872   5.249   3.448  1.00 20.00     0.024 C 
HETATM    5  C5  UNL     1     -34.094   7.374   2.763  1.00 20.00     0.029 C 
HETATM    6  C6  UNL     1     -32.708   7.737   2.189  1.00 20.00    -0.013 C 
HETATM    7  C7  UNL     1     -34.094   6.148   3.713  1.00 20.00     0.049 C 
HETATM    8  N12 UNL     1     -34.058   6.963   6.227  1.00 20.00    -0.196 NA
ENDROOT
BRANCH   7   9
HETATM    9  C11 UNL     1     -35.384   5.335   3.504  1.00 20.00     0.020 C 
HETATM   10  C9  UNL     1     -35.431   4.155   4.411  1.00 20.00     0.007 C 
ENDBRANCH   7   9
BRANCH   6  11
HETATM   11  C10 UNL     1     -32.681   9.193   1.725  1.00 20.00     0.000 C 
HETATM   12  C8  UNL     1     -33.734   9.464   0.702  1.00 20.00     0.005 C 
ENDBRANCH   6  11
TORSDOF 2
