REMARK  3 active torsions:
REMARK  status: ('A' for Active; 'I' for Inactive)
REMARK    1  A    between atoms: C6_6  and  C11_11 
REMARK    2  A    between atoms: C7_7  and  C12_12 
REMARK    3  A    between atoms: C12_12  and  C13_13 
ROOT
HETATM    1  C1  UNL     1     -32.322   5.303   2.745  1.00 20.00     0.069 C 
HETATM    2  C2  UNL     1     -33.127   5.767   5.634  1.00 20.00     0.002 C 
HETATM    3  C3  UNL     1     -34.118   4.631   5.379  1.00 20.00     0.005 C 
HETATM    4  C4  UNL     1     -33.097   6.826   4.526  1.00 20.00     0.024 C 
HETATM    5  C5  UNL     1     -34.768   5.543   3.099  1.00 20.00     0.029 C 
HETATM    6  C6  UNL     1     -35.271   5.073   4.480  1.00 20.00    -0.013 C 
HETATM    7  C7  UNL     1     -33.392   6.258   3.126  1.00 20.00     0.050 C 
HETATM    8  N14 UNL     1     -31.486   4.556   2.447  1.00 20.00    -0.196 NA
ENDROOT
BRANCH   7   9
HETATM    9  C12 UNL     1     -33.386   7.401   2.096  1.00 20.00     0.028 C 
BRANCH   9  10
HETATM   10  C13 UNL     1     -32.344   8.480   2.406  1.00 20.00    -0.021 C 
HETATM   11  C9  UNL     1     -30.917   7.930   2.432  1.00 20.00     0.009 C 
HETATM   12  C10 UNL     1     -32.449   9.597   1.366  1.00 20.00     0.009 C 
ENDBRANCH   9  10
ENDBRANCH   7   9
BRANCH   6  13
HETATM   13  C11 UNL     1     -36.308   3.961   4.327  1.00 20.00     0.000 C 
HETATM   14  C8  UNL     1     -37.466   4.400   3.493  1.00 20.00     0.005 C 
ENDBRANCH   6  13
TORSDOF 3
