REMARK  3 active torsions:
REMARK  status: ('A' for Active; 'I' for Inactive)
REMARK    1  A    between atoms: C5_5  and  C9_9 
REMARK    2  A    between atoms: C6_6  and  C10_10 
REMARK    3  A    between atoms: C10_10  and  C11_11 
ROOT
HETATM    1  C1  UNL     1     -33.363   6.692   5.449  1.00 20.00     0.069 C 
HETATM    2  C2  UNL     1     -34.454   8.074   2.854  1.00 20.00     0.006 C 
HETATM    3  C3  UNL     1     -34.935   6.787   3.534  1.00 20.00     0.025 C 
HETATM    4  C4  UNL     1     -32.608   6.502   3.091  1.00 20.00     0.029 C 
HETATM    5  C5  UNL     1     -32.928   7.958   2.732  1.00 20.00    -0.013 C 
HETATM    6  C6  UNL     1     -33.681   6.125   4.120  1.00 20.00     0.049 C 
HETATM    7  N12 UNL     1     -33.114   7.136   6.491  1.00 20.00    -0.196 NA
ENDROOT
BRANCH   6   8
HETATM    8  C10 UNL     1     -33.841   4.610   4.246  1.00 20.00     0.024 C 
BRANCH   8   9
HETATM    9  C11 UNL     1     -35.204   4.246   4.826  1.00 20.00    -0.003 C 
HETATM   10  C8  UNL     1     -35.381   4.825   6.220  1.00 20.00     0.005 C 
ENDBRANCH   8   9
ENDBRANCH   6   8
BRANCH   5  11
HETATM   11  C9  UNL     1     -32.407   8.355   1.359  1.00 20.00     0.000 C 
HETATM   12  C7  UNL     1     -32.742   9.773   1.023  1.00 20.00     0.005 C 
ENDBRANCH   5  11
TORSDOF 3
