REMARK  3 active torsions:
REMARK  status: ('A' for Active; 'I' for Inactive)
REMARK    1  A    between atoms: C1_1  and  C7_7 
REMARK    2  A    between atoms: C1_1  and  C8_8 
REMARK    3  A    between atoms: C9_9  and  C11_11 
ROOT
HETATM    1  C4  UNL     1     -32.372   6.955   4.373  1.00 20.00     0.013 C 
HETATM    2  C5  UNL     1     -31.714   6.374   3.128  1.00 20.00     0.005 C 
HETATM    3  C6  UNL     1     -33.827   7.474   2.537  1.00 20.00     0.016 C 
HETATM    4  C8  UNL     1     -33.852   7.043   4.008  1.00 20.00     0.056 C 
HETATM    5  C9  UNL     1     -32.519   6.933   1.958  1.00 20.00    -0.014 C 
ENDROOT
BRANCH   4   6
HETATM    6  C1  UNL     1     -34.576   5.711   4.199  1.00 20.00     0.135 C 
HETATM    7  O12 UNL     1     -35.507   5.372   3.470  1.00 20.00    -0.297 OA
BRANCH   6   8
HETATM    8  C7  UNL     1     -34.093   4.833   5.322  1.00 20.00     0.056 A 
HETATM    9  C2  UNL     1     -34.047   5.409   6.692  1.00 20.00     0.013 A 
HETATM   10  C3  UNL     1     -35.084   4.387   6.336  1.00 20.00     0.013 A 
ENDBRANCH   6   8
ENDBRANCH   4   6
BRANCH   5  11
HETATM   11  C11 UNL     1     -31.740   8.078   1.337  1.00 20.00     0.000 C 
HETATM   12  C10 UNL     1     -32.483   8.710   0.202  1.00 20.00     0.005 C 
ENDBRANCH   5  11
TORSDOF 3
