REMARK  3 active torsions:
REMARK  status: ('A' for Active; 'I' for Inactive)
REMARK    1  A    between atoms: C6_6  and  C10_10 
REMARK    2  A    between atoms: C7_7  and  C11_11 
REMARK    3  A    between atoms: C11_11  and  C12_12 
ROOT
HETATM    1  C1  UNL     1     -31.025   7.296   3.459  1.00 20.00     0.069 C 
HETATM    2  C2  UNL     1     -33.802   7.124   4.827  1.00 20.00     0.006 C 
HETATM    3  C3  UNL     1     -33.128   5.022   3.602  1.00 20.00     0.006 C 
HETATM    4  C4  UNL     1     -33.405   7.965   3.611  1.00 20.00     0.025 C 
HETATM    5  C5  UNL     1     -32.729   5.856   2.382  1.00 20.00     0.025 C 
HETATM    6  C6  UNL     1     -34.226   5.707   4.424  1.00 20.00    -0.015 C 
HETATM    7  C7  UNL     1     -32.320   7.300   2.739  1.00 20.00     0.049 C 
HETATM    8  N13 UNL     1     -30.011   7.293   4.023  1.00 20.00    -0.196 NA
ENDROOT
BRANCH   7   9
HETATM    9  C11 UNL     1     -32.140   8.112   1.444  1.00 20.00     0.024 C 
BRANCH   9  10
HETATM   10  C12 UNL     1     -31.763   9.552   1.756  1.00 20.00    -0.003 C 
HETATM   11  C9  UNL     1     -31.562  10.349   0.477  1.00 20.00     0.005 C 
ENDBRANCH   9  10
ENDBRANCH   7   9
BRANCH   6  12
HETATM   12  C10 UNL     1     -34.574   4.876   5.658  1.00 20.00     0.000 C 
HETATM   13  C8  UNL     1     -35.028   3.503   5.287  1.00 20.00     0.005 C 
ENDBRANCH   6  12
TORSDOF 3
