REMARK  4 active torsions:
REMARK  status: ('A' for Active; 'I' for Inactive)
REMARK    1  A    between atoms: C6_6  and  C10_10 
REMARK    2  A    between atoms: C7_7  and  C11_11 
REMARK    3  A    between atoms: C9_9  and  C11_11 
REMARK    4  A    between atoms: C11_11  and  O12_12 
ROOT
HETATM    1  C1  UNL     1     -33.980   5.381   6.879  1.00 20.00     0.012 C 
HETATM    2  C2  UNL     1     -34.316   4.987   5.795  1.00 20.00    -0.115 C 
HETATM    3  C9  UNL     1     -34.728   4.501   4.468  1.00 20.00     0.125 C 
ENDROOT
BRANCH   3   4
HETATM    4  C11 UNL     1     -34.799   5.642   3.449  1.00 20.00     0.133 C 
BRANCH   4   5
HETATM    5  C7  UNL     1     -33.414   6.034   2.962  1.00 20.00     0.015 C 
HETATM    6  C4  UNL     1     -32.478   6.446   4.097  1.00 20.00     0.007 C 
HETATM    7  C3  UNL     1     -31.427   7.281   3.383  1.00 20.00     0.005 C 
HETATM    8  C6  UNL     1     -32.261   8.137   2.431  1.00 20.00    -0.014 C 
HETATM    9  C5  UNL     1     -33.424   7.231   1.999  1.00 20.00     0.012 C 
BRANCH   8  10
HETATM   10  C10 UNL     1     -31.456   8.681   1.263  1.00 20.00     0.000 C 
HETATM   11  C8  UNL     1     -32.297   9.506   0.341  1.00 20.00     0.005 C 
ENDBRANCH   8  10
ENDBRANCH   4   5
BRANCH   4  12
HETATM   12  O12 UNL     1     -35.402   6.775   4.075  1.00 20.00    -0.394 OA
HETATM   13  H30 UNL     1     -34.825   7.019   4.813  1.00 20.00     0.210 HD
ENDBRANCH   4  12
ENDBRANCH   3   4
TORSDOF 4
