REMARK  4 active torsions:
REMARK  status: ('A' for Active; 'I' for Inactive)
REMARK    1  A    between atoms: C6_6  and  C10_10 
REMARK    2  A    between atoms: C7_7  and  C11_11 
REMARK    3  A    between atoms: C9_9  and  C11_11 
REMARK    4  A    between atoms: C11_11  and  O12_12 
ROOT
HETATM    1  C1  UNL     1     -32.100   8.963  -0.303  1.00 20.00     0.012 C 
HETATM    2  C2  UNL     1     -32.200   8.922   0.893  1.00 20.00    -0.115 C 
HETATM    3  C9  UNL     1     -32.324   8.877   2.359  1.00 20.00     0.125 C 
ENDROOT
BRANCH   3   4
HETATM    4  C11 UNL     1     -31.908   7.512   2.916  1.00 20.00     0.133 C 
BRANCH   4   5
HETATM    5  C7  UNL     1     -33.042   6.506   2.817  1.00 20.00     0.015 C 
HETATM    6  C4  UNL     1     -32.577   5.054   2.956  1.00 20.00     0.007 C 
HETATM    7  C3  UNL     1     -33.745   4.297   3.597  1.00 20.00     0.005 C 
HETATM    8  C6  UNL     1     -34.841   5.338   3.845  1.00 20.00    -0.014 C 
HETATM    9  C5  UNL     1     -34.080   6.659   3.925  1.00 20.00     0.012 C 
BRANCH   8  10
HETATM   10  C10 UNL     1     -35.672   5.051   5.084  1.00 20.00     0.000 C 
HETATM   11  C8  UNL     1     -34.832   5.001   6.322  1.00 20.00     0.005 C 
ENDBRANCH   8  10
ENDBRANCH   4   5
BRANCH   4  12
HETATM   12  O12 UNL     1     -31.555   7.669   4.291  1.00 20.00    -0.394 OA
HETATM   13  H30 UNL     1     -31.279   6.795   4.605  1.00 20.00     0.210 HD
ENDBRANCH   4  12
ENDBRANCH   3   4
TORSDOF 4
