REMARK  2 active torsions:
REMARK  status: ('A' for Active; 'I' for Inactive)
REMARK    1  A    between atoms: C1_1  and  C7_7 
REMARK    2  A    between atoms: C6_6  and  C10_10 
ROOT
HETATM    1  C2  UNL     1     -32.175   5.529   2.451  1.00 20.00     0.002 C 
HETATM    2  C3  UNL     1     -32.021   7.043   2.333  1.00 20.00     0.005 C 
HETATM    3  C4  UNL     1     -32.733   5.123   3.815  1.00 20.00     0.020 C 
HETATM    4  C5  UNL     1     -33.891   7.367   4.004  1.00 20.00     0.025 C 
HETATM    5  C6  UNL     1     -33.335   7.778   2.631  1.00 20.00    -0.014 C 
HETATM    6  C7  UNL     1     -34.041   5.848   4.147  1.00 20.00     0.045 C 
HETATM    7  C8  UNL     1     -35.233   5.298   3.366  1.00 20.00     0.027 C 
ENDROOT
BRANCH   6   8
HETATM    8  C1  UNL     1     -34.312   5.541   5.617  1.00 20.00     0.181 C 
HETATM    9  O11 UNL     1     -35.000   4.505   5.834  1.00 20.00    -0.647 OA
HETATM   10  O12 UNL     1     -33.812   6.366   6.432  1.00 20.00    -0.647 OA
ENDBRANCH   6   8
BRANCH   5  11
HETATM   11  C10 UNL     1     -33.132   9.291   2.563  1.00 20.00     0.000 C 
HETATM   12  C9  UNL     1     -32.623   9.719   1.226  1.00 20.00     0.005 C 
ENDBRANCH   5  11
TORSDOF 2
