REMARK  0 active torsions:
REMARK  status: ('A' for Active; 'I' for Inactive)
ROOT
HETATM    1  C1  UNL     1     -34.062   6.181   5.889  1.00 20.00     0.071 C 
HETATM    2  C2  UNL     1     -32.828   7.128   2.680  1.00 20.00     0.034 C 
HETATM    3  C3  UNL     1     -32.017   6.382   3.740  1.00 20.00     0.036 C 
HETATM    4  C4  UNL     1     -34.972   6.141   3.557  1.00 20.00     0.058 C 
HETATM    5  C5  UNL     1     -33.965   6.147   2.403  1.00 20.00     0.123 C 
HETATM    6  C6  UNL     1     -32.854   5.117   3.957  1.00 20.00     0.144 C 
HETATM    7  C7  UNL     1     -34.203   5.382   4.661  1.00 20.00     0.074 C 
HETATM    8  C8  UNL     1     -34.907   4.060   4.998  1.00 20.00     0.034 C 
HETATM    9  N9  UNL     1     -33.951   6.810   6.858  1.00 20.00    -0.196 NA
HETATM   10  O10 UNL     1     -33.299   4.877   2.595  1.00 20.00    -0.379 OA
ENDROOT
TORSDOF 0
