REMARK  2 active torsions:
REMARK  status: ('A' for Active; 'I' for Inactive)
REMARK    1  A    between atoms: C5_5  and  C9_9 
REMARK    2  A    between atoms: C6_6  and  C10_10 
ROOT
HETATM    1  C1  UNL     1     -33.932   6.661   5.803  1.00 20.00     0.069 C 
HETATM    2  C2  UNL     1     -32.265   6.992   2.495  1.00 20.00     0.006 C 
HETATM    3  C3  UNL     1     -32.475   6.277   3.832  1.00 20.00     0.025 C 
HETATM    4  C4  UNL     1     -33.925   8.168   3.836  1.00 20.00     0.029 C 
HETATM    5  C5  UNL     1     -33.297   8.126   2.440  1.00 20.00    -0.013 C 
HETATM    6  C6  UNL     1     -33.857   6.718   4.333  1.00 20.00     0.049 C 
HETATM    7  N11 UNL     1     -33.992   6.616   6.961  1.00 20.00    -0.196 NA
ENDROOT
BRANCH   6   8
HETATM    8  C10 UNL     1     -34.973   5.852   3.733  1.00 20.00     0.020 C 
HETATM    9  C8  UNL     1     -34.852   4.426   4.157  1.00 20.00     0.007 C 
ENDBRANCH   6   8
BRANCH   5  10
HETATM   10  C9  UNL     1     -32.696   9.460   2.025  1.00 20.00     0.000 C 
HETATM   11  C7  UNL     1     -32.082   9.397   0.662  1.00 20.00     0.005 C 
ENDBRANCH   5  10
TORSDOF 2
