REMARK  5 active torsions:
REMARK  status: ('A' for Active; 'I' for Inactive)
REMARK    1  A    between atoms: C6_6  and  C8_8 
REMARK    2  A    between atoms: C7_7  and  C11_11 
REMARK    3  A    between atoms: C8_8  and  C10_10 
REMARK    4  A    between atoms: C9_9  and  C10_10 
REMARK    5  A    between atoms: C9_9  and  C11_11 
ROOT
HETATM    1  C1  UNL     1     -33.706   6.485   5.945  1.00 20.00     0.069 C 
HETATM    2  C5  UNL     1     -32.590   4.668   4.719  1.00 20.00     0.031 C 
HETATM    3  C11 UNL     1     -33.660   5.774   4.644  1.00 20.00     0.045 C 
HETATM    4  N12 UNL     1     -33.749   7.036   6.966  1.00 20.00    -0.196 NA
ENDROOT
BRANCH   3   5
HETATM    5  C7  UNL     1     -35.037   5.074   4.420  1.00 20.00     0.020 C 
HETATM    6  C3  UNL     1     -35.434   4.046   5.477  1.00 20.00     0.007 C 
ENDBRANCH   3   5
BRANCH   3   7
HETATM    7  C9  UNL     1     -33.374   6.769   3.480  1.00 20.00     0.028 C 
BRANCH   7   8
HETATM    8  C10 UNL     1     -31.902   7.144   3.151  1.00 20.00    -0.017 C 
HETATM    9  C4  UNL     1     -31.323   7.916   4.348  1.00 20.00     0.010 C 
BRANCH   8  10
HETATM   10  C8  UNL     1     -31.765   7.949   1.843  1.00 20.00     0.004 C 
BRANCH  10  11
HETATM   11  C6  UNL     1     -32.483   9.303   1.863  1.00 20.00    -0.004 C 
HETATM   12  C2  UNL     1     -32.284  10.054   0.555  1.00 20.00     0.005 C 
ENDBRANCH  10  11
ENDBRANCH   8  10
ENDBRANCH   7   8
ENDBRANCH   3   7
TORSDOF 5
