REMARK  3 active torsions:
REMARK  status: ('A' for Active; 'I' for Inactive)
REMARK    1  A    between atoms: C1_1  and  C5_5 
REMARK    2  A    between atoms: C1_1  and  C9_9 
REMARK    3  A    between atoms: C6_6  and  C10_10 
ROOT
HETATM    1  C2  UNL     1     -32.129   5.911   3.133  1.00 20.00     0.012 C 
HETATM    2  C3  UNL     1     -31.499   7.294   3.248  1.00 20.00     0.005 C 
HETATM    3  C4  UNL     1     -33.764   7.465   2.320  1.00 20.00     0.016 C 
HETATM    4  C5  UNL     1     -33.631   6.182   3.146  1.00 20.00     0.056 C 
HETATM    5  C6  UNL     1     -32.447   8.224   2.498  1.00 20.00    -0.014 C 
ENDROOT
BRANCH   4   6
HETATM    6  C1  UNL     1     -34.177   6.356   4.562  1.00 20.00     0.130 C 
HETATM    7  O11 UNL     1     -33.722   7.214   5.316  1.00 20.00    -0.298 OA
BRANCH   6   8
HETATM    8  C9  UNL     1     -35.297   5.415   4.967  1.00 20.00     0.074 C 
HETATM    9  C7  UNL     1     -34.784   4.121   5.572  1.00 20.00     0.013 C 
ENDBRANCH   6   8
ENDBRANCH   4   6
BRANCH   5  10
HETATM   10  C10 UNL     1     -31.857   8.519   1.132  1.00 20.00     0.000 C 
HETATM   11  C8  UNL     1     -32.750   9.397   0.313  1.00 20.00     0.005 C 
ENDBRANCH   5  10
TORSDOF 3
