REMARK  3 active torsions:
REMARK  status: ('A' for Active; 'I' for Inactive)
REMARK    1  A    between atoms: C3_3  and  C7_7 
REMARK    2  A    between atoms: C3_3  and  C10_10 
REMARK    3  A    between atoms: C8_8  and  C11_11 
ROOT
HETATM    1  C1  UNL     1     -31.857   8.656   0.854  1.00 20.00     0.012 C 
HETATM    2  C2  UNL     1     -31.757   7.956   1.824  1.00 20.00    -0.110 C 
HETATM    3  C10 UNL     1     -31.628   7.103   3.011  1.00 20.00     0.171 C 
ENDROOT
BRANCH   3   4
HETATM    4  C3  UNL     1     -32.738   6.075   3.113  1.00 20.00     0.142 C 
HETATM    5  O12 UNL     1     -32.652   4.944   2.638  1.00 20.00    -0.297 OA
BRANCH   4   6
HETATM    6  C7  UNL     1     -33.991   6.518   3.845  1.00 20.00     0.057 C 
HETATM    7  C4  UNL     1     -35.180   5.749   3.277  1.00 20.00     0.013 C 
HETATM    8  C5  UNL     1     -35.421   4.616   4.267  1.00 20.00     0.005 C 
HETATM    9  C8  UNL     1     -35.115   5.271   5.610  1.00 20.00    -0.014 C 
HETATM   10  C6  UNL     1     -33.876   6.122   5.318  1.00 20.00     0.016 C 
BRANCH   9  11
HETATM   11  C11 UNL     1     -34.904   4.266   6.730  1.00 20.00     0.000 C 
HETATM   12  C9  UNL     1     -33.782   3.322   6.431  1.00 20.00     0.005 C 
ENDBRANCH   9  11
ENDBRANCH   4   6
ENDBRANCH   3   4
TORSDOF 3
