REMARK  2 active torsions:
REMARK  status: ('A' for Active; 'I' for Inactive)
REMARK    1  A    between atoms: C3_3  and  C8_8 
REMARK    2  A    between atoms: C3_3  and  C9_9 
ROOT
HETATM    1  C1  UNL     1     -32.514   9.185   0.762  1.00 20.00     0.012 C 
HETATM    2  C2  UNL     1     -32.184   8.604   1.760  1.00 20.00    -0.110 C 
HETATM    3  C9  UNL     1     -31.776   7.901   2.981  1.00 20.00     0.171 C 
ENDROOT
BRANCH   3   4
HETATM    4  C3  UNL     1     -32.358   6.504   3.070  1.00 20.00     0.142 C 
HETATM    5  O10 UNL     1     -31.782   5.506   2.640  1.00 20.00    -0.297 OA
BRANCH   4   6
HETATM    6  C8  UNL     1     -33.718   6.392   3.730  1.00 20.00     0.060 C 
HETATM    7  C4  UNL     1     -34.454   5.210   3.111  1.00 20.00     0.038 C 
HETATM    8  C6  UNL     1     -35.720   4.900   3.901  1.00 20.00     0.168 C 
HETATM    9  O11 UNL     1     -35.414   4.669   5.277  1.00 20.00    -0.391 OA
HETATM   10  C7  UNL     1     -34.826   5.812   5.898  1.00 20.00     0.168 C 
HETATM   11  C5  UNL     1     -33.508   6.174   5.224  1.00 20.00     0.038 C 
ENDBRANCH   4   6
ENDBRANCH   3   4
TORSDOF 2
