REMARK  3 active torsions:
REMARK  status: ('A' for Active; 'I' for Inactive)
REMARK    1  A    between atoms: C5_5  and  C9_9 
REMARK    2  A    between atoms: C6_6  and  C10_10 
REMARK    3  A    between atoms: C10_10  and  O11_11 
ROOT
HETATM    1  C1  UNL     1     -32.886   8.096   5.748  1.00 20.00     0.001 C 
HETATM    2  C2  UNL     1     -32.000   7.886   4.524  1.00 20.00     0.005 C 
HETATM    3  C3  UNL     1     -33.546   6.795   6.197  1.00 20.00     0.007 C 
HETATM    4  C4  UNL     1     -33.432   5.923   3.828  1.00 20.00     0.011 C 
HETATM    5  C5  UNL     1     -32.773   7.233   3.372  1.00 20.00    -0.014 C 
HETATM    6  C6  UNL     1     -34.329   6.135   5.055  1.00 20.00     0.014 C 
ENDROOT
BRANCH   6   7
HETATM    7  C10 UNL     1     -34.938   4.812   5.514  1.00 20.00     0.118 C 
HETATM    8  C8  UNL     1     -33.868   3.818   5.932  1.00 20.00     0.040 C 
BRANCH   7   9
HETATM    9  O11 UNL     1     -35.705   4.262   4.450  1.00 20.00    -0.396 OA
HETATM   10  H31 UNL     1     -36.075   3.426   4.775  1.00 20.00     0.210 HD
ENDBRANCH   7   9
ENDBRANCH   6   7
BRANCH   5  11
HETATM   11  C9  UNL     1     -31.853   6.986   2.177  1.00 20.00     0.000 C 
HETATM   12  C7  UNL     1     -31.231   8.253   1.689  1.00 20.00     0.005 C 
ENDBRANCH   5  11
TORSDOF 3
