REMARK  3 active torsions:
REMARK  status: ('A' for Active; 'I' for Inactive)
REMARK    1  A    between atoms: C3_3  and  C7_7 
REMARK    2  A    between atoms: C3_3  and  C10_10 
REMARK    3  A    between atoms: C8_8  and  C11_11 
ROOT
HETATM    1  C1  UNL     1     -32.377  10.390   1.436  1.00 20.00     0.012 C 
HETATM    2  C2  UNL     1     -32.286   9.216   1.671  1.00 20.00    -0.110 C 
HETATM    3  C10 UNL     1     -32.171   7.780   1.951  1.00 20.00     0.171 C 
ENDROOT
BRANCH   3   4
HETATM    4  C3  UNL     1     -33.077   7.333   3.080  1.00 20.00     0.142 C 
HETATM    5  O12 UNL     1     -33.841   8.095   3.671  1.00 20.00    -0.297 OA
BRANCH   4   6
HETATM    6  C7  UNL     1     -32.997   5.866   3.458  1.00 20.00     0.057 C 
HETATM    7  C4  UNL     1     -34.056   5.086   2.680  1.00 20.00     0.013 C 
HETATM    8  C5  UNL     1     -34.933   4.412   3.733  1.00 20.00     0.005 C 
HETATM    9  C8  UNL     1     -34.828   5.334   4.942  1.00 20.00    -0.014 C 
HETATM   10  C6  UNL     1     -33.349   5.721   4.937  1.00 20.00     0.016 C 
BRANCH   9  11
HETATM   11  C11 UNL     1     -35.270   4.675   6.237  1.00 20.00     0.000 C 
HETATM   12  C9  UNL     1     -34.477   3.442   6.537  1.00 20.00     0.005 C 
ENDBRANCH   9  11
ENDBRANCH   4   6
ENDBRANCH   3   4
TORSDOF 3
