REMARK  3 active torsions:
REMARK  status: ('A' for Active; 'I' for Inactive)
REMARK    1  A    between atoms: C3_3  and  C7_7 
REMARK    2  A    between atoms: C3_3  and  C9_9 
REMARK    3  A    between atoms: C8_8  and  C9_9 
ROOT
HETATM    1  C1  UNL     1     -32.206  10.892   0.221  1.00 20.00     0.012 C 
HETATM    2  C2  UNL     1     -32.154  10.122   1.140  1.00 20.00    -0.117 C 
HETATM    3  C8  UNL     1     -32.088   9.180   2.268  1.00 20.00     0.100 C 
ENDROOT
BRANCH   3   4
HETATM    4  C9  UNL     1     -32.564   7.784   1.874  1.00 20.00     0.091 C 
BRANCH   4   5
HETATM    5  C3  UNL     1     -32.532   6.779   3.016  1.00 20.00     0.134 C 
HETATM    6  O10 UNL     1     -31.543   6.096   3.279  1.00 20.00    -0.297 OA
BRANCH   5   7
HETATM    7  C7  UNL     1     -33.795   6.673   3.845  1.00 20.00     0.081 C 
HETATM    8  C4  UNL     1     -33.448   6.206   5.240  1.00 20.00     0.040 C 
HETATM    9  C5  UNL     1     -34.555   5.230   5.560  1.00 20.00     0.168 C 
HETATM   10  O11 UNL     1     -34.863   4.597   4.316  1.00 20.00    -0.390 OA
HETATM   11  C6  UNL     1     -34.691   5.581   3.286  1.00 20.00     0.179 C 
ENDBRANCH   5   7
ENDBRANCH   4   5
ENDBRANCH   3   4
TORSDOF 3
