REMARK  3 active torsions:
REMARK  status: ('A' for Active; 'I' for Inactive)
REMARK    1  A    between atoms: C5_5  and  C7_7 
REMARK    2  A    between atoms: C6_6  and  C8_8 
REMARK    3  A    between atoms: C7_7  and  C8_8 
ROOT
HETATM    1  C1  UNL     1     -34.043   6.769   5.558  1.00 20.00     0.069 C 
HETATM    2  C4  UNL     1     -34.660   7.550   3.315  1.00 20.00     0.031 C 
HETATM    3  C8  UNL     1     -34.334   6.313   4.176  1.00 20.00     0.045 C 
HETATM    4  N9  UNL     1     -33.815   7.126   6.639  1.00 20.00    -0.196 NA
ENDROOT
BRANCH   3   5
HETATM    5  C6  UNL     1     -33.063   5.646   3.577  1.00 20.00     0.020 C 
HETATM    6  C3  UNL     1     -31.827   6.537   3.484  1.00 20.00     0.007 C 
ENDBRANCH   3   5
BRANCH   3   7
HETATM    7  C7  UNL     1     -35.522   5.312   4.189  1.00 20.00     0.024 C 
BRANCH   7   8
HETATM    8  C5  UNL     1     -35.176   3.883   4.633  1.00 20.00    -0.003 C 
HETATM    9  C2  UNL     1     -34.556   3.873   6.024  1.00 20.00     0.005 C 
ENDBRANCH   7   8
ENDBRANCH   3   7
TORSDOF 3
