REMARK  3 active torsions:
REMARK  status: ('A' for Active; 'I' for Inactive)
REMARK    1  A    between atoms: C6_6  and  C9_9 
REMARK    2  A    between atoms: C9_9  and  C11_11 
REMARK    3  A    between atoms: C10_10  and  C11_11 
ROOT
HETATM    1  C1  UNL     1     -32.256   5.576   2.993  1.00 20.00     0.069 C 
HETATM    2  C2  UNL     1     -33.922   5.745   5.616  1.00 20.00     0.006 C 
HETATM    3  C3  UNL     1     -33.412   6.883   4.743  1.00 20.00     0.025 C 
HETATM    4  C4  UNL     1     -34.698   5.348   3.346  1.00 20.00     0.029 C 
HETATM    5  C5  UNL     1     -35.114   5.219   4.822  1.00 20.00    -0.017 C 
HETATM    6  C6  UNL     1     -33.495   6.320   3.314  1.00 20.00     0.049 C 
HETATM    7  C7  UNL     1     -35.511   3.805   5.213  1.00 20.00     0.010 C 
HETATM    8  N12 UNL     1     -31.284   4.993   2.742  1.00 20.00    -0.196 NA
ENDROOT
BRANCH   6   9
HETATM    9  C9  UNL     1     -33.687   7.434   2.283  1.00 20.00     0.024 C 
BRANCH   9  10
HETATM   10  C11 UNL     1     -32.530   8.427   2.323  1.00 20.00     0.001 C 
BRANCH  10  11
HETATM   11  C10 UNL     1     -32.741   9.555   1.314  1.00 20.00    -0.004 C 
HETATM   12  C8  UNL     1     -32.808   9.025  -0.109  1.00 20.00     0.005 C 
ENDBRANCH  10  11
ENDBRANCH   9  10
ENDBRANCH   6   9
TORSDOF 3
