REMARK  5 active torsions:
REMARK  status: ('A' for Active; 'I' for Inactive)
REMARK    1  A    between atoms: C1_1  and  C5_5 
REMARK    2  A    between atoms: C1_1  and  C9_9 
REMARK    3  A    between atoms: C6_6  and  C10_10 
REMARK    4  A    between atoms: C9_9  and  C12_12 
REMARK    5  A    between atoms: C11_11  and  C12_12 
ROOT
HETATM    1  C2  UNL     1     -34.585   6.810   2.885  1.00 20.00     0.012 C 
HETATM    2  C3  UNL     1     -34.793   6.406   4.339  1.00 20.00     0.005 C 
HETATM    3  C4  UNL     1     -32.962   5.087   3.530  1.00 20.00     0.016 C 
HETATM    4  C5  UNL     1     -33.247   6.179   2.491  1.00 20.00     0.056 C 
HETATM    5  C6  UNL     1     -34.231   4.990   4.380  1.00 20.00    -0.014 C 
ENDROOT
BRANCH   4   6
HETATM    6  C1  UNL     1     -32.155   7.205   2.504  1.00 20.00     0.131 C 
HETATM    7  O13 UNL     1     -31.171   7.113   3.246  1.00 20.00    -0.298 OA
BRANCH   6   8
HETATM    8  C9  UNL     1     -32.319   8.376   1.546  1.00 20.00     0.079 C 
BRANCH   8   9
HETATM    9  C12 UNL     1     -32.331   9.727   2.258  1.00 20.00     0.007 C 
BRANCH   9  10
HETATM   10  C11 UNL     1     -32.458  10.879   1.263  1.00 20.00    -0.004 C 
HETATM   11  C8  UNL     1     -31.320  10.871   0.254  1.00 20.00     0.005 C 
ENDBRANCH   9  10
ENDBRANCH   8   9
ENDBRANCH   6   8
ENDBRANCH   4   6
BRANCH   5  12
HETATM   12  C10 UNL     1     -33.970   4.491   5.791  1.00 20.00     0.000 C 
HETATM   13  C7  UNL     1     -35.224   4.436   6.607  1.00 20.00     0.005 C 
ENDBRANCH   5  12
TORSDOF 5
