REMARK  2 active torsions:
REMARK  status: ('A' for Active; 'I' for Inactive)
REMARK    1  A    between atoms: C2_2  and  C3_3 
REMARK    2  A    between atoms: C3_3  and  C4_4 
ROOT
HETATM    1  C3  UNL     1     -34.131   5.991   3.178  1.00 20.00     0.402 C 
HETATM    2  F7  UNL     1     -34.222   5.113   2.141  1.00 20.00    -0.189 F 
HETATM    3  F8  UNL     1     -35.113   6.910   2.990  1.00 20.00    -0.189 F 
ENDROOT
BRANCH   1   4
HETATM    4  C2  UNL     1     -34.396   5.229   4.464  1.00 20.00     0.313 C 
HETATM    5  C1  UNL     1     -34.365   6.059   5.730  1.00 20.00     0.097 C 
HETATM    6  F5  UNL     1     -35.623   4.647   4.368  1.00 20.00    -0.200 F 
HETATM    7  F6  UNL     1     -33.501   4.214   4.581  1.00 20.00    -0.200 F 
ENDBRANCH   1   4
BRANCH   1   8
HETATM    8  C4  UNL     1     -32.793   6.683   3.088  1.00 20.00     0.460 C 
HETATM    9  F9  UNL     1     -31.767   5.812   3.189  1.00 20.00    -0.165 F 
HETATM   10  F10 UNL     1     -32.659   7.583   4.088  1.00 20.00    -0.165 F 
HETATM   11  F11 UNL     1     -32.661   7.347   1.919  1.00 20.00    -0.165 F 
ENDBRANCH   1   8
TORSDOF 2
