REMARK  1 active torsions:
REMARK  status: ('A' for Active; 'I' for Inactive)
REMARK    1  A    between atoms: C6_6  and  C8_8 
ROOT
HETATM    1  C1  UNL     1     -34.807   5.950   3.087  1.00 20.00     0.069 C 
HETATM    2  C2  UNL     1     -33.760   3.966   4.270  1.00 20.00     0.051 C 
HETATM    3  C3  UNL     1     -33.720   6.230   5.361  1.00 20.00     0.051 C 
HETATM    4  C4  UNL     1     -34.897   3.608   5.221  1.00 20.00     0.169 C 
HETATM    5  C5  UNL     1     -34.860   5.741   6.249  1.00 20.00     0.169 C 
HETATM    6  C6  UNL     1     -33.667   5.484   4.011  1.00 20.00     0.052 C 
HETATM    7  N9  UNL     1     -35.667   6.300   2.391  1.00 20.00    -0.196 NA
HETATM    8  O10 UNL     1     -34.780   4.331   6.445  1.00 20.00    -0.391 OA
ENDROOT
BRANCH   6   9
HETATM    9  C8  UNL     1     -32.382   5.785   3.339  1.00 20.00     0.020 C 
HETATM   10  C7  UNL     1     -32.239   7.244   3.076  1.00 20.00     0.007 C 
ENDBRANCH   6   9
TORSDOF 1
