REMARK  4 active torsions:
REMARK  status: ('A' for Active; 'I' for Inactive)
REMARK    1  A    between atoms: C5_5  and  C9_9 
REMARK    2  A    between atoms: C6_6  and  C10_10 
REMARK    3  A    between atoms: C10_10  and  C12_12 
REMARK    4  A    between atoms: C11_11  and  C12_12 
ROOT
HETATM    1  C1  UNL     1     -32.143   7.230   4.245  1.00 20.00     0.069 C 
HETATM    2  C2  UNL     1     -33.887   4.748   3.561  1.00 20.00     0.006 C 
HETATM    3  C3  UNL     1     -33.292   5.778   2.609  1.00 20.00     0.025 C 
HETATM    4  C4  UNL     1     -34.606   6.953   4.297  1.00 20.00     0.029 C 
HETATM    5  C5  UNL     1     -35.074   5.493   4.163  1.00 20.00    -0.013 C 
HETATM    6  C6  UNL     1     -33.353   7.094   3.401  1.00 20.00     0.049 C 
HETATM    7  N13 UNL     1     -31.196   7.337   4.906  1.00 20.00    -0.196 NA
ENDROOT
BRANCH   6   8
HETATM    8  C10 UNL     1     -33.448   8.304   2.471  1.00 20.00     0.024 C 
BRANCH   8   9
HETATM    9  C12 UNL     1     -32.207   8.423   1.593  1.00 20.00     0.001 C 
BRANCH   9  10
HETATM   10  C11 UNL     1     -32.292   9.651   0.686  1.00 20.00    -0.004 C 
HETATM   11  C8  UNL     1     -32.443  10.930   1.494  1.00 20.00     0.005 C 
ENDBRANCH   9  10
ENDBRANCH   8   9
ENDBRANCH   6   8
BRANCH   5  12
HETATM   12  C9  UNL     1     -35.548   4.892   5.476  1.00 20.00     0.000 C 
HETATM   13  C7  UNL     1     -34.470   4.894   6.514  1.00 20.00     0.005 C 
ENDBRANCH   5  12
TORSDOF 4
