REMARK  1 active torsions:
REMARK  status: ('A' for Active; 'I' for Inactive)
REMARK    1  A    between atoms: C1_1  and  N10_10 
ROOT
HETATM    1  C2  UNL     1     -31.657   7.075   2.809  1.00 20.00     0.002 C 
HETATM    2  C3  UNL     1     -35.874   5.314   4.341  1.00 20.00     0.020 C 
HETATM    3  C4  UNL     1     -32.801   6.282   2.161  1.00 20.00     0.007 C 
HETATM    4  C5  UNL     1     -34.946   5.192   3.129  1.00 20.00     0.008 C 
HETATM    5  C6  UNL     1     -32.002   7.196   4.302  1.00 20.00     0.026 C 
HETATM    6  C7  UNL     1     -35.112   5.317   5.671  1.00 20.00     0.125 C 
HETATM    7  C8  UNL     1     -33.886   6.274   3.227  1.00 20.00     0.009 C 
HETATM    8  C9  UNL     1     -33.075   6.131   4.516  1.00 20.00     0.090 C 
HETATM    9  N10 UNL     1     -33.944   6.205   5.683  1.00 20.00    -0.354 N 
ENDROOT
BRANCH   9  10
HETATM   10  C1  UNL     1     -33.535   6.774   6.881  1.00 20.00     0.351 C 
HETATM   11  O11 UNL     1     -32.586   7.531   7.057  1.00 20.00    -0.284 OA
ENDBRANCH   9  10
TORSDOF 1
