REMARK  3 active torsions:
REMARK  status: ('A' for Active; 'I' for Inactive)
REMARK    1  A    between atoms: C1_1  and  C7_7 
REMARK    2  A    between atoms: C1_1  and  C9_9 
REMARK    3  A    between atoms: C8_8  and  C9_9 
ROOT
HETATM    1  C1  UNL     1     -32.894   6.918   3.420  1.00 20.00     0.155 C 
HETATM    2  O10 UNL     1     -31.831   6.546   3.915  1.00 20.00    -0.295 OA
ENDROOT
BRANCH   1   3
HETATM    3  C7  UNL     1     -34.166   6.881   4.207  1.00 20.00     0.190 C 
HETATM    4  C3  UNL     1     -33.986   6.246   5.573  1.00 20.00     0.042 C 
HETATM    5  C2  UNL     1     -34.295   4.793   5.301  1.00 20.00     0.029 C 
HETATM    6  C6  UNL     1     -35.374   4.894   4.247  1.00 20.00     0.168 C 
HETATM    7  O11 UNL     1     -35.075   6.060   3.469  1.00 20.00    -0.378 OA
ENDBRANCH   1   3
BRANCH   1   8
HETATM    8  C9  UNL     1     -33.003   7.435   1.997  1.00 20.00     0.085 C 
BRANCH   8   9
HETATM    9  C8  UNL     1     -32.169   8.682   1.763  1.00 20.00    -0.007 A 
HETATM   10  C4  UNL     1     -32.468   9.585   0.599  1.00 20.00     0.005 A 
HETATM   11  C5  UNL     1     -32.761  10.044   2.000  1.00 20.00     0.005 A 
ENDBRANCH   8   9
ENDBRANCH   1   8
TORSDOF 3
