REMARK  3 active torsions:
REMARK  status: ('A' for Active; 'I' for Inactive)
REMARK    1  A    between atoms: C1_1  and  C3_3 
REMARK    2  A    between atoms: C1_1  and  C7_7 
REMARK    3  A    between atoms: C7_7  and  C8_8 
ROOT
HETATM    1  C1  UNL     1     -32.841   6.550   3.258  1.00 20.00     0.131 C 
HETATM    2  O9  UNL     1     -32.002   5.665   3.414  1.00 20.00    -0.298 OA
ENDROOT
BRANCH   1   3
HETATM    3  C3  UNL     1     -34.313   6.259   3.401  1.00 20.00     0.059 A 
HETATM    4  C2  UNL     1     -34.731   4.843   3.593  1.00 20.00     0.017 A 
HETATM    5  C4  UNL     1     -34.854   5.828   4.720  1.00 20.00    -0.007 A 
HETATM    6  C5  UNL     1     -34.015   5.673   5.942  1.00 20.00     0.011 C 
ENDBRANCH   1   3
BRANCH   1   7
HETATM    7  C7  UNL     1     -32.474   7.983   2.917  1.00 20.00     0.078 C 
BRANCH   7   8
HETATM    8  C8  UNL     1     -32.438   8.236   1.413  1.00 20.00     0.003 C 
HETATM    9  C6  UNL     1     -32.101   9.684   1.098  1.00 20.00     0.005 C 
ENDBRANCH   7   8
ENDBRANCH   1   7
TORSDOF 3
