REMARK  3 active torsions:
REMARK  status: ('A' for Active; 'I' for Inactive)
REMARK    1  A    between atoms: C3_3  and  C5_5 
REMARK    2  A    between atoms: C3_3  and  C9_9 
REMARK    3  A    between atoms: C8_8  and  C9_9 
ROOT
HETATM    1  C1  UNL     1     -35.373   4.469   6.499  1.00 20.00     0.012 C 
HETATM    2  C2  UNL     1     -35.143   4.311   5.331  1.00 20.00    -0.117 C 
HETATM    3  C8  UNL     1     -34.860   4.113   3.902  1.00 20.00     0.100 C 
ENDROOT
BRANCH   3   4
HETATM    4  C9  UNL     1     -34.729   5.440   3.158  1.00 20.00     0.090 C 
BRANCH   4   5
HETATM    5  C3  UNL     1     -33.602   6.323   3.672  1.00 20.00     0.132 C 
HETATM    6  O10 UNL     1     -33.535   6.715   4.836  1.00 20.00    -0.298 OA
BRANCH   5   7
HETATM    7  C5  UNL     1     -32.535   6.685   2.670  1.00 20.00     0.059 A 
HETATM    8  C4  UNL     1     -31.352   7.443   3.154  1.00 20.00     0.017 A 
HETATM    9  C6  UNL     1     -32.387   8.128   2.302  1.00 20.00    -0.007 A 
HETATM   10  C7  UNL     1     -32.078   8.488   0.890  1.00 20.00     0.011 C 
ENDBRANCH   5   7
ENDBRANCH   4   5
ENDBRANCH   3   4
TORSDOF 3
