REMARK  2 active torsions:
REMARK  status: ('A' for Active; 'I' for Inactive)
REMARK    1  A    between atoms: C2_2  and  C8_8 
REMARK    2  A    between atoms: C3_3  and  C5_5 
ROOT
HETATM    1  C1  UNL     1     -34.501   4.798   3.170  1.00 20.00     0.080 A 
HETATM    2  C2  UNL     1     -34.493   5.612   4.283  1.00 20.00     0.055 A 
HETATM    3  C3  UNL     1     -33.260   6.852   2.959  1.00 20.00     0.080 A 
HETATM    4  N9  UNL     1     -33.782   6.790   4.164  1.00 20.00    -0.248 NA
HETATM    5  S10 UNL     1     -33.585   5.527   1.917  1.00 20.00    -0.084 SA
ENDROOT
BRANCH   3   6
HETATM    6  C5  UNL     1     -32.419   8.026   2.514  1.00 20.00     0.049 A 
HETATM    7  C4  UNL     1     -31.240   7.812   1.589  1.00 20.00     0.016 A 
HETATM    8  C6  UNL     1     -32.473   8.492   1.074  1.00 20.00    -0.007 A 
HETATM    9  C7  UNL     1     -32.450   9.948   0.760  1.00 20.00     0.011 C 
ENDBRANCH   3   6
BRANCH   2  10
HETATM   10  C8  UNL     1     -35.171   5.328   5.563  1.00 20.00     0.174 C 
HETATM   11 CL11 UNL     1     -34.287   4.094   6.499  1.00 20.00    -0.124 Cl
ENDBRANCH   2  10
TORSDOF 2
