REMARK  1 active torsions:
REMARK  status: ('A' for Active; 'I' for Inactive)
REMARK    1  A    between atoms: C3_3  and  C8_8 
ROOT
HETATM    1  C1  UNL     1     -31.674   6.461   2.490  1.00 20.00     0.285 C 
HETATM    2  C2  UNL     1     -32.402   7.804   2.458  1.00 20.00     0.073 C 
HETATM    3  C3  UNL     1     -33.719   5.714   3.386  1.00 20.00     0.289 C 
HETATM    4  C4  UNL     1     -32.191   8.556   1.156  1.00 20.00     0.023 C 
HETATM    5  N9  UNL     1     -32.266   5.682   3.579  1.00 20.00     0.099 N 
HETATM    6  S10 UNL     1     -34.142   7.346   2.698  1.00 20.00    -0.127 SA
HETATM    7  H27 UNL     1     -31.926   4.722   3.561  1.00 20.00     0.317 HD
ENDROOT
BRANCH   3   8
HETATM    8  C8  UNL     1     -34.433   5.477   4.707  1.00 20.00    -0.011 C 
HETATM    9  C5  UNL     1     -34.072   4.086   5.260  1.00 20.00     0.017 C 
HETATM   10  C6  UNL     1     -35.958   5.553   4.502  1.00 20.00     0.017 C 
HETATM   11  C7  UNL     1     -34.013   6.548   5.732  1.00 20.00     0.017 C 
ENDBRANCH   3   8
TORSDOF 1
