REMARK  2 active torsions:
REMARK  status: ('A' for Active; 'I' for Inactive)
REMARK    1  A    between atoms: C3_3  and  C5_5 
REMARK    2  A    between atoms: C5_5  and  C7_7 
ROOT
HETATM    1  C1  UNL     1     -34.050   7.526   2.674  1.00 20.00     0.029 A 
HETATM    2  C2  UNL     1     -32.529   6.151   3.771  1.00 20.00     0.065 A 
HETATM    3  C3  UNL     1     -33.853   6.341   3.441  1.00 20.00     0.018 A 
HETATM    4  C4  UNL     1     -32.868   8.196   2.447  1.00 20.00    -0.021 A 
HETATM    5  C9  UNL     1     -32.652   9.453   1.698  1.00 20.00     0.056 C 
HETATM    6  S12 UNL     1     -31.529   7.398   3.156  1.00 20.00    -0.106 SA
ENDROOT
BRANCH   3   7
HETATM    7  C5  UNL     1     -34.908   5.410   3.851  1.00 20.00     0.164 C 
HETATM    8  O11 UNL     1     -36.096   5.540   3.575  1.00 20.00    -0.292 OA
BRANCH   7   9
HETATM    9  C7  UNL     1     -34.501   4.243   4.641  1.00 20.00     0.065 A 
HETATM   10  C6  UNL     1     -35.511   3.562   5.530  1.00 20.00     0.018 A 
HETATM   11  C8  UNL     1     -34.373   4.328   6.144  1.00 20.00    -0.006 A 
HETATM   12  C10 UNL     1     -34.641   5.588   6.893  1.00 20.00     0.011 C 
ENDBRANCH   7   9
ENDBRANCH   3   7
TORSDOF 2
