REMARK  2 active torsions:
REMARK  status: ('A' for Active; 'I' for Inactive)
REMARK    1  A    between atoms: C2_2  and  C9_9 
REMARK    2  A    between atoms: C9_9  and  N11_11 
ROOT
HETATM    1  C1  UNL     1     -32.505   8.979   2.008  1.00 20.00    -0.109 C 
HETATM    2  C2  UNL     1     -32.376   7.878   2.469  1.00 20.00    -0.077 C 
HETATM    3  C7  UNL     1     -32.663  10.320   1.446  1.00 20.00     0.112 C 
ENDROOT
BRANCH   2   4
HETATM    4  C9  UNL     1     -32.212   6.533   3.029  1.00 20.00     0.365 C 
BRANCH   4   5
HETATM    5  N11 UNL     1     -33.355   6.173   3.866  1.00 20.00     0.103 N 
HETATM    6  C4  UNL     1     -34.486   5.732   3.040  1.00 20.00     0.303 C 
HETATM    7  C3  UNL     1     -35.684   5.355   3.914  1.00 20.00     0.300 C 
HETATM    8  N10 UNL     1     -35.342   4.340   4.914  1.00 20.00     0.091 N 
HETATM    9  C6  UNL     1     -34.177   4.733   5.722  1.00 20.00     0.244 C 
HETATM   10  H27 UNL     1     -36.149   4.207   5.536  1.00 20.00     0.316 HD
HETATM   11  C5  UNL     1     -32.988   5.125   4.828  1.00 20.00     0.308 C 
HETATM   12  C8  UNL     1     -34.540   5.830   6.728  1.00 20.00     0.044 C 
ENDBRANCH   4   5
ENDBRANCH   2   4
TORSDOF 2
