REMARK  2 active torsions:
REMARK  status: ('A' for Active; 'I' for Inactive)
REMARK    1  A    between atoms: C1_1  and  C3_3 
REMARK    2  A    between atoms: C1_1  and  C9_9 
ROOT
HETATM    1  C1  UNL     1     -33.347   6.113   3.943  1.00 20.00     0.139 C 
HETATM    2  O10 UNL     1     -33.275   5.496   2.878  1.00 20.00    -0.297 OA
ENDROOT
BRANCH   1   3
HETATM    3  C3  UNL     1     -32.404   7.264   4.206  1.00 20.00     0.060 A 
HETATM    4  C2  UNL     1     -31.004   7.142   3.720  1.00 20.00     0.017 A 
HETATM    5  C4  UNL     1     -31.950   8.113   3.072  1.00 20.00    -0.007 A 
HETATM    6  C5  UNL     1     -32.382   7.903   1.660  1.00 20.00     0.011 C 
ENDBRANCH   1   3
BRANCH   1   7
HETATM    7  C9  UNL     1     -34.395   5.762   5.018  1.00 20.00     0.010 C 
HETATM    8  C6  UNL     1     -34.236   6.727   6.199  1.00 20.00     0.022 C 
HETATM    9  C7  UNL     1     -34.224   4.313   5.492  1.00 20.00     0.022 C 
HETATM   10  C8  UNL     1     -35.807   5.920   4.427  1.00 20.00     0.022 C 
ENDBRANCH   1   7
TORSDOF 2
