REMARK  1 active torsions:
REMARK  status: ('A' for Active; 'I' for Inactive)
REMARK    1  A    between atoms: C3_3  and  C4_4 
ROOT
HETATM    1  C1  UNL     1     -33.248   5.835   3.336  1.00 20.00     0.064 C 
HETATM    2  C4  UNL     1     -34.566   5.901   3.980  1.00 20.00     0.175 C 
HETATM    3  N5  UNL     1     -32.208   5.785   2.824  1.00 20.00    -0.197 NA
ENDROOT
BRANCH   2   4
HETATM    4  C3  UNL     1     -34.549   5.172   5.294  1.00 20.00     0.035 C 
HETATM    5  C2  UNL     1     -34.221   5.676   6.489  1.00 20.00     0.105 C 
HETATM    6 CL6  UNL     1     -33.786   7.306   6.789  1.00 20.00    -0.096 Cl
HETATM    7 CL7  UNL     1     -34.954   3.481   5.196  1.00 20.00    -0.087 Cl
ENDBRANCH   2   4
TORSDOF 1
