REMARK  3 active torsions:
REMARK  status: ('A' for Active; 'I' for Inactive)
REMARK    1  A    between atoms: C3_3  and  C5_5 
REMARK    2  A    between atoms: C3_3  and  C9_9 
REMARK    3  A    between atoms: C8_8  and  C9_9 
ROOT
HETATM    1  C1  UNL     1     -31.833   8.885   0.739  1.00 20.00     0.012 C 
HETATM    2  C2  UNL     1     -32.420   8.397   1.666  1.00 20.00    -0.117 C 
HETATM    3  C8  UNL     1     -33.138   7.802   2.803  1.00 20.00     0.100 C 
ENDROOT
BRANCH   3   4
HETATM    4  C9  UNL     1     -33.305   6.293   2.645  1.00 20.00     0.090 C 
BRANCH   4   5
HETATM    5  C3  UNL     1     -34.061   5.635   3.791  1.00 20.00     0.132 C 
HETATM    6  O10 UNL     1     -35.099   4.997   3.629  1.00 20.00    -0.298 OA
BRANCH   5   7
HETATM    7  C5  UNL     1     -33.451   5.789   5.160  1.00 20.00     0.059 A 
HETATM    8  C4  UNL     1     -34.192   6.592   6.171  1.00 20.00     0.017 A 
HETATM    9  C6  UNL     1     -34.075   5.103   6.326  1.00 20.00    -0.007 A 
HETATM   10  C7  UNL     1     -35.289   4.244   6.221  1.00 20.00     0.011 C 
ENDBRANCH   5   7
ENDBRANCH   4   5
ENDBRANCH   3   4
TORSDOF 3
