REMARK  3 active torsions:
REMARK  status: ('A' for Active; 'I' for Inactive)
REMARK    1  A    between atoms: C1_1  and  C3_3 
REMARK    2  A    between atoms: C1_1  and  C8_8 
REMARK    3  A    between atoms: C8_8  and  C9_9 
ROOT
HETATM    1  C1  UNL     1     -33.144   6.739   3.922  1.00 20.00     0.131 C 
HETATM    2  O10 UNL     1     -32.617   6.760   5.033  1.00 20.00    -0.298 OA
ENDROOT
BRANCH   1   3
HETATM    3  C3  UNL     1     -34.633   6.557   3.775  1.00 20.00     0.059 A 
HETATM    4  C2  UNL     1     -35.120   5.438   2.923  1.00 20.00     0.017 A 
HETATM    5  C4  UNL     1     -35.299   5.387   4.414  1.00 20.00    -0.007 A 
HETATM    6  C5  UNL     1     -34.570   4.365   5.217  1.00 20.00     0.011 C 
ENDBRANCH   1   3
BRANCH   1   7
HETATM    7  C8  UNL     1     -32.353   6.849   2.628  1.00 20.00     0.082 C 
BRANCH   7   8
HETATM    8  C9  UNL     1     -32.229   8.285   2.096  1.00 20.00    -0.016 C 
HETATM    9  C6  UNL     1     -33.603   8.895   1.808  1.00 20.00     0.010 C 
HETATM   10  C7  UNL     1     -31.380   8.300   0.823  1.00 20.00     0.010 C 
ENDBRANCH   7   8
ENDBRANCH   1   7
TORSDOF 3
