REMARK  2 active torsions:
REMARK  status: ('A' for Active; 'I' for Inactive)
REMARK    1  A    between atoms: C2_2  and  C9_9 
REMARK    2  A    between atoms: C9_9  and  N11_11 
ROOT
HETATM    1  C3  UNL     1     -34.439   5.163   2.828  1.00 20.00     0.300 C 
HETATM    2  C4  UNL     1     -33.135   5.861   2.439  1.00 20.00     0.302 C 
HETATM    3  C5  UNL     1     -32.895   6.665   4.702  1.00 20.00     0.307 C 
HETATM    4  C6  UNL     1     -34.210   5.968   5.090  1.00 20.00     0.244 C 
HETATM    5  C8  UNL     1     -34.175   5.528   6.553  1.00 20.00     0.044 C 
HETATM    6  N10 UNL     1     -34.442   4.793   4.243  1.00 20.00     0.091 N 
HETATM    7  N11 UNL     1     -32.905   7.041   3.282  1.00 20.00     0.096 N 
HETATM    8  H29 UNL     1     -35.336   4.365   4.482  1.00 20.00     0.316 HD
ENDROOT
BRANCH   7   9
HETATM    9  C9  UNL     1     -31.657   7.707   2.913  1.00 20.00     0.305 C 
BRANCH   9  10
HETATM   10  C2  UNL     1     -31.875   8.558   1.695  1.00 20.00    -0.065 C 
HETATM   11  C1  UNL     1     -31.200   8.339   0.556  1.00 20.00     0.015 C 
HETATM   12  C7  UNL     1     -32.854   9.691   1.819  1.00 20.00     0.044 C 
ENDBRANCH   9  10
ENDBRANCH   7   9
TORSDOF 2
