REMARK  3 active torsions:
REMARK  status: ('A' for Active; 'I' for Inactive)
REMARK    1  A    between atoms: C1_1  and  C3_3 
REMARK    2  A    between atoms: C1_1  and  C8_8 
REMARK    3  A    between atoms: C8_8  and  C9_9 
ROOT
HETATM    1  C1  UNL     1     -34.670   5.642   3.878  1.00 20.00     0.131 C 
HETATM    2  O10 UNL     1     -35.725   5.408   3.290  1.00 20.00    -0.298 OA
ENDROOT
BRANCH   1   3
HETATM    3  C3  UNL     1     -34.158   4.713   4.948  1.00 20.00     0.059 A 
HETATM    4  C2  UNL     1     -35.083   4.337   6.052  1.00 20.00     0.017 A 
HETATM    5  C4  UNL     1     -33.909   5.234   6.321  1.00 20.00    -0.007 A 
HETATM    6  C5  UNL     1     -34.131   6.655   6.714  1.00 20.00     0.011 C 
ENDBRANCH   1   3
BRANCH   1   7
HETATM    7  C8  UNL     1     -33.834   6.885   3.615  1.00 20.00     0.082 C 
BRANCH   7   8
HETATM    8  C9  UNL     1     -32.732   6.681   2.565  1.00 20.00    -0.016 C 
HETATM    9  C6  UNL     1     -31.749   5.589   2.992  1.00 20.00     0.010 C 
HETATM   10  C7  UNL     1     -31.979   7.992   2.335  1.00 20.00     0.010 C 
ENDBRANCH   7   8
ENDBRANCH   1   7
TORSDOF 3
