REMARK  3 active torsions:
REMARK  status: ('A' for Active; 'I' for Inactive)
REMARK    1  A    between atoms: C4_4  and  C6_6 
REMARK    2  A    between atoms: C4_4  and  O7_7 
REMARK    3  A    between atoms: C5_5  and  C6_6 
ROOT
HETATM    1  C6  UNL     1     -34.066   5.328   4.392  1.00 20.00     0.109 C 
HETATM    2 CL8  UNL     1     -35.643   5.715   3.622  1.00 20.00    -0.122 Cl
ENDROOT
BRANCH   1   3
HETATM    3  C4  UNL     1     -33.137   6.537   4.268  1.00 20.00     0.187 C 
BRANCH   3   4
HETATM    4  O7  UNL     1     -32.661   6.638   2.930  1.00 20.00    -0.394 OA
HETATM    5  C3  UNL     1     -31.841   7.784   2.754  1.00 20.00     0.201 C 
ENDBRANCH   3   4
ENDBRANCH   1   3
BRANCH   1   6
HETATM    6  C5  UNL     1     -34.242   4.856   5.855  1.00 20.00    -0.002 C 
HETATM    7  C1  UNL     1     -35.183   3.658   6.018  1.00 20.00     0.011 C 
HETATM    8  C2  UNL     1     -34.692   5.999   6.772  1.00 20.00     0.011 C 
ENDBRANCH   1   6
TORSDOF 3
