REMARK  2 active torsions:
REMARK  status: ('A' for Active; 'I' for Inactive)
REMARK    1  A    between atoms: C1_1  and  C3_3 
REMARK    2  A    between atoms: C1_1  and  C7_7 
ROOT
HETATM    1  C2  UNL     1     -34.118   5.770   6.524  1.00 20.00     0.017 A 
HETATM    2  C3  UNL     1     -34.627   6.166   5.161  1.00 20.00     0.059 A 
HETATM    3  C4  UNL     1     -35.245   5.000   5.895  1.00 20.00    -0.007 A 
HETATM    4  C5  UNL     1     -35.034   3.589   5.464  1.00 20.00     0.011 C 
ENDROOT
BRANCH   2   5
HETATM    5  C1  UNL     1     -33.776   5.952   3.985  1.00 20.00     0.131 C 
HETATM    6  O8  UNL     1     -34.187   5.325   3.010  1.00 20.00    -0.298 OA
BRANCH   5   7
HETATM    7  C7  UNL     1     -32.381   6.547   4.053  1.00 20.00     0.074 C 
HETATM    8  C6  UNL     1     -31.835   6.913   2.685  1.00 20.00     0.013 C 
ENDBRANCH   5   7
ENDBRANCH   2   5
TORSDOF 2
