REMARK  3 active torsions:
REMARK  status: ('A' for Active; 'I' for Inactive)
REMARK    1  A    between atoms: C1_1  and  C9_9 
REMARK    2  A    between atoms: C10_10  and  C11_11 
REMARK    3  A    between atoms: C11_11  and  N12_12 
ROOT
HETATM    1  C5  UNL     1     -34.265   6.304   5.739  1.00 20.00     0.039 C 
HETATM    2  C6  UNL     1     -35.760   5.251   3.990  1.00 20.00     0.039 C 
HETATM    3  C7  UNL     1     -33.156   6.423   4.701  1.00 20.00     0.235 C 
HETATM    4  C8  UNL     1     -34.636   5.381   2.970  1.00 20.00     0.235 C 
HETATM    5  C9  UNL     1     -35.249   5.175   5.429  1.00 20.00     0.050 C 
HETATM    6  N12 UNL     1     -33.765   6.561   3.327  1.00 20.00    -0.071 N 
HETATM    7  H33 UNL     1     -34.369   7.394   3.342  1.00 20.00     0.279 HD
ENDROOT
BRANCH   6   8
HETATM    8  C11 UNL     1     -32.718   6.815   2.279  1.00 20.00     0.239 C 
BRANCH   8   9
HETATM    9  C10 UNL     1     -32.350   8.284   2.286  1.00 20.00     0.011 C 
HETATM   10  C3  UNL     1     -33.487   9.286   1.955  1.00 20.00     0.006 C 
HETATM   11  C2  UNL     1     -32.428  10.129   1.214  1.00 20.00     0.001 C 
HETATM   12  C4  UNL     1     -31.624   8.825   1.027  1.00 20.00     0.006 C 
ENDBRANCH   8   9
ENDBRANCH   6   8
BRANCH   5  13
HETATM   13  C1  UNL     1     -34.629   3.834   5.706  1.00 20.00     0.235 C 
HETATM   14  O13 UNL     1     -34.518   2.953   4.860  1.00 20.00    -0.306 OA
ENDBRANCH   5  13
TORSDOF 3
