REMARK  1 active torsions:
REMARK  status: ('A' for Active; 'I' for Inactive)
REMARK    1  A    between atoms: C3_3  and  C5_5 
ROOT
HETATM    1  C1  UNL     1     -31.577   7.446   3.017  1.00 20.00     0.021 C 
HETATM    2  C2  UNL     1     -32.490   7.097   3.714  1.00 20.00    -0.039 C 
HETATM    3  C3  UNL     1     -33.588   6.677   4.552  1.00 20.00     0.206 C 
HETATM    4  O8  UNL     1     -33.458   6.676   5.769  1.00 20.00    -0.283 OA
ENDROOT
BRANCH   3   5
HETATM    5  C5  UNL     1     -34.816   6.270   3.860  1.00 20.00     0.073 A 
HETATM    6  C4  UNL     1     -34.746   5.213   2.787  1.00 20.00     0.018 A 
HETATM    7  C6  UNL     1     -35.424   4.908   4.093  1.00 20.00    -0.006 A 
HETATM    8  C7  UNL     1     -34.821   3.920   5.033  1.00 20.00     0.011 C 
ENDBRANCH   3   5
TORSDOF 1
