REMARK  1 active torsions:
REMARK  status: ('A' for Active; 'I' for Inactive)
REMARK    1  A    between atoms: C3_3  and  C5_5 
ROOT
HETATM    1  C1  UNL     1     -34.618   4.463   6.035  1.00 20.00     0.021 C 
HETATM    2  C2  UNL     1     -34.408   4.996   4.980  1.00 20.00    -0.039 C 
HETATM    3  C3  UNL     1     -34.157   5.636   3.711  1.00 20.00     0.206 C 
HETATM    4  O8  UNL     1     -34.797   5.302   2.723  1.00 20.00    -0.283 OA
ENDROOT
BRANCH   3   5
HETATM    5  C5  UNL     1     -33.119   6.674   3.701  1.00 20.00     0.073 A 
HETATM    6  C4  UNL     1     -31.675   6.270   3.545  1.00 20.00     0.018 A 
HETATM    7  C6  UNL     1     -32.383   6.965   2.416  1.00 20.00    -0.006 A 
HETATM    8  C7  UNL     1     -32.028   8.366   2.058  1.00 20.00     0.011 C 
ENDBRANCH   3   5
TORSDOF 1
