REMARK  3 active torsions:
REMARK  status: ('A' for Active; 'I' for Inactive)
REMARK    1  A    between atoms: C7_7  and  C9_9 
REMARK    2  A    between atoms: C9_9  and  C10_10 
REMARK    3  A    between atoms: C10_10  and  N11_11 
ROOT
HETATM    1  C1  UNL     1     -33.845   6.993   6.384  1.00 20.00     0.029 C 
HETATM    2  C4  UNL     1     -34.478   5.630   6.115  1.00 20.00     0.023 C 
HETATM    3  C5  UNL     1     -32.523   7.157   5.648  1.00 20.00     0.235 C 
HETATM    4  C6  UNL     1     -33.294   5.542   3.885  1.00 20.00     0.254 C 
HETATM    5  C8  UNL     1     -34.622   5.382   4.615  1.00 20.00     0.108 C 
HETATM    6  N11 UNL     1     -32.734   6.917   4.172  1.00 20.00    -0.070 N 
HETATM    7 CL12 UNL     1     -35.263   3.739   4.334  1.00 20.00    -0.123 Cl
HETATM    8  H31 UNL     1     -33.429   7.603   3.849  1.00 20.00     0.279 HD
ENDROOT
BRANCH   6   9
HETATM    9  C10 UNL     1     -31.480   7.181   3.384  1.00 20.00     0.235 C 
BRANCH   9  10
HETATM   10  C9  UNL     1     -31.851   7.446   1.933  1.00 20.00     0.032 C 
BRANCH  10  11
HETATM   11  C7  UNL     1     -32.732   8.679   1.807  1.00 20.00    -0.013 A 
HETATM   12  C2  UNL     1     -32.112  10.035   1.617  1.00 20.00     0.005 A 
HETATM   13  C3  UNL     1     -32.859   9.385   0.486  1.00 20.00     0.005 A 
ENDBRANCH  10  11
ENDBRANCH   9  10
ENDBRANCH   6   9
TORSDOF 3
