REMARK  3 active torsions:
REMARK  status: ('A' for Active; 'I' for Inactive)
REMARK    1  A    between atoms: C6_6  and  C10_10 
REMARK    2  A    between atoms: C7_7  and  C11_11 
REMARK    3  A    between atoms: C11_11  and  N12_12 
ROOT
HETATM    1  C1  UNL     1     -33.920   7.392   6.949  1.00 20.00     0.014 C 
HETATM    2  C2  UNL     1     -33.929   6.484   6.163  1.00 20.00    -0.081 C 
HETATM    3  C11 UNL     1     -33.939   5.369   5.205  1.00 20.00     0.301 C 
ENDROOT
BRANCH   3   4
HETATM    4  C7  UNL     1     -33.774   5.867   3.779  1.00 20.00     0.031 C 
HETATM    5  C4  UNL     1     -34.877   6.833   3.353  1.00 20.00     0.008 C 
HETATM    6  C3  UNL     1     -34.242   7.585   2.194  1.00 20.00     0.005 C 
HETATM    7  C6  UNL     1     -32.828   7.862   2.702  1.00 20.00    -0.014 C 
HETATM    8  C5  UNL     1     -32.462   6.634   3.551  1.00 20.00     0.012 C 
BRANCH   7   9
HETATM    9  C10 UNL     1     -31.838   8.135   1.582  1.00 20.00     0.000 C 
HETATM   10  C8  UNL     1     -32.227   9.332   0.772  1.00 20.00     0.005 C 
ENDBRANCH   7   9
ENDBRANCH   3   4
BRANCH   3  11
HETATM   11  N12 UNL     1     -35.162   4.616   5.342  1.00 20.00     0.095 N 
HETATM   12  C9  UNL     1     -35.102   3.702   6.482  1.00 20.00     0.308 C 
HETATM   13  H31 UNL     1     -35.332   4.068   4.494  1.00 20.00     0.317 HD
ENDBRANCH   3  11
TORSDOF 3
