REMARK  2 active torsions:
REMARK  status: ('A' for Active; 'I' for Inactive)
REMARK    1  A    between atoms: C3_3  and  C7_7 
REMARK    2  A    between atoms: C8_8  and  C10_10 
ROOT
HETATM    1  C1  UNL     1     -32.398   9.128   1.070  1.00 20.00     0.021 C 
HETATM    2  C2  UNL     1     -32.446   8.343   1.977  1.00 20.00    -0.039 C 
HETATM    3  C3  UNL     1     -32.502   7.399   3.069  1.00 20.00     0.205 C 
HETATM    4  O11 UNL     1     -31.465   6.956   3.543  1.00 20.00    -0.283 OA
ENDROOT
BRANCH   3   5
HETATM    5  C7  UNL     1     -33.887   7.019   3.559  1.00 20.00     0.069 C 
HETATM    6  C4  UNL     1     -34.353   5.763   2.823  1.00 20.00     0.013 C 
HETATM    7  C5  UNL     1     -34.640   4.729   3.909  1.00 20.00     0.005 C 
HETATM    8  C8  UNL     1     -33.707   5.124   5.047  1.00 20.00    -0.014 C 
HETATM    9  C6  UNL     1     -33.799   6.650   5.037  1.00 20.00     0.017 C 
BRANCH   8  10
HETATM   10  C10 UNL     1     -34.095   4.509   6.380  1.00 20.00     0.000 C 
HETATM   11  C9  UNL     1     -35.487   4.882   6.785  1.00 20.00     0.005 C 
ENDBRANCH   8  10
ENDBRANCH   3   5
TORSDOF 2
