REMARK  4 active torsions:
REMARK  status: ('A' for Active; 'I' for Inactive)
REMARK    1  A    between atoms: C1_1  and  C5_5 
REMARK    2  A    between atoms: C1_1  and  C9_9 
REMARK    3  A    between atoms: C6_6  and  C10_10 
REMARK    4  A    between atoms: C9_9  and  C10_10 
ROOT
HETATM    1  C1  UNL     1     -33.212   6.352   3.834  1.00 20.00     0.131 C 
HETATM    2  O11 UNL     1     -33.417   5.444   3.030  1.00 20.00    -0.298 OA
ENDROOT
BRANCH   1   3
HETATM    3  C5  UNL     1     -34.205   6.664   4.924  1.00 20.00     0.059 A 
HETATM    4  C4  UNL     1     -33.713   6.702   6.329  1.00 20.00     0.017 A 
HETATM    5  C7  UNL     1     -34.618   5.593   5.873  1.00 20.00    -0.007 A 
HETATM    6  C8  UNL     1     -34.108   4.194   5.807  1.00 20.00     0.011 C 
ENDBRANCH   1   3
BRANCH   1   7
HETATM    7  C9  UNL     1     -31.965   7.219   3.797  1.00 20.00     0.079 C 
BRANCH   7   8
HETATM    8  C10 UNL     1     -31.428   7.412   2.382  1.00 20.00     0.012 C 
BRANCH   8   9
HETATM    9  C6  UNL     1     -32.467   8.051   1.474  1.00 20.00    -0.014 A 
HETATM   10  C2  UNL     1     -32.552   9.547   1.355  1.00 20.00     0.005 A 
HETATM   11  C3  UNL     1     -32.044   8.729   0.201  1.00 20.00     0.005 A 
ENDBRANCH   8   9
ENDBRANCH   7   8
ENDBRANCH   1   7
TORSDOF 4
