REMARK  1 active torsions:
REMARK  status: ('A' for Active; 'I' for Inactive)
REMARK    1  A    between atoms: C3_3  and  C7_7 
ROOT
HETATM    1  C1  UNL     1     -32.458   9.459   0.939  1.00 20.00     0.021 C 
HETATM    2  C2  UNL     1     -32.425   8.717   1.883  1.00 20.00    -0.039 C 
HETATM    3  C3  UNL     1     -32.385   7.825   3.017  1.00 20.00     0.208 C 
HETATM    4  O10 UNL     1     -31.316   7.574   3.557  1.00 20.00    -0.283 OA
ENDROOT
BRANCH   3   5
HETATM    5  C7  UNL     1     -33.698   7.257   3.462  1.00 20.00     0.100 C 
HETATM    6  C6  UNL     1     -33.664   6.899   4.951  1.00 20.00     0.047 C 
HETATM    7  C8  UNL     1     -33.953   5.398   4.921  1.00 20.00     0.122 C 
HETATM    8  C4  UNL     1     -35.405   5.129   4.525  1.00 20.00     0.034 C 
HETATM    9  O11 UNL     1     -33.256   5.003   3.718  1.00 20.00    -0.380 OA
HETATM   10  C5  UNL     1     -35.397   5.459   3.031  1.00 20.00     0.035 C 
HETATM   11  C9  UNL     1     -33.949   5.894   2.809  1.00 20.00     0.134 C 
ENDBRANCH   3   5
TORSDOF 1
