REMARK  3 active torsions:
REMARK  status: ('A' for Active; 'I' for Inactive)
REMARK    1  A    between atoms: C3_3  and  C7_7 
REMARK    2  A    between atoms: C6_6  and  O9_9 
REMARK    3  A    between atoms: C7_7  and  O9_9 
ROOT
HETATM    1  C1  UNL     1     -34.282   5.683   6.235  1.00 20.00     0.021 C 
HETATM    2  C2  UNL     1     -34.105   5.753   5.050  1.00 20.00    -0.037 C 
HETATM    3  C3  UNL     1     -33.893   5.836   3.622  1.00 20.00     0.230 C 
HETATM    4  O8  UNL     1     -34.668   5.259   2.870  1.00 20.00    -0.281 OA
ENDROOT
BRANCH   3   5
HETATM    5  C7  UNL     1     -32.680   6.621   3.161  1.00 20.00     0.200 C 
HETATM    6  C5  UNL     1     -31.928   7.243   4.326  1.00 20.00     0.049 C 
BRANCH   5   7
HETATM    7  O9  UNL     1     -33.113   7.647   2.281  1.00 20.00    -0.378 OA
BRANCH   7   8
HETATM    8  C6  UNL     1     -32.049   8.121   1.466  1.00 20.00     0.164 C 
HETATM    9  C4  UNL     1     -32.574   9.209   0.553  1.00 20.00     0.033 C 
ENDBRANCH   7   8
ENDBRANCH   5   7
ENDBRANCH   3   5
TORSDOF 3
