REMARK  2 active torsions:
REMARK  status: ('A' for Active; 'I' for Inactive)
REMARK    1  A    between atoms: C3_3  and  C7_7 
REMARK    2  A    between atoms: C8_8  and  C10_10 
ROOT
HETATM    1  C1  UNL     1     -34.993   3.668   5.815  1.00 20.00     0.021 C 
HETATM    2  C2  UNL     1     -34.536   4.778   5.799  1.00 20.00    -0.039 C 
HETATM    3  C3  UNL     1     -33.986   6.112   5.781  1.00 20.00     0.205 C 
HETATM    4  O11 UNL     1     -33.791   6.704   6.835  1.00 20.00    -0.283 OA
ENDROOT
BRANCH   3   5
HETATM    5  C7  UNL     1     -33.682   6.697   4.413  1.00 20.00     0.069 C 
HETATM    6  C4  UNL     1     -33.963   5.728   3.270  1.00 20.00     0.013 C 
HETATM    7  C5  UNL     1     -33.198   6.321   2.090  1.00 20.00     0.005 C 
HETATM    8  C8  UNL     1     -32.026   7.091   2.698  1.00 20.00    -0.014 C 
HETATM    9  C6  UNL     1     -32.202   7.025   4.213  1.00 20.00     0.017 C 
BRANCH   8  10
HETATM   10  C10 UNL     1     -32.102   8.543   2.263  1.00 20.00     0.000 C 
HETATM   11  C9  UNL     1     -31.984   8.690   0.779  1.00 20.00     0.005 C 
ENDBRANCH   8  10
ENDBRANCH   3   5
TORSDOF 2
