REMARK  2 active torsions:
REMARK  status: ('A' for Active; 'I' for Inactive)
REMARK    1  A    between atoms: C3_3  and  C7_7 
REMARK    2  A    between atoms: C7_7  and  C8_8 
ROOT
HETATM    1  C1  UNL     1     -32.322   8.648   1.661  1.00 20.00     0.021 C 
HETATM    2  C2  UNL     1     -32.449   7.559   2.150  1.00 20.00    -0.040 C 
HETATM    3  C3  UNL     1     -32.602   6.248   2.740  1.00 20.00     0.202 C 
HETATM    4  O9  UNL     1     -31.650   5.732   3.311  1.00 20.00    -0.283 OA
ENDROOT
BRANCH   3   5
HETATM    5  C7  UNL     1     -33.961   5.594   2.607  1.00 20.00     0.101 C 
BRANCH   5   6
HETATM    6  C8  UNL     1     -34.616   5.180   3.945  1.00 20.00    -0.044 C 
HETATM    7  C4  UNL     1     -36.150   5.163   3.835  1.00 20.00     0.015 C 
HETATM    8  C5  UNL     1     -34.217   6.217   5.013  1.00 20.00     0.015 C 
HETATM    9  C6  UNL     1     -34.124   3.797   4.401  1.00 20.00     0.015 C 
ENDBRANCH   5   6
ENDBRANCH   3   5
TORSDOF 2
