REMARK  2 active torsions:
REMARK  status: ('A' for Active; 'I' for Inactive)
REMARK    1  A    between atoms: C2_2  and  C3_3 
REMARK    2  A    between atoms: C3_3  and  C8_8 
ROOT
HETATM    1  C4  UNL     1     -35.029   4.602   4.248  1.00 20.00     0.027 C 
HETATM    2  C5  UNL     1     -34.171   5.609   3.489  1.00 20.00     0.017 C 
HETATM    3  C6  UNL     1     -35.448   5.162   5.601  1.00 20.00     0.167 C 
HETATM    4  C7  UNL     1     -33.560   6.587   5.721  1.00 20.00     0.180 C 
HETATM    5  C8  UNL     1     -33.029   6.113   4.371  1.00 20.00     0.083 C 
HETATM    6  O10 UNL     1     -34.306   5.552   6.362  1.00 20.00    -0.390 OA
ENDROOT
BRANCH   5   7
HETATM    7  C3  UNL     1     -32.306   7.224   3.677  1.00 20.00     0.154 C 
HETATM    8  O9  UNL     1     -31.718   8.094   4.314  1.00 20.00    -0.293 OA
BRANCH   7   9
HETATM    9  C2  UNL     1     -32.313   7.199   2.190  1.00 20.00     0.040 C 
HETATM   10  C1  UNL     1     -32.258   8.334   1.487  1.00 20.00     0.015 C 
ENDBRANCH   7   9
ENDBRANCH   5   7
TORSDOF 2
