REMARK  2 active torsions:
REMARK  status: ('A' for Active; 'I' for Inactive)
REMARK    1  A    between atoms: C5_5  and  C8_8 
REMARK    2  A    between atoms: C8_8  and  N9_9 
ROOT
HETATM    1  C1  UNL     1     -32.196   8.052   2.849  1.00 20.00     0.014 C 
HETATM    2  C2  UNL     1     -32.684   7.200   3.540  1.00 20.00    -0.081 C 
HETATM    3  C8  UNL     1     -33.296   6.168   4.410  1.00 20.00     0.301 C 
ENDROOT
BRANCH   3   4
HETATM    4  C5  UNL     1     -34.250   5.297   3.669  1.00 20.00     0.035 A 
HETATM    5  C3  UNL     1     -35.736   5.493   3.824  1.00 20.00     0.012 A 
HETATM    6  C4  UNL     1     -35.086   4.242   4.356  1.00 20.00    -0.011 A 
HETATM    7  C6  UNL     1     -35.017   3.997   5.824  1.00 20.00     0.010 C 
ENDBRANCH   3   4
BRANCH   3   8
HETATM    8  N9  UNL     1     -33.933   6.830   5.536  1.00 20.00     0.095 N 
HETATM    9  C7  UNL     1     -32.957   7.181   6.560  1.00 20.00     0.308 C 
HETATM   10  H22 UNL     1     -34.397   7.680   5.212  1.00 20.00     0.317 HD
ENDBRANCH   3   8
TORSDOF 2
