REMARK  2 active torsions:
REMARK  status: ('A' for Active; 'I' for Inactive)
REMARK    1  A    between atoms: C3_3  and  C7_7 
REMARK    2  A    between atoms: C8_8  and  C10_10 
ROOT
HETATM    1  C1  UNL     1     -34.314   4.367   6.046  1.00 20.00     0.021 C 
HETATM    2  C2  UNL     1     -34.407   4.809   4.933  1.00 20.00    -0.039 C 
HETATM    3  C3  UNL     1     -34.519   5.340   3.596  1.00 20.00     0.205 C 
HETATM    4  O11 UNL     1     -35.625   5.538   3.110  1.00 20.00    -0.283 OA
ENDROOT
BRANCH   3   5
HETATM    5  C7  UNL     1     -33.232   5.618   2.881  1.00 20.00     0.069 C 
HETATM    6  C4  UNL     1     -32.138   6.014   3.875  1.00 20.00     0.013 C 
HETATM    7  C5  UNL     1     -32.042   7.530   3.765  1.00 20.00     0.005 C 
HETATM    8  C8  UNL     1     -32.269   7.777   2.278  1.00 20.00    -0.014 C 
HETATM    9  C6  UNL     1     -33.400   6.807   1.927  1.00 20.00     0.017 C 
BRANCH   8  10
HETATM   10  C10 UNL     1     -32.597   9.224   1.956  1.00 20.00     0.000 C 
HETATM   11  C9  UNL     1     -32.849   9.429   0.494  1.00 20.00     0.005 C 
ENDBRANCH   8  10
ENDBRANCH   3   5
TORSDOF 2
