REMARK  5 active torsions:
REMARK  status: ('A' for Active; 'I' for Inactive)
REMARK    1  A    between atoms: C3_3  and  C5_5 
REMARK    2  A    between atoms: C5_5  and  C6_6 
REMARK    3  A    between atoms: C6_6  and  N9_9 
REMARK    4  A    between atoms: C7_7  and  C8_8 
REMARK    5  A    between atoms: C7_7  and  N9_9 
ROOT
HETATM    1  C6  UNL     1     -33.402   6.984   2.614  1.00 20.00     0.272 C 
ENDROOT
BRANCH   1   2
HETATM    2  C5  UNL     1     -33.461   5.591   3.230  1.00 20.00     0.034 C 
BRANCH   2   3
HETATM    3  C3  UNL     1     -34.877   5.168   3.594  1.00 20.00    -0.013 A 
HETATM    4  C1  UNL     1     -35.106   4.062   4.586  1.00 20.00     0.005 A 
HETATM    5  C2  UNL     1     -35.434   5.482   4.955  1.00 20.00     0.005 A 
ENDBRANCH   2   3
ENDBRANCH   1   2
BRANCH   1   6
HETATM    6  N9  UNL     1     -32.064   7.366   2.254  1.00 20.00     0.085 N 
HETATM    7  C4  UNL     1     -31.300   7.816   3.428  1.00 20.00     0.309 C 
BRANCH   6   8
HETATM    8  C7  UNL     1     -32.066   8.428   1.234  1.00 20.00     0.286 C 
BRANCH   8   9
HETATM    9  C8  UNL     1     -32.765   9.691   1.707  1.00 20.00     0.144 C 
HETATM   10 CL10 UNL     1     -32.752  10.949   0.447  1.00 20.00    -0.129 Cl
ENDBRANCH   8   9
ENDBRANCH   6   8
ENDBRANCH   1   6
TORSDOF 5
