REMARK  2 active torsions:
REMARK  status: ('A' for Active; 'I' for Inactive)
REMARK    1  A    between atoms: C3_3  and  C8_8 
REMARK    2  A    between atoms: C9_9  and  C12_12 
ROOT
HETATM    1  C1  UNL     1     -32.543  10.422   2.011  1.00 20.00     0.021 C 
HETATM    2  C2  UNL     1     -32.367   9.240   1.894  1.00 20.00    -0.039 C 
HETATM    3  C3  UNL     1     -32.156   7.819   1.752  1.00 20.00     0.205 C 
HETATM    4  O13 UNL     1     -32.237   7.298   0.648  1.00 20.00    -0.283 OA
ENDROOT
BRANCH   3   5
HETATM    5  C8  UNL     1     -31.838   7.054   3.028  1.00 20.00     0.069 C 
HETATM    6  C4  UNL     1     -32.464   7.770   4.220  1.00 20.00     0.013 C 
HETATM    7  C6  UNL     1     -33.976   7.569   4.332  1.00 20.00     0.006 C 
HETATM    8  C9  UNL     1     -34.400   6.098   4.249  1.00 20.00    -0.011 C 
HETATM    9  C7  UNL     1     -33.819   5.441   2.991  1.00 20.00     0.006 C 
HETATM   10  C5  UNL     1     -32.304   5.611   2.866  1.00 20.00     0.013 C 
BRANCH   8  11
HETATM   11  C12 UNL     1     -34.026   5.327   5.517  1.00 20.00    -0.019 C 
HETATM   12  C10 UNL     1     -34.681   5.960   6.743  1.00 20.00     0.010 C 
HETATM   13  C11 UNL     1     -34.428   3.859   5.391  1.00 20.00     0.010 C 
ENDBRANCH   8  11
ENDBRANCH   3   5
TORSDOF 2
