REMARK  3 active torsions:
REMARK  status: ('A' for Active; 'I' for Inactive)
REMARK    1  A    between atoms: C2_2  and  C8_8 
REMARK    2  A    between atoms: C6_6  and  C8_8 
REMARK    3  A    between atoms: C8_8  and  N9_9 
ROOT
HETATM    1  C8  UNL     1     -34.942   4.682   4.251  1.00 20.00     0.248 C 
ENDROOT
BRANCH   1   2
HETATM    2  C2  UNL     1     -34.977   4.074   5.626  1.00 20.00    -0.002 C 
HETATM    3  C1  UNL     1     -35.395   4.722   6.719  1.00 20.00     0.009 C 
ENDBRANCH   1   2
BRANCH   1   4
HETATM    4  C6  UNL     1     -33.635   5.406   3.991  1.00 20.00     0.048 C 
HETATM    5  C3  UNL     1     -33.558   6.083   2.640  1.00 20.00     0.035 C 
HETATM    6  C4  UNL     1     -32.439   7.079   2.859  1.00 20.00     0.168 C 
HETATM    7  O10 UNL     1     -32.487   7.461   4.241  1.00 20.00    -0.391 OA
HETATM    8  C5  UNL     1     -33.388   6.577   4.926  1.00 20.00     0.174 C 
ENDBRANCH   1   4
BRANCH   1   9
HETATM    9  N9  UNL     1     -36.066   5.583   4.139  1.00 20.00     0.087 N 
HETATM   10  C7  UNL     1     -37.305   4.858   3.866  1.00 20.00     0.307 C 
HETATM   11  H25 UNL     1     -35.903   6.249   3.379  1.00 20.00     0.316 HD
ENDBRANCH   1   9
TORSDOF 3
