REMARK  1 active torsions:
REMARK  status: ('A' for Active; 'I' for Inactive)
REMARK    1  A    between atoms: C3_3  and  C8_8 
ROOT
HETATM    1  C1  UNL     1     -31.812   7.312   2.998  1.00 20.00     0.016 A 
HETATM    2  C2  UNL     1     -31.296   7.973   1.845  1.00 20.00     0.015 A 
HETATM    3  C3  UNL     1     -33.185   7.212   2.965  1.00 20.00    -0.012 A 
HETATM    4  C4  UNL     1     -32.295   8.352   0.976  1.00 20.00    -0.021 A 
HETATM    5  C10 UNL     1     -32.170   9.055  -0.320  1.00 20.00     0.056 C 
HETATM    6  S11 UNL     1     -33.847   7.912   1.549  1.00 20.00    -0.099 SA
ENDROOT
BRANCH   3   7
HETATM    7  C8  UNL     1     -34.108   6.585   3.988  1.00 20.00     0.040 C 
HETATM    8  C6  UNL     1     -34.976   5.459   3.399  1.00 20.00     0.011 C 
HETATM    9  C5  UNL     1     -35.264   4.561   4.592  1.00 20.00     0.002 C 
HETATM   10  C7  UNL     1     -33.929   4.523   5.321  1.00 20.00     0.016 C 
HETATM   11  C9  UNL     1     -33.370   5.938   5.179  1.00 20.00     0.067 C 
HETATM   12 BR12 UNL     1     -33.730   6.956   6.816  1.00 20.00    -0.090 Br
ENDBRANCH   3   7
TORSDOF 1
