REMARK  4 active torsions:
REMARK  status: ('A' for Active; 'I' for Inactive)
REMARK    1  A    between atoms: C1_1  and  C5_5 
REMARK       I    between atoms: C1_1  and  N8_8 
REMARK    2  A    between atoms: C5_5  and  S10_10 
REMARK    3  A    between atoms: C6_6  and  N8_8 
REMARK    4  A    between atoms: C7_7  and  N8_8 
ROOT
HETATM    1  C1  UNL     1     -32.977   6.349   4.664  1.00 20.00     0.229 C 
HETATM    2  N8  UNL     1     -33.919   5.311   4.669  1.00 20.00    -0.348 N 
HETATM    3  O9  UNL     1     -32.865   7.156   5.590  1.00 20.00    -0.273 OA
ENDROOT
BRANCH   2   4
HETATM    4  C6  UNL     1     -34.508   4.780   3.441  1.00 20.00     0.121 C 
HETATM    5  C2  UNL     1     -35.752   5.517   3.080  1.00 20.00     0.026 C 
ENDBRANCH   2   4
BRANCH   2   6
HETATM    6  C7  UNL     1     -34.382   4.681   5.900  1.00 20.00     0.079 C 
HETATM    7  C3  UNL     1     -35.054   5.730   6.774  1.00 20.00     0.032 C 
HETATM    8  C4  UNL     1     -33.194   4.040   6.603  1.00 20.00     0.032 C 
ENDBRANCH   2   6
BRANCH   1   9
HETATM    9  C5  UNL     1     -32.090   6.422   3.433  1.00 20.00     0.173 C 
BRANCH   9  10
HETATM   10  S10 UNL     1     -32.806   7.469   2.140  1.00 20.00    -0.173 SA
HETATM   11  H25 UNL     1     -31.811   7.311   1.256  1.00 20.00     0.102 HD
ENDBRANCH   9  10
ENDBRANCH   1   9
TORSDOF 4
