REMARK  1 active torsions:
REMARK  status: ('A' for Active; 'I' for Inactive)
REMARK    1  A    between atoms: C3_3  and  C8_8 
ROOT
HETATM    1  C1  UNL     1     -31.897   6.986   3.660  1.00 20.00     0.016 A 
HETATM    2  C2  UNL     1     -31.381   7.851   2.652  1.00 20.00     0.015 A 
HETATM    3  C3  UNL     1     -33.201   6.618   3.409  1.00 20.00    -0.012 A 
HETATM    4  C4  UNL     1     -32.310   8.111   1.669  1.00 20.00    -0.021 A 
HETATM    5  C10 UNL     1     -32.162   8.954   0.463  1.00 20.00     0.056 C 
HETATM    6  S11 UNL     1     -33.797   7.315   1.962  1.00 20.00    -0.099 SA
ENDROOT
BRANCH   3   7
HETATM    7  C8  UNL     1     -34.101   5.719   4.228  1.00 20.00     0.040 C 
HETATM    8  C6  UNL     1     -33.656   4.264   4.451  1.00 20.00     0.011 C 
HETATM    9  C5  UNL     1     -34.519   3.752   5.605  1.00 20.00     0.002 C 
HETATM   10  C7  UNL     1     -35.136   4.984   6.271  1.00 20.00     0.016 C 
HETATM   11  C9  UNL     1     -34.434   6.188   5.652  1.00 20.00     0.067 C 
HETATM   12 BR12 UNL     1     -32.832   6.611   6.698  1.00 20.00    -0.090 Br
ENDBRANCH   3   7
TORSDOF 1
