REMARK  1 active torsions:
REMARK  status: ('A' for Active; 'I' for Inactive)
REMARK    1  A    between atoms: C3_3  and  C8_8 
ROOT
HETATM    1  C1  UNL     1     -32.848   4.973   2.946  1.00 20.00     0.016 A 
HETATM    2  C2  UNL     1     -33.583   4.076   3.775  1.00 20.00     0.015 A 
HETATM    3  C3  UNL     1     -33.009   6.285   3.333  1.00 20.00    -0.013 A 
HETATM    4  C4  UNL     1     -34.277   4.738   4.765  1.00 20.00    -0.021 A 
HETATM    5  C10 UNL     1     -35.147   4.169   5.816  1.00 20.00     0.056 C 
HETATM    6  S11 UNL     1     -34.041   6.432   4.691  1.00 20.00    -0.099 SA
ENDROOT
BRANCH   3   7
HETATM    7  C8  UNL     1     -32.403   7.530   2.719  1.00 20.00     0.027 C 
HETATM    8  C5  UNL     1     -31.474   7.251   1.526  1.00 20.00     0.011 C 
HETATM    9  C6  UNL     1     -31.396   8.556   0.726  1.00 20.00     0.016 C 
HETATM   10  C9  UNL     1     -32.502   9.455   1.264  1.00 20.00     0.058 C 
HETATM   11  C7  UNL     1     -33.379   8.558   2.125  1.00 20.00     0.025 C 
HETATM   12 BR12 UNL     1     -31.738  10.891   2.351  1.00 20.00    -0.091 Br
ENDBRANCH   3   7
TORSDOF 1
