REMARK  4 active torsions:
REMARK  status: ('A' for Active; 'I' for Inactive)
REMARK    1  A    between atoms: C1_1  and  C8_8 
REMARK    2  A    between atoms: C1_1  and  O11_11 
REMARK    3  A    between atoms: C4_4  and  C8_8 
REMARK    4  A    between atoms: C8_8  and  N9_9 
ROOT
HETATM    1  C8  UNL     1     -33.683   5.356   4.886  1.00 20.00     0.324 C 
ENDROOT
BRANCH   1   2
HETATM    2  C1  UNL     1     -33.055   6.131   3.738  1.00 20.00     0.292 C 
HETATM    3  O10 UNL     1     -33.382   5.961   2.568  1.00 20.00    -0.263 OA
BRANCH   2   4
HETATM    4  O11 UNL     1     -32.116   7.020   4.168  1.00 20.00    -0.325 OA
HETATM    5  C7  UNL     1     -31.483   7.799   3.147  1.00 20.00     0.213 C 
ENDBRANCH   2   4
ENDBRANCH   1   2
BRANCH   1   6
HETATM    6  C4  UNL     1     -34.366   6.307   5.857  1.00 20.00     0.029 A 
HETATM    7  C2  UNL     1     -34.568   5.908   7.292  1.00 20.00     0.008 A 
HETATM    8  C3  UNL     1     -33.572   6.978   6.943  1.00 20.00     0.008 A 
ENDBRANCH   1   6
BRANCH   1   9
HETATM    9  N9  UNL     1     -34.617   4.364   4.416  1.00 20.00     0.094 N 
HETATM   10  C5  UNL     1     -35.915   4.970   4.086  1.00 20.00     0.310 C 
HETATM   11  C6  UNL     1     -34.809   3.299   5.411  1.00 20.00     0.310 C 
ENDBRANCH   1   9
TORSDOF 4
