REMARK  1 active torsions:
REMARK  status: ('A' for Active; 'I' for Inactive)
REMARK    1  A    between atoms: C3_3  and  C9_9 
ROOT
HETATM    1  C1  UNL     1     -33.277   5.918   1.877  1.00 20.00     0.016 A 
HETATM    2  C2  UNL     1     -34.194   5.040   2.524  1.00 20.00     0.015 A 
HETATM    3  C3  UNL     1     -32.826   6.909   2.722  1.00 20.00    -0.013 A 
HETATM    4  C4  UNL     1     -34.409   5.393   3.838  1.00 20.00    -0.021 A 
HETATM    5  C10 UNL     1     -35.283   4.739   4.836  1.00 20.00     0.056 C 
HETATM    6  S12 UNL     1     -33.508   6.778   4.287  1.00 20.00    -0.099 SA
ENDROOT
BRANCH   3   7
HETATM    7  C9  UNL     1     -31.848   8.034   2.423  1.00 20.00     0.033 C 
HETATM    8  C7  UNL     1     -30.821   7.774   1.310  1.00 20.00     0.088 C 
HETATM    9  C5  UNL     1     -31.501   8.346   0.090  1.00 20.00     0.127 C 
HETATM   10  C6  UNL     1     -32.717   9.161   0.442  1.00 20.00     0.079 C 
HETATM   11  O11 UNL     1     -31.109   8.166  -1.056  1.00 20.00    -0.298 OA
HETATM   12  C8  UNL     1     -32.573   9.305   1.954  1.00 20.00     0.018 C 
ENDBRANCH   3   7
TORSDOF 1
