REMARK  5 active torsions:
REMARK  status: ('A' for Active; 'I' for Inactive)
REMARK    1  A    between atoms: C1_1  and  C9_9 
REMARK    2  A    between atoms: C6_6  and  C7_7 
REMARK    3  A    between atoms: C6_6  and  C8_8 
REMARK    4  A    between atoms: C7_7  and  C9_9 
REMARK    5  A    between atoms: C8_8  and  C10_10 
ROOT
HETATM    1  C6  UNL     1     -33.328   7.300   4.742  1.00 20.00     0.001 C 
ENDROOT
BRANCH   1   2
HETATM    2  C7  UNL     1     -31.934   7.858   4.430  1.00 20.00     0.011 C 
BRANCH   2   3
HETATM    3  C9  UNL     1     -31.423   7.476   3.032  1.00 20.00     0.043 C 
HETATM    4  C2  UNL     1     -32.332   7.966   1.909  1.00 20.00     0.017 C 
BRANCH   3   5
HETATM    5  C1  UNL     1     -30.015   8.024   2.872  1.00 20.00     0.235 C 
HETATM    6  O11 UNL     1     -29.659   8.792   1.983  1.00 20.00    -0.306 OA
ENDBRANCH   3   5
ENDBRANCH   2   3
ENDBRANCH   1   2
BRANCH   1   7
HETATM    7  C8  UNL     1     -33.350   5.772   4.604  1.00 20.00     0.008 C 
BRANCH   7   8
HETATM    8  C10 UNL     1     -34.695   5.082   4.956  1.00 20.00    -0.051 C 
HETATM    9  C3  UNL     1     -34.503   3.559   4.817  1.00 20.00     0.014 C 
HETATM   10  C4  UNL     1     -35.117   5.389   6.402  1.00 20.00     0.014 C 
HETATM   11  C5  UNL     1     -35.814   5.522   3.997  1.00 20.00     0.014 C 
ENDBRANCH   7   8
ENDBRANCH   1   7
TORSDOF 5
