REMARK  3 active torsions:
REMARK  status: ('A' for Active; 'I' for Inactive)
REMARK    1  A    between atoms: C4_4  and  C9_9 
REMARK    2  A    between atoms: C7_7  and  C8_8 
REMARK    3  A    between atoms: C7_7  and  N10_10 
ROOT
HETATM    1  C1  UNL     1     -35.165   4.139   2.932  1.00 20.00     0.032 C 
HETATM    2  C2  UNL     1     -35.424   4.413   4.410  1.00 20.00     0.038 C 
HETATM    3  C3  UNL     1     -34.167   5.200   2.500  1.00 20.00     0.273 C 
HETATM    4  C4  UNL     1     -34.550   5.620   4.756  1.00 20.00     0.226 C 
HETATM    5  N10 UNL     1     -33.484   5.548   3.748  1.00 20.00     0.094 N 
ENDROOT
BRANCH   4   6
HETATM    6  C9  UNL     1     -34.034   5.552   6.188  1.00 20.00     0.011 C 
HETATM    7  C5  UNL     1     -33.569   6.929   6.661  1.00 20.00     0.011 C 
HETATM    8  C6  UNL     1     -35.109   5.000   7.124  1.00 20.00     0.011 C 
ENDBRANCH   4   6
BRANCH   5   9
HETATM    9  C7  UNL     1     -32.729   6.788   3.616  1.00 20.00     0.287 C 
BRANCH   9  10
HETATM   10  C8  UNL     1     -31.960   6.867   2.308  1.00 20.00     0.144 C 
HETATM   11 CL11 UNL     1     -31.047   8.392   2.183  1.00 20.00    -0.129 Cl
ENDBRANCH   9  10
ENDBRANCH   5   9
TORSDOF 3
