REMARK  0 active torsions:
REMARK  status: ('A' for Active; 'I' for Inactive)
ROOT
HETATM    1  C1  UNL     1     -35.070   3.481   5.146  1.00 20.00     0.002 C 
HETATM    2  C2  UNL     1     -35.479   4.891   4.650  1.00 20.00     0.015 C 
HETATM    3  C3  UNL     1     -33.886   4.151   5.890  1.00 20.00     0.015 C 
HETATM    4  C4  UNL     1     -32.500   7.530   3.047  1.00 20.00     0.036 C 
HETATM    5  C5  UNL     1     -33.616   6.986   2.162  1.00 20.00     0.168 C 
HETATM    6  C6  UNL     1     -32.512   6.654   4.297  1.00 20.00     0.050 C 
HETATM    7  C7  UNL     1     -33.740   6.743   5.259  1.00 20.00     0.178 C 
HETATM    8  C8  UNL     1     -33.082   5.325   3.729  1.00 20.00     0.139 C 
HETATM    9  C9  UNL     1     -34.042   5.304   4.910  1.00 20.00     0.016 C 
HETATM   10  O10 UNL     1     -33.353   6.985   6.586  1.00 20.00    -0.234 OA
HETATM   11  O11 UNL     1     -33.616   5.575   2.405  1.00 20.00    -0.385 OA
ENDROOT
TORSDOF 0
