REMARK  1 active torsions:
REMARK  status: ('A' for Active; 'I' for Inactive)
REMARK    1  A    between atoms: C3_3  and  C6_6 
ROOT
HETATM    1  C1  UNL     1     -32.372   8.369   1.270  1.00 20.00     0.087 C 
HETATM    2  C5  UNL     1     -33.001   7.322   1.998  1.00 20.00     0.095 C 
HETATM    3  C6  UNL     1     -33.029   7.265   3.375  1.00 20.00     0.032 C 
HETATM    4  N8  UNL     1     -31.861   9.221   0.672  1.00 20.00    -0.192 NA
ENDROOT
BRANCH   3   5
HETATM    5  C3  UNL     1     -33.619   6.265   4.175  1.00 20.00     0.031 A 
HETATM    6  C4  UNL     1     -33.666   6.133   5.547  1.00 20.00     0.048 A 
HETATM    7  C7  UNL     1     -33.076   7.060   6.536  1.00 20.00     0.072 C 
HETATM    8  N9  UNL     1     -34.332   5.021   6.024  1.00 20.00    -0.258 NA
HETATM    9  C2  UNL     1     -34.781   4.324   5.003  1.00 20.00     0.167 A 
HETATM   10  S10 UNL     1     -34.438   4.948   3.442  1.00 20.00    -0.081 SA
ENDBRANCH   3   5
TORSDOF 1
