REMARK  2 active torsions:
REMARK  status: ('A' for Active; 'I' for Inactive)
REMARK    1  A    between atoms: C6_6  and  C7_7 
REMARK    2  A    between atoms: C7_7  and  N8_8 
ROOT
HETATM    1  C1  UNL     1     -32.046   7.913   2.040  1.00 20.00     0.157 C 
HETATM    2  N8  UNL     1     -31.857   7.319   3.039  1.00 20.00    -0.274 NA
HETATM    3  S9  UNL     1     -32.288   8.732   0.696  1.00 20.00    -0.055 SA
ENDROOT
BRANCH   2   4
HETATM    4  C7  UNL     1     -32.632   6.092   3.186  1.00 20.00     0.165 C 
BRANCH   4   5
HETATM    5  C6  UNL     1     -33.950   6.427   3.885  1.00 20.00     0.067 C 
HETATM    6  C4  UNL     1     -35.006   5.336   3.649  1.00 20.00     0.017 C 
HETATM    7  C2  UNL     1     -34.870   4.134   4.579  1.00 20.00     0.002 C 
HETATM    8  C3  UNL     1     -35.139   4.473   6.047  1.00 20.00     0.010 C 
HETATM    9  C5  UNL     1     -35.032   5.950   6.409  1.00 20.00     0.074 C 
HETATM   10  S10 UNL     1     -33.585   6.739   5.655  1.00 20.00    -0.163 SA
ENDBRANCH   4   5
ENDBRANCH   2   4
TORSDOF 2
