REMARK  2 active torsions:
REMARK  status: ('A' for Active; 'I' for Inactive)
REMARK    1  A    between atoms: C1_1  and  C7_7 
REMARK    2  A    between atoms: C3_3  and  C7_7 
ROOT
HETATM    1  C2  UNL     1     -32.380   6.155   2.976  1.00 20.00     0.015 A 
HETATM    2  C3  UNL     1     -33.599   6.700   3.672  1.00 20.00     0.004 A 
HETATM    3  C4  UNL     1     -32.433   7.621   3.352  1.00 20.00    -0.043 A 
HETATM    4  C5  UNL     1     -32.634   8.625   2.247  1.00 20.00     0.015 C 
HETATM    5  C6  UNL     1     -31.526   8.100   4.455  1.00 20.00     0.015 C 
ENDROOT
BRANCH   2   6
HETATM    6  C7  UNL     1     -33.928   6.269   5.060  1.00 20.00     0.118 C 
BRANCH   6   7
HETATM    7  C1  UNL     1     -34.674   4.926   5.199  1.00 20.00     0.172 C 
HETATM    8  O8  UNL     1     -34.889   4.537   6.379  1.00 20.00    -0.648 OA
HETATM    9  O9  UNL     1     -34.985   4.374   4.104  1.00 20.00    -0.648 OA
ENDBRANCH   6   7
ENDBRANCH   2   6
TORSDOF 2
