REMARK  2 active torsions:
REMARK  status: ('A' for Active; 'I' for Inactive)
REMARK    1  A    between atoms: C6_6  and  C7_7 
REMARK    2  A    between atoms: C7_7  and  N8_8 
ROOT
HETATM    1  C1  UNL     1     -31.897   7.847   2.001  1.00 20.00     0.157 C 
HETATM    2  N8  UNL     1     -31.989   7.378   3.077  1.00 20.00    -0.274 NA
HETATM    3  S9  UNL     1     -31.763   8.498   0.554  1.00 20.00    -0.055 SA
ENDROOT
BRANCH   2   4
HETATM    4  C7  UNL     1     -32.667   6.089   3.136  1.00 20.00     0.165 C 
BRANCH   4   5
HETATM    5  C6  UNL     1     -33.893   6.222   4.035  1.00 20.00     0.067 C 
HETATM    6  C4  UNL     1     -33.495   6.156   5.517  1.00 20.00     0.017 C 
HETATM    7  C2  UNL     1     -34.681   5.898   6.439  1.00 20.00     0.002 C 
HETATM    8  C3  UNL     1     -35.272   4.497   6.269  1.00 20.00     0.010 C 
HETATM    9  C5  UNL     1     -34.989   3.827   4.928  1.00 20.00     0.074 C 
HETATM   10  S10 UNL     1     -35.148   4.981   3.541  1.00 20.00    -0.163 SA
ENDBRANCH   4   5
ENDBRANCH   2   4
TORSDOF 2
