REMARK  1 active torsions:
REMARK  status: ('A' for Active; 'I' for Inactive)
REMARK    1  A    between atoms: C6_6  and  C10_10 
ROOT
HETATM    1  C1  UNL     1     -33.782   7.319   5.525  1.00 20.00     0.001 C 
HETATM    2  C2  UNL     1     -32.654   7.407   4.498  1.00 20.00     0.005 C 
HETATM    3  C3  UNL     1     -33.338   5.721   2.657  1.00 20.00     0.006 C 
HETATM    4  C4  UNL     1     -34.207   5.905   5.906  1.00 20.00     0.008 C 
HETATM    5  C5  UNL     1     -33.632   4.685   3.742  1.00 20.00     0.009 C 
HETATM    6  C6  UNL     1     -33.139   7.189   3.062  1.00 20.00    -0.001 C 
HETATM    7  C7  UNL     1     -34.736   4.985   4.781  1.00 20.00    -0.048 C 
HETATM    8  C8  UNL     1     -35.116   3.639   5.450  1.00 20.00     0.015 C 
HETATM    9  C9  UNL     1     -36.011   5.549   4.134  1.00 20.00     0.015 C 
ENDROOT
BRANCH   6  10
HETATM   10  C10 UNL     1     -32.174   7.859   2.073  1.00 20.00     0.119 C 
HETATM   11 CL11 UNL     1     -32.513   9.593   1.984  1.00 20.00    -0.130 Cl
ENDBRANCH   6  10
TORSDOF 1
