REMARK  2 active torsions:
REMARK  status: ('A' for Active; 'I' for Inactive)
REMARK    1  A    between atoms: C1_1  and  C7_7 
REMARK    2  A    between atoms: C8_8  and  C10_10 
ROOT
HETATM    1  C2  UNL     1     -32.754   7.691   5.306  1.00 20.00     0.001 C 
HETATM    2  C3  UNL     1     -32.399   8.492   4.055  1.00 20.00     0.011 C 
HETATM    3  C4  UNL     1     -32.460   6.360   2.614  1.00 20.00     0.012 C 
HETATM    4  C5  UNL     1     -34.058   6.904   5.232  1.00 20.00     0.004 C 
HETATM    5  C6  UNL     1     -33.636   5.510   3.102  1.00 20.00     0.005 C 
HETATM    6  C7  UNL     1     -32.741   7.867   2.694  1.00 20.00     0.047 C 
HETATM    7  C8  UNL     1     -33.869   5.517   4.612  1.00 20.00    -0.015 C 
ENDROOT
BRANCH   6   8
HETATM    8  C1  UNL     1     -31.968   8.610   1.597  1.00 20.00     0.235 C 
HETATM    9  O11 UNL     1     -32.510   9.261   0.710  1.00 20.00    -0.306 OA
ENDBRANCH   6   8
BRANCH   7  10
HETATM   10  C10 UNL     1     -35.092   4.693   4.894  1.00 20.00     0.000 C 
HETATM   11  C9  UNL     1     -35.355   4.591   6.358  1.00 20.00     0.005 C 
ENDBRANCH   7  10
TORSDOF 2
