REMARK  1 active torsions:
REMARK  status: ('A' for Active; 'I' for Inactive)
REMARK    1  A    between atoms: C1_1  and  C7_7 
ROOT
HETATM    1  C2  UNL     1     -35.045   5.233   2.658  1.00 20.00     0.001 C 
HETATM    2  C3  UNL     1     -34.334   6.418   2.004  1.00 20.00     0.011 C 
HETATM    3  C4  UNL     1     -32.738   6.820   3.993  1.00 20.00     0.012 C 
HETATM    4  C5  UNL     1     -35.429   5.508   4.112  1.00 20.00     0.008 C 
HETATM    5  C6  UNL     1     -32.910   5.499   4.745  1.00 20.00     0.009 C 
HETATM    6  C7  UNL     1     -32.901   6.657   2.478  1.00 20.00     0.047 C 
HETATM    7  C8  UNL     1     -34.357   5.151   5.169  1.00 20.00    -0.048 C 
HETATM    8  C9  UNL     1     -34.415   3.638   5.472  1.00 20.00     0.015 C 
HETATM    9  C10 UNL     1     -34.705   5.899   6.475  1.00 20.00     0.015 C 
ENDROOT
BRANCH   6  10
HETATM   10  C1  UNL     1     -32.380   7.898   1.812  1.00 20.00     0.235 C 
HETATM   11  O11 UNL     1     -31.424   7.902   1.043  1.00 20.00    -0.306 OA
ENDBRANCH   6  10
TORSDOF 1
