REMARK  2 active torsions:
REMARK  status: ('A' for Active; 'I' for Inactive)
REMARK    1  A    between atoms: C1_1  and  C7_7 
REMARK    2  A    between atoms: C8_8  and  C12_12 
ROOT
HETATM    1  C2  UNL     1     -31.647   8.043   4.970  1.00 20.00     0.001 C 
HETATM    2  C3  UNL     1     -32.688   6.935   4.835  1.00 20.00     0.011 C 
HETATM    3  C4  UNL     1     -31.454   6.374   2.605  1.00 20.00     0.012 C 
HETATM    4  C5  UNL     1     -31.708   9.134   3.894  1.00 20.00     0.005 C 
HETATM    5  C6  UNL     1     -31.852   7.619   1.812  1.00 20.00     0.006 C 
HETATM    6  C7  UNL     1     -32.403   5.919   3.718  1.00 20.00     0.047 C 
HETATM    7  C8  UNL     1     -32.459   8.788   2.599  1.00 20.00    -0.007 C 
ENDROOT
BRANCH   7   8
HETATM    8  C12 UNL     1     -32.534  10.026   1.696  1.00 20.00    -0.048 C 
HETATM    9  C9  UNL     1     -33.769  10.860   2.070  1.00 20.00     0.015 C 
HETATM   10  C10 UNL     1     -32.642   9.585   0.229  1.00 20.00     0.015 C 
HETATM   11  C11 UNL     1     -31.268  10.875   1.883  1.00 20.00     0.015 C 
ENDBRANCH   7   8
BRANCH   6  12
HETATM   12  C1  UNL     1     -33.696   5.432   3.134  1.00 20.00     0.235 C 
HETATM   13  O13 UNL     1     -34.761   5.450   3.742  1.00 20.00    -0.306 OA
ENDBRANCH   6  12
TORSDOF 2
