REMARK  2 active torsions:
REMARK  status: ('A' for Active; 'I' for Inactive)
REMARK    1  A    between atoms: C1_1  and  C5_5 
REMARK    2  A    between atoms: C6_6  and  C8_8 
ROOT
HETATM    1  C2  UNL     1     -32.333   5.605   2.720  1.00 20.00     0.012 C 
HETATM    2  C3  UNL     1     -33.855   5.619   2.786  1.00 20.00     0.005 C 
HETATM    3  C4  UNL     1     -32.910   6.868   4.676  1.00 20.00     0.016 C 
HETATM    4  C5  UNL     1     -31.912   6.839   3.513  1.00 20.00     0.047 C 
HETATM    5  C6  UNL     1     -34.186   6.202   4.157  1.00 20.00    -0.014 C 
ENDROOT
BRANCH   4   6
HETATM    6  C1  UNL     1     -31.975   8.116   2.676  1.00 20.00     0.235 C 
HETATM    7  O9  UNL     1     -32.276   8.130   1.487  1.00 20.00    -0.306 OA
ENDBRANCH   4   6
BRANCH   5   8
HETATM    8  C8  UNL     1     -34.565   5.066   5.088  1.00 20.00     0.000 C 
HETATM    9  C7  UNL     1     -34.867   5.552   6.471  1.00 20.00     0.005 C 
ENDBRANCH   5   8
TORSDOF 2
