REMARK  2 active torsions:
REMARK  status: ('A' for Active; 'I' for Inactive)
REMARK    1  A    between atoms: C5_5  and  C8_8 
REMARK    2  A    between atoms: C6_6  and  C9_9 
ROOT
HETATM    1  C1  UNL     1     -34.031   5.106   2.527  1.00 20.00     0.001 C 
HETATM    2  C2  UNL     1     -34.643   4.682   3.860  1.00 20.00     0.005 C 
HETATM    3  C3  UNL     1     -32.625   5.674   2.707  1.00 20.00     0.005 C 
HETATM    4  C4  UNL     1     -33.216   6.391   5.059  1.00 20.00     0.010 C 
HETATM    5  C5  UNL     1     -34.634   5.825   4.882  1.00 20.00    -0.014 C 
HETATM    6  C6  UNL     1     -32.563   6.813   3.734  1.00 20.00    -0.000 C 
ENDROOT
BRANCH   5   7
HETATM    7  C8  UNL     1     -35.192   5.349   6.223  1.00 20.00     0.000 C 
HETATM    8  C7  UNL     1     -34.362   4.254   6.808  1.00 20.00     0.005 C 
ENDBRANCH   5   7
BRANCH   6   9
HETATM    9  C9  UNL     1     -33.178   8.104   3.184  1.00 20.00     0.119 C 
HETATM   10 CL10 UNL     1     -32.296   8.628   1.741  1.00 20.00    -0.130 Cl
ENDBRANCH   6   9
TORSDOF 2
