REMARK  2 active torsions:
REMARK  status: ('A' for Active; 'I' for Inactive)
REMARK    1  A    between atoms: C5_5  and  C6_6 
REMARK    2  A    between atoms: C6_6  and  S8_8 
ROOT
HETATM    1  C1  UNL     1     -35.398   5.388   3.681  1.00 20.00     0.027 C 
HETATM    2  C2  UNL     1     -34.118   5.792   2.956  1.00 20.00     0.009 C 
HETATM    3  C3  UNL     1     -35.118   5.107   5.151  1.00 20.00     0.167 C 
HETATM    4  C4  UNL     1     -33.240   6.551   5.182  1.00 20.00     0.172 C 
HETATM    5  C5  UNL     1     -33.408   6.924   3.707  1.00 20.00     0.019 C 
HETATM    6  O7  UNL     1     -34.502   6.235   5.772  1.00 20.00    -0.391 OA
ENDROOT
BRANCH   5   7
HETATM    7  C6  UNL     1     -32.065   7.254   3.065  1.00 20.00     0.077 C 
BRANCH   7   8
HETATM    8  S8  UNL     1     -32.303   8.313   1.616  1.00 20.00    -0.182 SA
HETATM    9  H20 UNL     1     -31.005   8.417   1.296  1.00 20.00     0.101 HD
ENDBRANCH   7   8
ENDBRANCH   5   7
TORSDOF 2
