REMARK  4 active torsions:
REMARK  status: ('A' for Active; 'I' for Inactive)
REMARK    1  A    between atoms: C3_3  and  C6_6 
REMARK    2  A    between atoms: C4_4  and  C6_6 
REMARK    3  A    between atoms: C4_4  and  O7_7 
REMARK    4  A    between atoms: C5_5  and  C6_6 
ROOT
HETATM    1  C6  UNL     1     -34.880   5.921   4.861  1.00 20.00     0.023 C 
ENDROOT
BRANCH   1   2
HETATM    2  C3  UNL     1     -35.035   5.382   6.301  1.00 20.00     0.003 C 
HETATM    3  C1  UNL     1     -34.359   4.037   6.529  1.00 20.00     0.005 C 
ENDBRANCH   1   2
BRANCH   1   4
HETATM    4  C4  UNL     1     -33.401   6.202   4.547  1.00 20.00     0.172 C 
BRANCH   4   5
HETATM    5  O7  UNL     1     -33.301   7.080   3.432  1.00 20.00    -0.396 OA
HETATM    6  C2  UNL     1     -31.947   7.374   3.120  1.00 20.00     0.201 C 
ENDBRANCH   4   5
ENDBRANCH   1   4
BRANCH   1   7
HETATM    7  C5  UNL     1     -35.513   5.027   3.782  1.00 20.00     0.121 C 
HETATM    8 CL8  UNL     1     -37.258   4.763   4.013  1.00 20.00    -0.130 Cl
ENDBRANCH   1   7
TORSDOF 4
