REMARK  0 active torsions:
REMARK  status: ('A' for Active; 'I' for Inactive)
ROOT
HETATM    1  C1  UNL     1     -32.968   6.589   3.722  1.00 20.00     0.066 C 
HETATM    2  C2  UNL     1     -33.632   3.792   4.581  1.00 20.00     0.038 C 
HETATM    3  C3  UNL     1     -33.877   4.010   6.075  1.00 20.00     0.273 C 
HETATM    4  C4  UNL     1     -34.470   6.317   5.714  1.00 20.00     0.292 C 
HETATM    5  C5  UNL     1     -35.812   4.581   4.938  1.00 20.00     0.278 C 
HETATM    6  C6  UNL     1     -34.302   6.208   4.193  1.00 20.00     0.127 C 
HETATM    7  C7  UNL     1     -34.664   4.736   3.952  1.00 20.00     0.035 C 
HETATM    8  N8  UNL     1     -31.912   6.891   3.349  1.00 20.00    -0.197 NA
HETATM    9  N9  UNL     1     -35.003   4.982   6.122  1.00 20.00     0.090 N 
ENDROOT
TORSDOF 0
