REMARK  3 active torsions:
REMARK  status: ('A' for Active; 'I' for Inactive)
REMARK    1  A    between atoms: C6_6  and  C9_9 
REMARK    2  A    between atoms: C7_7  and  C10_10 
REMARK    3  A    between atoms: C9_9  and  C11_11 
ROOT
HETATM    1  C1  UNL     1     -33.237   5.423   2.439  1.00 20.00     0.001 C 
HETATM    2  C2  UNL     1     -31.852   5.950   2.795  1.00 20.00     0.005 C 
HETATM    3  C3  UNL     1     -34.377   5.633   3.435  1.00 20.00     0.005 C 
HETATM    4  C4  UNL     1     -32.064   7.500   4.804  1.00 20.00     0.005 C 
HETATM    5  C5  UNL     1     -33.491   7.187   5.246  1.00 20.00     0.006 C 
HETATM    6  C6  UNL     1     -31.750   7.391   3.307  1.00 20.00    -0.014 C 
HETATM    7  C7  UNL     1     -33.984   5.768   4.912  1.00 20.00    -0.001 C 
ENDROOT
BRANCH   6   8
HETATM    8  C9  UNL     1     -32.520   8.401   2.458  1.00 20.00     0.004 C 
BRANCH   8   9
HETATM    9  C11 UNL     1     -31.979   8.442   1.035  1.00 20.00    -0.004 C 
HETATM   10  C8  UNL     1     -32.761   9.429   0.184  1.00 20.00     0.005 C 
ENDBRANCH   8   9
ENDBRANCH   6   8
BRANCH   7  11
HETATM   11  C10 UNL     1     -35.208   5.455   5.784  1.00 20.00     0.119 C 
HETATM   12 CL12 UNL     1     -35.426   3.703   5.911  1.00 20.00    -0.130 Cl
ENDBRANCH   7  11
TORSDOF 3
