REMARK  2 active torsions:
REMARK  status: ('A' for Active; 'I' for Inactive)
REMARK    1  A    between atoms: C4_4  and  C7_7 
REMARK    2  A    between atoms: C5_5  and  C8_8 
ROOT
HETATM    1  C1  UNL     1     -34.888   5.865   3.810  1.00 20.00     0.005 C 
HETATM    2  C2  UNL     1     -33.912   5.921   2.630  1.00 20.00     0.006 C 
HETATM    3  C3  UNL     1     -32.642   5.535   4.632  1.00 20.00     0.010 C 
HETATM    4  C4  UNL     1     -34.038   5.964   5.080  1.00 20.00    -0.014 C 
HETATM    5  C5  UNL     1     -32.515   6.116   3.224  1.00 20.00    -0.000 C 
ENDROOT
BRANCH   4   6
HETATM    6  C7  UNL     1     -34.577   5.126   6.228  1.00 20.00     0.000 C 
HETATM    7  C6  UNL     1     -34.660   3.675   5.871  1.00 20.00     0.005 C 
ENDBRANCH   4   6
BRANCH   5   8
HETATM    8  C8  UNL     1     -32.103   7.588   3.234  1.00 20.00     0.119 C 
HETATM    9 CL9  UNL     1     -32.076   8.232   1.581  1.00 20.00    -0.130 Cl
ENDBRANCH   5   8
TORSDOF 2
