REMARK  5 active torsions:
REMARK  status: ('A' for Active; 'I' for Inactive)
REMARK    1  A    between atoms: C3_3  and  C7_7 
REMARK    2  A    between atoms: C5_5  and  C6_6 
REMARK    3  A    between atoms: C5_5  and  C7_7 
REMARK    4  A    between atoms: C6_6  and  S9_9 
REMARK    5  A    between atoms: C7_7  and  O8_8 
ROOT
HETATM    1  C7  UNL     1     -35.132   4.893   4.767  1.00 20.00     0.122 C 
ENDROOT
BRANCH   1   2
HETATM    2  C3  UNL     1     -35.028   5.326   6.200  1.00 20.00     0.014 A 
HETATM    3  C1  UNL     1     -33.859   4.892   7.040  1.00 20.00     0.007 A 
HETATM    4  C2  UNL     1     -33.986   6.328   6.613  1.00 20.00     0.007 A 
ENDBRANCH   1   2
BRANCH   1   5
HETATM    5  C5  UNL     1     -33.905   5.272   3.925  1.00 20.00     0.042 C 
BRANCH   5   6
HETATM    6  C6  UNL     1     -33.898   6.687   3.348  1.00 20.00     0.076 C 
BRANCH   6   7
HETATM    7  S9  UNL     1     -32.418   7.047   2.358  1.00 20.00    -0.173 SA
HETATM    8  C4  UNL     1     -32.810   8.753   1.911  1.00 20.00     0.089 C 
ENDBRANCH   6   7
ENDBRANCH   5   6
ENDBRANCH   1   5
BRANCH   1   9
HETATM    9  O8  UNL     1     -35.278   3.470   4.726  1.00 20.00    -0.395 OA
HETATM   10  H23 UNL     1     -36.088   3.267   5.216  1.00 20.00     0.210 HD
ENDBRANCH   1   9
TORSDOF 5
