REMARK  2 active torsions:
REMARK  status: ('A' for Active; 'I' for Inactive)
REMARK    1  A    between atoms: C5_5  and  C7_7 
REMARK    2  A    between atoms: C6_6  and  C8_8 
ROOT
HETATM    1  C1  UNL     1     -32.935   7.410   5.430  1.00 20.00     0.001 C 
HETATM    2  C2  UNL     1     -34.118   6.463   5.254  1.00 20.00     0.005 C 
HETATM    3  C3  UNL     1     -32.758   8.321   4.218  1.00 20.00     0.013 C 
HETATM    4  C4  UNL     1     -33.826   6.567   2.746  1.00 20.00     0.019 C 
HETATM    5  C5  UNL     1     -34.001   5.645   3.962  1.00 20.00    -0.000 C 
HETATM    6  C6  UNL     1     -32.632   7.516   2.919  1.00 20.00     0.094 C 
ENDROOT
BRANCH   6   7
HETATM    7  C8  UNL     1     -32.507   8.449   1.716  1.00 20.00     0.391 C 
HETATM    8  F9  UNL     1     -32.362   7.732   0.591  1.00 20.00    -0.171 F 
HETATM    9  F10 UNL     1     -33.606   9.210   1.608  1.00 20.00    -0.171 F 
HETATM   10  F11 UNL     1     -31.438   9.247   1.863  1.00 20.00    -0.171 F 
ENDBRANCH   6   7
BRANCH   5  11
HETATM   11  C7  UNL     1     -35.220   4.742   3.783  1.00 20.00     0.119 C 
HETATM   12 CL12 UNL     1     -35.346   3.614   5.144  1.00 20.00    -0.130 Cl
ENDBRANCH   5  11
TORSDOF 2
