REMARK  2 active torsions:
REMARK  status: ('A' for Active; 'I' for Inactive)
REMARK    1  A    between atoms: C5_5  and  C6_6 
REMARK    2  A    between atoms: C6_6  and  S8_8 
ROOT
HETATM    1  C1  UNL     1     -34.186   5.414   6.393  1.00 20.00     0.027 C 
HETATM    2  C2  UNL     1     -34.124   6.801   5.760  1.00 20.00     0.009 C 
HETATM    3  C3  UNL     1     -35.293   4.579   5.763  1.00 20.00     0.167 C 
HETATM    4  C4  UNL     1     -35.236   5.810   3.741  1.00 20.00     0.172 C 
HETATM    5  C5  UNL     1     -34.116   6.735   4.227  1.00 20.00     0.019 C 
HETATM    6  O7  UNL     1     -35.142   4.519   4.345  1.00 20.00    -0.391 OA
ENDROOT
BRANCH   5   7
HETATM    7  C6  UNL     1     -32.756   6.270   3.698  1.00 20.00     0.077 C 
BRANCH   7   8
HETATM    8  S8  UNL     1     -31.576   7.644   3.702  1.00 20.00    -0.182 SA
HETATM    9  H20 UNL     1     -30.540   6.948   3.211  1.00 20.00     0.101 HD
ENDBRANCH   7   8
ENDBRANCH   5   7
TORSDOF 2
