REMARK  2 active torsions:
REMARK  status: ('A' for Active; 'I' for Inactive)
REMARK    1  A    between atoms: C1_1  and  C7_7 
REMARK    2  A    between atoms: C8_8  and  C12_12 
ROOT
HETATM    1  C2  UNL     1     -32.070   7.549   5.238  1.00 20.00     0.001 C 
HETATM    2  C3  UNL     1     -31.444   7.874   3.886  1.00 20.00     0.011 C 
HETATM    3  C4  UNL     1     -32.589   6.194   2.364  1.00 20.00     0.012 C 
HETATM    4  C5  UNL     1     -32.653   6.141   5.377  1.00 20.00     0.005 C 
HETATM    5  C6  UNL     1     -33.742   5.536   3.122  1.00 20.00     0.006 C 
HETATM    6  C7  UNL     1     -32.368   7.673   2.683  1.00 20.00     0.047 C 
HETATM    7  C8  UNL     1     -33.956   5.953   4.585  1.00 20.00    -0.007 C 
ENDROOT
BRANCH   7   8
HETATM    8  C12 UNL     1     -34.850   4.914   5.274  1.00 20.00    -0.048 C 
HETATM    9  C9  UNL     1     -36.173   4.785   4.504  1.00 20.00     0.015 C 
HETATM   10  C10 UNL     1     -35.139   5.360   6.714  1.00 20.00     0.015 C 
HETATM   11  C11 UNL     1     -34.136   3.554   5.293  1.00 20.00     0.015 C 
ENDBRANCH   7   8
BRANCH   6  12
HETATM   12  C1  UNL     1     -31.723   8.328   1.496  1.00 20.00     0.235 C 
HETATM   13  O13 UNL     1     -32.238   9.247   0.868  1.00 20.00    -0.306 OA
ENDBRANCH   6  12
TORSDOF 2
