REMARK  2 active torsions:
REMARK  status: ('A' for Active; 'I' for Inactive)
REMARK    1  A    between atoms: C4_4  and  C8_8 
REMARK    2  A    between atoms: C5_5  and  C9_9 
ROOT
HETATM    1  C1  UNL     1     -35.551   4.925   4.650  1.00 20.00     0.032 C 
HETATM    2  C2  UNL     1     -33.433   6.135   5.208  1.00 20.00     0.043 C 
HETATM    3  C3  UNL     1     -35.545   5.649   3.311  1.00 20.00     0.169 C 
HETATM    4  C4  UNL     1     -34.827   5.750   5.717  1.00 20.00     0.004 C 
HETATM    5  C5  UNL     1     -33.473   6.788   3.813  1.00 20.00     0.057 C 
HETATM    6  C6  UNL     1     -34.042   8.215   3.855  1.00 20.00     0.046 C 
HETATM    7  O10 UNL     1     -34.219   5.970   2.898  1.00 20.00    -0.381 OA
ENDROOT
BRANCH   5   8
HETATM    8  C9  UNL     1     -32.047   6.856   3.248  1.00 20.00     0.033 C 
HETATM    9  C7  UNL     1     -32.028   7.481   1.895  1.00 20.00     0.008 C 
ENDBRANCH   5   8
BRANCH   4  10
HETATM   10  C8  UNL     1     -34.737   4.982   7.034  1.00 20.00     0.119 C 
HETATM   11 CL11 UNL     1     -33.853   3.464   6.794  1.00 20.00    -0.130 Cl
ENDBRANCH   4  10
TORSDOF 2
