REMARK  2 active torsions:
REMARK  status: ('A' for Active; 'I' for Inactive)
REMARK    1  A    between atoms: C4_4  and  C8_8 
REMARK    2  A    between atoms: C5_5  and  C9_9 
ROOT
HETATM    1  C1  UNL     1     -31.919   5.646   2.667  1.00 20.00     0.032 C 
HETATM    2  C2  UNL     1     -33.502   6.815   4.213  1.00 20.00     0.043 C 
HETATM    3  C3  UNL     1     -32.659   4.353   2.979  1.00 20.00     0.169 C 
HETATM    4  C4  UNL     1     -32.844   6.854   2.828  1.00 20.00     0.004 C 
HETATM    5  C5  UNL     1     -34.164   5.457   4.513  1.00 20.00     0.057 C 
HETATM    6  C6  UNL     1     -35.453   5.248   3.705  1.00 20.00     0.046 C 
HETATM    7  O10 UNL     1     -33.238   4.385   4.281  1.00 20.00    -0.381 OA
ENDROOT
BRANCH   5   8
HETATM    8  C9  UNL     1     -34.518   5.389   6.006  1.00 20.00     0.033 C 
HETATM    9  C7  UNL     1     -35.164   4.091   6.353  1.00 20.00     0.008 C 
ENDBRANCH   5   8
BRANCH   4  10
HETATM   10  C8  UNL     1     -32.080   8.160   2.621  1.00 20.00     0.119 C 
HETATM   11 CL11 UNL     1     -31.371   8.201   0.998  1.00 20.00    -0.130 Cl
ENDBRANCH   4  10
TORSDOF 2
