REMARK  2 active torsions:
REMARK  status: ('A' for Active; 'I' for Inactive)
REMARK    1  A    between atoms: C1_1  and  C7_7 
REMARK    2  A    between atoms: C8_8  and  C10_10 
ROOT
HETATM    1  C2  UNL     1     -34.291   5.156   2.205  1.00 20.00     0.001 C 
HETATM    2  C3  UNL     1     -34.967   5.062   3.572  1.00 20.00     0.011 C 
HETATM    3  C4  UNL     1     -33.160   6.447   4.792  1.00 20.00     0.012 C 
HETATM    4  C5  UNL     1     -33.838   6.574   1.868  1.00 20.00     0.004 C 
HETATM    5  C6  UNL     1     -32.047   6.405   3.744  1.00 20.00     0.005 C 
HETATM    6  C7  UNL     1     -34.035   5.188   4.779  1.00 20.00     0.047 C 
HETATM    7  C8  UNL     1     -32.428   6.936   2.354  1.00 20.00    -0.015 C 
ENDROOT
BRANCH   6   8
HETATM    8  C1  UNL     1     -34.865   5.152   6.033  1.00 20.00     0.235 C 
HETATM    9  O11 UNL     1     -35.613   4.225   6.322  1.00 20.00    -0.306 OA
ENDBRANCH   6   8
BRANCH   7  10
HETATM   10  C10 UNL     1     -32.237   8.456   2.280  1.00 20.00     0.000 C 
HETATM   11  C9  UNL     1     -32.520   8.975   0.911  1.00 20.00     0.005 C 
ENDBRANCH   7  10
TORSDOF 2
