REMARK  4 active torsions:
REMARK  status: ('A' for Active; 'I' for Inactive)
REMARK    1  A    between atoms: C5_5  and  C7_7 
REMARK    2  A    between atoms: C5_5  and  C8_8 
REMARK    3  A    between atoms: C6_6  and  C7_7 
REMARK    4  A    between atoms: C8_8  and  O9_9 
ROOT
HETATM    1  C5  UNL     1     -33.047   5.926   3.108  1.00 20.00     0.042 C 
ENDROOT
BRANCH   1   2
HETATM    2  C7  UNL     1     -32.716   7.439   3.089  1.00 20.00    -0.002 C 
HETATM    3  C1  UNL     1     -31.544   7.713   4.043  1.00 20.00     0.011 C 
BRANCH   2   4
HETATM    4  C6  UNL     1     -32.442   8.043   1.704  1.00 20.00     0.119 C 
HETATM    5 CL10 UNL     1     -32.260   9.814   1.719  1.00 20.00    -0.130 Cl
ENDBRANCH   2   4
ENDBRANCH   1   2
BRANCH   1   6
HETATM    6  C8  UNL     1     -33.932   5.402   4.262  1.00 20.00     0.053 C 
HETATM    7  C2  UNL     1     -35.401   5.741   3.975  1.00 20.00     0.045 C 
HETATM    8  C3  UNL     1     -33.789   3.895   4.477  1.00 20.00     0.045 C 
BRANCH   6   9
HETATM    9  O9  UNL     1     -33.585   6.048   5.487  1.00 20.00    -0.386 OA
HETATM   10  C4  UNL     1     -34.400   5.597   6.557  1.00 20.00     0.202 C 
ENDBRANCH   6   9
ENDBRANCH   1   6
TORSDOF 4
