REMARK  4 active torsions:
REMARK  status: ('A' for Active; 'I' for Inactive)
REMARK    1  A    between atoms: C2_2  and  C8_8 
REMARK    2  A    between atoms: C5_5  and  C9_9 
REMARK    3  A    between atoms: C8_8  and  N10_10 
REMARK    4  A    between atoms: C9_9  and  N10_10 
ROOT
HETATM    1  C1  UNL     1     -32.663   8.985   1.304  1.00 20.00    -0.109 C 
HETATM    2  C2  UNL     1     -32.274   8.204   2.129  1.00 20.00    -0.077 C 
HETATM    3  C7  UNL     1     -33.137   9.937   0.299  1.00 20.00     0.112 C 
ENDROOT
BRANCH   2   4
HETATM    4  C8  UNL     1     -31.796   7.256   3.139  1.00 20.00     0.362 C 
BRANCH   4   5
HETATM    5  N10 UNL     1     -32.167   5.881   2.785  1.00 20.00     0.094 N 
HETATM    6  H25 UNL     1     -31.736   5.662   1.876  1.00 20.00     0.317 HD
BRANCH   5   7
HETATM    7  C9  UNL     1     -33.583   5.708   2.727  1.00 20.00     0.275 C 
BRANCH   7   8
HETATM    8  C5  UNL     1     -34.207   6.032   4.068  1.00 20.00     0.018 C 
HETATM    9  C3  UNL     1     -35.629   5.464   4.332  1.00 20.00     0.041 C 
HETATM   10  C6  UNL     1     -35.191   5.268   5.803  1.00 20.00     0.161 C 
HETATM   11  C4  UNL     1     -33.737   5.181   5.280  1.00 20.00     0.041 C 
HETATM   12  O11 UNL     1     -35.652   4.070   6.365  1.00 20.00    -0.235 OA
ENDBRANCH   7   8
ENDBRANCH   5   7
ENDBRANCH   4   5
ENDBRANCH   2   4
TORSDOF 4
