REMARK  4 active torsions:
REMARK  status: ('A' for Active; 'I' for Inactive)
REMARK    1  A    between atoms: C5_5  and  C7_7 
REMARK    2  A    between atoms: C5_5  and  C8_8 
REMARK    3  A    between atoms: C6_6  and  C8_8 
REMARK    4  A    between atoms: C6_6  and  C9_9 
ROOT
HETATM    1  C3  UNL     1     -32.016   6.243   2.180  1.00 20.00     0.010 C 
HETATM    2  C8  UNL     1     -32.888   7.217   2.978  1.00 20.00    -0.017 C 
ENDROOT
BRANCH   2   3
HETATM    3  C5  UNL     1     -32.203   8.596   3.140  1.00 20.00     0.008 C 
BRANCH   3   4
HETATM    4  C7  UNL     1     -32.342   9.574   1.955  1.00 20.00    -0.023 C 
HETATM    5  C1  UNL     1     -31.751   9.016   0.661  1.00 20.00     0.009 C 
HETATM    6  C2  UNL     1     -31.661  10.902   2.303  1.00 20.00     0.009 C 
ENDBRANCH   3   4
ENDBRANCH   2   3
BRANCH   2   7
HETATM    7  C6  UNL     1     -33.218   6.665   4.388  1.00 20.00     0.024 C 
BRANCH   7   8
HETATM    8  C9  UNL     1     -33.930   5.304   4.436  1.00 20.00     0.078 C 
HETATM    9  C4  UNL     1     -34.140   4.852   5.878  1.00 20.00     0.026 C 
HETATM   10 CL10 UNL     1     -35.519   5.377   3.618  1.00 20.00    -0.125 Cl
ENDBRANCH   7   8
ENDBRANCH   2   7
TORSDOF 4
