REMARK  0 active torsions:
REMARK  status: ('A' for Active; 'I' for Inactive)
ROOT
HETATM    1  C1  UNL     1     -33.346   5.848   4.193  1.00 20.00    -0.085 C 
HETATM    2  C2  UNL     1     -32.395   6.626   3.664  1.00 20.00     0.014 C 
HETATM    3  C3  UNL     1     -34.577   5.386   3.456  1.00 20.00     0.034 C 
HETATM    4  C4  UNL     1     -35.772   5.213   4.413  1.00 20.00     0.009 C 
HETATM    5  C5  UNL     1     -34.450   6.058   6.453  1.00 20.00     0.013 C 
HETATM    6  C6  UNL     1     -33.981   4.073   5.915  1.00 20.00     0.013 C 
HETATM    7  C7  UNL     1     -33.271   5.442   5.634  1.00 20.00     0.014 C 
HETATM    8  C8  UNL     1     -35.301   4.900   5.843  1.00 20.00    -0.013 C 
ENDROOT
TORSDOF 0
