REMARK  2 active torsions:
REMARK  status: ('A' for Active; 'I' for Inactive)
REMARK    1  A    between atoms: C5_5  and  C6_6 
REMARK    2  A    between atoms: C6_6  and  C7_7 
ROOT
HETATM    1  C1  UNL     1     -32.126   8.505   1.684  1.00 20.00     0.012 C 
HETATM    2  C2  UNL     1     -32.189   7.702   2.575  1.00 20.00    -0.117 C 
HETATM    3  C5  UNL     1     -32.260   6.715   3.666  1.00 20.00     0.098 C 
ENDROOT
BRANCH   3   4
HETATM    4  C6  UNL     1     -33.699   6.203   3.891  1.00 20.00     0.006 C 
HETATM    5  C3  UNL     1     -34.086   5.192   2.797  1.00 20.00     0.012 C 
BRANCH   4   6
HETATM    6  C7  UNL     1     -33.915   5.570   5.284  1.00 20.00     0.058 C 
HETATM    7  C4  UNL     1     -35.216   4.800   5.468  1.00 20.00     0.022 C 
HETATM    8 BR8  UNL     1     -33.820   6.965   6.668  1.00 20.00    -0.091 Br
ENDBRANCH   4   6
ENDBRANCH   3   4
TORSDOF 2
