REMARK  3 active torsions:
REMARK  status: ('A' for Active; 'I' for Inactive)
REMARK    1  A    between atoms: C3_3  and  N7_7 
REMARK    2  A    between atoms: C5_5  and  C6_6 
REMARK    3  A    between atoms: C5_5  and  N7_7 
ROOT
HETATM    1  N7  UNL     1     -34.823   6.200   3.427  1.00 20.00     0.093 N 
HETATM    2  H20 UNL     1     -35.646   6.686   3.782  1.00 20.00     0.316 HD
ENDROOT
BRANCH   1   3
HETATM    3  C3  UNL     1     -33.662   7.068   3.556  1.00 20.00     0.223 C 
HETATM    4  C1  UNL     1     -32.552   6.580   2.599  1.00 20.00     0.055 C 
HETATM    5  C4  UNL     1     -32.340   8.072   2.232  1.00 20.00     0.086 C 
HETATM    6  C2  UNL     1     -33.828   8.284   2.618  1.00 20.00     0.055 C 
HETATM    7 CL10 UNL     1     -31.814   8.486   0.579  1.00 20.00    -0.125 Cl
ENDBRANCH   1   3
BRANCH   1   8
HETATM    8  C5  UNL     1     -34.636   4.965   4.176  1.00 20.00     0.340 C 
BRANCH   8   9
HETATM    9  C6  UNL     1     -34.930   5.183   5.646  1.00 20.00     0.381 C 
HETATM   10  F8  UNL     1     -33.844   5.716   6.260  1.00 20.00    -0.213 F 
HETATM   11  F9  UNL     1     -35.157   3.983   6.237  1.00 20.00    -0.213 F 
ENDBRANCH   8   9
ENDBRANCH   1   8
TORSDOF 3
