REMARK  3 active torsions:
REMARK  status: ('A' for Active; 'I' for Inactive)
REMARK    1  A    between atoms: C6_6  and  C8_8 
REMARK    2  A    between atoms: C6_6  and  C9_9 
REMARK    3  A    between atoms: C7_7  and  C9_9 
ROOT
HETATM    1  C4  UNL     1     -36.031   6.136   4.329  1.00 20.00     0.015 C 
HETATM    2  C5  UNL     1     -34.509   4.983   2.745  1.00 20.00     0.015 C 
HETATM    3  C9  UNL     1     -34.538   5.885   3.998  1.00 20.00    -0.043 C 
ENDROOT
BRANCH   3   4
HETATM    4  C6  UNL     1     -33.917   7.289   3.673  1.00 20.00     0.029 C 
BRANCH   4   5
HETATM    5  C8  UNL     1     -32.633   7.355   2.823  1.00 20.00     0.079 C 
HETATM    6  C3  UNL     1     -31.402   7.109   3.694  1.00 20.00     0.026 C 
HETATM    7 CL10 UNL     1     -32.434   8.944   2.029  1.00 20.00    -0.125 Cl
ENDBRANCH   4   5
ENDBRANCH   3   4
BRANCH   3   8
HETATM    8  C7  UNL     1     -33.802   5.166   5.191  1.00 20.00    -0.015 C 
HETATM    9  C1  UNL     1     -33.785   5.979   6.494  1.00 20.00     0.010 C 
HETATM   10  C2  UNL     1     -34.346   3.763   5.508  1.00 20.00     0.010 C 
ENDBRANCH   3   8
TORSDOF 3
