REMARK  2 active torsions:
REMARK  status: ('A' for Active; 'I' for Inactive)
REMARK    1  A    between atoms: C8_8  and  C9_9 
REMARK    2  A    between atoms: C9_9  and  O11_11 
ROOT
HETATM    1  C1  UNL     1     -31.739   7.854   1.637  1.00 20.00     0.003 C 
HETATM    2  C2  UNL     1     -32.647   8.915   2.260  1.00 20.00     0.003 C 
HETATM    3  C3  UNL     1     -31.996   6.564   2.415  1.00 20.00     0.038 C 
HETATM    4  C4  UNL     1     -33.392   8.223   3.402  1.00 20.00     0.038 C 
HETATM    5  C9  UNL     1     -32.498   7.043   3.775  1.00 20.00     0.063 C 
ENDROOT
BRANCH   5   6
HETATM    6  C8  UNL     1     -33.227   5.968   4.564  1.00 20.00     0.046 C 
HETATM    7  C5  UNL     1     -34.482   5.450   3.895  1.00 20.00     0.036 C 
HETATM    8  C6  UNL     1     -35.213   4.818   5.061  1.00 20.00     0.168 C 
HETATM    9  O10 UNL     1     -34.864   5.575   6.229  1.00 20.00    -0.391 OA
HETATM   10  C7  UNL     1     -33.776   6.451   5.896  1.00 20.00     0.175 C 
ENDBRANCH   5   6
BRANCH   5  11
HETATM   11  O11 UNL     1     -31.402   7.523   4.552  1.00 20.00    -0.389 OA
HETATM   12  H27 UNL     1     -31.772   7.814   5.399  1.00 20.00     0.210 HD
ENDBRANCH   5  11
TORSDOF 2
