REMARK  3 active torsions:
REMARK  status: ('A' for Active; 'I' for Inactive)
REMARK    1  A    between atoms: C5_5  and  S11_11 
REMARK    2  A    between atoms: C7_7  and  C8_8 
REMARK    3  A    between atoms: C8_8  and  S11_11 
ROOT
HETATM    1  C1  UNL     1     -33.897   7.172   6.604  1.00 20.00     0.080 C 
HETATM    2  C2  UNL     1     -35.333   5.873   4.958  1.00 20.00     0.071 C 
HETATM    3  C3  UNL     1     -34.296   4.669   6.440  1.00 20.00     0.071 C 
HETATM    4  C4  UNL     1     -35.496   4.436   5.498  1.00 20.00     0.165 C 
HETATM    5  C5  UNL     1     -34.007   6.020   5.743  1.00 20.00     0.101 C 
HETATM    6  N9  UNL     1     -33.808   8.099   7.297  1.00 20.00    -0.196 NA
HETATM    7  O10 UNL     1     -35.254   3.450   4.527  1.00 20.00    -0.235 OA
ENDROOT
BRANCH   5   8
HETATM    8  S11 UNL     1     -32.541   5.920   4.640  1.00 20.00    -0.144 SA
BRANCH   8   9
HETATM    9  C8  UNL     1     -33.064   7.142   3.418  1.00 20.00     0.075 C 
BRANCH   9  10
HETATM   10  C7  UNL     1     -31.871   7.629   2.604  1.00 20.00     0.006 C 
HETATM   11  C6  UNL     1     -32.297   8.657   1.567  1.00 20.00     0.006 C 
ENDBRANCH   9  10
ENDBRANCH   8   9
ENDBRANCH   5   8
TORSDOF 3
