REMARK  2 active torsions:
REMARK  status: ('A' for Active; 'I' for Inactive)
REMARK    1  A    between atoms: C5_5  and  O9_9 
REMARK    2  A    between atoms: C7_7  and  O9_9 
ROOT
HETATM    1  C1  UNL     1     -33.740   6.570   5.886  1.00 20.00     0.098 C 
HETATM    2  C2  UNL     1     -34.960   3.950   5.060  1.00 20.00     0.008 C 
HETATM    3  C3  UNL     1     -33.573   4.408   4.575  1.00 20.00     0.054 C 
HETATM    4  C4  UNL     1     -35.518   5.307   4.597  1.00 20.00     0.054 C 
HETATM    5  C5  UNL     1     -34.073   5.879   4.656  1.00 20.00     0.148 C 
HETATM    6  N8  UNL     1     -33.473   7.123   6.870  1.00 20.00    -0.194 NA
ENDROOT
BRANCH   5   7
HETATM    7  O9  UNL     1     -33.696   6.721   3.548  1.00 20.00    -0.366 OA
BRANCH   7   8
HETATM    8  C7  UNL     1     -32.308   6.627   3.298  1.00 20.00     0.165 C 
HETATM    9  C6  UNL     1     -31.955   7.524   2.131  1.00 20.00     0.033 C 
ENDBRANCH   7   8
ENDBRANCH   5   7
TORSDOF 2
