REMARK  4 active torsions:
REMARK  status: ('A' for Active; 'I' for Inactive)
REMARK    1  A    between atoms: C3_3  and  C6_6 
REMARK    2  A    between atoms: C3_3  and  C7_7 
REMARK    3  A    between atoms: C6_6  and  C9_9 
REMARK    4  A    between atoms: C8_8  and  C9_9 
ROOT
HETATM    1  C1  UNL     1     -33.434   5.065   6.545  1.00 20.00     0.011 A 
HETATM    2  C2  UNL     1     -34.632   5.877   6.144  1.00 20.00     0.011 A 
HETATM    3  C3  UNL     1     -34.178   4.728   5.274  1.00 20.00    -0.027 A 
ENDROOT
BRANCH   3   4
HETATM    4  C6  UNL     1     -33.510   5.058   3.947  1.00 20.00     0.015 C 
BRANCH   4   5
HETATM    5  C9  UNL     1     -33.611   6.545   3.549  1.00 20.00    -0.018 C 
HETATM    6  C5  UNL     1     -34.987   6.881   2.966  1.00 20.00     0.010 C 
BRANCH   5   7
HETATM    7  C8  UNL     1     -32.477   6.875   2.556  1.00 20.00    -0.000 C 
HETATM    8  C4  UNL     1     -32.433   8.337   2.134  1.00 20.00     0.005 C 
ENDBRANCH   5   7
ENDBRANCH   4   5
ENDBRANCH   3   4
BRANCH   3   9
HETATM    9  C7  UNL     1     -35.019   3.481   5.259  1.00 20.00     0.124 C 
HETATM   10 CL10 UNL     1     -34.008   2.040   4.989  1.00 20.00    -0.130 Cl
ENDBRANCH   3   9
TORSDOF 4
