REMARK  3 active torsions:
REMARK  status: ('A' for Active; 'I' for Inactive)
REMARK    1  A    between atoms: C5_5  and  C6_6 
REMARK    2  A    between atoms: C5_5  and  C7_7 
REMARK    3  A    between atoms: C6_6  and  O9_9 
ROOT
HETATM    1  C1  UNL     1     -34.954   4.460   5.037  1.00 20.00     0.091 C 
HETATM    2  C6  UNL     1     -35.043   4.719   3.594  1.00 20.00     0.227 C 
HETATM    3  N8  UNL     1     -34.884   4.255   6.177  1.00 20.00    -0.195 NA
ENDROOT
BRANCH   2   4
HETATM    4  C5  UNL     1     -33.674   5.015   2.967  1.00 20.00     0.050 C 
BRANCH   4   5
HETATM    5  C7  UNL     1     -33.185   6.471   3.099  1.00 20.00    -0.019 C 
HETATM    6  C2  UNL     1     -33.067   6.843   4.580  1.00 20.00     0.009 C 
HETATM    7  C3  UNL     1     -31.843   6.700   2.402  1.00 20.00     0.009 C 
ENDBRANCH   4   5
ENDBRANCH   2   4
BRANCH   2   8
HETATM    8  O9  UNL     1     -35.896   5.843   3.368  1.00 20.00    -0.376 OA
HETATM    9  C4  UNL     1     -37.263   5.472   3.435  1.00 20.00     0.203 C 
ENDBRANCH   2   8
TORSDOF 3
