REMARK  4 active torsions:
REMARK  status: ('A' for Active; 'I' for Inactive)
REMARK    1  A    between atoms: C4_4  and  C7_7 
REMARK    2  A    between atoms: C4_4  and  C8_8 
REMARK    3  A    between atoms: C7_7  and  C9_9 
REMARK    4  A    between atoms: C9_9  and  C10_10 
ROOT
HETATM    1  C1  UNL     1     -34.543   5.952   7.042  1.00 20.00     0.002 C 
HETATM    2  C2  UNL     1     -34.500   6.828   5.775  1.00 20.00     0.010 C 
HETATM    3  C3  UNL     1     -33.312   5.199   6.501  1.00 20.00     0.010 C 
HETATM    4  C4  UNL     1     -33.694   5.695   5.075  1.00 20.00    -0.028 C 
ENDROOT
BRANCH   4   5
HETATM    5  C7  UNL     1     -32.509   6.192   4.254  1.00 20.00     0.011 C 
BRANCH   5   6
HETATM    6  C9  UNL     1     -32.965   7.111   3.118  1.00 20.00     0.005 C 
BRANCH   6   7
HETATM    7  C10 UNL     1     -31.801   7.699   2.299  1.00 20.00    -0.023 C 
HETATM    8  C5  UNL     1     -30.890   8.524   3.212  1.00 20.00     0.009 C 
HETATM    9  C6  UNL     1     -32.284   8.565   1.134  1.00 20.00     0.009 C 
ENDBRANCH   6   7
ENDBRANCH   5   6
ENDBRANCH   4   5
BRANCH   4  10
HETATM   10  C8  UNL     1     -34.554   4.713   4.279  1.00 20.00     0.124 C 
HETATM   11 CL11 UNL     1     -35.842   5.583   3.431  1.00 20.00    -0.130 Cl
ENDBRANCH   4  10
TORSDOF 4
