REMARK  5 active torsions:
REMARK  status: ('A' for Active; 'I' for Inactive)
REMARK    1  A    between atoms: C2_2  and  C8_8 
REMARK    2  A    between atoms: C2_2  and  C9_9 
REMARK    3  A    between atoms: C6_6  and  C10_10 
REMARK    4  A    between atoms: C9_9  and  C10_10 
REMARK    5  A    between atoms: C10_10  and  O11_11 
ROOT
HETATM    1  C10 UNL     1     -34.176   5.995   3.458  1.00 20.00     0.126 C 
ENDROOT
BRANCH   1   2
HETATM    2  C6  UNL     1     -33.704   5.391   4.764  1.00 20.00     0.015 C 
HETATM    3  C4  UNL     1     -34.743   4.562   5.563  1.00 20.00     0.007 C 
HETATM    4  C3  UNL     1     -34.113   5.144   6.845  1.00 20.00     0.001 C 
HETATM    5  C5  UNL     1     -33.651   6.341   5.989  1.00 20.00     0.007 C 
ENDBRANCH   1   2
BRANCH   1   6
HETATM    6  C9  UNL     1     -32.975   6.272   2.547  1.00 20.00     0.065 C 
BRANCH   6   7
HETATM    7  C2  UNL     1     -32.264   7.574   2.869  1.00 20.00    -0.087 C 
HETATM    8  C1  UNL     1     -31.293   7.595   3.797  1.00 20.00     0.014 C 
BRANCH   7   9
HETATM    9  C8  UNL     1     -32.703   8.778   2.059  1.00 20.00     0.029 C 
HETATM   10  C7  UNL     1     -31.987   9.023   0.735  1.00 20.00     0.010 C 
ENDBRANCH   7   9
ENDBRANCH   6   7
ENDBRANCH   1   6
BRANCH   1  11
HETATM   11  O11 UNL     1     -35.040   5.059   2.818  1.00 20.00    -0.395 OA
HETATM   12  H29 UNL     1     -35.326   5.471   1.988  1.00 20.00     0.210 HD
ENDBRANCH   1  11
TORSDOF 5
