REMARK  4 active torsions:
REMARK  status: ('A' for Active; 'I' for Inactive)
REMARK    1  A    between atoms: C2_2  and  C9_9 
REMARK    2  A    between atoms: C2_2  and  C10_10 
REMARK    3  A    between atoms: C3_3  and  C5_5 
REMARK    4  A    between atoms: C3_3  and  C9_9 
ROOT
HETATM    1  C3  UNL     1     -32.516   6.761   2.875  1.00 20.00     0.135 C 
HETATM    2  O11 UNL     1     -31.982   5.665   2.993  1.00 20.00    -0.297 OA
ENDROOT
BRANCH   1   3
HETATM    3  C5  UNL     1     -31.859   7.822   2.056  1.00 20.00     0.060 A 
HETATM    4  C4  UNL     1     -32.450   9.194   2.061  1.00 20.00     0.017 A 
HETATM    5  C6  UNL     1     -32.581   8.327   0.837  1.00 20.00    -0.007 A 
HETATM    6  C7  UNL     1     -31.805   8.645  -0.394  1.00 20.00     0.011 C 
ENDBRANCH   1   3
BRANCH   1   7
HETATM    7  C9  UNL     1     -33.816   7.169   3.542  1.00 20.00     0.111 C 
BRANCH   7   8
HETATM    8  C2  UNL     1     -34.426   6.021   4.304  1.00 20.00    -0.083 C 
HETATM    9  C1  UNL     1     -34.777   4.884   3.682  1.00 20.00     0.014 C 
BRANCH   8  10
HETATM   10  C10 UNL     1     -34.634   6.194   5.791  1.00 20.00     0.029 C 
HETATM   11  C8  UNL     1     -35.261   4.969   6.442  1.00 20.00     0.010 C 
ENDBRANCH   8  10
ENDBRANCH   7   8
ENDBRANCH   1   7
TORSDOF 4
