REMARK  4 active torsions:
REMARK  status: ('A' for Active; 'I' for Inactive)
REMARK    1  A    between atoms: C3_3  and  C6_6 
REMARK    2  A    between atoms: C3_3  and  C7_7 
REMARK    3  A    between atoms: C6_6  and  C8_8 
REMARK    4  A    between atoms: C8_8  and  C9_9 
ROOT
HETATM    1  C1  UNL     1     -34.979   5.364   3.267  1.00 20.00     0.011 A 
HETATM    2  C2  UNL     1     -33.751   4.638   2.795  1.00 20.00     0.011 A 
HETATM    3  C3  UNL     1     -33.660   5.579   3.973  1.00 20.00    -0.028 A 
ENDROOT
BRANCH   3   4
HETATM    4  C6  UNL     1     -32.952   6.910   3.770  1.00 20.00     0.011 C 
BRANCH   4   5
HETATM    5  C8  UNL     1     -32.590   7.130   2.299  1.00 20.00     0.005 C 
BRANCH   5   6
HETATM    6  C9  UNL     1     -31.933   8.497   2.027  1.00 20.00    -0.023 C 
HETATM    7  C4  UNL     1     -32.889   9.621   2.432  1.00 20.00     0.009 C 
HETATM    8  C5  UNL     1     -31.527   8.668   0.563  1.00 20.00     0.009 C 
ENDBRANCH   5   6
ENDBRANCH   4   5
ENDBRANCH   3   4
BRANCH   3   9
HETATM    9  C7  UNL     1     -33.487   4.980   5.342  1.00 20.00     0.124 C 
HETATM   10 CL10 UNL     1     -34.259   5.999   6.581  1.00 20.00    -0.130 Cl
ENDBRANCH   3   9
TORSDOF 4
