REMARK  2 active torsions:
REMARK  status: ('A' for Active; 'I' for Inactive)
REMARK    1  A    between atoms: C5_5  and  O9_9 
REMARK    2  A    between atoms: C7_7  and  O9_9 
ROOT
HETATM    1  C1  UNL     1     -35.190   5.995   3.385  1.00 20.00     0.098 C 
HETATM    2  C2  UNL     1     -33.743   6.175   5.398  1.00 20.00     0.065 C 
HETATM    3  C3  UNL     1     -34.695   5.489   6.365  1.00 20.00     0.078 C 
HETATM    4  C4  UNL     1     -33.927   4.030   4.236  1.00 20.00     0.127 C 
HETATM    5  C5  UNL     1     -33.939   5.543   4.017  1.00 20.00     0.157 C 
HETATM    6  N8  UNL     1     -36.176   6.350   2.887  1.00 20.00    -0.194 NA
HETATM    7  S10 UNL     1     -34.696   3.747   5.861  1.00 20.00    -0.165 SA
ENDROOT
BRANCH   5   8
HETATM    8  O9  UNL     1     -32.856   5.915   3.169  1.00 20.00    -0.365 OA
BRANCH   8   9
HETATM    9  C7  UNL     1     -32.806   7.321   2.981  1.00 20.00     0.165 C 
HETATM   10  C6  UNL     1     -31.640   7.656   2.075  1.00 20.00     0.033 C 
ENDBRANCH   8   9
ENDBRANCH   5   8
TORSDOF 2
