REMARK  4 active torsions:
REMARK  status: ('A' for Active; 'I' for Inactive)
REMARK    1  A    between atoms: C6_6  and  C8_8 
REMARK    2  A    between atoms: C6_6  and  C9_9 
REMARK    3  A    between atoms: C7_7  and  O11_11 
REMARK    4  A    between atoms: C9_9  and  O11_11 
ROOT
HETATM    1  C1  UNL     1     -32.062   7.571   4.293  1.00 20.00     0.097 C 
HETATM    2  C5  UNL     1     -31.636   5.331   3.375  1.00 20.00     0.062 C 
HETATM    3  C9  UNL     1     -32.383   6.657   3.182  1.00 20.00     0.145 C 
HETATM    4  N10 UNL     1     -31.810   8.288   5.170  1.00 20.00    -0.194 NA
ENDROOT
BRANCH   3   5
HETATM    5  C6  UNL     1     -33.901   6.384   3.091  1.00 20.00     0.057 C 
BRANCH   5   6
HETATM    6  C8  UNL     1     -34.487   5.304   4.033  1.00 20.00    -0.019 C 
HETATM    7  C3  UNL     1     -34.230   5.709   5.489  1.00 20.00     0.009 C 
HETATM    8  C4  UNL     1     -35.983   5.060   3.833  1.00 20.00     0.009 C 
ENDBRANCH   5   6
ENDBRANCH   3   5
BRANCH   3   9
HETATM    9  O11 UNL     1     -31.934   7.219   1.949  1.00 20.00    -0.366 OA
BRANCH   9  10
HETATM   10  C7  UNL     1     -32.557   8.469   1.695  1.00 20.00     0.165 C 
HETATM   11  C2  UNL     1     -32.046   9.016   0.379  1.00 20.00     0.033 C 
ENDBRANCH   9  10
ENDBRANCH   3   9
TORSDOF 4
