REMARK  2 active torsions:
REMARK  status: ('A' for Active; 'I' for Inactive)
REMARK    1  A    between atoms: C5_5  and  C6_6 
REMARK    2  A    between atoms: C6_6  and  O8_8 
ROOT
HETATM    1  C1  UNL     1     -32.630   6.324   3.912  1.00 20.00     0.097 C 
HETATM    2  C3  UNL     1     -34.074   7.064   5.759  1.00 20.00     0.062 C 
HETATM    3  C6  UNL     1     -33.870   6.024   4.653  1.00 20.00     0.144 C 
HETATM    4  N7  UNL     1     -31.655   6.560   3.329  1.00 20.00    -0.194 NA
ENDROOT
BRANCH   3   5
HETATM    5  C5  UNL     1     -33.826   4.611   5.264  1.00 20.00     0.049 C 
HETATM    6  C2  UNL     1     -35.079   4.229   6.048  1.00 20.00     0.009 C 
ENDBRANCH   3   5
BRANCH   3   7
HETATM    7  O8  UNL     1     -34.986   6.100   3.765  1.00 20.00    -0.371 OA
HETATM    8  C4  UNL     1     -34.861   5.171   2.701  1.00 20.00     0.204 C 
ENDBRANCH   3   7
TORSDOF 2
