REMARK  4 active torsions:
REMARK  status: ('A' for Active; 'I' for Inactive)
REMARK    1  A    between atoms: C2_2  and  C9_9 
REMARK    2  A    between atoms: C2_2  and  C10_10 
REMARK    3  A    between atoms: C3_3  and  C5_5 
REMARK    4  A    between atoms: C3_3  and  C9_9 
ROOT
HETATM    1  C3  UNL     1     -33.708   5.825   3.320  1.00 20.00     0.135 C 
HETATM    2  O11 UNL     1     -32.721   5.121   3.146  1.00 20.00    -0.297 OA
ENDROOT
BRANCH   1   3
HETATM    3  C5  UNL     1     -34.858   5.307   4.118  1.00 20.00     0.060 A 
HETATM    4  C4  UNL     1     -34.598   4.246   5.139  1.00 20.00     0.017 A 
HETATM    5  C6  UNL     1     -34.969   5.635   5.575  1.00 20.00    -0.007 A 
HETATM    6  C7  UNL     1     -33.975   6.481   6.294  1.00 20.00     0.011 C 
ENDBRANCH   1   3
BRANCH   1   7
HETATM    7  C9  UNL     1     -33.894   7.217   2.743  1.00 20.00     0.111 C 
BRANCH   7   8
HETATM    8  C2  UNL     1     -32.583   7.955   2.659  1.00 20.00    -0.083 C 
HETATM    9  C1  UNL     1     -31.596   7.717   3.538  1.00 20.00     0.014 C 
BRANCH   8  10
HETATM   10  C10 UNL     1     -32.419   8.976   1.558  1.00 20.00     0.029 C 
HETATM   11  C8  UNL     1     -32.869  10.369   1.977  1.00 20.00     0.010 C 
ENDBRANCH   8  10
ENDBRANCH   7   8
ENDBRANCH   1   7
TORSDOF 4
