REMARK  1 active torsions:
REMARK  status: ('A' for Active; 'I' for Inactive)
REMARK    1  A    between atoms: C6_6  and  O9_9 
ROOT
HETATM    1  C1  UNL     1     -32.860   6.089   3.686  1.00 20.00     0.098 C 
HETATM    2  C2  UNL     1     -35.058   4.508   6.245  1.00 20.00     0.004 C 
HETATM    3  C3  UNL     1     -35.036   5.965   6.706  1.00 20.00     0.004 C 
HETATM    4  C4  UNL     1     -34.079   4.419   5.075  1.00 20.00     0.053 C 
HETATM    5  C5  UNL     1     -34.084   6.700   5.761  1.00 20.00     0.053 C 
HETATM    6  C6  UNL     1     -34.048   5.834   4.505  1.00 20.00     0.148 C 
HETATM    7  N8  UNL     1     -31.919   6.291   3.038  1.00 20.00    -0.194 NA
ENDROOT
BRANCH   6   8
HETATM    8  O9  UNL     1     -35.226   6.079   3.741  1.00 20.00    -0.370 OA
HETATM    9  C7  UNL     1     -35.093   5.609   2.406  1.00 20.00     0.204 C 
ENDBRANCH   6   8
TORSDOF 1
