REMARK  3 active torsions:
REMARK  status: ('A' for Active; 'I' for Inactive)
REMARK    1  A    between atoms: C5_5  and  C8_8 
REMARK    2  A    between atoms: C5_5  and  C9_9 
REMARK    3  A    between atoms: C8_8  and  C10_10 
ROOT
HETATM    1  C1  UNL     1     -33.880   5.605   5.871  1.00 20.00     0.001 C 
HETATM    2  C2  UNL     1     -35.211   5.184   5.248  1.00 20.00     0.001 C 
HETATM    3  C3  UNL     1     -33.194   6.502   4.843  1.00 20.00     0.010 C 
HETATM    4  C4  UNL     1     -35.267   5.848   3.874  1.00 20.00     0.010 C 
HETATM    5  C5  UNL     1     -33.802   6.099   3.492  1.00 20.00    -0.028 C 
ENDROOT
BRANCH   5   6
HETATM    6  C8  UNL     1     -33.673   7.220   2.459  1.00 20.00     0.014 C 
BRANCH   6   7
HETATM    7  C10 UNL     1     -32.356   8.002   2.572  1.00 20.00    -0.022 C 
HETATM    8  C6  UNL     1     -31.128   7.112   2.377  1.00 20.00     0.009 C 
HETATM    9  C7  UNL     1     -32.343   9.135   1.543  1.00 20.00     0.009 C 
ENDBRANCH   6   7
ENDBRANCH   5   6
BRANCH   5  10
HETATM   10  C9  UNL     1     -33.143   4.824   2.941  1.00 20.00     0.124 C 
HETATM   11 CL11 UNL     1     -34.204   4.069   1.745  1.00 20.00    -0.130 Cl
ENDBRANCH   5  10
TORSDOF 3
