REMARK  3 active torsions:
REMARK  status: ('A' for Active; 'I' for Inactive)
REMARK    1  A    between atoms: C6_6  and  C8_8 
REMARK    2  A    between atoms: C7_7  and  C8_8 
REMARK    3  A    between atoms: C7_7  and  C9_9 
ROOT
HETATM    1  C8  UNL     1     -33.687   7.365   3.196  1.00 20.00     0.042 C 
ENDROOT
BRANCH   1   2
HETATM    2  C6  UNL     1     -33.915   5.939   3.658  1.00 20.00     0.122 C 
HETATM    3  C2  UNL     1     -35.362   5.491   3.552  1.00 20.00     0.034 C 
HETATM    4  C1  UNL     1     -35.421   4.415   4.607  1.00 20.00     0.029 C 
HETATM    5  C5  UNL     1     -34.541   4.994   5.694  1.00 20.00     0.168 C 
HETATM    6  O10 UNL     1     -33.556   5.812   5.044  1.00 20.00    -0.386 OA
ENDBRANCH   1   2
BRANCH   1   7
HETATM    7  C7  UNL     1     -32.247   7.634   2.885  1.00 20.00    -0.025 A 
HETATM    8  C3  UNL     1     -31.306   7.877   4.042  1.00 20.00     0.011 A 
HETATM    9  C4  UNL     1     -31.231   6.587   3.278  1.00 20.00     0.011 A 
BRANCH   7  10
HETATM   10  C9  UNL     1     -32.014   8.401   1.613  1.00 20.00     0.124 C 
HETATM   11 CL11 UNL     1     -32.675  10.049   1.737  1.00 20.00    -0.130 Cl
ENDBRANCH   7  10
ENDBRANCH   1   7
TORSDOF 3
