REMARK  1 active torsions:
REMARK  status: ('A' for Active; 'I' for Inactive)
REMARK    1  A    between atoms: C7_7  and  C9_9 
ROOT
HETATM    1  C1  UNL     1     -33.724   5.410   6.783  1.00 20.00     0.005 C 
HETATM    2  C2  UNL     1     -33.491   6.726   6.027  1.00 20.00     0.006 C 
HETATM    3  C3  UNL     1     -35.557   5.842   5.326  1.00 20.00     0.010 C 
HETATM    4  C4  UNL     1     -34.035   4.137   4.640  1.00 20.00     0.015 C 
HETATM    5  C5  UNL     1     -34.748   4.679   5.895  1.00 20.00    -0.013 C 
HETATM    6  C6  UNL     1     -34.318   6.535   4.742  1.00 20.00    -0.005 C 
HETATM    7  C7  UNL     1     -33.713   5.421   3.828  1.00 20.00    -0.028 C 
HETATM    8  C8  UNL     1     -34.418   5.397   2.458  1.00 20.00     0.016 C 
ENDROOT
BRANCH   7   9
HETATM    9  C9  UNL     1     -32.207   5.567   3.575  1.00 20.00     0.124 C 
HETATM   10 CL10 UNL     1     -31.823   7.247   3.173  1.00 20.00    -0.130 Cl
ENDBRANCH   7   9
TORSDOF 1
