REMARK  4 active torsions:
REMARK  status: ('A' for Active; 'I' for Inactive)
REMARK    1  A    between atoms: C6_6  and  C8_8 
REMARK    2  A    between atoms: C6_6  and  C9_9 
REMARK    3  A    between atoms: C7_7  and  O11_11 
REMARK    4  A    between atoms: C8_8  and  O11_11 
ROOT
HETATM    1  C1  UNL     1     -33.940   6.202   5.518  1.00 20.00     0.091 C 
HETATM    2  C8  UNL     1     -34.628   5.641   4.344  1.00 20.00     0.228 C 
HETATM    3  N10 UNL     1     -33.399   6.646   6.444  1.00 20.00    -0.195 NA
ENDROOT
BRANCH   2   4
HETATM    4  C6  UNL     1     -34.260   6.435   3.079  1.00 20.00     0.055 C 
BRANCH   4   5
HETATM    5  C9  UNL     1     -32.748   6.531   2.719  1.00 20.00    -0.048 C 
HETATM    6  C3  UNL     1     -32.637   6.714   1.191  1.00 20.00     0.014 C 
HETATM    7  C4  UNL     1     -32.095   7.747   3.399  1.00 20.00     0.014 C 
HETATM    8  C5  UNL     1     -31.974   5.261   3.108  1.00 20.00     0.014 C 
ENDBRANCH   4   5
ENDBRANCH   2   4
BRANCH   2   9
HETATM    9  O11 UNL     1     -34.233   4.282   4.185  1.00 20.00    -0.372 OA
BRANCH   9  10
HETATM   10  C7  UNL     1     -34.943   3.428   5.070  1.00 20.00     0.165 C 
HETATM   11  C2  UNL     1     -34.482   2.002   4.856  1.00 20.00     0.033 C 
ENDBRANCH   9  10
ENDBRANCH   2   9
TORSDOF 4
