REMARK  2 active torsions:
REMARK  status: ('A' for Active; 'I' for Inactive)
REMARK    1  A    between atoms: C6_6  and  O10_10 
REMARK    2  A    between atoms: C8_8  and  O10_10 
ROOT
HETATM    1  C1  UNL     1     -31.143   6.400   2.998  1.00 20.00     0.098 C 
HETATM    2  C2  UNL     1     -34.791   5.719   3.330  1.00 20.00     0.004 C 
HETATM    3  C3  UNL     1     -34.455   6.312   4.699  1.00 20.00     0.004 C 
HETATM    4  C4  UNL     1     -33.462   5.585   2.590  1.00 20.00     0.053 C 
HETATM    5  C5  UNL     1     -32.946   6.556   4.702  1.00 20.00     0.053 C 
HETATM    6  C6  UNL     1     -32.569   6.647   3.226  1.00 20.00     0.148 C 
HETATM    7  N9  UNL     1     -30.014   6.205   2.817  1.00 20.00    -0.194 NA
ENDROOT
BRANCH   6   8
HETATM    8  O10 UNL     1     -32.923   7.939   2.738  1.00 20.00    -0.366 OA
BRANCH   8   9
HETATM    9  C8  UNL     1     -32.276   8.229   1.506  1.00 20.00     0.165 C 
HETATM   10  C7  UNL     1     -32.693   9.609   1.043  1.00 20.00     0.033 C 
ENDBRANCH   8   9
ENDBRANCH   6   8
TORSDOF 2
