REMARK  3 active torsions:
REMARK  status: ('A' for Active; 'I' for Inactive)
REMARK    1  A    between atoms: C6_6  and  C8_8 
REMARK    2  A    between atoms: C7_7  and  C8_8 
REMARK    3  A    between atoms: C7_7  and  C9_9 
ROOT
HETATM    1  C8  UNL     1     -33.366   5.852   2.876  1.00 20.00     0.042 C 
ENDROOT
BRANCH   1   2
HETATM    2  C6  UNL     1     -34.305   5.979   4.060  1.00 20.00     0.122 C 
HETATM    3  C2  UNL     1     -35.084   4.709   4.353  1.00 20.00     0.034 C 
HETATM    4  C1  UNL     1     -35.376   4.869   5.824  1.00 20.00     0.029 C 
HETATM    5  C5  UNL     1     -34.096   5.498   6.331  1.00 20.00     0.168 C 
HETATM    6  O10 UNL     1     -33.554   6.272   5.250  1.00 20.00    -0.386 OA
ENDBRANCH   1   2
BRANCH   1   7
HETATM    7  C7  UNL     1     -32.638   7.131   2.596  1.00 20.00    -0.025 A 
HETATM    8  C3  UNL     1     -31.414   7.446   3.424  1.00 20.00     0.011 A 
HETATM    9  C4  UNL     1     -31.258   7.042   1.986  1.00 20.00     0.011 A 
BRANCH   7  10
HETATM   10  C9  UNL     1     -33.521   8.275   2.179  1.00 20.00     0.124 C 
HETATM   11 CL11 UNL     1     -32.546   9.693   1.723  1.00 20.00    -0.130 Cl
ENDBRANCH   7  10
ENDBRANCH   1   7
TORSDOF 3
