REMARK  2 active torsions:
REMARK  status: ('A' for Active; 'I' for Inactive)
REMARK    1  A    between atoms: C4_4  and  C7_7 
REMARK    2  A    between atoms: C7_7  and  C8_8 
ROOT
HETATM    1  C1  UNL     1     -34.565   3.120   4.834  1.00 20.00     0.218 C 
HETATM    2  C2  UNL     1     -33.373   4.046   4.806  1.00 20.00     0.113 C 
HETATM    3  C3  UNL     1     -35.407   5.316   4.973  1.00 20.00     0.132 C 
HETATM    4  C4  UNL     1     -33.926   5.375   5.357  1.00 20.00    -0.020 C 
HETATM    5  C5  UNL     1     -33.764   5.433   6.885  1.00 20.00     0.017 C 
HETATM    6  N9  UNL     1     -35.702   3.909   4.939  1.00 20.00    -0.360 N 
HETATM    7  O10 UNL     1     -34.516   1.903   4.741  1.00 20.00    -0.274 OA
HETATM    8  H25 UNL     1     -36.644   3.533   4.987  1.00 20.00     0.162 HD
ENDROOT
BRANCH   4   9
HETATM    9  C7  UNL     1     -33.229   6.580   4.724  1.00 20.00     0.011 C 
BRANCH   9  10
HETATM   10  C8  UNL     1     -33.393   6.568   3.212  1.00 20.00    -0.004 C 
HETATM   11  C6  UNL     1     -32.720   7.778   2.584  1.00 20.00     0.005 C 
ENDBRANCH   9  10
ENDBRANCH   4   9
TORSDOF 2
