REMARK  1 active torsions:
REMARK  status: ('A' for Active; 'I' for Inactive)
REMARK    1  A    between atoms: C3_3  and  C8_8 
ROOT
HETATM    1  C1  UNL     1     -32.464   7.014   2.916  1.00 20.00     0.218 C 
HETATM    2  C2  UNL     1     -32.471   7.208   4.412  1.00 20.00     0.109 C 
HETATM    3  C3  UNL     1     -33.807   6.583   4.837  1.00 20.00     0.021 C 
HETATM    4  C4  UNL     1     -34.032   5.462   3.797  1.00 20.00     0.029 C 
HETATM    5  C5  UNL     1     -35.522   5.223   3.542  1.00 20.00     0.038 C 
HETATM    6  C6  UNL     1     -33.348   4.135   4.152  1.00 20.00     0.038 C 
HETATM    7  N9  UNL     1     -33.396   6.025   2.619  1.00 20.00    -0.352 N 
HETATM    8  O10 UNL     1     -31.737   7.603   2.131  1.00 20.00    -0.274 OA
HETATM    9  H25 UNL     1     -33.610   5.727   1.673  1.00 20.00     0.163 HD
ENDROOT
BRANCH   3  10
HETATM   10  C8  UNL     1     -33.812   6.160   6.299  1.00 20.00     0.003 C 
HETATM   11  C7  UNL     1     -35.133   5.592   6.710  1.00 20.00     0.005 C 
ENDBRANCH   3  10
TORSDOF 1
