REMARK  1 active torsions:
REMARK  status: ('A' for Active; 'I' for Inactive)
REMARK    1  A    between atoms: C5_5  and  C6_6 
ROOT
HETATM    1  C1  UNL     1     -36.262   5.095   3.739  1.00 20.00     0.218 C 
HETATM    2  C2  UNL     1     -35.082   5.665   2.991  1.00 20.00     0.110 C 
HETATM    3  C5  UNL     1     -34.148   6.130   4.117  1.00 20.00     0.026 C 
HETATM    4  C7  UNL     1     -34.443   5.140   5.267  1.00 20.00     0.030 C 
HETATM    5  C8  UNL     1     -34.244   5.795   6.636  1.00 20.00     0.038 C 
HETATM    6  C9  UNL     1     -33.634   3.838   5.193  1.00 20.00     0.038 C 
HETATM    7  N10 UNL     1     -35.846   4.842   5.041  1.00 20.00    -0.352 N 
HETATM    8  O11 UNL     1     -37.362   4.872   3.258  1.00 20.00    -0.274 OA
HETATM    9  H26 UNL     1     -36.463   4.483   5.763  1.00 20.00     0.163 HD
ENDROOT
BRANCH   3  10
HETATM   10  C6  UNL     1     -32.698   6.230   3.666  1.00 20.00    -0.008 A 
HETATM   11  C3  UNL     1     -32.210   7.473   2.985  1.00 20.00     0.005 A 
HETATM   12  C4  UNL     1     -31.754   7.149   4.381  1.00 20.00     0.005 A 
ENDBRANCH   3  10
TORSDOF 1
