REMARK  1 active torsions:
REMARK  status: ('A' for Active; 'I' for Inactive)
REMARK    1  A    between atoms: C3_3  and  C8_8 
ROOT
HETATM    1  C1  UNL     1     -32.584   6.696   3.208  1.00 20.00     0.218 C 
HETATM    2  C2  UNL     1     -33.007   6.860   4.646  1.00 20.00     0.109 C 
HETATM    3  C3  UNL     1     -33.735   5.543   4.947  1.00 20.00     0.021 C 
HETATM    4  C4  UNL     1     -34.340   5.141   3.583  1.00 20.00     0.029 C 
HETATM    5  C5  UNL     1     -35.707   5.777   3.294  1.00 20.00     0.038 C 
HETATM    6  C6  UNL     1     -34.437   3.621   3.439  1.00 20.00     0.038 C 
HETATM    7  N9  UNL     1     -33.359   5.681   2.659  1.00 20.00    -0.352 N 
HETATM    8  O10 UNL     1     -31.737   7.368   2.640  1.00 20.00    -0.274 OA
HETATM    9  H25 UNL     1     -33.250   5.350   1.705  1.00 20.00     0.163 HD
ENDROOT
BRANCH   3  10
HETATM   10  C8  UNL     1     -34.711   5.671   6.108  1.00 20.00     0.003 C 
HETATM   11  C7  UNL     1     -35.381   4.371   6.418  1.00 20.00     0.005 C 
ENDBRANCH   3  10
TORSDOF 1
