REMARK  1 active torsions:
REMARK  status: ('A' for Active; 'I' for Inactive)
REMARK    1  A    between atoms: C4_4  and  C8_8 
ROOT
HETATM    1  C1  UNL     1     -36.336   5.247   3.491  1.00 20.00     0.218 C 
HETATM    2  C2  UNL     1     -35.232   6.193   3.078  1.00 20.00     0.114 C 
HETATM    3  C3  UNL     1     -34.457   4.733   4.821  1.00 20.00     0.088 C 
HETATM    4  C4  UNL     1     -34.258   6.166   4.278  1.00 20.00    -0.016 C 
HETATM    5  C5  UNL     1     -34.136   4.511   6.290  1.00 20.00     0.033 C 
HETATM    6  C6  UNL     1     -34.647   7.264   5.285  1.00 20.00     0.018 C 
HETATM    7  N9  UNL     1     -35.840   4.454   4.518  1.00 20.00    -0.356 N 
HETATM    8  O10 UNL     1     -37.440   5.182   2.974  1.00 20.00    -0.274 OA
HETATM    9  H25 UNL     1     -36.392   3.754   5.004  1.00 20.00     0.162 HD
ENDROOT
BRANCH   4  10
HETATM   10  C8  UNL     1     -32.815   6.395   3.819  1.00 20.00     0.007 C 
HETATM   11  C7  UNL     1     -32.660   7.715   3.141  1.00 20.00     0.006 C 
ENDBRANCH   4  10
TORSDOF 1
