REMARK  0 active torsions:
REMARK  status: ('A' for Active; 'I' for Inactive)
ROOT
HETATM    1  C1  UNL     1     -33.929   7.309   5.017  1.00 20.00     0.010 A 
HETATM    2  C2  UNL     1     -33.361   7.984   3.934  1.00 20.00     0.019 A 
HETATM    3  C3  UNL     1     -33.307   5.933   2.625  1.00 20.00     0.026 A 
HETATM    4  C4  UNL     1     -34.184   5.953   4.887  1.00 20.00    -0.033 A 
HETATM    5  C5  UNL     1     -33.881   5.274   3.699  1.00 20.00    -0.049 A 
HETATM    6  C6  UNL     1     -33.051   7.300   2.748  1.00 20.00     0.011 A 
HETATM    7  C7  UNL     1     -34.216   3.820   3.815  1.00 20.00     0.041 C 
HETATM    8  C8  UNL     1     -35.178   3.835   5.015  1.00 20.00     0.030 C 
HETATM    9  C9  UNL     1     -34.757   5.017   5.906  1.00 20.00     0.116 C 
HETATM   10 CL10 UNL     1     -33.505   4.538   7.071  1.00 20.00    -0.120 Cl
HETATM   11 BR11 UNL     1     -32.273   8.241   1.303  1.00 20.00    -0.051 Br
ENDROOT
TORSDOF 0
