REMARK  1 active torsions:
REMARK  status: ('A' for Active; 'I' for Inactive)
REMARK    1  A    between atoms: C2_2  and  C8_8 
ROOT
HETATM    1  C1  UNL     1     -35.284   5.402   3.470  1.00 20.00     0.284 C 
HETATM    2  C2  UNL     1     -32.918   6.058   3.842  1.00 20.00     0.233 C 
HETATM    3  C3  UNL     1     -35.461   5.094   4.956  1.00 20.00     0.071 C 
HETATM    4  C4  UNL     1     -33.519   7.128   4.779  1.00 20.00     0.076 C 
HETATM    5  C5  UNL     1     -34.967   3.702   5.347  1.00 20.00     0.023 C 
HETATM    6  C6  UNL     1     -32.467   7.897   5.581  1.00 20.00     0.023 C 
HETATM    7  N9  UNL     1     -33.906   5.379   2.989  1.00 20.00     0.090 N 
HETATM    8  S10 UNL     1     -34.657   6.358   6.002  1.00 20.00    -0.156 SA
HETATM    9  H27 UNL     1     -33.622   4.392   2.867  1.00 20.00     0.316 HD
ENDROOT
BRANCH   2  10
HETATM   10  C8  UNL     1     -31.828   6.626   2.922  1.00 20.00     0.032 C 
HETATM   11  C7  UNL     1     -32.370   7.688   2.027  1.00 20.00     0.007 C 
ENDBRANCH   2  10
TORSDOF 1
