REMARK  0 active torsions:
REMARK  status: ('A' for Active; 'I' for Inactive)
ROOT
HETATM    1  C1  UNL     1     -33.248   5.758   3.270  1.00 20.00     0.080 C 
HETATM    2  C2  UNL     1     -33.912   6.494   6.241  1.00 20.00     0.013 C 
HETATM    3  C3  UNL     1     -34.716   6.795   4.981  1.00 20.00     0.036 C 
HETATM    4  C4  UNL     1     -34.288   5.085   6.662  1.00 20.00     0.076 C 
HETATM    5  C5  UNL     1     -34.511   5.620   4.016  1.00 20.00     0.093 C 
HETATM    6  C6  UNL     1     -35.680   5.486   3.042  1.00 20.00     0.043 C 
HETATM    7  N7  UNL     1     -32.253   5.867   2.683  1.00 20.00    -0.196 NA
HETATM    8  S8  UNL     1     -34.439   4.152   5.113  1.00 20.00    -0.144 SA
ENDROOT
TORSDOF 0
