REMARK  2 active torsions:
REMARK  status: ('A' for Active; 'I' for Inactive)
REMARK    1  A    between atoms: C3_3  and  C7_7 
REMARK    2  A    between atoms: C7_7  and  C8_8 
ROOT
HETATM    1  C1  UNL     1     -32.343   7.524   1.705  1.00 20.00     0.012 C 
HETATM    2  C2  UNL     1     -32.459   7.159   2.843  1.00 20.00    -0.116 C 
HETATM    3  C8  UNL     1     -32.592   6.717   4.234  1.00 20.00     0.113 C 
ENDROOT
BRANCH   3   4
HETATM    4  C7  UNL     1     -33.991   6.093   4.492  1.00 20.00     0.058 C 
HETATM    5  C5  UNL     1     -34.442   5.017   3.454  1.00 20.00     0.021 C 
HETATM    6  C4  UNL     1     -35.843   5.654   3.455  1.00 20.00     0.003 C 
HETATM    7  C6  UNL     1     -35.202   6.944   3.994  1.00 20.00     0.021 C 
BRANCH   4   8
HETATM    8  C3  UNL     1     -34.127   5.631   5.945  1.00 20.00     0.182 C 
HETATM    9  O9  UNL     1     -33.771   6.475   6.814  1.00 20.00    -0.647 OA
HETATM   10  O10 UNL     1     -34.579   4.461   6.090  1.00 20.00    -0.647 OA
ENDBRANCH   4   8
ENDBRANCH   3   4
TORSDOF 2
