REMARK  1 active torsions:
REMARK  status: ('A' for Active; 'I' for Inactive)
REMARK    1  A    between atoms: C2_2  and  C6_6 
ROOT
HETATM    1  C1  UNL     1     -33.696   6.970   5.107  1.00 20.00     0.111 C 
HETATM    2  C2  UNL     1     -33.543   5.849   4.081  1.00 20.00     0.231 C 
HETATM    3  C3  UNL     1     -35.312   4.900   5.347  1.00 20.00     0.278 C 
HETATM    4  C4  UNL     1     -34.829   3.542   5.845  1.00 20.00     0.054 C 
HETATM    5  N7  UNL     1     -34.841   5.156   3.978  1.00 20.00     0.102 N 
HETATM    6  S8  UNL     1     -34.688   6.227   6.421  1.00 20.00    -0.132 SA
HETATM    7  H21 UNL     1     -35.504   5.790   3.530  1.00 20.00     0.317 HD
ENDROOT
BRANCH   2   8
HETATM    8  C6  UNL     1     -33.123   6.391   2.719  1.00 20.00     0.032 C 
HETATM    9  C5  UNL     1     -31.802   7.087   2.783  1.00 20.00     0.007 C 
ENDBRANCH   2   8
TORSDOF 1
