REMARK  2 active torsions:
REMARK  status: ('A' for Active; 'I' for Inactive)
REMARK    1  A    between atoms: C3_3  and  C6_6 
REMARK    2  A    between atoms: C6_6  and  C7_7 
ROOT
HETATM    1  C1  UNL     1     -34.526   5.234   3.428  1.00 20.00     0.285 C 
HETATM    2  C2  UNL     1     -33.852   5.059   4.788  1.00 20.00     0.073 C 
HETATM    3  C3  UNL     1     -33.191   7.172   3.352  1.00 20.00     0.282 C 
HETATM    4  C4  UNL     1     -34.827   4.659   5.881  1.00 20.00     0.023 C 
HETATM    5  N8  UNL     1     -33.596   5.990   2.587  1.00 20.00     0.098 N 
HETATM    6  S9  UNL     1     -33.115   6.688   5.106  1.00 20.00    -0.128 SA
HETATM    7  H24 UNL     1     -32.775   5.409   2.413  1.00 20.00     0.317 HD
ENDROOT
BRANCH   3   8
HETATM    8  C6  UNL     1     -31.842   7.679   2.868  1.00 20.00     0.046 C 
BRANCH   8   9
HETATM    9  C7  UNL     1     -31.894   8.087   1.398  1.00 20.00    -0.002 C 
HETATM   10  C5  UNL     1     -32.927   9.177   1.159  1.00 20.00     0.005 C 
ENDBRANCH   8   9
ENDBRANCH   3   8
TORSDOF 2
