REMARK  3 active torsions:
REMARK  status: ('A' for Active; 'I' for Inactive)
REMARK    1  A    between atoms: C3_3  and  C6_6 
REMARK    2  A    between atoms: C6_6  and  C8_8 
REMARK    3  A    between atoms: C7_7  and  C8_8 
ROOT
HETATM    1  C1  UNL     1     -35.400   4.749   4.214  1.00 20.00     0.111 C 
HETATM    2  C2  UNL     1     -34.282   4.896   5.244  1.00 20.00     0.227 C 
HETATM    3  C3  UNL     1     -33.888   6.901   4.036  1.00 20.00     0.282 C 
HETATM    4  C4  UNL     1     -34.679   4.297   6.589  1.00 20.00     0.043 C 
HETATM    5  N9  UNL     1     -33.996   6.336   5.389  1.00 20.00     0.102 N 
HETATM    6  S10 UNL     1     -34.979   5.952   2.934  1.00 20.00    -0.132 SA
HETATM    7  H27 UNL     1     -34.794   6.773   5.852  1.00 20.00     0.317 HD
ENDROOT
BRANCH   3   8
HETATM    8  C6  UNL     1     -32.448   6.847   3.536  1.00 20.00     0.046 C 
BRANCH   8   9
HETATM    9  C8  UNL     1     -32.328   7.424   2.127  1.00 20.00     0.002 C 
BRANCH   9  10
HETATM   10  C7  UNL     1     -32.748   8.893   2.094  1.00 20.00    -0.004 C 
HETATM   11  C5  UNL     1     -32.599   9.483   0.701  1.00 20.00     0.005 C 
ENDBRANCH   9  10
ENDBRANCH   8   9
ENDBRANCH   3   8
TORSDOF 3
