REMARK  3 active torsions:
REMARK  status: ('A' for Active; 'I' for Inactive)
REMARK    1  A    between atoms: C4_4  and  C7_7 
REMARK    2  A    between atoms: C7_7  and  O10_10 
REMARK    3  A    between atoms: C8_8  and  O10_10 
ROOT
HETATM    1  C1  UNL     1     -32.485   8.463   2.167  1.00 20.00     0.071 C 
HETATM    2  C2  UNL     1     -31.262   6.481   3.131  1.00 20.00     0.028 A 
HETATM    3  C3  UNL     1     -31.277   7.551   4.182  1.00 20.00     0.028 A 
HETATM    4  C4  UNL     1     -32.416   7.455   3.193  1.00 20.00     0.070 A 
HETATM    5  N9  UNL     1     -32.540   9.275   1.339  1.00 20.00    -0.196 NA
ENDROOT
BRANCH   4   6
HETATM    6  C7  UNL     1     -33.742   6.951   3.688  1.00 20.00     0.192 C 
BRANCH   6   7
HETATM    7  O10 UNL     1     -33.529   5.958   4.685  1.00 20.00    -0.385 OA
BRANCH   7   8
HETATM    8  C8  UNL     1     -34.758   5.450   5.184  1.00 20.00     0.113 C 
HETATM    9  C5  UNL     1     -35.308   4.421   4.207  1.00 20.00     0.039 C 
HETATM   10  C6  UNL     1     -34.530   4.855   6.565  1.00 20.00     0.039 C 
ENDBRANCH   7   8
ENDBRANCH   6   7
ENDBRANCH   4   6
TORSDOF 3
