REMARK  2 active torsions:
REMARK  status: ('A' for Active; 'I' for Inactive)
REMARK    1  A    between atoms: C3_3  and  C7_7 
REMARK    2  A    between atoms: C7_7  and  C8_8 
ROOT
HETATM    1  C1  UNL     1     -34.862   4.271   4.292  1.00 20.00     0.111 C 
HETATM    2  C2  UNL     1     -34.244   5.074   5.434  1.00 20.00     0.227 C 
HETATM    3  C3  UNL     1     -33.997   6.694   3.718  1.00 20.00     0.282 C 
HETATM    4  C4  UNL     1     -34.908   4.749   6.768  1.00 20.00     0.043 C 
HETATM    5  N9  UNL     1     -34.411   6.505   5.116  1.00 20.00     0.102 N 
HETATM    6  S10 UNL     1     -34.356   5.164   2.805  1.00 20.00    -0.132 SA
HETATM    7  H27 UNL     1     -35.404   6.732   5.185  1.00 20.00     0.317 HD
ENDROOT
BRANCH   3   8
HETATM    8  C7  UNL     1     -32.512   7.031   3.629  1.00 20.00     0.050 C 
BRANCH   8   9
HETATM    9  C8  UNL     1     -32.113   7.698   2.303  1.00 20.00    -0.020 C 
HETATM   10  C5  UNL     1     -32.412   6.813   1.092  1.00 20.00     0.009 C 
HETATM   11  C6  UNL     1     -32.842   9.036   2.157  1.00 20.00     0.009 C 
ENDBRANCH   8   9
ENDBRANCH   3   8
TORSDOF 2
