REMARK  0 active torsions:
REMARK  status: ('A' for Active; 'I' for Inactive)
ROOT
HETATM    1  C1  UNL     1     -32.680   7.099   2.751  1.00 20.00     0.125 C 
HETATM    2  C2  UNL     1     -33.410   5.745   4.783  1.00 20.00     0.074 A 
HETATM    3  C3  UNL     1     -34.947   4.585   3.656  1.00 20.00     0.167 A 
HETATM    4  C4  UNL     1     -33.430   6.138   3.465  1.00 20.00     0.156 A 
HETATM    5  C5  UNL     1     -34.395   4.736   4.907  1.00 20.00     0.059 A 
HETATM    6  N6  UNL     1     -32.063   7.889   2.165  1.00 20.00    -0.189 NA
HETATM    7  O7  UNL     1     -34.364   5.436   2.771  1.00 20.00    -0.310 OA
HETATM    8 CL8  UNL     1     -34.791   3.903   6.327  1.00 20.00    -0.082 Cl
ENDROOT
TORSDOF 0
