REMARK  1 active torsions:
REMARK  status: ('A' for Active; 'I' for Inactive)
REMARK    1  A    between atoms: C3_3  and  C7_7 
ROOT
HETATM    1  C1  UNL     1     -34.181   5.929   2.037  1.00 20.00     0.111 C 
HETATM    2  C2  UNL     1     -32.892   6.460   2.664  1.00 20.00     0.227 C 
HETATM    3  C3  UNL     1     -33.845   5.559   4.625  1.00 20.00     0.285 C 
HETATM    4  C4  UNL     1     -32.401   7.716   1.953  1.00 20.00     0.043 C 
HETATM    5  N8  UNL     1     -33.179   6.750   4.080  1.00 20.00     0.102 N 
HETATM    6  S9  UNL     1     -34.856   4.828   3.301  1.00 20.00    -0.131 SA
HETATM    7  H24 UNL     1     -32.318   6.944   4.589  1.00 20.00     0.317 HD
ENDROOT
BRANCH   3   8
HETATM    8  C7  UNL     1     -34.707   5.915   5.828  1.00 20.00     0.021 C 
HETATM    9  C5  UNL     1     -35.426   4.677   6.366  1.00 20.00     0.012 C 
HETATM   10  C6  UNL     1     -33.864   6.560   6.929  1.00 20.00     0.012 C 
ENDBRANCH   3   8
TORSDOF 1
