REMARK  1 active torsions:
REMARK  status: ('A' for Active; 'I' for Inactive)
REMARK    1  A    between atoms: C2_2  and  C6_6 
ROOT
HETATM    1  C1  UNL     1     -34.593   4.624   3.689  1.00 20.00     0.111 C 
HETATM    2  C2  UNL     1     -34.718   5.727   4.739  1.00 20.00     0.231 C 
HETATM    3  C3  UNL     1     -33.196   6.826   3.310  1.00 20.00     0.278 C 
HETATM    4  C4  UNL     1     -31.712   7.067   3.075  1.00 20.00     0.054 C 
HETATM    5  N7  UNL     1     -33.464   6.499   4.718  1.00 20.00     0.102 N 
HETATM    6  S8  UNL     1     -33.795   5.444   2.290  1.00 20.00    -0.132 SA
HETATM    7  H21 UNL     1     -33.553   7.348   5.273  1.00 20.00     0.317 HD
ENDROOT
BRANCH   2   8
HETATM    8  C6  UNL     1     -34.965   5.151   6.128  1.00 20.00     0.032 C 
HETATM    9  C5  UNL     1     -33.864   4.233   6.553  1.00 20.00     0.007 C 
ENDBRANCH   2   8
TORSDOF 1
