REMARK  0 active torsions:
REMARK  status: ('A' for Active; 'I' for Inactive)
ROOT
HETATM    1  C1  UNL     1     -34.844   5.154   2.963  1.00 20.00     0.019 A 
HETATM    2  C2  UNL     1     -33.690   6.011   3.008  1.00 20.00     0.031 A 
HETATM    3  C3  UNL     1     -35.395   4.723   4.102  1.00 20.00     0.094 A 
HETATM    4  C4  UNL     1     -33.159   6.384   4.179  1.00 20.00     0.102 A 
HETATM    5  C5  UNL     1     -33.760   5.912   5.470  1.00 20.00     0.268 A 
HETATM    6  C6  UNL     1     -35.532   4.576   6.543  1.00 20.00     0.159 C 
HETATM    7  N7  UNL     1     -34.883   5.080   5.338  1.00 20.00    -0.328 N 
HETATM    8  O8  UNL     1     -33.268   6.258   6.543  1.00 20.00    -0.266 OA
HETATM    9 CL9  UNL     1     -31.779   7.408   4.257  1.00 20.00    -0.078 Cl
ENDROOT
TORSDOF 0
