REMARK  1 active torsions:
REMARK  status: ('A' for Active; 'I' for Inactive)
REMARK    1  A    between atoms: C4_4  and  C7_7 
ROOT
HETATM    1  C1  UNL     1     -34.838   4.609   4.760  1.00 20.00     0.109 C 
HETATM    2  C2  UNL     1     -33.854   5.900   2.552  1.00 20.00     0.109 C 
HETATM    3  C3  UNL     1     -34.332   5.840   5.519  1.00 20.00     0.226 C 
HETATM    4  C4  UNL     1     -33.455   6.990   3.553  1.00 20.00     0.230 C 
HETATM    5  C5  UNL     1     -33.945   5.446   6.946  1.00 20.00     0.043 C 
HETATM    6  N8  UNL     1     -33.156   6.444   4.882  1.00 20.00     0.093 N 
HETATM    7  S9  UNL     1     -35.362   5.034   3.074  1.00 20.00    -0.165 SA
HETATM    8  H24 UNL     1     -32.796   7.189   5.479  1.00 20.00     0.316 HD
ENDROOT
BRANCH   4   9
HETATM    9  C7  UNL     1     -32.208   7.722   3.052  1.00 20.00     0.032 C 
HETATM   10  C6  UNL     1     -32.442   8.355   1.721  1.00 20.00     0.007 C 
ENDBRANCH   4   9
TORSDOF 1
