REMARK  3 active torsions:
REMARK  status: ('A' for Active; 'I' for Inactive)
REMARK    1  A    between atoms: C3_3  and  C6_6 
REMARK    2  A    between atoms: C6_6  and  C8_8 
REMARK    3  A    between atoms: C7_7  and  C8_8 
ROOT
HETATM    1  C1  UNL     1     -35.980   5.187   4.264  1.00 20.00     0.285 C 
HETATM    2  C2  UNL     1     -35.224   5.319   5.588  1.00 20.00     0.073 C 
HETATM    3  C3  UNL     1     -34.106   6.332   3.411  1.00 20.00     0.282 C 
HETATM    4  C4  UNL     1     -34.557   4.020   6.028  1.00 20.00     0.023 C 
HETATM    5  N9  UNL     1     -34.992   5.188   3.183  1.00 20.00     0.098 N 
HETATM    6  S10 UNL     1     -33.958   6.568   5.213  1.00 20.00    -0.128 SA
HETATM    7  H27 UNL     1     -34.451   4.326   3.233  1.00 20.00     0.317 HD
ENDROOT
BRANCH   3   8
HETATM    8  C6  UNL     1     -32.744   6.077   2.784  1.00 20.00     0.046 C 
BRANCH   8   9
HETATM    9  C8  UNL     1     -31.791   7.246   3.026  1.00 20.00     0.002 C 
BRANCH   9  10
HETATM   10  C7  UNL     1     -32.354   8.548   2.457  1.00 20.00    -0.004 C 
HETATM   11  C5  UNL     1     -32.551   8.458   0.952  1.00 20.00     0.005 C 
ENDBRANCH   9  10
ENDBRANCH   8   9
ENDBRANCH   3   8
TORSDOF 3
