REMARK  1 active torsions:
REMARK  status: ('A' for Active; 'I' for Inactive)
REMARK    1  A    between atoms: C4_4  and  C5_5 
ROOT
HETATM    1  C3  UNL     1     -34.120   5.910   6.445  1.00 20.00     0.116 C 
HETATM    2  C5  UNL     1     -32.817   6.437   4.226  1.00 20.00     0.286 C 
HETATM    3  C6  UNL     1     -34.473   5.000   5.260  1.00 20.00     0.160 C 
HETATM    4  C7  UNL     1     -34.564   3.541   5.734  1.00 20.00     0.049 C 
HETATM    5  C8  UNL     1     -35.819   5.384   4.621  1.00 20.00     0.049 C 
HETATM    6  N9  UNL     1     -33.365   5.082   4.294  1.00 20.00     0.107 N 
HETATM    7  S10 UNL     1     -33.314   7.349   5.708  1.00 20.00    -0.131 SA
HETATM    8  H25 UNL     1     -33.736   4.835   3.366  1.00 20.00     0.318 HD
ENDROOT
BRANCH   2   9
HETATM    9  C4  UNL     1     -33.232   7.173   2.988  1.00 20.00     0.029 A 
HETATM   10  C1  UNL     1     -32.449   8.367   2.518  1.00 20.00     0.008 A 
HETATM   11  C2  UNL     1     -32.400   7.082   1.739  1.00 20.00     0.008 A 
ENDBRANCH   2   9
TORSDOF 1
