REMARK  1 active torsions:
REMARK  status: ('A' for Active; 'I' for Inactive)
REMARK    1  A    between atoms: C3_3  and  C7_7 
ROOT
HETATM    1  C1  UNL     1     -34.285   6.415   5.872  1.00 20.00     0.284 C 
HETATM    2  C2  UNL     1     -34.637   5.501   3.044  1.00 20.00     0.109 C 
HETATM    3  C3  UNL     1     -33.769   6.674   3.510  1.00 20.00     0.229 C 
HETATM    4  C4  UNL     1     -35.231   5.216   5.734  1.00 20.00     0.071 C 
HETATM    5  C5  UNL     1     -34.526   3.876   5.939  1.00 20.00     0.023 C 
HETATM    6  N8  UNL     1     -33.230   6.462   4.859  1.00 20.00     0.089 N 
HETATM    7  S9  UNL     1     -36.083   5.253   4.118  1.00 20.00    -0.161 SA
HETATM    8  H24 UNL     1     -32.590   7.222   5.088  1.00 20.00     0.316 HD
ENDROOT
BRANCH   3   9
HETATM    9  C7  UNL     1     -32.592   6.856   2.547  1.00 20.00     0.032 C 
HETATM   10  C6  UNL     1     -31.727   8.003   2.950  1.00 20.00     0.007 C 
ENDBRANCH   3   9
TORSDOF 1
