REMARK  1 active torsions:
REMARK  status: ('A' for Active; 'I' for Inactive)
REMARK    1  A    between atoms: C3_3  and  C7_7 
ROOT
HETATM    1  C1  UNL     1     -32.970   6.244   1.696  1.00 20.00    -0.011 C 
HETATM    2  C2  UNL     1     -32.367   7.373   2.098  1.00 20.00    -0.015 C 
HETATM    3  C4  UNL     1     -33.645   5.292   2.640  1.00 20.00     0.040 C 
HETATM    4  C5  UNL     1     -32.336   7.818   3.535  1.00 20.00     0.047 C 
HETATM    5  C6  UNL     1     -33.337   7.061   4.414  1.00 20.00     0.017 C 
HETATM    6  C7  UNL     1     -33.312   5.563   4.112  1.00 20.00     0.058 C 
HETATM    7 BR10 UNL     1     -31.513   8.519   0.893  1.00 20.00    -0.056 Br
ENDROOT
BRANCH   6   8
HETATM    8  C3  UNL     1     -34.293   4.845   4.986  1.00 20.00     0.127 C 
HETATM    9  C8  UNL     1     -34.091   4.966   6.472  1.00 20.00     0.091 C 
HETATM   10  O9  UNL     1     -35.220   4.190   4.513  1.00 20.00    -0.298 OA
ENDBRANCH   6   8
TORSDOF 1
