REMARK  3 active torsions:
REMARK  status: ('A' for Active; 'I' for Inactive)
REMARK    1  A    between atoms: C1_1  and  C6_6 
REMARK    2  A    between atoms: C1_1  and  O9_9 
REMARK    3  A    between atoms: C7_7  and  O9_9 
ROOT
HETATM    1  C1  UNL     1     -32.996   6.406   3.280  1.00 20.00     0.274 C 
HETATM    2  O8  UNL     1     -33.089   5.471   2.494  1.00 20.00    -0.264 OA
ENDROOT
BRANCH   1   3
HETATM    3  C6  UNL     1     -32.092   7.612   3.091  1.00 20.00     0.154 C 
HETATM    4  C2  UNL     1     -32.806   8.682   2.266  1.00 20.00     0.033 C 
HETATM    5  S10 UNL     1     -31.684   8.283   4.739  1.00 20.00    -0.082 SA
ENDBRANCH   1   3
BRANCH   1   6
HETATM    6  O9  UNL     1     -33.682   6.522   4.459  1.00 20.00    -0.310 OA
BRANCH   6   7
HETATM    7  C7  UNL     1     -34.569   5.446   4.766  1.00 20.00     0.060 C 
HETATM    8  C3  UNL     1     -33.757   4.155   4.852  1.00 20.00     0.045 C 
HETATM    9  C4  UNL     1     -35.224   5.759   6.110  1.00 20.00     0.045 C 
HETATM   10  C5  UNL     1     -35.623   5.355   3.664  1.00 20.00     0.045 C 
ENDBRANCH   6   7
ENDBRANCH   1   6
TORSDOF 3
