REMARK  1 active torsions:
REMARK  status: ('A' for Active; 'I' for Inactive)
REMARK    1  A    between atoms: C2_2  and  O8_8 
ROOT
HETATM    1  C1  UNL     1     -34.109   5.799   3.244  1.00 20.00     0.053 C 
HETATM    2  C2  UNL     1     -33.310   6.845   4.056  1.00 20.00     0.131 C 
HETATM    3  C3  UNL     1     -34.976   5.564   4.501  1.00 20.00     0.095 C 
HETATM    4  C4  UNL     1     -33.770   6.093   5.353  1.00 20.00    -0.005 C 
HETATM    5  C5  UNL     1     -32.789   5.034   5.863  1.00 20.00     0.019 C 
HETATM    6  C6  UNL     1     -34.191   7.031   6.483  1.00 20.00     0.019 C 
HETATM    7 CL9  UNL     1     -35.649   3.926   4.779  1.00 20.00    -0.124 Cl
ENDROOT
BRANCH   2   8
HETATM    8  O8  UNL     1     -31.894   6.898   3.809  1.00 20.00    -0.390 OA
HETATM    9  C7  UNL     1     -31.615   7.628   2.629  1.00 20.00     0.202 C 
ENDBRANCH   2   8
TORSDOF 1
