REMARK  3 active torsions:
REMARK  status: ('A' for Active; 'I' for Inactive)
REMARK    1  A    between atoms: C2_2  and  O10_10 
REMARK    2  A    between atoms: C7_7  and  C8_8 
REMARK    3  A    between atoms: C8_8  and  O10_10 
ROOT
HETATM    1  C3  UNL     1     -34.167   5.522   6.196  1.00 20.00     0.005 C 
HETATM    2  C4  UNL     1     -35.165   4.382   6.043  1.00 20.00     0.026 C 
HETATM    3  C5  UNL     1     -34.428   6.600   5.149  1.00 20.00     0.034 C 
HETATM    4  C6  UNL     1     -35.195   3.877   4.608  1.00 20.00     0.168 C 
HETATM    5  C7  UNL     1     -34.533   6.021   3.736  1.00 20.00     0.145 C 
HETATM    6  O9  UNL     1     -35.465   4.936   3.691  1.00 20.00    -0.384 OA
ENDROOT
BRANCH   5   7
HETATM    7  C8  UNL     1     -33.182   5.621   3.146  1.00 20.00     0.206 C 
BRANCH   7   8
HETATM    8  O10 UNL     1     -32.358   6.772   3.078  1.00 20.00    -0.361 OA
BRANCH   8   9
HETATM    9  C2  UNL     1     -32.589   7.572   2.043  1.00 20.00     0.124 C 
HETATM   10  C1  UNL     1     -32.400   8.894   2.041  1.00 20.00     0.037 C 
ENDBRANCH   8   9
ENDBRANCH   7   8
ENDBRANCH   5   7
TORSDOF 3
