REMARK  2 active torsions:
REMARK  status: ('A' for Active; 'I' for Inactive)
REMARK    1  A    between atoms: C2_2  and  O10_10 
REMARK    2  A    between atoms: C9_9  and  O10_10 
ROOT
HETATM    1  C1  UNL     1     -33.046   6.831   5.375  1.00 20.00     0.053 C 
HETATM    2  C2  UNL     1     -33.787   7.039   4.035  1.00 20.00     0.132 C 
HETATM    3  C3  UNL     1     -34.077   5.732   5.714  1.00 20.00     0.095 C 
HETATM    4  C4  UNL     1     -34.314   5.568   4.172  1.00 20.00    -0.005 C 
HETATM    5  C5  UNL     1     -35.786   5.412   3.796  1.00 20.00     0.019 C 
HETATM    6  C6  UNL     1     -33.457   4.512   3.468  1.00 20.00     0.019 C 
HETATM    7 CL11 UNL     1     -33.547   4.343   6.714  1.00 20.00    -0.124 Cl
ENDROOT
BRANCH   2   8
HETATM    8  O10 UNL     1     -32.962   7.332   2.894  1.00 20.00    -0.381 OA
BRANCH   8   9
HETATM    9  C9  UNL     1     -32.358   8.605   3.022  1.00 20.00     0.114 C 
HETATM   10  C7  UNL     1     -30.846   8.443   3.038  1.00 20.00     0.039 C 
HETATM   11  C8  UNL     1     -32.820   9.495   1.878  1.00 20.00     0.039 C 
ENDBRANCH   8   9
ENDBRANCH   2   8
TORSDOF 2
