REMARK  4 active torsions:
REMARK  status: ('A' for Active; 'I' for Inactive)
REMARK    1  A    between atoms: C2_2  and  C6_6 
REMARK    2  A    between atoms: C6_6  and  S10_10 
REMARK    3  A    between atoms: C7_7  and  C8_8 
REMARK    4  A    between atoms: C7_7  and  S10_10 
ROOT
HETATM    1  C6  UNL     1     -33.103   6.239   4.230  1.00 20.00     0.113 C 
ENDROOT
BRANCH   1   2
HETATM    2  C2  UNL     1     -34.309   5.575   4.868  1.00 20.00     0.087 A 
HETATM    3  C1  UNL     1     -34.163   4.897   6.209  1.00 20.00     0.207 A 
HETATM    4  O9  UNL     1     -34.741   6.205   6.082  1.00 20.00    -0.375 OA
HETATM    5  C3  UNL     1     -35.430   5.182   3.961  1.00 20.00     0.049 C 
ENDBRANCH   1   2
BRANCH   1   6
HETATM    6  S10 UNL     1     -33.624   7.447   2.993  1.00 20.00    -0.166 SA
BRANCH   6   7
HETATM    7  C7  UNL     1     -31.974   8.010   2.469  1.00 20.00     0.077 C 
BRANCH   7   8
HETATM    8  C8  UNL     1     -31.964   9.135   1.420  1.00 20.00    -0.013 C 
HETATM    9  C4  UNL     1     -32.666   8.738   0.119  1.00 20.00     0.010 C 
HETATM   10  C5  UNL     1     -32.533  10.450   1.957  1.00 20.00     0.010 C 
ENDBRANCH   7   8
ENDBRANCH   6   7
ENDBRANCH   1   6
TORSDOF 4
