REMARK  1 active torsions:
REMARK  status: ('A' for Active; 'I' for Inactive)
REMARK    1  A    between atoms: C2_2  and  O8_8 
ROOT
HETATM    1  C1  UNL     1     -33.643   6.673   5.298  1.00 20.00     0.049 C 
HETATM    2  C2  UNL     1     -33.717   5.228   4.750  1.00 20.00     0.131 C 
HETATM    3  C3  UNL     1     -33.897   7.180   3.862  1.00 20.00     0.070 C 
HETATM    4  C4  UNL     1     -33.349   5.807   3.340  1.00 20.00    -0.008 C 
HETATM    5  C5  UNL     1     -31.847   5.689   3.052  1.00 20.00     0.018 C 
HETATM    6  C6  UNL     1     -34.160   5.251   2.169  1.00 20.00     0.018 C 
HETATM    7 BR9  UNL     1     -32.966   8.794   3.354  1.00 20.00    -0.090 Br
ENDROOT
BRANCH   2   8
HETATM    8  O8  UNL     1     -35.006   4.591   4.873  1.00 20.00    -0.390 OA
HETATM    9  C7  UNL     1     -35.198   4.098   6.184  1.00 20.00     0.202 C 
ENDBRANCH   2   8
TORSDOF 1
