REMARK  1 active torsions:
REMARK  status: ('A' for Active; 'I' for Inactive)
REMARK    1  A    between atoms: C6_6  and  O10_10 
ROOT
HETATM    1  C1  UNL     1     -33.914   6.168   6.872  1.00 20.00     0.001 C 
HETATM    2  C2  UNL     1     -34.256   4.720   6.563  1.00 20.00     0.001 C 
HETATM    3  C3  UNL     1     -34.627   6.954   5.775  1.00 20.00     0.013 C 
HETATM    4  C4  UNL     1     -34.090   4.660   5.050  1.00 20.00     0.013 C 
HETATM    5  C5  UNL     1     -35.328   5.840   2.523  1.00 20.00     0.053 C 
HETATM    6  C6  UNL     1     -34.147   6.569   3.205  1.00 20.00     0.132 C 
HETATM    7  C7  UNL     1     -36.085   5.960   3.863  1.00 20.00     0.095 C 
HETATM    8  C8  UNL     1     -34.678   5.998   4.570  1.00 20.00     0.003 C 
HETATM    9 CL11 UNL     1     -37.302   4.711   4.277  1.00 20.00    -0.124 Cl
ENDROOT
BRANCH   6  10
HETATM   10  O10 UNL     1     -32.823   6.192   2.787  1.00 20.00    -0.390 OA
HETATM   11  C9  UNL     1     -31.843   6.934   3.488  1.00 20.00     0.202 C 
ENDBRANCH   6  10
TORSDOF 1
