REMARK  3 active torsions:
REMARK  status: ('A' for Active; 'I' for Inactive)
REMARK    1  A    between atoms: C2_2  and  O6_6 
REMARK    2  A    between atoms: C4_4  and  C5_5 
REMARK    3  A    between atoms: C4_4  and  O6_6 
ROOT
HETATM    1  C3  UNL     1     -34.016   5.283   2.310  1.00 20.00     0.049 C 
HETATM    2  C4  UNL     1     -33.378   5.985   3.470  1.00 20.00     0.231 C 
ENDROOT
BRANCH   2   3
HETATM    3  C5  UNL     1     -34.158   5.792   4.753  1.00 20.00     0.413 C 
HETATM    4  F7  UNL     1     -33.582   6.469   5.772  1.00 20.00    -0.168 F 
HETATM    5  F8  UNL     1     -35.422   6.251   4.628  1.00 20.00    -0.168 F 
HETATM    6  F9  UNL     1     -34.223   4.491   5.109  1.00 20.00    -0.168 F 
ENDBRANCH   2   3
BRANCH   2   7
HETATM    7  O6  UNL     1     -33.307   7.383   3.201  1.00 20.00    -0.350 OA
BRANCH   7   8
HETATM    8  C2  UNL     1     -32.313   7.749   2.405  1.00 20.00     0.125 C 
HETATM    9  C1  UNL     1     -32.341   8.796   1.577  1.00 20.00     0.037 C 
ENDBRANCH   7   8
ENDBRANCH   2   7
TORSDOF 3
