REMARK  3 active torsions:
REMARK  status: ('A' for Active; 'I' for Inactive)
REMARK    1  A    between atoms: C4_4  and  O11_11 
REMARK    2  A    between atoms: C8_8  and  C10_10 
REMARK    3  A    between atoms: C10_10  and  O11_11 
ROOT
HETATM    1  C1  UNL     1     -34.479   5.982   6.612  1.00 20.00    -0.030 C 
HETATM    2  C2  UNL     1     -33.470   6.860   6.665  1.00 20.00    -0.030 C 
HETATM    3  C5  UNL     1     -34.917   5.317   5.343  1.00 20.00     0.031 C 
HETATM    4  C6  UNL     1     -32.656   7.245   5.467  1.00 20.00     0.034 C 
HETATM    5  C7  UNL     1     -34.348   5.977   4.069  1.00 20.00    -0.009 C 
HETATM    6  C8  UNL     1     -32.847   6.301   4.261  1.00 20.00     0.017 C 
HETATM    7  C9  UNL     1     -34.623   5.077   2.862  1.00 20.00     0.011 C 
ENDROOT
BRANCH   6   8
HETATM    8  C10 UNL     1     -32.200   6.922   3.021  1.00 20.00     0.179 C 
BRANCH   8   9
HETATM    9  O11 UNL     1     -32.832   8.160   2.761  1.00 20.00    -0.363 OA
BRANCH   9  10
HETATM   10  C4  UNL     1     -32.376   8.819   1.699  1.00 20.00     0.124 C 
HETATM   11  C3  UNL     1     -32.831  10.001   1.279  1.00 20.00     0.037 C 
ENDBRANCH   9  10
ENDBRANCH   8   9
ENDBRANCH   6   8
TORSDOF 3
