REMARK  2 active torsions:
REMARK  status: ('A' for Active; 'I' for Inactive)
REMARK    1  A    between atoms: C3_3  and  O11_11 
REMARK    2  A    between atoms: C9_9  and  O11_11 
ROOT
HETATM    1  C1  UNL     1     -31.959   5.727   3.690  1.00 20.00     0.069 C 
HETATM    2  C2  UNL     1     -33.289   5.971   4.435  1.00 20.00     0.173 C 
HETATM    3  C3  UNL     1     -32.531   6.551   2.507  1.00 20.00     0.135 C 
HETATM    4  C4  UNL     1     -33.969   6.203   3.039  1.00 20.00     0.008 C 
HETATM    5  C5  UNL     1     -34.956   7.373   3.050  1.00 20.00     0.020 C 
HETATM    6  C6  UNL     1     -34.573   5.007   2.287  1.00 20.00     0.020 C 
HETATM    7  O10 UNL     1     -33.745   4.848   5.140  1.00 20.00    -0.234 OA
ENDROOT
BRANCH   3   8
HETATM    8  O11 UNL     1     -32.163   7.946   2.497  1.00 20.00    -0.380 OA
BRANCH   8   9
HETATM    9  C9  UNL     1     -32.275   8.483   1.195  1.00 20.00     0.114 C 
HETATM   10  C7  UNL     1     -32.653   9.954   1.291  1.00 20.00     0.039 C 
HETATM   11  C8  UNL     1     -30.961   8.283   0.455  1.00 20.00     0.039 C 
ENDBRANCH   8   9
ENDBRANCH   3   8
TORSDOF 2
