REMARK  2 active torsions:
REMARK  status: ('A' for Active; 'I' for Inactive)
REMARK    1  A    between atoms: C4_4  and  C9_9 
REMARK    2  A    between atoms: C5_5  and  C8_8 
ROOT
HETATM    1  C1  UNL     1     -34.436   5.649   3.685  1.00 20.00     0.032 C 
HETATM    2  C2  UNL     1     -33.123   7.766   4.031  1.00 20.00     0.038 C 
HETATM    3  C3  UNL     1     -33.794   5.477   2.307  1.00 20.00     0.168 C 
HETATM    4  C4  UNL     1     -33.501   6.401   4.630  1.00 20.00     0.008 C 
HETATM    5  C5  UNL     1     -33.203   7.771   2.499  1.00 20.00     0.121 C 
HETATM    6  O10 UNL     1     -32.835   6.489   1.993  1.00 20.00    -0.386 OA
ENDROOT
BRANCH   4   7
HETATM    7  C9  UNL     1     -34.111   6.556   6.020  1.00 20.00     0.082 C 
HETATM    8  C7  UNL     1     -34.367   5.205   6.664  1.00 20.00     0.027 C 
HETATM    9 CL11 UNL     1     -33.010   7.515   7.044  1.00 20.00    -0.125 Cl
ENDBRANCH   4   7
BRANCH   5  10
HETATM   10  C8  UNL     1     -32.271   8.814   1.897  1.00 20.00     0.027 C 
HETATM   11  C6  UNL     1     -32.317   8.804   0.403  1.00 20.00     0.007 C 
ENDBRANCH   5  10
TORSDOF 2
