REMARK  2 active torsions:
REMARK  status: ('A' for Active; 'I' for Inactive)
REMARK    1  A    between atoms: C5_5  and  S10_10 
REMARK    2  A    between atoms: C8_8  and  S10_10 
ROOT
HETATM    1  C1  UNL     1     -33.127   6.748   5.805  1.00 20.00     0.080 C 
HETATM    2  C2  UNL     1     -31.709   5.583   2.918  1.00 20.00     0.009 C 
HETATM    3  C3  UNL     1     -32.185   4.968   4.252  1.00 20.00     0.037 C 
HETATM    4  C4  UNL     1     -32.140   6.968   3.464  1.00 20.00     0.014 C 
HETATM    5  C5  UNL     1     -33.080   6.218   4.464  1.00 20.00     0.100 C 
HETATM    6  C6  UNL     1     -32.661   7.961   2.439  1.00 20.00     0.012 C 
HETATM    7  N9  UNL     1     -33.165   7.174   6.884  1.00 20.00    -0.196 NA
ENDROOT
BRANCH   5   8
HETATM    8  S10 UNL     1     -34.788   5.932   3.850  1.00 20.00    -0.144 SA
BRANCH   8   9
HETATM    9  C8  UNL     1     -35.490   5.285   5.381  1.00 20.00     0.071 C 
HETATM   10  C7  UNL     1     -34.756   4.030   5.814  1.00 20.00     0.016 C 
ENDBRANCH   8   9
ENDBRANCH   5   8
TORSDOF 2
