REMARK  1 active torsions:
REMARK  status: ('A' for Active; 'I' for Inactive)
REMARK    1  A    between atoms: C1_1  and  C7_7 
ROOT
HETATM    1  C2  UNL     1     -34.891   5.345   2.863  1.00 20.00     0.002 C 
HETATM    2  C3  UNL     1     -34.145   6.525   2.240  1.00 20.00     0.012 C 
HETATM    3  C4  UNL     1     -32.528   6.818   4.232  1.00 20.00     0.013 C 
HETATM    4  C5  UNL     1     -35.261   5.590   4.327  1.00 20.00     0.008 C 
HETATM    5  C6  UNL     1     -32.740   5.483   4.948  1.00 20.00     0.009 C 
HETATM    6  C7  UNL     1     -32.702   6.704   2.714  1.00 20.00     0.055 C 
HETATM    7  C8  UNL     1     -34.196   5.169   5.368  1.00 20.00    -0.048 C 
HETATM    8  C10 UNL     1     -34.302   3.650   5.628  1.00 20.00     0.015 C 
HETATM    9  C11 UNL     1     -34.516   5.891   6.696  1.00 20.00     0.015 C 
ENDROOT
BRANCH   6  10
HETATM   10  C1  UNL     1     -32.144   7.945   2.082  1.00 20.00     0.127 C 
HETATM   11  C9  UNL     1     -32.813   9.246   2.438  1.00 20.00     0.091 C 
HETATM   12  O12 UNL     1     -31.185   7.903   1.312  1.00 20.00    -0.298 OA
ENDBRANCH   6  10
TORSDOF 1
