REMARK  1 active torsions:
REMARK  status: ('A' for Active; 'I' for Inactive)
REMARK    1  A    between atoms: C9_9  and  N10_10 
ROOT
HETATM    1  C1  UNL     1     -32.241   8.703   0.608  1.00 20.00     0.013 C 
HETATM    2  C2  UNL     1     -32.062   8.370   1.747  1.00 20.00    -0.087 C 
HETATM    3  C9  UNL     1     -31.839   7.965   3.138  1.00 20.00     0.364 C 
ENDROOT
BRANCH   3   4
HETATM    4  N10 UNL     1     -33.049   7.393   3.707  1.00 20.00     0.100 N 
HETATM    5  C3  UNL     1     -33.510   6.206   2.978  1.00 20.00     0.278 C 
HETATM    6  C5  UNL     1     -34.326   5.403   4.003  1.00 20.00     0.015 C 
HETATM    7  C6  UNL     1     -34.153   6.174   5.323  1.00 20.00     0.015 C 
HETATM    8  C7  UNL     1     -35.790   5.258   3.609  1.00 20.00     0.012 C 
HETATM    9  C4  UNL     1     -32.873   6.968   5.095  1.00 20.00     0.278 C 
HETATM   10  C8  UNL     1     -34.080   5.273   6.546  1.00 20.00     0.012 C 
ENDBRANCH   3   4
TORSDOF 1
