REMARK  3 active torsions:
REMARK  status: ('A' for Active; 'I' for Inactive)
REMARK    1  A    between atoms: C4_4  and  C5_5 
REMARK    2  A    between atoms: C4_4  and  O7_7 
REMARK    3  A    between atoms: C5_5  and  C6_6 
ROOT
HETATM    1  C1  UNL     1     -35.333   5.685   3.552  1.00 20.00     0.014 C 
HETATM    2  C5  UNL     1     -33.971   5.328   4.112  1.00 20.00     0.023 C 
ENDROOT
BRANCH   2   3
HETATM    3  C4  UNL     1     -32.996   6.505   3.941  1.00 20.00     0.172 C 
BRANCH   3   4
HETATM    4  O7  UNL     1     -32.866   6.816   2.557  1.00 20.00    -0.396 OA
HETATM    5  C3  UNL     1     -31.936   7.869   2.347  1.00 20.00     0.201 C 
ENDBRANCH   3   4
ENDBRANCH   2   3
BRANCH   2   6
HETATM    6  C6  UNL     1     -34.020   4.845   5.583  1.00 20.00     0.084 C 
HETATM    7  C2  UNL     1     -34.862   3.589   5.783  1.00 20.00     0.027 C 
HETATM    8 CL8  UNL     1     -34.590   6.117   6.709  1.00 20.00    -0.125 Cl
ENDBRANCH   2   6
TORSDOF 3
