REMARK  3 active torsions:
REMARK  status: ('A' for Active; 'I' for Inactive)
REMARK    1  A    between atoms: C4_4  and  C5_5 
REMARK    2  A    between atoms: C4_4  and  O7_7 
REMARK    3  A    between atoms: C5_5  and  C6_6 
ROOT
HETATM    1  C1  UNL     1     -34.940   5.082   3.225  1.00 20.00     0.014 C 
HETATM    2  C5  UNL     1     -34.338   6.052   4.220  1.00 20.00     0.023 C 
ENDROOT
BRANCH   2   3
HETATM    3  C4  UNL     1     -32.811   6.120   4.047  1.00 20.00     0.172 C 
BRANCH   3   4
HETATM    4  O7  UNL     1     -32.502   6.562   2.729  1.00 20.00    -0.396 OA
HETATM    5  C3  UNL     1     -32.576   7.977   2.626  1.00 20.00     0.201 C 
ENDBRANCH   3   4
ENDBRANCH   2   3
BRANCH   2   6
HETATM    6  C6  UNL     1     -34.717   5.744   5.690  1.00 20.00     0.084 C 
HETATM    7  C2  UNL     1     -34.281   4.357   6.155  1.00 20.00     0.027 C 
HETATM    8 CL8  UNL     1     -34.081   6.972   6.829  1.00 20.00    -0.125 Cl
ENDBRANCH   2   6
TORSDOF 3
