REMARK  2 active torsions:
REMARK  status: ('A' for Active; 'I' for Inactive)
REMARK    1  A    between atoms: C5_5  and  C7_7 
REMARK    2  A    between atoms: C6_6  and  C8_8 
ROOT
HETATM    1  C1  UNL     1     -32.227   8.173   5.266  1.00 20.00     0.001 C 
HETATM    2  C2  UNL     1     -31.622   8.065   3.869  1.00 20.00     0.005 C 
HETATM    3  C3  UNL     1     -32.941   6.886   5.671  1.00 20.00     0.013 C 
HETATM    4  C4  UNL     1     -33.388   6.370   3.237  1.00 20.00     0.018 C 
HETATM    5  C5  UNL     1     -32.674   7.666   2.826  1.00 20.00    -0.004 C 
HETATM    6  C6  UNL     1     -34.002   6.480   4.640  1.00 20.00     0.094 C 
ENDROOT
BRANCH   6   7
HETATM    7  C8  UNL     1     -34.668   5.165   5.041  1.00 20.00     0.391 C 
HETATM    8  F9  UNL     1     -35.617   4.840   4.151  1.00 20.00    -0.171 F 
HETATM    9  F10 UNL     1     -33.756   4.183   5.083  1.00 20.00    -0.171 F 
HETATM   10  F11 UNL     1     -35.232   5.287   6.253  1.00 20.00    -0.171 F 
ENDBRANCH   6   7
BRANCH   5  11
HETATM   11  C7  UNL     1     -32.035   7.516   1.447  1.00 20.00     0.089 C 
HETATM   12 BR12 UNL     1     -31.851   9.264   0.628  1.00 20.00    -0.096 Br
ENDBRANCH   5  11
TORSDOF 2
