REMARK  2 active torsions:
REMARK  status: ('A' for Active; 'I' for Inactive)
REMARK    1  A    between atoms: C4_4  and  C9_9 
REMARK    2  A    between atoms: C5_5  and  C8_8 
ROOT
HETATM    1  C1  UNL     1     -35.007   5.215   3.173  1.00 20.00     0.032 C 
HETATM    2  C2  UNL     1     -33.518   7.174   3.673  1.00 20.00     0.038 C 
HETATM    3  C3  UNL     1     -33.794   4.545   2.538  1.00 20.00     0.168 C 
HETATM    4  C4  UNL     1     -34.607   6.248   4.234  1.00 20.00     0.008 C 
HETATM    5  C5  UNL     1     -32.378   6.391   3.016  1.00 20.00     0.121 C 
HETATM    6  O10 UNL     1     -32.896   5.518   2.007  1.00 20.00    -0.386 OA
ENDROOT
BRANCH   4   7
HETATM    7  C9  UNL     1     -34.164   5.577   5.537  1.00 20.00     0.082 C 
HETATM    8  C7  UNL     1     -33.807   6.607   6.594  1.00 20.00     0.027 C 
HETATM    9 CL11 UNL     1     -35.477   4.528   6.135  1.00 20.00    -0.125 Cl
ENDBRANCH   4   7
BRANCH   5  10
HETATM   10  C8  UNL     1     -31.384   7.332   2.348  1.00 20.00     0.027 C 
HETATM   11  C6  UNL     1     -32.040   8.191   1.314  1.00 20.00     0.007 C 
ENDBRANCH   5  10
TORSDOF 2
