REMARK  1 active torsions:
REMARK  status: ('A' for Active; 'I' for Inactive)
REMARK    1  A    between atoms: C6_6  and  C11_11 
ROOT
HETATM    1  C1  UNL     1     -31.042   7.499   4.314  1.00 20.00     0.001 C 
HETATM    2  C2  UNL     1     -32.418   7.165   4.876  1.00 20.00     0.006 C 
HETATM    3  C3  UNL     1     -33.489   6.233   2.730  1.00 20.00     0.007 C 
HETATM    4  C4  UNL     1     -31.032   8.485   3.149  1.00 20.00     0.008 C 
HETATM    5  C5  UNL     1     -32.379   6.715   1.793  1.00 20.00     0.009 C 
HETATM    6  C6  UNL     1     -33.073   5.966   4.181  1.00 20.00     0.003 C 
HETATM    7  C7  UNL     1     -31.937   8.195   1.922  1.00 20.00    -0.048 C 
HETATM    8  C8  UNL     1     -33.154   9.144   1.940  1.00 20.00     0.015 C 
HETATM    9  C9  UNL     1     -31.123   8.546   0.651  1.00 20.00     0.015 C 
ENDROOT
BRANCH   6  10
HETATM   10  C11 UNL     1     -34.298   5.510   4.983  1.00 20.00     0.082 C 
HETATM   11  C10 UNL     1     -33.902   5.063   6.377  1.00 20.00     0.027 C 
HETATM   12 CL12 UNL     1     -35.099   4.175   4.117  1.00 20.00    -0.125 Cl
ENDBRANCH   6  10
TORSDOF 1
