REMARK  2 active torsions:
REMARK  status: ('A' for Active; 'I' for Inactive)
REMARK    1  A    between atoms: C4_4  and  C8_8 
REMARK    2  A    between atoms: C5_5  and  C9_9 
ROOT
HETATM    1  C1  UNL     1     -34.526   4.916   3.353  1.00 20.00     0.005 C 
HETATM    2  C2  UNL     1     -33.626   5.884   2.578  1.00 20.00     0.006 C 
HETATM    3  C3  UNL     1     -34.096   6.845   4.729  1.00 20.00     0.010 C 
HETATM    4  C4  UNL     1     -35.106   5.719   4.521  1.00 20.00    -0.014 C 
HETATM    5  C5  UNL     1     -33.737   7.231   3.297  1.00 20.00    -0.000 C 
ENDROOT
BRANCH   5   6
HETATM    6  C9  UNL     1     -32.474   8.068   3.201  1.00 20.00     0.058 C 
HETATM    7  C7  UNL     1     -31.254   7.332   3.728  1.00 20.00     0.022 C 
HETATM    8 BR10 UNL     1     -32.165   8.539   1.328  1.00 20.00    -0.091 Br
ENDBRANCH   5   6
BRANCH   4   9
HETATM    9  C8  UNL     1     -35.334   4.883   5.769  1.00 20.00     0.000 C 
HETATM   10  C6  UNL     1     -34.069   4.253   6.260  1.00 20.00     0.005 C 
ENDBRANCH   4   9
TORSDOF 2
