REMARK  2 active torsions:
REMARK  status: ('A' for Active; 'I' for Inactive)
REMARK    1  A    between atoms: C3_3  and  C6_6 
REMARK    2  A    between atoms: C6_6  and  C7_7 
ROOT
HETATM    1  C4  UNL     1     -35.727   5.726   3.352  1.00 20.00     0.011 C 
HETATM    2  C6  UNL     1     -34.614   6.242   4.236  1.00 20.00    -0.001 C 
ENDROOT
BRANCH   2   3
HETATM    3  C3  UNL     1     -33.259   5.993   3.562  1.00 20.00    -0.010 A 
HETATM    4  C1  UNL     1     -32.813   6.858   2.415  1.00 20.00     0.005 A 
HETATM    5  C2  UNL     1     -32.130   6.968   3.750  1.00 20.00     0.005 A 
ENDBRANCH   2   3
BRANCH   2   6
HETATM    6  C7  UNL     1     -34.627   5.659   5.663  1.00 20.00     0.058 C 
HETATM    7  C5  UNL     1     -34.302   4.176   5.782  1.00 20.00     0.022 C 
HETATM    8 BR8  UNL     1     -33.385   6.660   6.813  1.00 20.00    -0.091 Br
ENDBRANCH   2   6
TORSDOF 2
