REMARK  2 active torsions:
REMARK  status: ('A' for Active; 'I' for Inactive)
REMARK    1  A    between atoms: C2_2  and  C3_3 
REMARK    2  A    between atoms: C2_2  and  N4_4 
ROOT
HETATM    1  C1  UNL     1     -32.997   6.445   3.319  1.00 20.00     0.332 C 
HETATM    2  N4  UNL     1     -33.998   6.314   3.917  1.00 20.00    -0.242 NA
HETATM    3  O5  UNL     1     -31.994   6.581   2.719  1.00 20.00    -0.260 OA
ENDROOT
BRANCH   2   4
HETATM    4  C2  UNL     1     -34.194   4.976   4.479  1.00 20.00     0.224 C 
BRANCH   4   5
HETATM    5  C3  UNL     1     -35.001   5.088   5.753  1.00 20.00     0.372 C 
HETATM    6  F6  UNL     1     -34.336   5.843   6.661  1.00 20.00    -0.213 F 
HETATM    7  F7  UNL     1     -35.174   3.862   6.304  1.00 20.00    -0.213 F 
ENDBRANCH   4   5
ENDBRANCH   2   4
TORSDOF 2
