REMARK  1 active torsions:
REMARK  status: ('A' for Active; 'I' for Inactive)
REMARK    1  A    between atoms: C4_4  and  C9_9 
ROOT
HETATM    1  C1  UNL     1     -34.454   5.711   2.151  1.00 20.00     0.032 C 
HETATM    2  C2  UNL     1     -33.024   4.931   4.068  1.00 20.00     0.043 C 
HETATM    3  C3  UNL     1     -35.607   5.791   3.140  1.00 20.00     0.169 C 
HETATM    4  C4  UNL     1     -33.096   5.851   2.841  1.00 20.00     0.008 C 
HETATM    5  C5  UNL     1     -34.290   4.893   4.953  1.00 20.00     0.054 C 
HETATM    6  C6  UNL     1     -34.382   6.075   5.928  1.00 20.00     0.045 C 
HETATM    7  C7  UNL     1     -34.258   3.605   5.795  1.00 20.00     0.045 C 
HETATM    8  O10 UNL     1     -35.477   4.801   4.155  1.00 20.00    -0.381 OA
ENDROOT
BRANCH   4   9
HETATM    9  C9  UNL     1     -32.757   7.309   3.152  1.00 20.00     0.082 C 
HETATM   10  C8  UNL     1     -32.668   8.142   1.884  1.00 20.00     0.027 C 
HETATM   11 CL11 UNL     1     -31.207   7.382   4.033  1.00 20.00    -0.125 Cl
ENDBRANCH   4   9
TORSDOF 1
