REMARK  2 active torsions:
REMARK  status: ('A' for Active; 'I' for Inactive)
REMARK    1  A    between atoms: C5_5  and  C9_9 
REMARK    2  A    between atoms: C6_6  and  C10_10 
ROOT
HETATM    1  C1  UNL     1     -31.710   5.971   2.593  1.00 20.00     0.005 C 
HETATM    2  C2  UNL     1     -33.268   7.825   3.306  1.00 20.00     0.005 C 
HETATM    3  C3  UNL     1     -32.571   4.957   3.344  1.00 20.00     0.006 C 
HETATM    4  C4  UNL     1     -34.130   6.812   4.057  1.00 20.00     0.006 C 
HETATM    5  C5  UNL     1     -32.532   7.179   2.126  1.00 20.00    -0.015 C 
HETATM    6  C6  UNL     1     -33.307   5.604   4.524  1.00 20.00     0.003 C 
ENDROOT
BRANCH   6   7
HETATM    7  C10 UNL     1     -34.200   4.583   5.228  1.00 20.00     0.082 C 
HETATM    8  C8  UNL     1     -35.268   4.042   4.293  1.00 20.00     0.027 C 
HETATM    9 CL11 UNL     1     -34.969   5.347   6.646  1.00 20.00    -0.125 Cl
ENDBRANCH   6   7
BRANCH   5  10
HETATM   10  C9  UNL     1     -31.639   8.200   1.423  1.00 20.00     0.000 C 
HETATM   11  C7  UNL     1     -32.424   9.369   0.926  1.00 20.00     0.005 C 
ENDBRANCH   5  10
TORSDOF 2
