REMARK  2 active torsions:
REMARK  status: ('A' for Active; 'I' for Inactive)
REMARK    1  A    between atoms: C8_8  and  C9_9 
REMARK    2  A    between atoms: C9_9  and  N11_11 
ROOT
HETATM    1  C1  UNL     1     -31.970   7.774   1.561  1.00 20.00     0.060 C 
HETATM    2  C8  UNL     1     -32.760   7.012   2.540  1.00 20.00     0.154 C 
HETATM    3  N10 UNL     1     -31.345   8.374   0.789  1.00 20.00    -0.197 NA
ENDROOT
BRANCH   2   4
HETATM    4  C9  UNL     1     -33.981   7.791   3.017  1.00 20.00     0.286 C 
BRANCH   4   5
HETATM    5  N11 UNL     1     -34.741   7.019   3.988  1.00 20.00     0.090 N 
HETATM    6  C2  UNL     1     -35.599   6.008   3.360  1.00 20.00     0.277 C 
HETATM    7  C4  UNL     1     -35.799   4.932   4.439  1.00 20.00     0.015 C 
HETATM    8  C5  UNL     1     -34.900   5.380   5.603  1.00 20.00     0.015 C 
HETATM    9  C6  UNL     1     -37.256   4.784   4.862  1.00 20.00     0.012 C 
HETATM   10  C3  UNL     1     -33.884   6.292   4.925  1.00 20.00     0.277 C 
HETATM   11  C7  UNL     1     -34.251   4.224   6.348  1.00 20.00     0.012 C 
ENDBRANCH   4   5
ENDBRANCH   2   4
TORSDOF 2
