REMARK  3 active torsions:
REMARK  status: ('A' for Active; 'I' for Inactive)
REMARK    1  A    between atoms: C5_5  and  S11_11 
REMARK    2  A    between atoms: C8_8  and  C9_9 
REMARK    3  A    between atoms: C9_9  and  S11_11 
ROOT
HETATM    1  C1  UNL     1     -33.836   6.731   6.055  1.00 20.00     0.080 C 
HETATM    2  C2  UNL     1     -35.498   4.567   3.993  1.00 20.00     0.009 C 
HETATM    3  C3  UNL     1     -35.352   6.096   4.118  1.00 20.00     0.037 C 
HETATM    4  C4  UNL     1     -34.487   4.406   5.158  1.00 20.00     0.014 C 
HETATM    5  C5  UNL     1     -34.040   5.880   4.908  1.00 20.00     0.100 C 
HETATM    6  C6  UNL     1     -35.139   4.058   6.494  1.00 20.00     0.012 C 
HETATM    7  N10 UNL     1     -33.672   7.416   6.977  1.00 20.00    -0.196 NA
ENDROOT
BRANCH   5   8
HETATM    8  S11 UNL     1     -32.556   5.976   3.816  1.00 20.00    -0.143 SA
BRANCH   8   9
HETATM    9  C9  UNL     1     -32.953   7.536   2.998  1.00 20.00     0.075 C 
BRANCH   9  10
HETATM   10  C8  UNL     1     -31.886   7.883   1.965  1.00 20.00     0.006 C 
HETATM   11  C7  UNL     1     -32.209   9.194   1.264  1.00 20.00     0.006 C 
ENDBRANCH   9  10
ENDBRANCH   8   9
ENDBRANCH   5   8
TORSDOF 3
