REMARK  4 active torsions:
REMARK  status: ('A' for Active; 'I' for Inactive)
REMARK    1  A    between atoms: C1_1  and  C7_7 
REMARK    2  A    between atoms: C1_1  and  C9_9 
REMARK    3  A    between atoms: C8_8  and  C9_9 
REMARK    4  A    between atoms: C9_9  and  N10_10 
ROOT
HETATM    1  C4  UNL     1     -33.187   4.219   5.711  1.00 20.00     0.058 C 
HETATM    2  C9  UNL     1     -33.965   5.271   4.911  1.00 20.00     0.214 C 
ENDROOT
BRANCH   2   3
HETATM    3  C1  UNL     1     -32.996   6.203   4.154  1.00 20.00     0.165 C 
HETATM    4  O11 UNL     1     -31.889   5.813   3.774  1.00 20.00    -0.295 OA
BRANCH   3   5
HETATM    5  C7  UNL     1     -33.446   7.638   3.903  1.00 20.00     0.076 C 
HETATM    6  C2  UNL     1     -32.837   8.226   2.642  1.00 20.00     0.013 C 
ENDBRANCH   3   5
ENDBRANCH   2   3
BRANCH   2   7
HETATM    7  C8  UNL     1     -34.949   4.577   3.944  1.00 20.00     0.045 C 
HETATM    8  C3  UNL     1     -35.839   5.516   3.135  1.00 20.00     0.008 C 
ENDBRANCH   2   7
BRANCH   2   9
HETATM    9  N10 UNL     1     -34.702   6.089   5.884  1.00 20.00     0.096 N 
HETATM   10  C5  UNL     1     -33.773   6.714   6.822  1.00 20.00     0.310 C 
HETATM   11  C6  UNL     1     -35.681   5.271   6.593  1.00 20.00     0.310 C 
ENDBRANCH   2   9
TORSDOF 4
