REMARK  1 active torsions:
REMARK  status: ('A' for Active; 'I' for Inactive)
REMARK    1  A    between atoms: C1_1  and  C2_2 
ROOT
HETATM    1  C2  UNL     1     -33.152   5.628   4.484  1.00 20.00     0.089 A 
HETATM    2  C3  UNL     1     -34.255   4.954   5.286  1.00 20.00    -0.028 A 
HETATM    3  C4  UNL     1     -34.009   6.467   5.419  1.00 20.00    -0.028 A 
HETATM    4  C5  UNL     1     -33.833   4.032   6.410  1.00 20.00     0.016 C 
HETATM    5  C6  UNL     1     -35.505   4.459   4.590  1.00 20.00     0.016 C 
HETATM    6  C7  UNL     1     -35.021   7.439   4.852  1.00 20.00     0.016 C 
HETATM    7  C8  UNL     1     -33.351   7.004   6.672  1.00 20.00     0.016 C 
ENDROOT
BRANCH   1   8
HETATM    8  C1  UNL     1     -33.249   5.772   3.025  1.00 20.00     0.224 C 
HETATM    9  O9  UNL     1     -33.950   5.026   2.348  1.00 20.00    -0.279 OA
HETATM   10 CL10 UNL     1     -32.277   7.084   2.431  1.00 20.00    -0.043 Cl
ENDBRANCH   1   8
TORSDOF 1
