REMARK  2 active torsions:
REMARK  status: ('A' for Active; 'I' for Inactive)
REMARK    1  A    between atoms: C2_2  and  C3_3 
REMARK    2  A    between atoms: C2_2  and  C10_10 
ROOT
HETATM    1  C1  UNL     1     -32.663   8.695   2.078  1.00 20.00     0.066 C 
HETATM    2  C10 UNL     1     -32.474   7.322   2.559  1.00 20.00     0.202 C 
HETATM    3  N11 UNL     1     -32.812   9.780   1.693  1.00 20.00    -0.197 NA
ENDROOT
BRANCH   2   4
HETATM    4  C2  UNL     1     -32.562   7.227   4.064  1.00 20.00     0.145 C 
HETATM    5  O12 UNL     1     -32.228   8.111   4.843  1.00 20.00    -0.296 OA
BRANCH   4   6
HETATM    6  C3  UNL     1     -33.094   5.958   4.581  1.00 20.00     0.073 A 
HETATM    7  C4  UNL     1     -34.591   5.715   4.686  1.00 20.00    -0.029 A 
HETATM    8  C5  UNL     1     -33.738   5.875   5.956  1.00 20.00    -0.029 A 
HETATM    9  C6  UNL     1     -35.101   4.342   4.303  1.00 20.00     0.016 C 
HETATM   10  C7  UNL     1     -35.567   6.806   4.301  1.00 20.00     0.016 C 
HETATM   11  C8  UNL     1     -33.885   7.121   6.802  1.00 20.00     0.016 C 
HETATM   12  C9  UNL     1     -33.424   4.656   6.798  1.00 20.00     0.016 C 
ENDBRANCH   4   6
ENDBRANCH   2   4
TORSDOF 2
