REMARK  3 active torsions:
REMARK  status: ('A' for Active; 'I' for Inactive)
REMARK    1  A    between atoms: C5_5  and  C7_7 
REMARK    2  A    between atoms: C6_6  and  C7_7 
REMARK    3  A    between atoms: C6_6  and  O9_9 
ROOT
HETATM    1  C1  UNL     1     -32.999   5.998   3.554  1.00 20.00     0.071 C 
HETATM    2  C4  UNL     1     -32.578   4.387   5.356  1.00 20.00     0.034 C 
HETATM    3  C7  UNL     1     -33.606   5.371   4.755  1.00 20.00     0.070 C 
HETATM    4  N8  UNL     1     -32.523   6.488   2.615  1.00 20.00    -0.196 NA
ENDROOT
BRANCH   3   5
HETATM    5  C5  UNL     1     -33.977   6.475   5.786  1.00 20.00     0.022 C 
HETATM    6  C2  UNL     1     -34.616   5.985   7.083  1.00 20.00     0.007 C 
ENDBRANCH   3   5
BRANCH   3   7
HETATM    7  C6  UNL     1     -34.889   4.575   4.348  1.00 20.00     0.136 C 
HETATM    8  C3  UNL     1     -36.011   5.407   3.727  1.00 20.00     0.041 C 
BRANCH   7   9
HETATM    9  O9  UNL     1     -35.422   3.895   5.489  1.00 20.00    -0.394 OA
HETATM   10  H22 UNL     1     -36.141   3.337   5.160  1.00 20.00     0.210 HD
ENDBRANCH   7   9
ENDBRANCH   3   7
TORSDOF 3
