REMARK  4 active torsions:
REMARK  status: ('A' for Active; 'I' for Inactive)
REMARK    1  A    between atoms: C5_5  and  C7_7 
REMARK    2  A    between atoms: C6_6  and  C8_8 
REMARK    3  A    between atoms: C7_7  and  C8_8 
REMARK    4  A    between atoms: C8_8  and  O10_10 
ROOT
HETATM    1  C1  UNL     1     -34.474   5.467   4.336  1.00 20.00     0.067 C 
HETATM    2  C7  UNL     1     -33.789   6.781   4.428  1.00 20.00     0.126 C 
HETATM    3  N9  UNL     1     -35.013   4.442   4.264  1.00 20.00    -0.197 NA
ENDROOT
BRANCH   2   4
HETATM    4  C5  UNL     1     -33.112   6.924   5.808  1.00 20.00     0.018 C 
HETATM    5  C2  UNL     1     -34.085   6.738   6.970  1.00 20.00     0.006 C 
ENDBRANCH   2   4
BRANCH   2   6
HETATM    6  C8  UNL     1     -32.811   6.983   3.221  1.00 20.00     0.070 C 
HETATM    7  C4  UNL     1     -32.727   5.749   2.312  1.00 20.00     0.047 C 
BRANCH   6   8
HETATM    8  C6  UNL     1     -33.193   8.245   2.404  1.00 20.00     0.034 C 
HETATM    9  C3  UNL     1     -32.214   8.609   1.291  1.00 20.00     0.008 C 
ENDBRANCH   6   8
BRANCH   6  10
HETATM   10  O10 UNL     1     -31.494   7.200   3.754  1.00 20.00    -0.389 OA
HETATM   11  H25 UNL     1     -30.920   7.344   2.990  1.00 20.00     0.210 HD
ENDBRANCH   6  10
ENDBRANCH   2   6
TORSDOF 4
