REMARK  4 active torsions:
REMARK  status: ('A' for Active; 'I' for Inactive)
REMARK    1  A    between atoms: C4_4  and  C9_9 
REMARK    2  A    between atoms: C7_7  and  C9_9 
REMARK    3  A    between atoms: C8_8  and  C9_9 
REMARK    4  A    between atoms: C9_9  and  O11_11 
ROOT
HETATM    1  C1  UNL     1     -32.379   7.027   2.492  1.00 20.00     0.066 C 
HETATM    2  C6  UNL     1     -32.781   4.633   2.751  1.00 20.00     0.028 C 
HETATM    3  C8  UNL     1     -32.559   5.956   3.499  1.00 20.00     0.123 C 
HETATM    4  N10 UNL     1     -32.233   7.864   1.701  1.00 20.00    -0.197 NA
ENDROOT
BRANCH   3   5
HETATM    5  C9  UNL     1     -33.705   6.300   4.503  1.00 20.00     0.077 C 
BRANCH   5   6
HETATM    6  C4  UNL     1     -33.861   5.205   5.545  1.00 20.00     0.021 A 
HETATM    7  C2  UNL     1     -34.921   5.313   6.605  1.00 20.00     0.008 A 
HETATM    8  C3  UNL     1     -35.054   4.292   5.510  1.00 20.00     0.008 A 
ENDBRANCH   5   6
BRANCH   5   9
HETATM    9  C7  UNL     1     -33.522   7.673   5.208  1.00 20.00     0.035 C 
HETATM   10  C5  UNL     1     -32.312   7.785   6.125  1.00 20.00     0.008 C 
ENDBRANCH   5   9
BRANCH   5  11
HETATM   11  O11 UNL     1     -34.937   6.372   3.767  1.00 20.00    -0.388 OA
HETATM   12  H26 UNL     1     -35.622   6.581   4.416  1.00 20.00     0.210 HD
ENDBRANCH   5  11
ENDBRANCH   3   5
TORSDOF 4
