REMARK  4 active torsions:
REMARK  status: ('A' for Active; 'I' for Inactive)
REMARK    1  A    between atoms: C6_6  and  C9_9 
REMARK    2  A    between atoms: C7_7  and  C8_8 
REMARK    3  A    between atoms: C8_8  and  C9_9 
REMARK    4  A    between atoms: C8_8  and  O11_11 
ROOT
HETATM    1  C1  UNL     1     -32.094   5.977   3.000  1.00 20.00     0.071 C 
HETATM    2  C5  UNL     1     -32.512   7.751   4.610  1.00 20.00     0.034 C 
HETATM    3  C9  UNL     1     -33.148   6.916   3.470  1.00 20.00     0.071 C 
HETATM    4  N10 UNL     1     -31.263   5.247   2.648  1.00 20.00    -0.196 NA
ENDROOT
BRANCH   3   5
HETATM    5  C6  UNL     1     -33.519   7.850   2.285  1.00 20.00     0.022 C 
HETATM    6  C2  UNL     1     -32.380   8.694   1.727  1.00 20.00     0.007 C 
ENDBRANCH   3   5
BRANCH   3   7
HETATM    7  C8  UNL     1     -34.379   6.137   4.045  1.00 20.00     0.143 C 
BRANCH   7   8
HETATM    8  C7  UNL     1     -34.142   5.191   5.256  1.00 20.00     0.008 C 
HETATM    9  C3  UNL     1     -33.555   3.826   4.892  1.00 20.00     0.012 C 
HETATM   10  C4  UNL     1     -35.452   4.966   6.029  1.00 20.00     0.012 C 
ENDBRANCH   7   8
BRANCH   7  11
HETATM   11  O11 UNL     1     -35.014   5.424   2.977  1.00 20.00    -0.393 OA
HETATM   12  H28 UNL     1     -34.412   4.705   2.739  1.00 20.00     0.210 HD
ENDBRANCH   7  11
ENDBRANCH   3   7
TORSDOF 4
