REMARK  3 active torsions:
REMARK  status: ('A' for Active; 'I' for Inactive)
REMARK    1  A    between atoms: C3_3  and  C11_11 
REMARK    2  A    between atoms: C8_8  and  N12_12 
REMARK    3  A    between atoms: C11_11  and  N12_12 
ROOT
HETATM    1  C1  UNL     1     -34.706   4.536   5.721  1.00 20.00     0.127 C 
HETATM    2  C4  UNL     1     -34.389   5.892   6.312  1.00 20.00     0.080 C 
HETATM    3  C5  UNL     1     -35.139   4.515   4.272  1.00 20.00     0.080 C 
HETATM    4  C6  UNL     1     -33.433   6.662   5.409  1.00 20.00     0.040 C 
HETATM    5  C7  UNL     1     -34.169   5.312   3.408  1.00 20.00     0.040 C 
HETATM    6  C8  UNL     1     -33.956   6.715   3.974  1.00 20.00     0.189 C 
HETATM    7  O13 UNL     1     -34.711   3.517   6.411  1.00 20.00    -0.298 OA
ENDROOT
BRANCH   6   8
HETATM    8  N12 UNL     1     -32.961   7.427   3.128  1.00 20.00    -0.067 N 
HETATM    9  C10 UNL     1     -31.771   6.566   2.789  1.00 20.00     0.270 C 
HETATM   10  H33 UNL     1     -32.595   8.222   3.677  1.00 20.00     0.280 HD
BRANCH   8  11
HETATM   11  C11 UNL     1     -33.579   8.021   1.888  1.00 20.00     0.268 C 
BRANCH  11  12
HETATM   12  C3  UNL     1     -32.786   9.157   1.305  1.00 20.00    -0.068 C 
HETATM   13  C2  UNL     1     -32.300   9.104   0.056  1.00 20.00     0.015 C 
HETATM   14  C9  UNL     1     -32.590  10.367   2.172  1.00 20.00     0.044 C 
ENDBRANCH  11  12
ENDBRANCH   8  11
ENDBRANCH   6   8
TORSDOF 3
