REMARK  3 active torsions:
REMARK  status: ('A' for Active; 'I' for Inactive)
REMARK    1  A    between atoms: C5_5  and  C6_6 
REMARK    2  A    between atoms: C6_6  and  C7_7 
REMARK    3  A    between atoms: C6_6  and  O9_9 
ROOT
HETATM    1  C1  UNL     1     -36.325   5.645   3.549  1.00 20.00     0.071 C 
HETATM    2  C3  UNL     1     -34.466   4.048   3.592  1.00 20.00     0.033 C 
HETATM    3  C4  UNL     1     -35.352   5.010   5.716  1.00 20.00     0.033 C 
HETATM    4  C7  UNL     1     -35.051   5.321   4.238  1.00 20.00     0.067 C 
HETATM    5  N8  UNL     1     -37.320   5.897   3.009  1.00 20.00    -0.196 NA
ENDROOT
BRANCH   4   6
HETATM    6  C6  UNL     1     -34.040   6.503   4.114  1.00 20.00     0.139 C 
BRANCH   6   7
HETATM    7  C5  UNL     1     -33.102   6.430   2.896  1.00 20.00     0.029 C 
HETATM    8  C2  UNL     1     -32.116   7.594   2.857  1.00 20.00     0.007 C 
ENDBRANCH   6   7
BRANCH   6   9
HETATM    9  O9  UNL     1     -33.227   6.585   5.288  1.00 20.00    -0.394 OA
HETATM   10  H22 UNL     1     -32.685   5.782   5.299  1.00 20.00     0.210 HD
ENDBRANCH   6   9
ENDBRANCH   4   6
TORSDOF 3
