REMARK  3 active torsions:
REMARK  status: ('A' for Active; 'I' for Inactive)
REMARK    1  A    between atoms: C6_6  and  C7_7 
REMARK    2  A    between atoms: C7_7  and  C8_8 
REMARK    3  A    between atoms: C8_8  and  O10_10 
ROOT
HETATM    1  C1  UNL     1     -36.212   5.658   3.776  1.00 20.00     0.072 C 
HETATM    2  C3  UNL     1     -34.344   7.234   3.754  1.00 20.00     0.034 C 
HETATM    3  C7  UNL     1     -34.729   5.743   3.911  1.00 20.00     0.075 C 
HETATM    4  N9  UNL     1     -37.366   5.595   3.671  1.00 20.00    -0.196 NA
ENDROOT
BRANCH   3   5
HETATM    5  C6  UNL     1     -34.081   4.899   2.771  1.00 20.00     0.023 C 
HETATM    6  C2  UNL     1     -32.553   4.870   2.752  1.00 20.00     0.007 C 
ENDBRANCH   3   5
BRANCH   3   7
HETATM    7  C8  UNL     1     -34.306   5.206   5.342  1.00 20.00     0.071 C 
HETATM    8  C4  UNL     1     -34.716   3.744   5.587  1.00 20.00     0.047 C 
HETATM    9  C5  UNL     1     -34.849   6.053   6.508  1.00 20.00     0.047 C 
BRANCH   7  10
HETATM   10  O10 UNL     1     -32.871   5.212   5.448  1.00 20.00    -0.389 OA
HETATM   11  H25 UNL     1     -32.672   4.904   6.341  1.00 20.00     0.210 HD
ENDBRANCH   7  10
ENDBRANCH   3   7
TORSDOF 3
