REMARK  4 active torsions:
REMARK  status: ('A' for Active; 'I' for Inactive)
REMARK    1  A    between atoms: C5_5  and  C7_7 
REMARK    2  A    between atoms: C6_6  and  C8_8 
REMARK    3  A    between atoms: C7_7  and  C8_8 
REMARK    4  A    between atoms: C8_8  and  O10_10 
ROOT
HETATM    1  C1  UNL     1     -33.405   6.356   5.410  1.00 20.00     0.067 C 
HETATM    2  C7  UNL     1     -33.755   5.333   4.392  1.00 20.00     0.126 C 
HETATM    3  N9  UNL     1     -33.128   7.154   6.206  1.00 20.00    -0.197 NA
ENDROOT
BRANCH   2   4
HETATM    4  C5  UNL     1     -33.971   6.010   3.022  1.00 20.00     0.018 C 
HETATM    5  C2  UNL     1     -32.769   6.835   2.569  1.00 20.00     0.006 C 
ENDBRANCH   2   4
BRANCH   2   6
HETATM    6  C8  UNL     1     -34.970   4.468   4.872  1.00 20.00     0.070 C 
HETATM    7  C4  UNL     1     -35.554   4.953   6.206  1.00 20.00     0.047 C 
BRANCH   6   8
HETATM    8  C6  UNL     1     -34.584   2.967   4.951  1.00 20.00     0.034 C 
HETATM    9  C3  UNL     1     -35.741   2.024   5.270  1.00 20.00     0.008 C 
ENDBRANCH   6   8
BRANCH   6  10
HETATM   10  O10 UNL     1     -36.011   4.591   3.889  1.00 20.00    -0.389 OA
HETATM   11  H25 UNL     1     -36.735   4.030   4.200  1.00 20.00     0.210 HD
ENDBRANCH   6  10
ENDBRANCH   2   6
TORSDOF 4
