REMARK  0 active torsions:
REMARK  status: ('A' for Active; 'I' for Inactive)
ROOT
HETATM    1  C1  UNL     1     -33.954   6.261   5.226  1.00 20.00    -0.058 C 
HETATM    2  C2  UNL     1     -34.656   5.120   4.637  1.00 20.00    -0.061 C 
HETATM    3  C3  UNL     1     -32.938   6.779   2.997  1.00 20.00    -0.085 C 
HETATM    4  C4  UNL     1     -34.395   6.899   6.322  1.00 20.00     0.020 C 
HETATM    5  C5  UNL     1     -35.062   4.061   5.356  1.00 20.00     0.019 C 
HETATM    6  C6  UNL     1     -32.627   7.860   2.266  1.00 20.00     0.014 C 
HETATM    7  C7  UNL     1     -32.711   6.710   4.488  1.00 20.00     0.071 C 
HETATM    8  C8  UNL     1     -34.860   5.196   3.140  1.00 20.00     0.042 C 
HETATM    9  C9  UNL     1     -33.566   5.546   2.398  1.00 20.00     0.038 C 
ENDROOT
TORSDOF 0
