REMARK  1 active torsions:
REMARK  status: ('A' for Active; 'I' for Inactive)
REMARK    1  A    between atoms: C6_6  and  C10_10 
ROOT
HETATM    1  C1  UNL     1     -34.202   5.783   6.429  1.00 20.00    -0.025 A 
HETATM    2  C2  UNL     1     -33.873   6.561   5.385  1.00 20.00    -0.020 A 
HETATM    3  C3  UNL     1     -35.655   5.721   3.730  1.00 20.00     0.020 A 
HETATM    4  C4  UNL     1     -34.848   4.504   5.934  1.00 20.00     0.009 A 
HETATM    5  C5  UNL     1     -34.858   4.640   4.415  1.00 20.00     0.006 A 
HETATM    6  C6  UNL     1     -34.204   5.970   4.069  1.00 20.00    -0.015 A 
HETATM    7  C7  UNL     1     -34.061   3.280   6.384  1.00 20.00     0.014 C 
ENDROOT
BRANCH   6   8
HETATM    8  C10 UNL     1     -33.186   6.030   2.977  1.00 20.00    -0.010 C 
HETATM    9  C8  UNL     1     -33.684   5.340   1.695  1.00 20.00     0.010 C 
HETATM   10  C9  UNL     1     -32.784   7.480   2.652  1.00 20.00     0.010 C 
ENDBRANCH   6   8
TORSDOF 1
