REMARK  3 active torsions:
REMARK  status: ('A' for Active; 'I' for Inactive)
REMARK    1  A    between atoms: C2_2  and  C9_9 
REMARK    2  A    between atoms: C6_6  and  C9_9 
REMARK    3  A    between atoms: C9_9  and  N10_10 
ROOT
HETATM    1  C9  UNL     1     -33.299   7.890   3.623  1.00 20.00     0.254 C 
ENDROOT
BRANCH   1   2
HETATM    2  C2  UNL     1     -31.865   7.390   3.623  1.00 20.00    -0.060 C 
HETATM    3  C1  UNL     1     -31.068   7.577   4.688  1.00 20.00     0.016 C 
HETATM    4  C7  UNL     1     -31.349   6.685   2.397  1.00 20.00     0.044 C 
ENDBRANCH   1   2
BRANCH   1   5
HETATM    5  C6  UNL     1     -34.259   6.865   4.194  1.00 20.00     0.049 C 
HETATM    6  C3  UNL     1     -33.709   6.085   5.368  1.00 20.00     0.035 C 
HETATM    7  C4  UNL     1     -34.623   4.877   5.389  1.00 20.00     0.168 C 
HETATM    8  O11 UNL     1     -35.008   4.625   4.029  1.00 20.00    -0.391 OA
HETATM    9  C5  UNL     1     -34.606   5.746   3.227  1.00 20.00     0.174 C 
ENDBRANCH   1   5
BRANCH   1  10
HETATM   10  N10 UNL     1     -33.748   8.293   2.287  1.00 20.00     0.088 N 
HETATM   11  C8  UNL     1     -33.250   9.619   1.959  1.00 20.00     0.307 C 
HETATM   12  H28 UNL     1     -34.764   8.297   2.272  1.00 20.00     0.316 HD
ENDBRANCH   1  10
TORSDOF 3
