REMARK  2 active torsions:
REMARK  status: ('A' for Active; 'I' for Inactive)
REMARK    1  A    between atoms: C2_2  and  C7_7 
REMARK    2  A    between atoms: C7_7  and  O11_11 
ROOT
HETATM    1  C3  UNL     1     -32.299   5.875   3.766  1.00 20.00     0.073 C 
HETATM    2  C4  UNL     1     -34.151   7.556   4.014  1.00 20.00     0.073 C 
HETATM    3  C5  UNL     1     -31.935   6.539   2.433  1.00 20.00     0.275 C 
HETATM    4  C6  UNL     1     -33.722   8.160   2.673  1.00 20.00     0.275 C 
HETATM    5  C7  UNL     1     -33.775   6.076   4.110  1.00 20.00     0.083 C 
HETATM    6  C9  UNL     1     -31.880   8.598   1.184  1.00 20.00     0.309 C 
HETATM    7  N10 UNL     1     -32.284   7.966   2.440  1.00 20.00     0.084 N 
ENDROOT
BRANCH   5   8
HETATM    8  C2  UNL     1     -34.070   5.558   5.488  1.00 20.00    -0.059 C 
HETATM    9  C1  UNL     1     -33.968   6.337   6.575  1.00 20.00     0.017 C 
HETATM   10  C8  UNL     1     -34.485   4.120   5.579  1.00 20.00     0.046 C 
ENDBRANCH   5   8
BRANCH   5  11
HETATM   11  O11 UNL     1     -34.566   5.303   3.216  1.00 20.00    -0.385 OA
HETATM   12  H28 UNL     1     -34.286   4.384   3.334  1.00 20.00     0.211 HD
ENDBRANCH   5  11
TORSDOF 2
