REMARK  3 active torsions:
REMARK  status: ('A' for Active; 'I' for Inactive)
REMARK    1  A    between atoms: C2_2  and  C3_3 
REMARK    2  A    between atoms: C3_3  and  C7_7 
REMARK    3  A    between atoms: C8_8  and  C11_11 
ROOT
HETATM    1  C4  UNL     1     -32.454   5.539   3.540  1.00 20.00     0.013 C 
HETATM    2  C5  UNL     1     -31.905   6.950   3.698  1.00 20.00     0.005 C 
HETATM    3  C6  UNL     1     -33.762   7.115   2.190  1.00 20.00     0.017 C 
HETATM    4  C7  UNL     1     -33.793   5.717   2.821  1.00 20.00     0.060 C 
HETATM    5  C8  UNL     1     -32.335   7.627   2.401  1.00 20.00    -0.014 C 
ENDROOT
BRANCH   4   6
HETATM    6  C3  UNL     1     -34.931   5.610   3.789  1.00 20.00     0.158 C 
HETATM    7  O12 UNL     1     -36.092   5.747   3.401  1.00 20.00    -0.292 OA
BRANCH   6   8
HETATM    8  C2  UNL     1     -34.652   5.335   5.237  1.00 20.00    -0.025 C 
HETATM    9  C1  UNL     1     -34.457   6.332   6.112  1.00 20.00     0.022 C 
HETATM   10  C9  UNL     1     -34.605   3.894   5.649  1.00 20.00     0.051 C 
ENDBRANCH   6   8
ENDBRANCH   4   6
BRANCH   5  11
HETATM   11  C11 UNL     1     -32.243   9.143   2.459  1.00 20.00     0.000 C 
HETATM   12  C10 UNL     1     -32.704   9.781   1.186  1.00 20.00     0.005 C 
ENDBRANCH   5  11
TORSDOF 3
