REMARK  4 active torsions:
REMARK  status: ('A' for Active; 'I' for Inactive)
REMARK    1  A    between atoms: C2_2  and  C8_8 
REMARK    2  A    between atoms: C6_6  and  C9_9 
REMARK    3  A    between atoms: C8_8  and  C9_9 
REMARK    4  A    between atoms: C9_9  and  O11_11 
ROOT
HETATM    1  C9  UNL     1     -33.012   6.930   2.776  1.00 20.00     0.151 C 
ENDROOT
BRANCH   1   2
HETATM    2  C6  UNL     1     -32.101   8.145   2.671  1.00 20.00     0.150 C 
HETATM    3  C4  UNL     1     -31.623   8.407   1.251  1.00 20.00     0.036 C 
HETATM    4  C3  UNL     1     -32.660   9.366   0.722  1.00 20.00     0.029 C 
HETATM    5  C5  UNL     1     -32.983  10.184   1.952  1.00 20.00     0.168 C 
HETATM    6  O10 UNL     1     -32.847   9.306   3.077  1.00 20.00    -0.383 OA
ENDBRANCH   1   2
BRANCH   1   7
HETATM    7  C8  UNL     1     -33.791   6.943   4.098  1.00 20.00     0.067 C 
BRANCH   7   8
HETATM    8  C2  UNL     1     -34.692   5.741   4.281  1.00 20.00    -0.091 C 
HETATM    9  C1  UNL     1     -35.284   5.142   3.235  1.00 20.00     0.014 C 
HETATM   10  C7  UNL     1     -34.864   5.221   5.679  1.00 20.00     0.042 C 
ENDBRANCH   7   8
ENDBRANCH   1   7
BRANCH   1  11
HETATM   11  O11 UNL     1     -32.183   5.771   2.711  1.00 20.00    -0.393 OA
HETATM   12  H27 UNL     1     -31.725   5.808   1.857  1.00 20.00     0.210 HD
ENDBRANCH   1  11
TORSDOF 4
