REMARK  3 active torsions:
REMARK  status: ('A' for Active; 'I' for Inactive)
REMARK    1  A    between atoms: C7_7  and  C8_8 
REMARK    2  A    between atoms: C7_7  and  C9_9 
REMARK    3  A    between atoms: C8_8  and  N10_10 
ROOT
HETATM    1  C1  UNL     1     -33.557   6.594   4.717  1.00 20.00     0.239 C 
HETATM    2  C2  UNL     1     -34.037   4.858   3.060  1.00 20.00     0.239 C 
HETATM    3  C3  UNL     1     -34.129   5.340   5.374  1.00 20.00     0.012 C 
HETATM    4  C4  UNL     1     -34.951   4.671   4.266  1.00 20.00     0.012 C 
HETATM    5  C5  UNL     1     -34.877   5.641   6.664  1.00 20.00     0.012 C 
HETATM    6  C6  UNL     1     -36.333   5.284   4.030  1.00 20.00     0.012 C 
HETATM    7  N10 UNL     1     -33.477   6.253   3.239  1.00 20.00    -0.070 N 
HETATM    8  H30 UNL     1     -34.115   6.897   2.750  1.00 20.00     0.279 HD
ENDROOT
BRANCH   7   9
HETATM    9  C8  UNL     1     -32.122   6.441   2.636  1.00 20.00     0.236 C 
BRANCH   9  10
HETATM   10  C7  UNL     1     -31.673   7.893   2.762  1.00 20.00     0.043 C 
BRANCH  10  11
HETATM   11  C9  UNL     1     -32.539   8.921   2.037  1.00 20.00     0.116 C 
HETATM   12 CL11 UNL     1     -32.575   8.647   0.281  1.00 20.00    -0.130 Cl
ENDBRANCH  10  11
ENDBRANCH   9  10
ENDBRANCH   7   9
TORSDOF 3
