REMARK  2 active torsions:
REMARK  status: ('A' for Active; 'I' for Inactive)
REMARK    1  A    between atoms: C2_2  and  C9_9 
REMARK    2  A    between atoms: C6_6  and  C9_9 
ROOT
HETATM    1  C3  UNL     1     -33.450   5.873   2.559  1.00 20.00     0.006 C 
HETATM    2  C4  UNL     1     -32.154   5.928   1.761  1.00 20.00     0.016 C 
HETATM    3  C5  UNL     1     -32.000   7.491   3.635  1.00 20.00     0.020 C 
HETATM    4  C6  UNL     1     -33.025   6.385   3.932  1.00 20.00    -0.010 C 
HETATM    5  C7  UNL     1     -31.497   7.226   2.214  1.00 20.00     0.058 C 
HETATM    6 BR10 UNL     1     -32.038   8.688   1.031  1.00 20.00    -0.091 Br
ENDROOT
BRANCH   4   7
HETATM    7  C9  UNL     1     -34.194   6.861   4.777  1.00 20.00     0.037 C 
BRANCH   7   8
HETATM    8  C2  UNL     1     -34.931   5.728   5.451  1.00 20.00    -0.093 C 
HETATM    9  C1  UNL     1     -35.540   4.766   4.739  1.00 20.00     0.014 C 
HETATM   10  C8  UNL     1     -34.983   5.743   6.951  1.00 20.00     0.042 C 
ENDBRANCH   7   8
ENDBRANCH   4   7
TORSDOF 2
