REMARK  3 active torsions:
REMARK  status: ('A' for Active; 'I' for Inactive)
REMARK    1  A    between atoms: C2_2  and  C10_10 
REMARK    2  A    between atoms: C5_5  and  C10_10 
REMARK    3  A    between atoms: C7_7  and  O11_11 
ROOT
HETATM    1  C3  UNL     1     -32.898   4.247   4.572  1.00 20.00     0.008 C 
HETATM    2  C4  UNL     1     -33.989   3.906   5.592  1.00 20.00     0.032 C 
HETATM    3  C5  UNL     1     -33.242   5.638   4.029  1.00 20.00    -0.004 C 
HETATM    4  C6  UNL     1     -34.057   6.298   5.158  1.00 20.00     0.015 C 
HETATM    5  C7  UNL     1     -34.911   5.124   5.655  1.00 20.00     0.122 C 
HETATM    6  C9  UNL     1     -33.213   6.889   6.287  1.00 20.00     0.013 C 
ENDROOT
BRANCH   3   7
HETATM    7  C10 UNL     1     -32.020   6.410   3.555  1.00 20.00     0.038 C 
BRANCH   7   8
HETATM    8  C2  UNL     1     -32.366   7.516   2.587  1.00 20.00    -0.093 C 
HETATM    9  C1  UNL     1     -31.844   7.554   1.351  1.00 20.00     0.014 C 
HETATM   10  C8  UNL     1     -33.292   8.591   3.079  1.00 20.00     0.042 C 
ENDBRANCH   7   8
ENDBRANCH   3   7
BRANCH   5  11
HETATM   11  O11 UNL     1     -36.003   4.908   4.763  1.00 20.00    -0.395 OA
HETATM   12  H29 UNL     1     -36.454   4.106   5.069  1.00 20.00     0.210 HD
ENDBRANCH   5  11
TORSDOF 3
