REMARK  2 active torsions:
REMARK  status: ('A' for Active; 'I' for Inactive)
REMARK    1  A    between atoms: C2_2  and  C3_3 
REMARK    2  A    between atoms: C3_3  and  C5_5 
ROOT
HETATM    1  C3  UNL     1     -34.107   6.437   4.417  1.00 20.00     0.159 C 
HETATM    2  O9  UNL     1     -35.171   7.034   4.242  1.00 20.00    -0.292 OA
ENDROOT
BRANCH   1   3
HETATM    3  C2  UNL     1     -33.211   6.146   3.249  1.00 20.00    -0.025 C 
HETATM    4  C1  UNL     1     -31.958   6.620   3.196  1.00 20.00     0.022 C 
HETATM    5  C7  UNL     1     -33.789   5.301   2.153  1.00 20.00     0.051 C 
ENDBRANCH   1   3
BRANCH   1   6
HETATM    6  C5  UNL     1     -33.700   5.996   5.800  1.00 20.00     0.064 A 
HETATM    7  C4  UNL     1     -34.771   5.800   6.815  1.00 20.00     0.018 A 
HETATM    8  C6  UNL     1     -34.028   4.618   6.259  1.00 20.00    -0.006 A 
HETATM    9  C8  UNL     1     -34.743   3.618   5.416  1.00 20.00     0.011 C 
ENDBRANCH   1   6
TORSDOF 2
