REMARK  4 active torsions:
REMARK  status: ('A' for Active; 'I' for Inactive)
REMARK    1  A    between atoms: C2_2  and  C7_7 
REMARK    2  A    between atoms: C6_6  and  C7_7 
REMARK    3  A    between atoms: C6_6  and  S9_9 
REMARK    4  A    between atoms: C7_7  and  N8_8 
ROOT
HETATM    1  C7  UNL     1     -33.557   5.562   4.313  1.00 20.00     0.257 C 
ENDROOT
BRANCH   1   2
HETATM    2  C2  UNL     1     -34.077   5.341   5.726  1.00 20.00    -0.060 C 
HETATM    3  C1  UNL     1     -34.338   6.381   6.537  1.00 20.00     0.016 C 
HETATM    4  C3  UNL     1     -34.294   3.930   6.202  1.00 20.00     0.044 C 
ENDBRANCH   1   2
BRANCH   1   5
HETATM    5  C6  UNL     1     -33.394   7.043   3.922  1.00 20.00     0.113 C 
BRANCH   5   6
HETATM    6  S9  UNL     1     -32.745   7.256   2.233  1.00 20.00    -0.171 SA
HETATM    7  C5  UNL     1     -32.744   9.062   2.185  1.00 20.00     0.089 C 
ENDBRANCH   5   6
ENDBRANCH   1   5
BRANCH   1   8
HETATM    8  N8  UNL     1     -34.435   4.914   3.326  1.00 20.00     0.088 N 
HETATM    9  C4  UNL     1     -35.780   5.451   3.415  1.00 20.00     0.307 C 
HETATM   10  H24 UNL     1     -34.056   5.083   2.399  1.00 20.00     0.316 HD
ENDBRANCH   1   8
TORSDOF 4
