REMARK  3 active torsions:
REMARK  status: ('A' for Active; 'I' for Inactive)
REMARK    1  A    between atoms: C2_2  and  C9_9 
REMARK    2  A    between atoms: C3_3  and  C5_5 
REMARK    3  A    between atoms: C3_3  and  C9_9 
ROOT
HETATM    1  C3  UNL     1     -32.484   6.760   3.229  1.00 20.00     0.135 C 
HETATM    2  O10 UNL     1     -32.027   5.753   2.690  1.00 20.00    -0.297 OA
ENDROOT
BRANCH   1   3
HETATM    3  C5  UNL     1     -33.783   6.706   3.992  1.00 20.00     0.060 A 
HETATM    4  C4  UNL     1     -33.819   5.918   5.252  1.00 20.00     0.017 A 
HETATM    5  C6  UNL     1     -34.518   5.402   4.022  1.00 20.00    -0.007 A 
HETATM    6  C8  UNL     1     -36.005   5.408   3.946  1.00 20.00     0.011 C 
ENDBRANCH   1   3
BRANCH   1   7
HETATM    7  C9  UNL     1     -31.820   8.127   3.140  1.00 20.00     0.111 C 
BRANCH   7   8
HETATM    8  C2  UNL     1     -32.232   8.872   1.900  1.00 20.00    -0.086 C 
HETATM    9  C1  UNL     1     -33.299   9.686   1.890  1.00 20.00     0.014 C 
HETATM   10  C7  UNL     1     -31.375   8.685   0.681  1.00 20.00     0.043 C 
ENDBRANCH   7   8
ENDBRANCH   1   7
TORSDOF 3
