REMARK  3 active torsions:
REMARK  status: ('A' for Active; 'I' for Inactive)
REMARK    1  A    between atoms: C2_2  and  C10_10 
REMARK    2  A    between atoms: C5_5  and  C10_10 
REMARK    3  A    between atoms: C7_7  and  O11_11 
ROOT
HETATM    1  C3  UNL     1     -32.873   7.310   4.939  1.00 20.00     0.008 C 
HETATM    2  C4  UNL     1     -33.629   6.549   6.031  1.00 20.00     0.032 C 
HETATM    3  C5  UNL     1     -33.539   6.907   3.621  1.00 20.00    -0.004 C 
HETATM    4  C6  UNL     1     -33.956   5.457   3.887  1.00 20.00     0.015 C 
HETATM    5  C7  UNL     1     -34.523   5.541   5.306  1.00 20.00     0.122 C 
HETATM    6  C9  UNL     1     -34.966   4.917   2.882  1.00 20.00     0.013 C 
ENDROOT
BRANCH   3   7
HETATM    7  C10 UNL     1     -32.613   7.077   2.426  1.00 20.00     0.038 C 
BRANCH   7   8
HETATM    8  C2  UNL     1     -32.544   8.504   1.938  1.00 20.00    -0.093 C 
HETATM    9  C1  UNL     1     -33.268   9.477   2.512  1.00 20.00     0.014 C 
HETATM   10  C8  UNL     1     -31.655   8.781   0.760  1.00 20.00     0.042 C 
ENDBRANCH   7   8
ENDBRANCH   3   7
BRANCH   5  11
HETATM   11  O11 UNL     1     -34.481   4.286   5.963  1.00 20.00    -0.395 OA
HETATM   12  H29 UNL     1     -34.800   4.428   6.870  1.00 20.00     0.210 HD
ENDBRANCH   5  11
TORSDOF 3
