REMARK  4 active torsions:
REMARK  status: ('A' for Active; 'I' for Inactive)
REMARK    1  A    between atoms: C2_2  and  C9_9 
REMARK    2  A    between atoms: C5_5  and  C9_9 
REMARK    3  A    between atoms: C8_8  and  C9_9 
REMARK    4  A    between atoms: C9_9  and  O10_10 
ROOT
HETATM    1  C9  UNL     1     -33.710   5.985   4.569  1.00 20.00     0.083 C 
ENDROOT
BRANCH   1   2
HETATM    2  C2  UNL     1     -34.051   5.799   6.055  1.00 20.00    -0.059 C 
HETATM    3  C1  UNL     1     -33.984   6.784   6.968  1.00 20.00     0.017 C 
HETATM    4  C6  UNL     1     -34.495   4.424   6.491  1.00 20.00     0.046 C 
ENDBRANCH   1   2
BRANCH   1   5
HETATM    5  C5  UNL     1     -32.261   5.740   4.175  1.00 20.00     0.024 A 
HETATM    6  C3  UNL     1     -31.851   5.778   2.729  1.00 20.00     0.008 A 
HETATM    7  C4  UNL     1     -31.413   6.872   3.663  1.00 20.00     0.008 A 
ENDBRANCH   1   5
BRANCH   1   8
HETATM    8  C8  UNL     1     -34.644   5.148   3.654  1.00 20.00     0.038 C 
HETATM    9  C7  UNL     1     -36.128   5.474   3.765  1.00 20.00     0.008 C 
ENDBRANCH   1   8
BRANCH   1  10
HETATM   10  O10 UNL     1     -33.982   7.360   4.234  1.00 20.00    -0.385 OA
HETATM   11  H26 UNL     1     -33.413   7.886   4.809  1.00 20.00     0.211 HD
ENDBRANCH   1  10
TORSDOF 4
