REMARK  5 active torsions:
REMARK  status: ('A' for Active; 'I' for Inactive)
REMARK    1  A    between atoms: C2_2  and  C5_5 
REMARK    2  A    between atoms: C5_5  and  C7_7 
REMARK    3  A    between atoms: C6_6  and  C9_9 
REMARK    4  A    between atoms: C7_7  and  C8_8 
REMARK    5  A    between atoms: C8_8  and  C9_9 
ROOT
HETATM    1  C7  UNL     1     -32.089   7.087   3.163  1.00 20.00     0.006 C 
ENDROOT
BRANCH   1   2
HETATM    2  C5  UNL     1     -31.610   8.003   2.029  1.00 20.00     0.033 C 
BRANCH   2   3
HETATM    3  C2  UNL     1     -32.519   9.175   1.740  1.00 20.00    -0.093 C 
HETATM    4  C1  UNL     1     -33.310   9.698   2.690  1.00 20.00     0.014 C 
HETATM    5  C3  UNL     1     -32.526   9.707   0.336  1.00 20.00     0.042 C 
ENDBRANCH   2   3
ENDBRANCH   1   2
BRANCH   1   6
HETATM    6  C8  UNL     1     -33.419   6.388   2.849  1.00 20.00     0.020 C 
BRANCH   6   7
HETATM    7  C9  UNL     1     -33.914   5.482   3.988  1.00 20.00     0.082 C 
HETATM    8 CL10 UNL     1     -35.661   5.134   3.787  1.00 20.00    -0.125 Cl
BRANCH   7   9
HETATM    9  C6  UNL     1     -33.652   6.135   5.353  1.00 20.00     0.016 C 
HETATM   10  C4  UNL     1     -34.133   5.299   6.533  1.00 20.00     0.006 C 
ENDBRANCH   7   9
ENDBRANCH   6   7
ENDBRANCH   1   6
TORSDOF 5
