REMARK  2 active torsions:
REMARK  status: ('A' for Active; 'I' for Inactive)
REMARK    1  A    between atoms: C3_3  and  C11_11 
REMARK    2  A    between atoms: C9_9  and  C11_11 
ROOT
HETATM    1  C1  UNL     1     -33.792   6.765   5.777  1.00 20.00     0.127 C 
HETATM    2  C4  UNL     1     -34.277   5.626   6.640  1.00 20.00     0.078 C 
HETATM    3  C5  UNL     1     -34.442   6.956   4.424  1.00 20.00     0.083 C 
HETATM    4  C6  UNL     1     -34.104   4.266   5.981  1.00 20.00     0.007 C 
HETATM    5  C7  UNL     1     -35.025   4.066   4.782  1.00 20.00     0.001 C 
HETATM    6  C8  UNL     1     -34.461   4.552   3.447  1.00 20.00     0.005 C 
HETATM    7  C9  UNL     1     -33.921   5.993   3.356  1.00 20.00    -0.004 C 
HETATM    8  O12 UNL     1     -32.912   7.531   6.173  1.00 20.00    -0.298 OA
ENDROOT
BRANCH   7   9
HETATM    9  C11 UNL     1     -32.390   6.010   3.262  1.00 20.00     0.037 C 
BRANCH   9  10
HETATM   10  C3  UNL     1     -31.847   7.391   3.020  1.00 20.00    -0.093 C 
HETATM   11  C2  UNL     1     -31.015   7.978   3.895  1.00 20.00     0.014 C 
HETATM   12  C10 UNL     1     -32.309   8.104   1.781  1.00 20.00     0.042 C 
ENDBRANCH   9  10
ENDBRANCH   7   9
TORSDOF 2
