REMARK  3 active torsions:
REMARK  status: ('A' for Active; 'I' for Inactive)
REMARK    1  A    between atoms: C2_2  and  C9_9 
REMARK    2  A    between atoms: C7_7  and  C9_9 
REMARK    3  A    between atoms: C9_9  and  O11_11 
ROOT
HETATM    1  C3  UNL     1     -33.388   5.983   5.656  1.00 20.00     0.034 C 
HETATM    2  C4  UNL     1     -34.535   5.372   3.510  1.00 20.00     0.034 C 
HETATM    3  C5  UNL     1     -34.627   5.473   6.382  1.00 20.00     0.168 C 
HETATM    4  C6  UNL     1     -35.710   4.896   4.356  1.00 20.00     0.168 C 
HETATM    5  C7  UNL     1     -33.745   6.462   4.245  1.00 20.00     0.023 C 
HETATM    6  O10 UNL     1     -35.262   4.438   5.632  1.00 20.00    -0.391 OA
ENDROOT
BRANCH   5   7
HETATM    7  C9  UNL     1     -32.495   6.857   3.464  1.00 20.00     0.150 C 
BRANCH   7   8
HETATM    8  C2  UNL     1     -32.797   7.788   2.312  1.00 20.00    -0.064 C 
HETATM    9  C1  UNL     1     -34.049   8.210   2.073  1.00 20.00     0.016 C 
HETATM   10  C8  UNL     1     -31.653   8.238   1.446  1.00 20.00     0.045 C 
ENDBRANCH   7   8
BRANCH   7  11
HETATM   11  O11 UNL     1     -31.865   5.682   2.960  1.00 20.00    -0.391 OA
HETATM   12  H27 UNL     1     -31.049   5.972   2.523  1.00 20.00     0.210 HD
ENDBRANCH   7  11
ENDBRANCH   5   7
TORSDOF 3
