REMARK  2 active torsions:
REMARK  status: ('A' for Active; 'I' for Inactive)
REMARK    1  A    between atoms: C1_1  and  C7_7 
REMARK    2  A    between atoms: C7_7  and  O11_11 
ROOT
HETATM    1  C3  UNL     1     -34.081   5.615   5.758  1.00 20.00     0.029 C 
HETATM    2  C4  UNL     1     -34.018   6.835   4.836  1.00 20.00     0.046 C 
HETATM    3  C5  UNL     1     -34.447   4.340   5.009  1.00 20.00     0.167 C 
HETATM    4  C6  UNL     1     -34.492   5.337   2.855  1.00 20.00     0.209 C 
HETATM    5  C7  UNL     1     -33.583   6.450   3.418  1.00 20.00     0.097 C 
HETATM    6  O10 UNL     1     -35.239   4.652   3.869  1.00 20.00    -0.388 OA
ENDROOT
BRANCH   5   7
HETATM    7  C1  UNL     1     -33.563   7.649   2.518  1.00 20.00     0.015 C 
HETATM    8  C2  UNL     1     -32.535   8.489   2.286  1.00 20.00    -0.088 C 
HETATM    9  C8  UNL     1     -32.680   9.654   1.348  1.00 20.00     0.042 C 
HETATM   10  C9  UNL     1     -31.182   8.349   2.924  1.00 20.00     0.042 C 
ENDBRANCH   5   7
BRANCH   5  11
HETATM   11  O11 UNL     1     -32.242   5.954   3.501  1.00 20.00    -0.384 OA
HETATM   12  H27 UNL     1     -31.979   5.724   2.597  1.00 20.00     0.211 HD
ENDBRANCH   5  11
TORSDOF 2
