REMARK  0 active torsions:
REMARK  status: ('A' for Active; 'I' for Inactive)
ROOT
HETATM    1  C1  UNL     1     -32.511   7.652   4.260  1.00 20.00     0.063 A 
HETATM    2  C2  UNL     1     -33.236   6.122   2.506  1.00 20.00     0.098 A 
HETATM    3  C3  UNL     1     -33.919   5.772   4.750  1.00 20.00     0.055 A 
HETATM    4  C4  UNL     1     -33.219   6.893   5.177  1.00 20.00    -0.037 A 
HETATM    5  C5  UNL     1     -32.522   7.261   2.917  1.00 20.00     0.175 A 
HETATM    6  C6  UNL     1     -33.949   5.359   3.430  1.00 20.00     0.134 A 
HETATM    7  C7  UNL     1     -34.564   5.171   5.906  1.00 20.00     0.163 A 
HETATM    8  C8  UNL     1     -33.342   7.128   6.648  1.00 20.00     0.047 A 
HETATM    9  C9  UNL     1     -34.239   5.978   7.139  1.00 20.00     0.088 A 
HETATM   10  O10 UNL     1     -31.874   7.948   2.051  1.00 20.00    -0.288 OA
HETATM   11  O11 UNL     1     -35.256   4.169   5.863  1.00 20.00    -0.292 OA
HETATM   12  F12 UNL     1     -34.632   4.276   3.046  1.00 20.00    -0.205 F 
ENDROOT
TORSDOF 0
