REMARK  5 active torsions:
REMARK  status: ('A' for Active; 'I' for Inactive)
REMARK    1  A    between atoms: C2_2  and  C6_6 
REMARK    2  A    between atoms: C6_6  and  C8_8 
REMARK    3  A    between atoms: C7_7  and  C8_8 
REMARK    4  A    between atoms: C7_7  and  C9_9 
REMARK    5  A    between atoms: C9_9  and  O10_10 
ROOT
HETATM    1  C4  UNL     1     -31.630   6.875   3.558  1.00 20.00     0.010 C 
HETATM    2  C8  UNL     1     -32.952   6.640   2.816  1.00 20.00    -0.012 C 
ENDROOT
BRANCH   2   3
HETATM    3  C6  UNL     1     -34.126   6.933   3.780  1.00 20.00     0.037 C 
BRANCH   3   4
HETATM    4  C2  UNL     1     -34.115   6.133   5.064  1.00 20.00    -0.093 C 
HETATM    5  C1  UNL     1     -34.121   6.733   6.265  1.00 20.00     0.014 C 
HETATM    6  C3  UNL     1     -34.137   4.637   4.938  1.00 20.00     0.042 C 
ENDBRANCH   3   4
ENDBRANCH   2   3
BRANCH   2   7
HETATM    7  C7  UNL     1     -33.049   7.500   1.533  1.00 20.00     0.035 C 
BRANCH   7   8
HETATM    8  C9  UNL     1     -32.580   8.952   1.696  1.00 20.00     0.114 C 
HETATM    9  C5  UNL     1     -32.789   9.743   0.410  1.00 20.00     0.039 C 
BRANCH   8  10
HETATM   10  O10 UNL     1     -33.324   9.570   2.742  1.00 20.00    -0.396 OA
HETATM   11  H28 UNL     1     -32.983  10.475   2.827  1.00 20.00     0.210 HD
ENDBRANCH   8  10
ENDBRANCH   7   8
ENDBRANCH   2   7
TORSDOF 5
