REMARK  3 active torsions:
REMARK  status: ('A' for Active; 'I' for Inactive)
REMARK    1  A    between atoms: C2_2  and  C7_7 
REMARK    2  A    between atoms: C5_5  and  C7_7 
REMARK    3  A    between atoms: C7_7  and  O8_8 
ROOT
HETATM    1  C7  UNL     1     -35.109   5.068   5.746  1.00 20.00     0.150 C 
ENDROOT
BRANCH   1   2
HETATM    2  C2  UNL     1     -33.957   5.659   6.528  1.00 20.00    -0.064 C 
HETATM    3  C1  UNL     1     -33.977   6.941   6.926  1.00 20.00     0.016 C 
HETATM    4  C6  UNL     1     -32.792   4.767   6.855  1.00 20.00     0.045 C 
ENDBRANCH   1   2
BRANCH   1   5
HETATM    5  C5  UNL     1     -34.920   5.190   4.237  1.00 20.00     0.019 A 
HETATM    6  C3  UNL     1     -34.675   6.535   3.611  1.00 20.00     0.008 A 
HETATM    7  C4  UNL     1     -33.568   5.519   3.667  1.00 20.00     0.008 A 
ENDBRANCH   1   5
BRANCH   1   8
HETATM    8  O8  UNL     1     -35.249   3.692   6.093  1.00 20.00    -0.391 OA
HETATM    9  H20 UNL     1     -35.993   3.352   5.573  1.00 20.00     0.210 HD
ENDBRANCH   1   8
TORSDOF 3
