REMARK  2 active torsions:
REMARK  status: ('A' for Active; 'I' for Inactive)
REMARK    1  A    between atoms: C2_2  and  C10_10 
REMARK    2  A    between atoms: C7_7  and  C10_10 
ROOT
HETATM    1  C3  UNL     1     -33.828   4.390   2.908  1.00 20.00     0.002 C 
HETATM    2  C4  UNL     1     -32.841   5.521   2.637  1.00 20.00     0.005 C 
HETATM    3  C5  UNL     1     -35.153   4.914   3.461  1.00 20.00     0.016 C 
HETATM    4  C6  UNL     1     -33.924   6.918   4.446  1.00 20.00     0.020 C 
HETATM    5  C7  UNL     1     -32.599   6.372   3.889  1.00 20.00    -0.010 C 
HETATM    6  C8  UNL     1     -34.985   5.841   4.661  1.00 20.00     0.058 C 
HETATM    7 BR11 UNL     1     -34.567   4.794   6.266  1.00 20.00    -0.091 Br
ENDROOT
BRANCH   5   8
HETATM    8  C10 UNL     1     -31.634   7.517   3.581  1.00 20.00     0.037 C 
BRANCH   8   9
HETATM    9  C2  UNL     1     -32.174   8.463   2.540  1.00 20.00    -0.093 C 
HETATM   10  C1  UNL     1     -31.921   8.285   1.235  1.00 20.00     0.014 C 
HETATM   11  C9  UNL     1     -32.973   9.637   3.029  1.00 20.00     0.042 C 
ENDBRANCH   8   9
ENDBRANCH   5   8
TORSDOF 2
