REMARK  2 active torsions:
REMARK  status: ('A' for Active; 'I' for Inactive)
REMARK    1  A    between atoms: C7_7  and  C8_8 
REMARK    2  A    between atoms: C7_7  and  N9_9 
ROOT
HETATM    1  C1  UNL     1     -33.089   5.977   4.866  1.00 20.00     0.277 C 
HETATM    2  C2  UNL     1     -33.619   5.316   2.667  1.00 20.00     0.277 C 
HETATM    3  C3  UNL     1     -34.109   4.829   4.934  1.00 20.00     0.015 C 
HETATM    4  C4  UNL     1     -34.759   4.797   3.542  1.00 20.00     0.015 C 
HETATM    5  C5  UNL     1     -35.055   4.934   6.121  1.00 20.00     0.012 C 
HETATM    6  C6  UNL     1     -36.020   5.654   3.403  1.00 20.00     0.012 C 
HETATM    7  N9  UNL     1     -33.086   6.419   3.467  1.00 20.00     0.090 N 
ENDROOT
BRANCH   7   8
HETATM    8  C7  UNL     1     -31.780   6.868   3.014  1.00 20.00     0.287 C 
BRANCH   8   9
HETATM    9  C8  UNL     1     -31.855   7.687   1.736  1.00 20.00     0.144 C 
HETATM   10 CL10 UNL     1     -32.849   9.148   1.960  1.00 20.00    -0.129 Cl
ENDBRANCH   8   9
ENDBRANCH   7   8
TORSDOF 2
