REMARK  2 active torsions:
REMARK  status: ('A' for Active; 'I' for Inactive)
REMARK    1  A    between atoms: C9_9  and  C10_10 
REMARK    2  A    between atoms: C9_9  and  N12_12 
ROOT
HETATM    1  C1  UNL     1     -32.360   8.440   1.685  1.00 20.00     0.065 C 
HETATM    2  C8  UNL     1     -31.703   6.912   3.508  1.00 20.00     0.027 C 
HETATM    3  C10 UNL     1     -32.837   7.724   2.883  1.00 20.00     0.114 C 
HETATM    4  N11 UNL     1     -31.984   9.004   0.743  1.00 20.00    -0.197 NA
ENDROOT
BRANCH   3   5
HETATM    5  C9  UNL     1     -34.075   6.875   2.576  1.00 20.00     0.253 C 
BRANCH   5   6
HETATM    6  N12 UNL     1     -34.295   5.816   3.605  1.00 20.00    -0.069 N 
HETATM    7  C2  UNL     1     -34.555   6.343   4.989  1.00 20.00     0.239 C 
HETATM    8  C4  UNL     1     -35.063   5.117   5.738  1.00 20.00     0.012 C 
HETATM    9  C5  UNL     1     -35.791   4.272   4.671  1.00 20.00     0.012 C 
HETATM   10  C6  UNL     1     -33.910   4.333   6.369  1.00 20.00     0.012 C 
HETATM   11  C3  UNL     1     -35.454   4.900   3.316  1.00 20.00     0.239 C 
HETATM   12  C7  UNL     1     -37.299   4.233   4.900  1.00 20.00     0.012 C 
HETATM   13  H31 UNL     1     -33.456   5.241   3.652  1.00 20.00     0.280 HD
ENDBRANCH   5   6
ENDBRANCH   3   5
TORSDOF 2
