REMARK  2 active torsions:
REMARK  status: ('A' for Active; 'I' for Inactive)
REMARK    1  A    between atoms: C7_7  and  C8_8 
REMARK    2  A    between atoms: C7_7  and  N9_9 
ROOT
HETATM    1  C1  UNL     1     -33.082   7.242   4.711  1.00 20.00     0.277 C 
HETATM    2  C2  UNL     1     -33.745   5.821   2.976  1.00 20.00     0.277 C 
HETATM    3  C3  UNL     1     -34.215   6.364   5.265  1.00 20.00     0.015 C 
HETATM    4  C4  UNL     1     -34.359   5.228   4.238  1.00 20.00     0.015 C 
HETATM    5  C5  UNL     1     -33.925   5.840   6.666  1.00 20.00     0.012 C 
HETATM    6  C6  UNL     1     -35.796   4.771   4.038  1.00 20.00     0.012 C 
HETATM    7  N9  UNL     1     -32.589   6.524   3.531  1.00 20.00     0.090 N 
ENDROOT
BRANCH   7   8
HETATM    8  C7  UNL     1     -31.952   7.405   2.564  1.00 20.00     0.287 C 
BRANCH   8   9
HETATM    9  C8  UNL     1     -32.915   8.427   1.983  1.00 20.00     0.144 C 
HETATM   10 CL10 UNL     1     -32.104   9.483   0.800  1.00 20.00    -0.129 Cl
ENDBRANCH   8   9
ENDBRANCH   7   8
TORSDOF 2
