REMARK  2 active torsions:
REMARK  status: ('A' for Active; 'I' for Inactive)
REMARK    1  A    between atoms: C3_3  and  C6_6 
REMARK    2  A    between atoms: C6_6  and  O9_9 
ROOT
HETATM    1  C2  UNL     1     -31.493   7.844   3.893  1.00 20.00     0.045 A 
HETATM    2  C5  UNL     1     -31.912   7.748   2.449  1.00 20.00     0.019 A 
HETATM    3  C6  UNL     1     -32.520   6.820   3.478  1.00 20.00     0.066 A 
HETATM    4  C8  UNL     1     -32.695   8.849   1.821  1.00 20.00     0.013 C 
ENDROOT
BRANCH   3   5
HETATM    5  C3  UNL     1     -33.972   6.890   3.941  1.00 20.00     0.024 A 
HETATM    6  C1  UNL     1     -35.042   5.973   3.407  1.00 20.00     0.012 A 
HETATM    7  C4  UNL     1     -34.628   5.879   4.852  1.00 20.00    -0.011 A 
HETATM    8  C7  UNL     1     -33.902   4.676   5.346  1.00 20.00     0.010 C 
ENDBRANCH   3   5
BRANCH   3   9
HETATM    9  O9  UNL     1     -32.017   5.465   3.418  1.00 20.00    -0.389 OA
HETATM   10  H23 UNL     1     -31.711   5.267   4.310  1.00 20.00     0.210 HD
ENDBRANCH   3   9
TORSDOF 2
