REMARK  2 active torsions:
REMARK  status: ('A' for Active; 'I' for Inactive)
REMARK    1  A    between atoms: C4_4  and  C7_7 
REMARK    2  A    between atoms: C7_7  and  C8_8 
ROOT
HETATM    1  C1  UNL     1     -32.666   7.890   3.965  1.00 20.00     0.034 C 
HETATM    2  C2  UNL     1     -32.442   8.163   2.492  1.00 20.00     0.168 C 
HETATM    3  C3  UNL     1     -33.167   5.962   2.727  1.00 20.00     0.173 C 
HETATM    4  C4  UNL     1     -33.670   6.760   3.918  1.00 20.00     0.026 C 
HETATM    5  O9  UNL     1     -32.609   6.913   1.807  1.00 20.00    -0.391 OA
ENDROOT
BRANCH   4   6
HETATM    6  C7  UNL     1     -33.760   5.954   5.200  1.00 20.00     0.067 C 
HETATM    7 BR10 UNL     1     -33.380   7.153   6.713  1.00 20.00    -0.090 Br
BRANCH   6   8
HETATM    8  C8  UNL     1     -35.088   5.207   5.438  1.00 20.00    -0.008 C 
HETATM    9  C5  UNL     1     -35.075   4.504   6.801  1.00 20.00     0.011 C 
HETATM   10  C6  UNL     1     -35.438   4.213   4.355  1.00 20.00     0.011 C 
ENDBRANCH   6   8
ENDBRANCH   4   6
TORSDOF 2
