REMARK  3 active torsions:
REMARK  status: ('A' for Active; 'I' for Inactive)
REMARK    1  A    between atoms: C2_2  and  C6_6 
REMARK    2  A    between atoms: C3_3  and  C7_7 
REMARK    3  A    between atoms: C3_3  and  O8_8 
ROOT
HETATM    1  C1  UNL     1     -36.076   5.188   3.991  1.00 20.00     0.045 A 
HETATM    2  C2  UNL     1     -34.685   4.673   3.726  1.00 20.00     0.022 A 
HETATM    3  C3  UNL     1     -35.063   5.158   5.108  1.00 20.00     0.062 A 
ENDROOT
BRANCH   3   4
HETATM    4  C7  UNL     1     -34.540   6.436   5.675  1.00 20.00     0.034 C 
HETATM    5  C5  UNL     1     -33.539   6.221   6.781  1.00 20.00     0.008 C 
ENDBRANCH   3   4
BRANCH   3   6
HETATM    6  O8  UNL     1     -35.249   4.128   6.096  1.00 20.00    -0.389 OA
HETATM    7  H22 UNL     1     -35.197   3.292   5.615  1.00 20.00     0.210 HD
ENDBRANCH   3   6
BRANCH   2   8
HETATM    8  C6  UNL     1     -33.759   5.432   2.839  1.00 20.00     0.003 C 
HETATM    9  C4  UNL     1     -32.307   5.121   3.100  1.00 20.00     0.005 C 
ENDBRANCH   2   8
TORSDOF 3
