REMARK  3 active torsions:
REMARK  status: ('A' for Active; 'I' for Inactive)
REMARK    1  A    between atoms: C3_3  and  C9_9 
REMARK    2  A    between atoms: C3_3  and  O10_10 
REMARK    3  A    between atoms: C8_8  and  C9_9 
ROOT
HETATM    1  C1  UNL     1     -33.416   3.778   5.377  1.00 20.00     0.046 A 
HETATM    2  C2  UNL     1     -34.407   4.661   6.090  1.00 20.00     0.019 A 
HETATM    3  C3  UNL     1     -34.474   4.506   4.586  1.00 20.00     0.068 A 
HETATM    4  C4  UNL     1     -33.957   5.922   6.743  1.00 20.00     0.013 C 
ENDROOT
BRANCH   3   5
HETATM    5  C9  UNL     1     -34.072   5.640   3.623  1.00 20.00    -0.017 C 
HETATM    6  C6  UNL     1     -34.521   5.258   2.203  1.00 20.00     0.018 C 
HETATM    7  C7  UNL     1     -34.796   6.926   4.054  1.00 20.00     0.018 C 
BRANCH   5   8
HETATM    8  C8  UNL     1     -32.533   5.813   3.695  1.00 20.00     0.007 C 
HETATM    9  C5  UNL     1     -31.945   6.900   2.803  1.00 20.00     0.006 C 
ENDBRANCH   5   8
ENDBRANCH   3   5
BRANCH   3  10
HETATM   10  O10 UNL     1     -35.557   3.696   4.095  1.00 20.00    -0.389 OA
HETATM   11  H28 UNL     1     -35.973   3.312   4.878  1.00 20.00     0.210 HD
ENDBRANCH   3  10
TORSDOF 3
