REMARK  4 active torsions:
REMARK  status: ('A' for Active; 'I' for Inactive)
REMARK    1  A    between atoms: C6_6  and  C7_7 
REMARK    2  A    between atoms: C6_6  and  C9_9 
REMARK    3  A    between atoms: C8_8  and  C10_10 
REMARK    4  A    between atoms: C9_9  and  C10_10 
ROOT
HETATM    1  C5  UNL     1     -31.613   6.213   3.451  1.00 20.00     0.011 C 
HETATM    2  C9  UNL     1     -33.034   6.718   3.152  1.00 20.00     0.001 C 
ENDROOT
BRANCH   2   3
HETATM    3  C6  UNL     1     -33.050   8.242   2.881  1.00 20.00     0.009 C 
BRANCH   3   4
HETATM    4  C7  UNL     1     -32.672   8.675   1.447  1.00 20.00    -0.022 C 
HETATM    5  C1  UNL     1     -31.261   8.234   1.056  1.00 20.00     0.009 C 
HETATM    6  C2  UNL     1     -32.787  10.198   1.324  1.00 20.00     0.009 C 
ENDBRANCH   3   4
ENDBRANCH   2   3
BRANCH   2   7
HETATM    7  C10 UNL     1     -34.029   6.291   4.275  1.00 20.00     0.089 C 
HETATM    8 CL11 UNL     1     -34.667   4.637   3.935  1.00 20.00    -0.124 Cl
BRANCH   7   9
HETATM    9  C8  UNL     1     -33.478   6.358   5.727  1.00 20.00    -0.004 C 
HETATM   10  C3  UNL     1     -34.513   5.902   6.765  1.00 20.00     0.011 C 
HETATM   11  C4  UNL     1     -33.020   7.778   6.098  1.00 20.00     0.011 C 
ENDBRANCH   7   9
ENDBRANCH   2   7
TORSDOF 4
