REMARK  2 active torsions:
REMARK  status: ('A' for Active; 'I' for Inactive)
REMARK    1  A    between atoms: C3_3  and  C7_7 
REMARK    2  A    between atoms: C3_3  and  O8_8 
ROOT
HETATM    1  C1  UNL     1     -34.774   5.053   2.832  1.00 20.00     0.045 A 
HETATM    2  C2  UNL     1     -35.815   5.886   3.534  1.00 20.00     0.019 A 
HETATM    3  C3  UNL     1     -34.816   5.090   4.339  1.00 20.00     0.065 A 
HETATM    4  C4  UNL     1     -37.252   5.497   3.469  1.00 20.00     0.013 C 
ENDROOT
BRANCH   3   5
HETATM    5  C7  UNL     1     -33.739   5.794   5.095  1.00 20.00     0.012 C 
HETATM    6  C5  UNL     1     -32.669   6.379   4.155  1.00 20.00     0.012 C 
HETATM    7  C6  UNL     1     -34.304   6.918   5.983  1.00 20.00     0.012 C 
ENDBRANCH   3   5
BRANCH   3   8
HETATM    8  O8  UNL     1     -35.289   3.895   4.983  1.00 20.00    -0.389 OA
HETATM    9  H22 UNL     1     -35.257   4.076   5.931  1.00 20.00     0.210 HD
ENDBRANCH   3   8
TORSDOF 2
