REMARK  3 active torsions:
REMARK  status: ('A' for Active; 'I' for Inactive)
REMARK    1  A    between atoms: C3_3  and  C6_6 
REMARK    2  A    between atoms: C3_3  and  O8_8 
REMARK    3  A    between atoms: C6_6  and  C7_7 
ROOT
HETATM    1  C1  UNL     1     -34.311   4.615   5.611  1.00 20.00     0.045 A 
HETATM    2  C2  UNL     1     -34.513   6.060   5.986  1.00 20.00     0.019 A 
HETATM    3  C3  UNL     1     -34.341   5.671   4.534  1.00 20.00     0.061 A 
HETATM    4  C4  UNL     1     -33.463   6.794   6.746  1.00 20.00     0.013 C 
ENDROOT
BRANCH   3   5
HETATM    5  C6  UNL     1     -33.101   5.988   3.766  1.00 20.00     0.038 C 
BRANCH   5   6
HETATM    6  C7  UNL     1     -33.181   7.350   3.057  1.00 20.00    -0.002 C 
HETATM    7  C5  UNL     1     -31.905   7.688   2.303  1.00 20.00     0.005 C 
ENDBRANCH   5   6
ENDBRANCH   3   5
BRANCH   3   8
HETATM    8  O8  UNL     1     -35.537   5.718   3.735  1.00 20.00    -0.389 OA
HETATM    9  H22 UNL     1     -36.258   5.893   4.353  1.00 20.00     0.210 HD
ENDBRANCH   3   8
TORSDOF 3
