REMARK  4 active torsions:
REMARK  status: ('A' for Active; 'I' for Inactive)
REMARK    1  A    between atoms: C2_2  and  C7_7 
REMARK    2  A    between atoms: C3_3  and  C8_8 
REMARK    3  A    between atoms: C3_3  and  O10_10 
REMARK    4  A    between atoms: C8_8  and  C9_9 
ROOT
HETATM    1  C1  UNL     1     -31.657   6.839   3.490  1.00 20.00     0.045 A 
HETATM    2  C2  UNL     1     -32.139   7.296   2.138  1.00 20.00     0.022 A 
HETATM    3  C3  UNL     1     -33.096   7.248   3.304  1.00 20.00     0.062 A 
ENDROOT
BRANCH   3   4
HETATM    4  C8  UNL     1     -34.195   6.195   3.342  1.00 20.00     0.042 C 
BRANCH   4   5
HETATM    5  C9  UNL     1     -34.216   5.374   4.643  1.00 20.00    -0.020 C 
HETATM    6  C5  UNL     1     -34.435   6.247   5.880  1.00 20.00     0.009 C 
HETATM    7  C6  UNL     1     -35.309   4.305   4.565  1.00 20.00     0.009 C 
ENDBRANCH   4   5
ENDBRANCH   3   4
BRANCH   3   8
HETATM    8  O10 UNL     1     -33.474   8.500   3.901  1.00 20.00    -0.389 OA
HETATM    9  H28 UNL     1     -33.306   8.402   4.848  1.00 20.00     0.210 HD
ENDBRANCH   3   8
BRANCH   2  10
HETATM   10  C7  UNL     1     -31.663   8.590   1.573  1.00 20.00     0.003 C 
HETATM   11  C4  UNL     1     -32.599   9.162   0.539  1.00 20.00     0.005 C 
ENDBRANCH   2  10
TORSDOF 4
