REMARK  2 active torsions:
REMARK  status: ('A' for Active; 'I' for Inactive)
REMARK    1  A    between atoms: C6_6  and  C9_9 
REMARK    2  A    between atoms: C8_8  and  C9_9 
ROOT
HETATM    1  C1  UNL     1     -34.045   5.235   6.179  1.00 20.00     0.027 C 
HETATM    2  C2  UNL     1     -34.049   6.673   5.656  1.00 20.00     0.008 C 
HETATM    3  C3  UNL     1     -34.026   5.670   3.267  1.00 20.00     0.032 C 
HETATM    4  C4  UNL     1     -35.084   4.312   5.532  1.00 20.00     0.167 C 
HETATM    5  C5  UNL     1     -35.493   5.256   3.369  1.00 20.00     0.168 C 
HETATM    6  C6  UNL     1     -33.618   6.832   4.186  1.00 20.00     0.006 C 
HETATM    7  O10 UNL     1     -35.978   5.029   4.690  1.00 20.00    -0.391 OA
ENDROOT
BRANCH   6   8
HETATM    8  C9  UNL     1     -32.101   7.040   4.094  1.00 20.00     0.086 C 
HETATM    9 CL11 UNL     1     -31.695   8.446   5.108  1.00 20.00    -0.125 Cl
BRANCH   8  10
HETATM   10  C8  UNL     1     -31.680   7.237   2.645  1.00 20.00     0.016 C 
HETATM   11  C7  UNL     1     -32.333   8.458   2.011  1.00 20.00     0.006 C 
ENDBRANCH   8  10
ENDBRANCH   6   8
TORSDOF 2
