REMARK  2 active torsions:
REMARK  status: ('A' for Active; 'I' for Inactive)
REMARK    1  A    between atoms: C5_5  and  C7_7 
REMARK    2  A    between atoms: C7_7  and  O9_9 
ROOT
HETATM    1  C2  UNL     1     -31.748   6.443   3.744  1.00 20.00     0.045 A 
HETATM    2  C6  UNL     1     -32.132   6.856   2.347  1.00 20.00     0.019 A 
HETATM    3  C7  UNL     1     -32.993   5.889   3.115  1.00 20.00     0.066 A 
HETATM    4  C8  UNL     1     -32.547   8.259   2.065  1.00 20.00     0.013 C 
ENDROOT
BRANCH   3   5
HETATM    5  C5  UNL     1     -34.341   6.286   3.662  1.00 20.00     0.030 C 
HETATM    6  C1  UNL     1     -34.303   6.595   5.160  1.00 20.00     0.018 C 
HETATM    7  C3  UNL     1     -34.251   5.273   5.910  1.00 20.00     0.074 C 
HETATM    8  S10 UNL     1     -35.302   4.144   4.957  1.00 20.00    -0.169 SA
HETATM    9  C4  UNL     1     -35.395   5.196   3.478  1.00 20.00     0.081 C 
ENDBRANCH   3   5
BRANCH   3  10
HETATM   10  O9  UNL     1     -32.945   4.520   2.691  1.00 20.00    -0.389 OA
HETATM   11  H24 UNL     1     -32.235   4.467   2.036  1.00 20.00     0.210 HD
ENDBRANCH   3  10
TORSDOF 2
