REMARK  3 active torsions:
REMARK  status: ('A' for Active; 'I' for Inactive)
REMARK    1  A    between atoms: C2_2  and  C6_6 
REMARK    2  A    between atoms: C3_3  and  C7_7 
REMARK    3  A    between atoms: C3_3  and  O8_8 
ROOT
HETATM    1  C1  UNL     1     -34.173   4.987   2.680  1.00 20.00     0.045 A 
HETATM    2  C2  UNL     1     -33.922   6.284   3.405  1.00 20.00     0.022 A 
HETATM    3  C3  UNL     1     -34.840   5.243   4.008  1.00 20.00     0.062 A 
ENDROOT
BRANCH   3   4
HETATM    4  C7  UNL     1     -34.455   4.437   5.204  1.00 20.00     0.034 C 
HETATM    5  C5  UNL     1     -35.218   4.825   6.443  1.00 20.00     0.008 C 
ENDBRANCH   3   4
BRANCH   3   6
HETATM    6  O8  UNL     1     -36.245   5.553   3.955  1.00 20.00    -0.389 OA
HETATM    7  H22 UNL     1     -36.316   6.354   3.420  1.00 20.00     0.210 HD
ENDBRANCH   3   6
BRANCH   2   8
HETATM    8  C6  UNL     1     -32.575   6.582   3.967  1.00 20.00     0.003 C 
HETATM    9  C4  UNL     1     -31.620   7.142   2.944  1.00 20.00     0.005 C 
ENDBRANCH   2   8
TORSDOF 3
