REMARK  3 active torsions:
REMARK  status: ('A' for Active; 'I' for Inactive)
REMARK    1  A    between atoms: C5_5  and  C9_9 
REMARK    2  A    between atoms: C6_6  and  C11_11 
REMARK    3  A    between atoms: C10_10  and  C11_11 
ROOT
HETATM    1  C1  UNL     1     -34.032   8.384   2.080  1.00 20.00     0.005 C 
HETATM    2  C2  UNL     1     -31.574   7.869   2.347  1.00 20.00     0.005 C 
HETATM    3  C3  UNL     1     -34.349   7.493   3.280  1.00 20.00     0.006 C 
HETATM    4  C4  UNL     1     -31.891   6.979   3.547  1.00 20.00     0.006 C 
HETATM    5  C5  UNL     1     -32.621   8.977   2.171  1.00 20.00    -0.015 C 
HETATM    6  C6  UNL     1     -33.303   6.385   3.455  1.00 20.00     0.004 C 
ENDROOT
BRANCH   6   7
HETATM    7  C11 UNL     1     -33.614   5.540   4.688  1.00 20.00     0.086 C 
HETATM    8 CL12 UNL     1     -35.170   4.721   4.400  1.00 20.00    -0.125 Cl
BRANCH   7   9
HETATM    9  C10 UNL     1     -33.650   6.409   5.939  1.00 20.00     0.016 C 
HETATM   10  C8  UNL     1     -33.946   5.608   7.200  1.00 20.00     0.006 C 
ENDBRANCH   7   9
ENDBRANCH   6   7
BRANCH   5  11
HETATM   11  C9  UNL     1     -32.310   9.822   0.937  1.00 20.00     0.000 C 
HETATM   12  C7  UNL     1     -33.293  10.933   0.767  1.00 20.00     0.005 C 
ENDBRANCH   5  11
TORSDOF 3
