REMARK  4 active torsions:
REMARK  status: ('A' for Active; 'I' for Inactive)
REMARK    1  A    between atoms: C5_5  and  C8_8 
REMARK    2  A    between atoms: C6_6  and  C8_8 
REMARK    3  A    between atoms: C7_7  and  N9_9 
REMARK    4  A    between atoms: C8_8  and  N9_9 
ROOT
HETATM    1  C8  UNL     1     -33.023   7.222   3.210  1.00 20.00     0.237 C 
ENDROOT
BRANCH   1   2
HETATM    2  C5  UNL     1     -32.633   6.995   4.675  1.00 20.00     0.150 C 
HETATM    3 CL10 UNL     1     -34.067   7.010   5.738  1.00 20.00    -0.128 Cl
ENDBRANCH   1   2
BRANCH   1   4
HETATM    4  C6  UNL     1     -33.583   5.934   2.553  1.00 20.00     0.011 C 
HETATM    5  C1  UNL     1     -34.827   5.380   3.253  1.00 20.00     0.012 C 
HETATM    6  C2  UNL     1     -32.511   4.843   2.462  1.00 20.00     0.012 C 
ENDBRANCH   1   4
BRANCH   1   7
HETATM    7  N9  UNL     1     -31.909   7.761   2.462  1.00 20.00     0.093 N 
HETATM    8  H28 UNL     1     -31.413   8.452   3.030  1.00 20.00     0.316 HD
BRANCH   7   9
HETATM    9  C7  UNL     1     -32.359   8.404   1.230  1.00 20.00     0.213 C 
HETATM   10  C3  UNL     1     -31.193   8.482   0.254  1.00 20.00     0.042 C 
HETATM   11  C4  UNL     1     -32.906   9.783   1.565  1.00 20.00     0.042 C 
ENDBRANCH   7   9
ENDBRANCH   1   7
TORSDOF 4
