REMARK  3 active torsions:
REMARK  status: ('A' for Active; 'I' for Inactive)
REMARK    1  A    between atoms: C1_1  and  C7_7 
REMARK    2  A    between atoms: C1_1  and  C12_12 
REMARK    3  A    between atoms: C8_8  and  C13_13 
ROOT
HETATM    1  C2  UNL     1     -31.378   7.119   3.993  1.00 20.00     0.001 C 
HETATM    2  C3  UNL     1     -32.213   5.877   3.691  1.00 20.00     0.012 C 
HETATM    3  C4  UNL     1     -34.325   7.401   3.567  1.00 20.00     0.012 C 
HETATM    4  C5  UNL     1     -31.277   8.074   2.804  1.00 20.00     0.005 C 
HETATM    5  C6  UNL     1     -33.802   8.045   2.285  1.00 20.00     0.006 C 
HETATM    6  C7  UNL     1     -33.722   6.034   3.892  1.00 20.00     0.055 C 
HETATM    7  C8  UNL     1     -32.540   8.894   2.508  1.00 20.00    -0.011 C 
ENDROOT
BRANCH   6   8
HETATM    8  C1  UNL     1     -34.075   5.697   5.313  1.00 20.00     0.130 C 
HETATM    9  O14 UNL     1     -33.656   6.377   6.249  1.00 20.00    -0.298 OA
BRANCH   8  10
HETATM   10  C12 UNL     1     -34.964   4.483   5.511  1.00 20.00     0.074 C 
HETATM   11  C9  UNL     1     -34.356   3.214   4.943  1.00 20.00     0.013 C 
ENDBRANCH   8  10
ENDBRANCH   6   8
BRANCH   7  12
HETATM   12  C13 UNL     1     -32.289   9.777   1.279  1.00 20.00    -0.019 C 
HETATM   13  C10 UNL     1     -32.411   8.953   0.002  1.00 20.00     0.010 C 
HETATM   14  C11 UNL     1     -33.262  10.951   1.263  1.00 20.00     0.010 C 
ENDBRANCH   7  12
TORSDOF 3
