REMARK  4 active torsions:
REMARK  status: ('A' for Active; 'I' for Inactive)
REMARK    1  A    between atoms: C3_3  and  C5_5 
REMARK    2  A    between atoms: C3_3  and  O8_8 
REMARK    3  A    between atoms: C5_5  and  C6_6 
REMARK    4  A    between atoms: C6_6  and  C7_7 
ROOT
HETATM    1  C1  UNL     1     -31.352   7.918   3.213  1.00 20.00     0.045 A 
HETATM    2  C2  UNL     1     -32.324   8.518   2.231  1.00 20.00     0.019 A 
HETATM    3  C3  UNL     1     -32.471   7.076   2.654  1.00 20.00     0.062 A 
HETATM    4  C4  UNL     1     -31.871   8.888   0.860  1.00 20.00     0.013 C 
ENDROOT
BRANCH   3   5
HETATM    5  C5  UNL     1     -33.605   6.669   3.533  1.00 20.00     0.047 C 
BRANCH   5   6
HETATM    6  C6  UNL     1     -33.230   5.500   4.446  1.00 20.00     0.120 C 
BRANCH   6   7
HETATM    7  C7  UNL     1     -34.389   5.059   5.312  1.00 20.00     0.388 C 
HETATM    8  F9  UNL     1     -34.793   6.049   6.136  1.00 20.00    -0.171 F 
HETATM    9  F10 UNL     1     -35.446   4.680   4.564  1.00 20.00    -0.171 F 
HETATM   10  F11 UNL     1     -34.033   4.006   6.081  1.00 20.00    -0.171 F 
ENDBRANCH   6   7
ENDBRANCH   5   6
ENDBRANCH   3   5
BRANCH   3  11
HETATM   11  O8  UNL     1     -32.082   6.067   1.706  1.00 20.00    -0.389 OA
HETATM   12  H22 UNL     1     -31.470   5.486   2.175  1.00 20.00     0.210 HD
ENDBRANCH   3  11
TORSDOF 4
