REMARK  2 active torsions:
REMARK  status: ('A' for Active; 'I' for Inactive)
REMARK    1  A    between atoms: C4_4  and  C7_7 
REMARK    2  A    between atoms: C6_6  and  C7_7 
ROOT
HETATM    1  C1  UNL     1     -33.630   6.254   6.071  1.00 20.00     0.034 C 
HETATM    2  C2  UNL     1     -34.260   5.286   7.051  1.00 20.00     0.168 C 
HETATM    3  C3  UNL     1     -35.309   5.025   4.987  1.00 20.00     0.173 C 
HETATM    4  C4  UNL     1     -33.914   5.578   4.747  1.00 20.00     0.026 C 
HETATM    5  O8  UNL     1     -35.376   4.683   6.380  1.00 20.00    -0.391 OA
ENDROOT
BRANCH   4   6
HETATM    6  C7  UNL     1     -33.820   6.499   3.546  1.00 20.00     0.063 C 
HETATM    7 BR9  UNL     1     -34.374   5.485   1.959  1.00 20.00    -0.091 Br
BRANCH   6   8
HETATM    8  C6  UNL     1     -32.399   7.037   3.351  1.00 20.00     0.012 C 
HETATM    9  C5  UNL     1     -32.242   7.900   2.105  1.00 20.00     0.006 C 
ENDBRANCH   6   8
ENDBRANCH   4   6
TORSDOF 2
