REMARK  3 active torsions:
REMARK  status: ('A' for Active; 'I' for Inactive)
REMARK    1  A    between atoms: C2_2  and  C6_6 
REMARK    2  A    between atoms: C3_3  and  C7_7 
REMARK    3  A    between atoms: C3_3  and  O8_8 
ROOT
HETATM    1  C1  UNL     1     -34.291   7.040   3.900  1.00 20.00     0.045 A 
HETATM    2  C2  UNL     1     -33.689   5.823   4.554  1.00 20.00     0.022 A 
HETATM    3  C3  UNL     1     -33.396   6.124   3.104  1.00 20.00     0.062 A 
ENDROOT
BRANCH   3   4
HETATM    4  C7  UNL     1     -32.035   6.582   2.698  1.00 20.00     0.034 C 
HETATM    5  C5  UNL     1     -32.065   7.815   1.832  1.00 20.00     0.008 C 
ENDBRANCH   3   4
BRANCH   3   6
HETATM    6  O8  UNL     1     -34.051   5.311   2.115  1.00 20.00    -0.389 OA
HETATM    7  H22 UNL     1     -34.474   5.929   1.504  1.00 20.00     0.210 HD
ENDBRANCH   3   6
BRANCH   2   8
HETATM    8  C6  UNL     1     -34.559   4.682   4.954  1.00 20.00     0.003 C 
HETATM    9  C4  UNL     1     -35.225   4.889   6.291  1.00 20.00     0.005 C 
ENDBRANCH   2   8
TORSDOF 3
