REMARK  3 active torsions:
REMARK  status: ('A' for Active; 'I' for Inactive)
REMARK    1  A    between atoms: C1_1  and  C7_7 
REMARK    2  A    between atoms: C1_1  and  C8_8 
REMARK    3  A    between atoms: C8_8  and  C9_9 
ROOT
HETATM    1  C3  UNL     1     -34.920   5.004   3.520  1.00 20.00     0.018 C 
HETATM    2  C8  UNL     1     -34.125   6.100   4.236  1.00 20.00     0.058 C 
ENDROOT
BRANCH   2   3
HETATM    3  C1  UNL     1     -32.891   6.416   3.381  1.00 20.00     0.131 C 
HETATM    4  O10 UNL     1     -32.003   5.584   3.194  1.00 20.00    -0.298 OA
BRANCH   3   5
HETATM    5  C7  UNL     1     -32.841   7.802   2.757  1.00 20.00     0.074 C 
HETATM    6  C2  UNL     1     -31.601   8.017   1.908  1.00 20.00     0.013 C 
ENDBRANCH   3   5
ENDBRANCH   2   3
BRANCH   2   7
HETATM    7  C9  UNL     1     -33.778   5.801   5.731  1.00 20.00    -0.041 C 
HETATM    8  C4  UNL     1     -35.071   5.562   6.540  1.00 20.00     0.015 C 
HETATM    9  C5  UNL     1     -32.986   6.936   6.407  1.00 20.00     0.015 C 
HETATM   10  C6  UNL     1     -32.932   4.512   5.821  1.00 20.00     0.015 C 
ENDBRANCH   2   7
TORSDOF 3
