REMARK  3 active torsions:
REMARK  status: ('A' for Active; 'I' for Inactive)
REMARK    1  A    between atoms: C1_1  and  C8_8 
REMARK    2  A    between atoms: C1_1  and  C9_9 
REMARK    3  A    between atoms: C9_9  and  C10_10 
ROOT
HETATM    1  C4  UNL     1     -34.352   4.925   2.563  1.00 20.00     0.018 C 
HETATM    2  C9  UNL     1     -34.014   5.979   3.624  1.00 20.00     0.059 C 
ENDROOT
BRANCH   2   3
HETATM    3  C1  UNL     1     -32.617   6.534   3.308  1.00 20.00     0.134 C 
HETATM    4  O11 UNL     1     -31.614   5.820   3.363  1.00 20.00    -0.297 OA
BRANCH   3   5
HETATM    5  C8  UNL     1     -32.533   8.000   2.885  1.00 20.00     0.048 C 
HETATM    6  C2  UNL     1     -32.681   8.102   1.371  1.00 20.00     0.017 C 
HETATM    7  C3  UNL     1     -31.222   8.628   3.349  1.00 20.00     0.017 C 
ENDBRANCH   3   5
ENDBRANCH   2   3
BRANCH   2   8
HETATM    8  C10 UNL     1     -34.157   5.497   5.105  1.00 20.00    -0.041 C 
HETATM    9  C5  UNL     1     -35.602   5.013   5.359  1.00 20.00     0.015 C 
HETATM   10  C6  UNL     1     -33.887   6.667   6.075  1.00 20.00     0.015 C 
HETATM   11  C7  UNL     1     -33.201   4.343   5.459  1.00 20.00     0.015 C 
ENDBRANCH   2   8
TORSDOF 3
