REMARK  2 active torsions:
REMARK  status: ('A' for Active; 'I' for Inactive)
REMARK    1  A    between atoms: C3_3  and  C6_6 
REMARK    2  A    between atoms: C6_6  and  O9_9 
ROOT
HETATM    1  C2  UNL     1     -35.494   5.307   3.565  1.00 20.00     0.045 A 
HETATM    2  C5  UNL     1     -34.611   4.651   4.595  1.00 20.00     0.019 A 
HETATM    3  C6  UNL     1     -33.996   5.319   3.384  1.00 20.00     0.066 A 
HETATM    4  C8  UNL     1     -34.492   5.235   5.960  1.00 20.00     0.013 C 
ENDROOT
BRANCH   3   5
HETATM    5  C3  UNL     1     -33.181   6.608   3.438  1.00 20.00     0.024 A 
HETATM    6  C1  UNL     1     -31.675   6.615   3.417  1.00 20.00     0.012 A 
HETATM    7  C4  UNL     1     -32.447   7.150   2.239  1.00 20.00    -0.011 A 
HETATM    8  C7  UNL     1     -32.456   8.611   1.949  1.00 20.00     0.010 C 
ENDBRANCH   3   5
BRANCH   3   9
HETATM    9  O9  UNL     1     -33.512   4.392   2.385  1.00 20.00    -0.389 OA
HETATM   10  H23 UNL     1     -33.936   4.661   1.561  1.00 20.00     0.210 HD
ENDBRANCH   3   9
TORSDOF 2
