REMARK  2 active torsions:
REMARK  status: ('A' for Active; 'I' for Inactive)
REMARK    1  A    between atoms: C4_4  and  C8_8 
REMARK    2  A    between atoms: C5_5  and  C9_9 
ROOT
HETATM    1  C1  UNL     1     -33.875   5.398   3.597  1.00 20.00     0.027 C 
HETATM    2  C2  UNL     1     -34.356   6.772   4.056  1.00 20.00     0.010 C 
HETATM    3  C3  UNL     1     -33.621   5.385   2.096  1.00 20.00     0.168 C 
HETATM    4  C4  UNL     1     -33.447   7.899   3.539  1.00 20.00     0.029 C 
HETATM    5  C5  UNL     1     -33.256   7.730   2.017  1.00 20.00     0.130 C 
HETATM    6  O10 UNL     1     -32.728   6.432   1.717  1.00 20.00    -0.385 OA
ENDROOT
BRANCH   5   7
HETATM    7  C9  UNL     1     -32.319   8.765   1.404  1.00 20.00     0.007 C 
HETATM    8  C6  UNL     1     -32.148   8.518  -0.094  1.00 20.00     0.012 C 
HETATM    9  C7  UNL     1     -32.839  10.179   1.657  1.00 20.00     0.012 C 
ENDBRANCH   5   7
BRANCH   4  10
HETATM   10  C8  UNL     1     -32.124   7.919   4.314  1.00 20.00     0.121 C 
HETATM   11 CL11 UNL     1     -32.437   8.195   6.034  1.00 20.00    -0.130 Cl
ENDBRANCH   4  10
TORSDOF 2
