REMARK  2 active torsions:
REMARK  status: ('A' for Active; 'I' for Inactive)
REMARK    1  A    between atoms: C3_3  and  C7_7 
REMARK    2  A    between atoms: C4_4  and  C9_9 
ROOT
HETATM    1  C1  UNL     1     -35.096   5.375   5.787  1.00 20.00    -0.003 C 
HETATM    2  C2  UNL     1     -33.932   6.035   5.832  1.00 20.00     0.131 C 
HETATM    3  C5  UNL     1     -35.834   5.174   4.503  1.00 20.00     0.032 C 
HETATM    4  C6  UNL     1     -34.939   5.504   3.310  1.00 20.00     0.040 C 
HETATM    5  C7  UNL     1     -34.129   6.763   3.604  1.00 20.00     0.151 C 
HETATM    6  O10 UNL     1     -33.307   6.636   4.770  1.00 20.00    -0.354 OA
ENDROOT
BRANCH   5   7
HETATM    7  C3  UNL     1     -33.160   7.037   2.502  1.00 20.00     0.009 C 
HETATM    8  C4  UNL     1     -32.657   8.229   2.127  1.00 20.00    -0.071 C 
HETATM    9  C8  UNL     1     -33.067   9.487   2.849  1.00 20.00     0.044 C 
BRANCH   8  10
HETATM   10  C9  UNL     1     -31.712   8.430   0.975  1.00 20.00     0.148 C 
HETATM   11 CL11 UNL     1     -32.615   8.728  -0.526  1.00 20.00    -0.126 Cl
ENDBRANCH   8  10
ENDBRANCH   5   7
TORSDOF 2
