REMARK  3 active torsions:
REMARK  status: ('A' for Active; 'I' for Inactive)
REMARK    1  A    between atoms: C1_1  and  C6_6 
REMARK    2  A    between atoms: C2_2  and  C3_3 
REMARK    3  A    between atoms: C3_3  and  C8_8 
ROOT
HETATM    1  C1  UNL     1     -34.382   6.327   2.711  1.00 20.00    -0.012 C 
HETATM    2  C3  UNL     1     -35.105   5.609   3.588  1.00 20.00    -0.024 C 
ENDROOT
BRANCH   2   3
HETATM    3  C2  UNL     1     -36.582   5.768   3.512  1.00 20.00     0.265 C 
HETATM    4  O9  UNL     1     -37.359   5.176   4.252  1.00 20.00    -0.302 OA
ENDBRANCH   2   3
BRANCH   2   5
HETATM    5  C8  UNL     1     -34.541   4.701   4.646  1.00 20.00     0.037 C 
HETATM    6  C7  UNL     1     -34.294   5.434   5.957  1.00 20.00     0.010 C 
ENDBRANCH   2   5
BRANCH   1   7
HETATM    7  C6  UNL     1     -32.910   6.355   2.586  1.00 20.00     0.009 A 
HETATM    8  C4  UNL     1     -32.274   7.571   1.996  1.00 20.00     0.009 A 
HETATM    9  C5  UNL     1     -32.144   7.290   3.463  1.00 20.00     0.009 A 
ENDBRANCH   1   7
TORSDOF 3
