REMARK  1 active torsions:
REMARK  status: ('A' for Active; 'I' for Inactive)
REMARK    1  A    between atoms: C3_3  and  C8_8 
ROOT
HETATM    1  C1  UNL     1     -32.222   6.426   2.692  1.00 20.00     0.284 C 
HETATM    2  C2  UNL     1     -34.926   6.769   3.181  1.00 20.00     0.110 C 
HETATM    3  C3  UNL     1     -34.162   5.707   3.992  1.00 20.00     0.233 C 
HETATM    4  C4  UNL     1     -32.453   7.944   2.734  1.00 20.00     0.071 C 
HETATM    5  C5  UNL     1     -32.152   8.575   1.378  1.00 20.00     0.023 C 
HETATM    6  N9  UNL     1     -32.697   5.781   3.909  1.00 20.00     0.090 N 
HETATM    7  S10 UNL     1     -34.150   8.409   3.250  1.00 20.00    -0.161 SA
HETATM    8  H27 UNL     1     -32.313   4.833   3.952  1.00 20.00     0.316 HD
ENDROOT
BRANCH   3   9
HETATM    9  C8  UNL     1     -34.547   5.746   5.473  1.00 20.00     0.011 C 
HETATM   10  C6  UNL     1     -34.221   4.415   6.143  1.00 20.00     0.012 C 
HETATM   11  C7  UNL     1     -33.833   6.895   6.179  1.00 20.00     0.012 C 
ENDBRANCH   3   9
TORSDOF 1
