REMARK  3 active torsions:
REMARK  status: ('A' for Active; 'I' for Inactive)
REMARK    1  A    between atoms: C2_2  and  C6_6 
REMARK    2  A    between atoms: C3_3  and  O8_8 
REMARK    3  A    between atoms: C6_6  and  C7_7 
ROOT
HETATM    1  C1  UNL     1     -34.633   5.777   6.154  1.00 20.00     0.045 A 
HETATM    2  C2  UNL     1     -33.608   5.676   5.054  1.00 20.00     0.022 A 
HETATM    3  C3  UNL     1     -35.042   5.269   4.794  1.00 20.00     0.058 A 
HETATM    4  C4  UNL     1     -35.958   6.080   3.939  1.00 20.00     0.046 C 
ENDROOT
BRANCH   2   5
HETATM    5  C6  UNL     1     -33.010   6.909   4.470  1.00 20.00     0.007 C 
BRANCH   5   6
HETATM    6  C7  UNL     1     -32.354   6.655   3.101  1.00 20.00    -0.004 C 
HETATM    7  C5  UNL     1     -31.775   7.920   2.488  1.00 20.00     0.005 C 
ENDBRANCH   5   6
ENDBRANCH   2   5
BRANCH   3   8
HETATM    8  O8  UNL     1     -35.274   3.852   4.697  1.00 20.00    -0.390 OA
HETATM    9  H22 UNL     1     -35.986   3.660   5.320  1.00 20.00     0.210 HD
ENDBRANCH   3   8
TORSDOF 3
