REMARK  2 active torsions:
REMARK  status: ('A' for Active; 'I' for Inactive)
REMARK    1  A    between atoms: C1_1  and  C6_6 
REMARK    2  A    between atoms: C2_2  and  C7_7 
ROOT
HETATM    1  C3  UNL     1     -33.401   6.567   5.343  1.00 20.00     0.037 C 
HETATM    2  C4  UNL     1     -34.185   5.361   5.811  1.00 20.00     0.168 C 
HETATM    3  C5  UNL     1     -34.426   5.525   3.500  1.00 20.00     0.176 C 
HETATM    4  C6  UNL     1     -33.130   6.219   3.894  1.00 20.00     0.034 C 
HETATM    5  O8  UNL     1     -34.959   4.920   4.689  1.00 20.00    -0.390 OA
ENDROOT
BRANCH   4   6
HETATM    6  C1  UNL     1     -32.793   7.397   3.045  1.00 20.00    -0.023 C 
HETATM    7  C2  UNL     1     -32.030   7.331   1.945  1.00 20.00    -0.015 C 
BRANCH   7   8
HETATM    8  C7  UNL     1     -31.704   8.513   1.092  1.00 20.00     0.141 C 
HETATM    9 CL9  UNL     1     -32.469   9.970   1.760  1.00 20.00    -0.126 Cl
ENDBRANCH   7   8
ENDBRANCH   4   6
TORSDOF 2
