REMARK  2 active torsions:
REMARK  status: ('A' for Active; 'I' for Inactive)
REMARK    1  A    between atoms: C1_1  and  C7_7 
REMARK    2  A    between atoms: C2_2  and  C8_8 
ROOT
HETATM    1  C3  UNL     1     -33.646   6.320   5.385  1.00 20.00     0.035 C 
HETATM    2  C4  UNL     1     -34.868   4.652   3.966  1.00 20.00     0.035 C 
HETATM    3  C5  UNL     1     -34.081   5.505   6.597  1.00 20.00     0.168 C 
HETATM    4  C6  UNL     1     -35.235   3.927   5.255  1.00 20.00     0.168 C 
HETATM    5  C7  UNL     1     -33.573   5.434   4.148  1.00 20.00     0.012 C 
HETATM    6  O9  UNL     1     -35.323   4.846   6.345  1.00 20.00    -0.391 OA
ENDROOT
BRANCH   5   7
HETATM    7  C1  UNL     1     -33.381   6.324   2.936  1.00 20.00    -0.025 C 
HETATM    8  C2  UNL     1     -32.335   7.147   2.772  1.00 20.00    -0.020 C 
BRANCH   8   9
HETATM    9  C8  UNL     1     -32.160   8.029   1.584  1.00 20.00     0.112 C 
HETATM   10 BR10 UNL     1     -33.076   9.710   1.924  1.00 20.00    -0.092 Br
ENDBRANCH   8   9
ENDBRANCH   5   7
TORSDOF 2
