REMARK  2 active torsions:
REMARK  status: ('A' for Active; 'I' for Inactive)
REMARK    1  A    between atoms: C6_6  and  C8_8 
REMARK    2  A    between atoms: C7_7  and  C9_9 
ROOT
HETATM    1  C1  UNL     1     -35.353   3.990   4.962  1.00 20.00     0.027 C 
HETATM    2  C4  UNL     1     -33.952   4.189   5.535  1.00 20.00     0.010 C 
HETATM    3  C5  UNL     1     -35.697   5.026   3.899  1.00 20.00     0.168 C 
HETATM    4  C7  UNL     1     -33.560   5.668   5.610  1.00 20.00     0.029 C 
HETATM    5  C8  UNL     1     -33.771   6.372   4.244  1.00 20.00     0.130 C 
HETATM    6  O10 UNL     1     -34.513   5.562   3.321  1.00 20.00    -0.385 OA
ENDROOT
BRANCH   5   7
HETATM    7  C6  UNL     1     -32.454   6.704   3.595  1.00 20.00     0.015 A 
HETATM    8  C2  UNL     1     -32.382   6.962   2.116  1.00 20.00     0.007 A 
HETATM    9  C3  UNL     1     -32.190   8.094   3.087  1.00 20.00     0.007 A 
ENDBRANCH   5   7
BRANCH   4  10
HETATM   10  C9  UNL     1     -34.329   6.391   6.722  1.00 20.00     0.121 C 
HETATM   11 CL11 UNL     1     -33.480   7.876   7.182  1.00 20.00    -0.130 Cl
ENDBRANCH   4  10
TORSDOF 2
