REMARK  4 active torsions:
REMARK  status: ('A' for Active; 'I' for Inactive)
REMARK    1  A    between atoms: C1_1  and  C9_9 
REMARK    2  A    between atoms: C2_2  and  C7_7 
REMARK    3  A    between atoms: C2_2  and  C8_8 
REMARK    4  A    between atoms: C8_8  and  O10_10 
ROOT
HETATM    1  C1  UNL     1     -33.654   6.231   3.384  1.00 20.00    -0.013 C 
HETATM    2  C2  UNL     1     -34.181   5.814   4.556  1.00 20.00    -0.060 C 
ENDROOT
BRANCH   2   3
HETATM    3  C7  UNL     1     -33.522   5.924   5.913  1.00 20.00     0.031 C 
HETATM    4  C3  UNL     1     -34.385   5.358   7.033  1.00 20.00     0.010 C 
ENDBRANCH   2   3
BRANCH   2   5
HETATM    5  C8  UNL     1     -35.564   5.198   4.561  1.00 20.00     0.198 C 
BRANCH   5   6
HETATM    6  O10 UNL     1     -35.495   3.870   5.063  1.00 20.00    -0.397 OA
HETATM    7  H28 UNL     1     -36.400   3.518   5.047  1.00 20.00     0.209 HD
ENDBRANCH   5   6
ENDBRANCH   2   5
BRANCH   1   8
HETATM    8  C9  UNL     1     -32.308   6.867   3.049  1.00 20.00    -0.033 C 
HETATM    9  C4  UNL     1     -32.445   7.807   1.839  1.00 20.00     0.018 C 
HETATM   10  C5  UNL     1     -31.675   7.610   4.238  1.00 20.00     0.018 C 
HETATM   11  C6  UNL     1     -31.331   5.734   2.654  1.00 20.00     0.018 C 
ENDBRANCH   1   8
TORSDOF 4
