REMARK  4 active torsions:
REMARK  status: ('A' for Active; 'I' for Inactive)
REMARK    1  A    between atoms: C2_2  and  C8_8 
REMARK    2  A    between atoms: C3_3  and  C10_10 
REMARK    3  A    between atoms: C3_3  and  O11_11 
REMARK    4  A    between atoms: C9_9  and  C10_10 
ROOT
HETATM    1  C1  UNL     1     -33.575   4.350   3.218  1.00 20.00     0.046 A 
HETATM    2  C2  UNL     1     -34.620   4.884   4.163  1.00 20.00     0.023 A 
HETATM    3  C3  UNL     1     -34.180   5.710   2.974  1.00 20.00     0.069 A 
ENDROOT
BRANCH   3   4
HETATM    4  C10 UNL     1     -33.314   6.976   3.126  1.00 20.00    -0.017 C 
HETATM    5  C6  UNL     1     -33.938   7.865   4.215  1.00 20.00     0.018 C 
HETATM    6  C7  UNL     1     -31.903   6.553   3.565  1.00 20.00     0.018 C 
BRANCH   4   7
HETATM    7  C9  UNL     1     -33.280   7.707   1.759  1.00 20.00     0.007 C 
HETATM    8  C5  UNL     1     -32.465   8.993   1.714  1.00 20.00     0.006 C 
ENDBRANCH   4   7
ENDBRANCH   3   4
BRANCH   3   9
HETATM    9  O11 UNL     1     -35.126   5.790   1.892  1.00 20.00    -0.389 OA
HETATM   10  H31 UNL     1     -35.837   5.178   2.120  1.00 20.00     0.210 HD
ENDBRANCH   3   9
BRANCH   2  11
HETATM   11  C8  UNL     1     -34.255   5.242   5.562  1.00 20.00     0.003 C 
HETATM   12  C4  UNL     1     -34.240   4.054   6.490  1.00 20.00     0.005 C 
ENDBRANCH   2  11
TORSDOF 4
