REMARK  3 active torsions:
REMARK  status: ('A' for Active; 'I' for Inactive)
REMARK    1  A    between atoms: C1_1  and  C8_8 
REMARK    2  A    between atoms: C2_2  and  C3_3 
REMARK    3  A    between atoms: C3_3  and  C9_9 
ROOT
HETATM    1  C1  UNL     1     -32.709   7.728   3.423  1.00 20.00    -0.012 C 
HETATM    2  C3  UNL     1     -33.424   6.663   3.834  1.00 20.00    -0.020 C 
ENDROOT
BRANCH   2   3
HETATM    3  C2  UNL     1     -33.298   6.377   5.296  1.00 20.00     0.265 C 
HETATM    4  O10 UNL     1     -33.867   5.453   5.865  1.00 20.00    -0.302 OA
ENDBRANCH   2   3
BRANCH   2   5
HETATM    5  C9  UNL     1     -34.303   5.776   2.975  1.00 20.00     0.013 C 
HETATM    6  C6  UNL     1     -33.800   4.330   2.932  1.00 20.00     0.015 C 
HETATM    7  C7  UNL     1     -35.776   5.837   3.392  1.00 20.00     0.015 C 
ENDBRANCH   2   5
BRANCH   1   8
HETATM    8  C8  UNL     1     -32.601   8.293   2.025  1.00 20.00     0.001 C 
HETATM    9  C4  UNL     1     -33.113   9.734   2.004  1.00 20.00     0.013 C 
HETATM   10  C5  UNL     1     -31.149   8.234   1.549  1.00 20.00     0.013 C 
ENDBRANCH   1   8
TORSDOF 3
