REMARK  4 active torsions:
REMARK  status: ('A' for Active; 'I' for Inactive)
REMARK    1  A    between atoms: C1_1  and  C9_9 
REMARK    2  A    between atoms: C2_2  and  C6_6 
REMARK    3  A    between atoms: C7_7  and  C9_9 
REMARK    4  A    between atoms: C8_8  and  C9_9 
ROOT
HETATM    1  C1  UNL     1     -33.023   6.923   4.508  1.00 20.00    -0.019 C 
HETATM    2  C2  UNL     1     -33.324   6.291   5.660  1.00 20.00    -0.073 C 
HETATM    3  C3  UNL     1     -33.542   7.083   6.923  1.00 20.00     0.044 C 
ENDROOT
BRANCH   1   4
HETATM    4  C9  UNL     1     -32.753   6.301   3.154  1.00 20.00     0.007 C 
BRANCH   4   5
HETATM    5  C7  UNL     1     -31.748   7.158   2.353  1.00 20.00     0.004 C 
HETATM    6  C4  UNL     1     -32.224   8.587   2.121  1.00 20.00     0.006 C 
ENDBRANCH   4   5
BRANCH   4   7
HETATM    7  C8  UNL     1     -34.062   6.156   2.348  1.00 20.00     0.004 C 
HETATM    8  C5  UNL     1     -35.086   5.247   3.017  1.00 20.00     0.006 C 
ENDBRANCH   4   7
ENDBRANCH   1   4
BRANCH   2   9
HETATM    9  C6  UNL     1     -33.504   4.805   5.798  1.00 20.00     0.148 C 
HETATM   10 CL10 UNL     1     -35.143   4.429   6.370  1.00 20.00    -0.126 Cl
ENDBRANCH   2   9
TORSDOF 4
