REMARK  2 active torsions:
REMARK  status: ('A' for Active; 'I' for Inactive)
REMARK    1  A    between atoms: C3_3  and  C8_8 
REMARK    2  A    between atoms: C4_4  and  C9_9 
ROOT
HETATM    1  C1  UNL     1     -35.306   5.271   5.473  1.00 20.00     0.034 C 
HETATM    2  C2  UNL     1     -34.058   5.619   6.257  1.00 20.00     0.168 C 
HETATM    3  C3  UNL     1     -34.861   5.539   4.050  1.00 20.00     0.031 C 
HETATM    4  C4  UNL     1     -34.013   6.793   4.241  1.00 20.00     0.134 C 
HETATM    5  O10 UNL     1     -33.371   6.642   5.521  1.00 20.00    -0.385 OA
ENDROOT
BRANCH   4   6
HETATM    6  C9  UNL     1     -32.957   6.989   3.169  1.00 20.00    -0.025 C 
HETATM    7  C5  UNL     1     -32.075   8.206   3.511  1.00 20.00     0.017 C 
HETATM    8  C6  UNL     1     -33.628   7.229   1.803  1.00 20.00     0.017 C 
HETATM    9  C7  UNL     1     -32.062   5.738   3.071  1.00 20.00     0.017 C 
ENDBRANCH   4   6
BRANCH   3  10
HETATM   10  C8  UNL     1     -36.011   5.710   3.073  1.00 20.00     0.121 C 
HETATM   11 CL11 UNL     1     -37.298   4.538   3.422  1.00 20.00    -0.130 Cl
ENDBRANCH   3  10
TORSDOF 2
