REMARK  2 active torsions:
REMARK  status: ('A' for Active; 'I' for Inactive)
REMARK    1  A    between atoms: C5_5  and  C7_7 
REMARK    2  A    between atoms: C7_7  and  C8_8 
ROOT
HETATM    1  C1  UNL     1     -33.604   6.871   6.473  1.00 20.00     0.066 C 
HETATM    2  C2  UNL     1     -34.949   4.790   6.484  1.00 20.00     0.048 C 
HETATM    3  C3  UNL     1     -35.481   3.919   5.367  1.00 20.00     0.169 C 
HETATM    4  C4  UNL     1     -33.914   5.627   5.764  1.00 20.00     0.123 C 
HETATM    5  C5  UNL     1     -34.599   5.861   4.421  1.00 20.00     0.139 C 
HETATM    6  N9  UNL     1     -33.359   7.856   7.035  1.00 20.00    -0.197 NA
HETATM    7  O10 UNL     1     -35.411   4.700   4.167  1.00 20.00    -0.384 OA
ENDROOT
BRANCH   5   8
HETATM    8  C7  UNL     1     -33.627   6.053   3.268  1.00 20.00     0.033 C 
BRANCH   8   9
HETATM    9  C8  UNL     1     -33.103   7.485   3.216  1.00 20.00    -0.002 C 
HETATM   10  C6  UNL     1     -32.110   7.669   2.079  1.00 20.00     0.005 C 
ENDBRANCH   8   9
ENDBRANCH   5   8
TORSDOF 2
