REMARK  4 active torsions:
REMARK  status: ('A' for Active; 'I' for Inactive)
REMARK    1  A    between atoms: C1_1  and  C6_6 
REMARK    2  A    between atoms: C4_4  and  C6_6 
REMARK    3  A    between atoms: C5_5  and  C6_6 
REMARK    4  A    between atoms: C5_5  and  C7_7 
ROOT
HETATM    1  C6  UNL     1     -33.651   6.052   4.593  1.00 20.00     0.059 C 
ENDROOT
BRANCH   1   2
HETATM    2  C1  UNL     1     -34.710   5.156   3.953  1.00 20.00     0.127 C 
HETATM    3  C2  UNL     1     -35.024   3.864   4.661  1.00 20.00     0.091 C 
HETATM    4  O8  UNL     1     -35.287   5.468   2.911  1.00 20.00    -0.298 OA
ENDBRANCH   1   2
BRANCH   1   5
HETATM    5  C4  UNL     1     -34.086   6.432   6.019  1.00 20.00     0.008 C 
HETATM    6  C3  UNL     1     -33.065   7.305   6.737  1.00 20.00     0.006 C 
ENDBRANCH   1   5
BRANCH   1   7
HETATM    7  C5  UNL     1     -33.437   7.319   3.744  1.00 20.00     0.083 C 
BRANCH   7   8
HETATM    8  C7  UNL     1     -32.541   7.098   2.535  1.00 20.00     0.353 C 
HETATM    9  F9  UNL     1     -31.307   6.694   2.918  1.00 20.00    -0.214 F 
HETATM   10  F10 UNL     1     -32.388   8.257   1.848  1.00 20.00    -0.214 F 
ENDBRANCH   7   8
ENDBRANCH   1   7
TORSDOF 4
