REMARK  3 active torsions:
REMARK  status: ('A' for Active; 'I' for Inactive)
REMARK    1  A    between atoms: C8_8  and  C10_10 
REMARK    2  A    between atoms: C9_9  and  C11_11 
REMARK    3  A    between atoms: C10_10  and  C11_11 
ROOT
HETATM    1  C1  UNL     1     -34.759   5.539   4.225  1.00 20.00     0.131 C 
HETATM    2  C2  UNL     1     -34.831   4.690   5.477  1.00 20.00     0.079 C 
HETATM    3  C3  UNL     1     -34.941   5.561   6.719  1.00 20.00     0.007 C 
HETATM    4  C4  UNL     1     -33.840   6.616   6.770  1.00 20.00     0.001 C 
HETATM    5  C5  UNL     1     -33.866   7.491   5.519  1.00 20.00     0.012 C 
HETATM    6  C8  UNL     1     -33.764   6.689   4.218  1.00 20.00     0.055 C 
HETATM    7  O12 UNL     1     -35.408   5.249   3.220  1.00 20.00    -0.298 OA
ENDROOT
BRANCH   6   8
HETATM    8  C10 UNL     1     -32.359   6.155   3.960  1.00 20.00     0.012 C 
BRANCH   8   9
HETATM    9  C11 UNL     1     -31.440   7.249   3.426  1.00 20.00     0.005 C 
BRANCH   9  10
HETATM   10  C9  UNL     1     -31.947   7.801   2.103  1.00 20.00    -0.014 A 
HETATM   11  C6  UNL     1     -32.899   8.964   2.083  1.00 20.00     0.005 A 
HETATM   12  C7  UNL     1     -31.482   9.145   1.615  1.00 20.00     0.005 A 
ENDBRANCH   9  10
ENDBRANCH   8   9
ENDBRANCH   6   8
TORSDOF 3
