REMARK  3 active torsions:
REMARK  status: ('A' for Active; 'I' for Inactive)
REMARK    1  A    between atoms: C4_4  and  C6_6 
REMARK    2  A    between atoms: C5_5  and  O8_8 
REMARK    3  A    between atoms: C6_6  and  C7_7 
ROOT
HETATM    1  C1  UNL     1     -35.216   3.745   5.241  1.00 20.00     0.003 C 
HETATM    2  C2  UNL     1     -35.175   4.627   3.993  1.00 20.00     0.007 C 
HETATM    3  C3  UNL     1     -34.622   4.578   6.376  1.00 20.00     0.032 C 
HETATM    4  C4  UNL     1     -34.968   6.043   4.521  1.00 20.00     0.023 C 
HETATM    5  C5  UNL     1     -34.035   5.815   5.707  1.00 20.00     0.122 C 
ENDROOT
BRANCH   4   6
HETATM    6  C6  UNL     1     -34.398   6.994   3.480  1.00 20.00     0.124 C 
BRANCH   6   7
HETATM    7  C7  UNL     1     -32.917   6.798   3.310  1.00 20.00     0.388 C 
HETATM    8  F9  UNL     1     -32.246   7.015   4.461  1.00 20.00    -0.171 F 
HETATM    9  F10 UNL     1     -32.448   7.671   2.391  1.00 20.00    -0.171 F 
HETATM   10  F11 UNL     1     -32.621   5.553   2.880  1.00 20.00    -0.171 F 
ENDBRANCH   6   7
ENDBRANCH   4   6
BRANCH   5  11
HETATM   11  O8  UNL     1     -34.035   6.928   6.581  1.00 20.00    -0.395 OA
HETATM   12  H22 UNL     1     -33.495   6.686   7.353  1.00 20.00     0.210 HD
ENDBRANCH   5  11
TORSDOF 3
