REMARK  2 active torsions:
REMARK  status: ('A' for Active; 'I' for Inactive)
REMARK    1  A    between atoms: C3_3  and  C10_10 
REMARK    2  A    between atoms: C9_9  and  C10_10 
ROOT
HETATM    1  C1  UNL     1     -35.520   5.491   3.497  1.00 20.00     0.006 C 
HETATM    2  C2  UNL     1     -35.322   4.274   4.409  1.00 20.00     0.016 C 
HETATM    3  C3  UNL     1     -34.294   6.397   3.698  1.00 20.00    -0.006 C 
HETATM    4  C4  UNL     1     -33.278   5.511   4.438  1.00 20.00     0.000 C 
HETATM    5  C5  UNL     1     -34.153   4.622   5.323  1.00 20.00     0.062 C 
HETATM    6  C6  UNL     1     -32.171   6.283   5.142  1.00 20.00     0.011 C 
HETATM    7 BR11 UNL     1     -34.828   5.523   6.919  1.00 20.00    -0.091 Br
ENDROOT
BRANCH   3   8
HETATM    8  C10 UNL     1     -33.765   6.964   2.387  1.00 20.00    -0.014 C 
HETATM    9  C8  UNL     1     -32.962   5.893   1.640  1.00 20.00     0.010 C 
BRANCH   8  10
HETATM   10  C9  UNL     1     -32.888   8.214   2.591  1.00 20.00     0.000 C 
HETATM   11  C7  UNL     1     -32.346   8.792   1.291  1.00 20.00     0.005 C 
ENDBRANCH   8  10
ENDBRANCH   3   8
TORSDOF 2
