REMARK  3 active torsions:
REMARK  status: ('A' for Active; 'I' for Inactive)
REMARK    1  A    between atoms: C4_4  and  C7_7 
REMARK    2  A    between atoms: C8_8  and  C9_9 
REMARK    3  A    between atoms: C9_9  and  N10_10 
ROOT
HETATM    1  C1  UNL     1     -33.427   7.155   7.081  1.00 20.00     0.032 C 
HETATM    2  C2  UNL     1     -34.392   5.996   6.858  1.00 20.00     0.038 C 
HETATM    3  C3  UNL     1     -33.006   7.597   5.689  1.00 20.00     0.273 C 
HETATM    4  C4  UNL     1     -34.482   5.832   5.339  1.00 20.00     0.237 C 
HETATM    5  N10 UNL     1     -33.204   6.393   4.878  1.00 20.00     0.098 N 
ENDROOT
BRANCH   5   6
HETATM    6  C9  UNL     1     -33.190   6.700   3.453  1.00 20.00     0.219 C 
HETATM    7  C6  UNL     1     -32.961   5.422   2.653  1.00 20.00     0.043 C 
BRANCH   6   8
HETATM    8  C8  UNL     1     -32.123   7.751   3.118  1.00 20.00     0.031 C 
HETATM    9  C5  UNL     1     -32.120   8.138   1.645  1.00 20.00     0.007 C 
ENDBRANCH   6   8
ENDBRANCH   5   6
BRANCH   4  10
HETATM   10  C7  UNL     1     -34.684   4.376   4.939  1.00 20.00     0.150 C 
HETATM   11 CL11 UNL     1     -35.803   3.581   6.061  1.00 20.00    -0.128 Cl
ENDBRANCH   4  10
TORSDOF 3
