REMARK  3 active torsions:
REMARK  status: ('A' for Active; 'I' for Inactive)
REMARK    1  A    between atoms: C1_1  and  C7_7 
REMARK    2  A    between atoms: C7_7  and  C8_8 
REMARK    3  A    between atoms: C7_7  and  C9_9 
ROOT
HETATM    1  C7  UNL     1     -33.499   5.341   4.617  1.00 20.00     0.061 C 
ENDROOT
BRANCH   1   2
HETATM    2  C1  UNL     1     -33.970   6.627   5.308  1.00 20.00     0.128 C 
HETATM    3  C2  UNL     1     -33.114   7.148   6.435  1.00 20.00     0.091 C 
HETATM    4  O10 UNL     1     -35.005   7.207   4.981  1.00 20.00    -0.298 OA
ENDBRANCH   1   2
BRANCH   1   5
HETATM    5  C8  UNL     1     -33.144   5.604   3.126  1.00 20.00    -0.011 C 
HETATM    6  C3  UNL     1     -31.713   6.129   2.960  1.00 20.00     0.010 C 
HETATM    7  C4  UNL     1     -34.120   6.534   2.398  1.00 20.00     0.010 C 
ENDBRANCH   1   5
BRANCH   1   8
HETATM    8  C9  UNL     1     -34.539   4.208   4.859  1.00 20.00    -0.011 C 
HETATM    9  C5  UNL     1     -35.105   4.223   6.284  1.00 20.00     0.010 C 
HETATM   10  C6  UNL     1     -35.711   4.314   3.871  1.00 20.00     0.010 C 
ENDBRANCH   1   8
TORSDOF 3
