REMARK  4 active torsions:
REMARK  status: ('A' for Active; 'I' for Inactive)
REMARK    1  A    between atoms: C1_1  and  C6_6 
REMARK    2  A    between atoms: C4_4  and  C6_6 
REMARK    3  A    between atoms: C5_5  and  C6_6 
REMARK    4  A    between atoms: C5_5  and  C7_7 
ROOT
HETATM    1  C6  UNL     1     -33.689   5.774   5.100  1.00 20.00     0.063 C 
ENDROOT
BRANCH   1   2
HETATM    2  C1  UNL     1     -34.772   4.805   4.635  1.00 20.00     0.127 C 
HETATM    3  C2  UNL     1     -35.052   3.621   5.524  1.00 20.00     0.091 C 
HETATM    4  O8  UNL     1     -35.394   4.973   3.586  1.00 20.00    -0.298 OA
ENDBRANCH   1   2
BRANCH   1   5
HETATM    5  C4  UNL     1     -34.061   6.347   6.479  1.00 20.00     0.008 C 
HETATM    6  C3  UNL     1     -33.011   7.307   7.024  1.00 20.00     0.006 C 
ENDBRANCH   1   5
BRANCH   1   7
HETATM    7  C5  UNL     1     -33.515   6.911   4.078  1.00 20.00     0.129 C 
BRANCH   7   8
HETATM    8  C7  UNL     1     -32.682   6.518   2.872  1.00 20.00     0.388 C 
HETATM    9  F9  UNL     1     -31.428   6.163   3.218  1.00 20.00    -0.171 F 
HETATM   10  F10 UNL     1     -32.600   7.529   1.982  1.00 20.00    -0.171 F 
HETATM   11  F11 UNL     1     -33.243   5.462   2.240  1.00 20.00    -0.171 F 
ENDBRANCH   7   8
ENDBRANCH   1   7
TORSDOF 4
