REMARK  3 active torsions:
REMARK  status: ('A' for Active; 'I' for Inactive)
REMARK    1  A    between atoms: C2_2  and  C10_10 
REMARK    2  A    between atoms: C3_3  and  C8_8 
REMARK    3  A    between atoms: C8_8  and  C10_10 
ROOT
HETATM    1  C4  UNL     1     -34.401   5.573   6.999  1.00 20.00     0.001 C 
HETATM    2  C5  UNL     1     -34.727   4.323   6.201  1.00 20.00     0.001 C 
HETATM    3  C6  UNL     1     -34.225   6.668   5.948  1.00 20.00     0.021 C 
HETATM    4  C7  UNL     1     -33.818   4.449   4.986  1.00 20.00     0.021 C 
HETATM    5  C8  UNL     1     -33.856   5.945   4.637  1.00 20.00     0.055 C 
ENDROOT
BRANCH   5   6
HETATM    6  C3  UNL     1     -34.933   6.203   3.613  1.00 20.00     0.182 C 
HETATM    7  O11 UNL     1     -35.877   5.365   3.602  1.00 20.00    -0.647 OA
HETATM    8  O12 UNL     1     -34.750   7.227   2.898  1.00 20.00    -0.647 OA
ENDBRANCH   5   6
BRANCH   5   9
HETATM    9  C10 UNL     1     -32.524   6.425   4.063  1.00 20.00     0.022 C 
HETATM   10  C9  UNL     1     -32.161   5.639   2.799  1.00 20.00     0.015 C 
BRANCH   9  11
HETATM   11  C2  UNL     1     -32.581   7.901   3.752  1.00 20.00    -0.031 C 
HETATM   12  C1  UNL     1     -31.872   8.491   2.783  1.00 20.00     0.007 C 
ENDBRANCH   9  11
ENDBRANCH   5   9
TORSDOF 3
