REMARK  4 active torsions:
REMARK  status: ('A' for Active; 'I' for Inactive)
REMARK    1  A    between atoms: C4_4  and  C6_6 
REMARK    2  A    between atoms: C6_6  and  C8_8 
REMARK    3  A    between atoms: C7_7  and  C8_8 
REMARK    4  A    between atoms: C8_8  and  O10_10 
ROOT
HETATM    1  C6  UNL     1     -32.058   6.424   2.739  1.00 20.00     0.038 C 
ENDROOT
BRANCH   1   2
HETATM    2  C4  UNL     1     -32.934   5.707   3.748  1.00 20.00     0.014 C 
HETATM    3  C1  UNL     1     -33.362   6.564   4.919  1.00 20.00     0.033 C 
HETATM    4  C2  UNL     1     -34.555   5.794   5.444  1.00 20.00     0.168 C 
HETATM    5  O9  UNL     1     -35.165   5.152   4.315  1.00 20.00    -0.391 OA
HETATM    6  C3  UNL     1     -34.278   5.270   3.191  1.00 20.00     0.172 C 
ENDBRANCH   1   2
BRANCH   1   7
HETATM    7  C8  UNL     1     -32.539   7.853   2.462  1.00 20.00     0.118 C 
BRANCH   7   8
HETATM    8  C7  UNL     1     -31.944   8.380   1.151  1.00 20.00     0.027 C 
HETATM    9  C5  UNL     1     -32.368   9.809   0.841  1.00 20.00     0.007 C 
ENDBRANCH   7   8
BRANCH   7  10
HETATM   10  O10 UNL     1     -32.132   8.685   3.546  1.00 20.00    -0.396 OA
HETATM   11  H26 UNL     1     -31.164   8.638   3.582  1.00 20.00     0.210 HD
ENDBRANCH   7  10
ENDBRANCH   1   7
TORSDOF 4
