REMARK  4 active torsions:
REMARK  status: ('A' for Active; 'I' for Inactive)
REMARK    1  A    between atoms: C6_6  and  C9_9 
REMARK    2  A    between atoms: C7_7  and  C10_10 
REMARK    3  A    between atoms: C8_8  and  O11_11 
REMARK    4  A    between atoms: C9_9  and  C10_10 
ROOT
HETATM    1  C1  UNL     1     -35.239   4.401   4.511  1.00 20.00     0.003 C 
HETATM    2  C2  UNL     1     -34.679   5.517   3.627  1.00 20.00     0.007 C 
HETATM    3  C5  UNL     1     -34.231   4.196   5.646  1.00 20.00     0.032 C 
HETATM    4  C7  UNL     1     -33.244   5.735   4.114  1.00 20.00     0.014 C 
HETATM    5  C8  UNL     1     -33.336   5.430   5.609  1.00 20.00     0.122 C 
ENDROOT
BRANCH   4   6
HETATM    6  C10 UNL     1     -32.715   7.121   3.779  1.00 20.00     0.007 C 
BRANCH   6   7
HETATM    7  C9  UNL     1     -32.746   7.384   2.275  1.00 20.00     0.005 C 
BRANCH   7   8
HETATM    8  C6  UNL     1     -32.243   8.779   1.943  1.00 20.00    -0.014 A 
HETATM    9  C3  UNL     1     -32.586   9.414   0.624  1.00 20.00     0.005 A 
HETATM   10  C4  UNL     1     -33.202   9.937   1.891  1.00 20.00     0.005 A 
ENDBRANCH   7   8
ENDBRANCH   6   7
ENDBRANCH   4   6
BRANCH   5  11
HETATM   11  O11 UNL     1     -33.962   6.499   6.310  1.00 20.00    -0.395 OA
HETATM   12  H29 UNL     1     -34.092   6.196   7.223  1.00 20.00     0.210 HD
ENDBRANCH   5  11
TORSDOF 4
