REMARK  4 active torsions:
REMARK  status: ('A' for Active; 'I' for Inactive)
REMARK    1  A    between atoms: C4_4  and  C5_5 
REMARK    2  A    between atoms: C5_5  and  C6_6 
REMARK    3  A    between atoms: C6_6  and  C7_7 
REMARK    4  A    between atoms: C7_7  and  O9_9 
ROOT
HETATM    1  C1  UNL     1     -33.518   6.506   5.923  1.00 20.00     0.066 C 
HETATM    2  C6  UNL     1     -33.554   5.600   4.755  1.00 20.00     0.121 C 
HETATM    3  N8  UNL     1     -33.488   7.216   6.840  1.00 20.00    -0.197 NA
ENDROOT
BRANCH   2   4
HETATM    4  C5  UNL     1     -33.917   6.388   3.478  1.00 20.00     0.021 C 
BRANCH   4   5
HETATM    5  C4  UNL     1     -32.907   7.495   3.154  1.00 20.00    -0.003 C 
HETATM    6  C2  UNL     1     -31.509   6.929   2.957  1.00 20.00     0.005 C 
ENDBRANCH   4   5
ENDBRANCH   2   4
BRANCH   2   7
HETATM    7  C7  UNL     1     -34.548   4.437   4.976  1.00 20.00     0.131 C 
HETATM    8  C3  UNL     1     -34.215   3.574   6.190  1.00 20.00     0.040 C 
BRANCH   7   9
HETATM    9  O9  UNL     1     -35.873   4.948   5.110  1.00 20.00    -0.395 OA
HETATM   10  H22 UNL     1     -36.460   4.179   5.161  1.00 20.00     0.210 HD
ENDBRANCH   7   9
ENDBRANCH   2   7
TORSDOF 4
