REMARK  2 active torsions:
REMARK  status: ('A' for Active; 'I' for Inactive)
REMARK    1  A    between atoms: C4_4  and  C5_5 
REMARK    2  A    between atoms: C5_5  and  C6_6 
ROOT
HETATM    1  C1  UNL     1     -33.424   6.201   4.763  1.00 20.00     0.038 A 
HETATM    2  C2  UNL     1     -35.156   4.753   4.210  1.00 20.00     0.074 A 
HETATM    3  C3  UNL     1     -34.534   5.438   5.229  1.00 20.00     0.041 A 
HETATM    4  C4  UNL     1     -33.240   6.068   3.404  1.00 20.00    -0.015 A 
HETATM    5  S7  UNL     1     -34.402   5.029   2.697  1.00 20.00    -0.105 SA
HETATM    6 CL8  UNL     1     -35.011   5.401   6.870  1.00 20.00    -0.084 Cl
ENDROOT
BRANCH   4   7
HETATM    7  C5  UNL     1     -32.206   6.692   2.550  1.00 20.00     0.061 C 
BRANCH   7   8
HETATM    8  C6  UNL     1     -32.686   7.914   1.753  1.00 20.00     0.119 C 
HETATM    9 CL9  UNL     1     -31.373   8.617   0.776  1.00 20.00    -0.130 Cl
ENDBRANCH   7   8
ENDBRANCH   4   7
TORSDOF 2
