REMARK  3 active torsions:
REMARK  status: ('A' for Active; 'I' for Inactive)
REMARK    1  A    between atoms: C7_7  and  C9_9 
REMARK    2  A    between atoms: C8_8  and  C10_10 
REMARK    3  A    between atoms: C9_9  and  C10_10 
ROOT
HETATM    1  C1  UNL     1     -34.192   6.133   5.265  1.00 20.00     0.131 C 
HETATM    2  C2  UNL     1     -34.821   4.762   5.296  1.00 20.00     0.079 C 
HETATM    3  C3  UNL     1     -35.134   4.524   3.824  1.00 20.00     0.008 C 
HETATM    4  C4  UNL     1     -34.041   5.278   3.077  1.00 20.00     0.013 C 
HETATM    5  C7  UNL     1     -33.896   6.589   3.851  1.00 20.00     0.055 C 
HETATM    6  O11 UNL     1     -33.952   6.790   6.269  1.00 20.00    -0.298 OA
ENDROOT
BRANCH   5   7
HETATM    7  C9  UNL     1     -32.523   7.214   3.706  1.00 20.00     0.012 C 
BRANCH   7   8
HETATM    8  C10 UNL     1     -32.242   7.629   2.261  1.00 20.00     0.005 C 
BRANCH   8   9
HETATM    9  C8  UNL     1     -33.271   8.625   1.752  1.00 20.00    -0.014 A 
HETATM   10  C5  UNL     1     -33.049  10.101   1.931  1.00 20.00     0.005 A 
HETATM   11  C6  UNL     1     -32.964   9.489   0.560  1.00 20.00     0.005 A 
ENDBRANCH   8   9
ENDBRANCH   7   8
ENDBRANCH   5   7
TORSDOF 3
