REMARK  2 active torsions:
REMARK  status: ('A' for Active; 'I' for Inactive)
REMARK    1  A    between atoms: C5_5  and  C11_11 
REMARK    2  A    between atoms: C6_6  and  C10_10 
ROOT
HETATM    1  C1  UNL     1     -34.537   5.260   3.653  1.00 20.00     0.131 C 
HETATM    2  C2  UNL     1     -34.064   5.288   2.216  1.00 20.00     0.079 C 
HETATM    3  C3  UNL     1     -33.874   6.723   1.744  1.00 20.00     0.012 C 
HETATM    4  C4  UNL     1     -33.534   7.499   4.118  1.00 20.00     0.017 C 
HETATM    5  C5  UNL     1     -33.710   6.070   4.644  1.00 20.00     0.059 C 
HETATM    6  C6  UNL     1     -32.963   7.516   2.691  1.00 20.00    -0.014 C 
HETATM    7  O12 UNL     1     -35.479   4.546   3.995  1.00 20.00    -0.298 OA
ENDROOT
BRANCH   5   8
HETATM    8  C11 UNL     1     -34.343   6.081   6.032  1.00 20.00    -0.011 C 
HETATM    9  C8  UNL     1     -34.057   4.772   6.765  1.00 20.00     0.010 C 
HETATM   10  C9  UNL     1     -33.839   7.272   6.845  1.00 20.00     0.010 C 
ENDBRANCH   5   8
BRANCH   6  11
HETATM   11  C10 UNL     1     -32.795   8.952   2.197  1.00 20.00     0.000 C 
HETATM   12  C7  UNL     1     -32.213   8.998   0.822  1.00 20.00     0.005 C 
ENDBRANCH   6  11
TORSDOF 2
