REMARK  4 active torsions:
REMARK  status: ('A' for Active; 'I' for Inactive)
REMARK    1  A    between atoms: C1_1  and  C5_5 
REMARK    2  A    between atoms: C1_1  and  C8_8 
REMARK    3  A    between atoms: C5_5  and  C6_6 
REMARK    4  A    between atoms: C6_6  and  C7_7 
ROOT
HETATM    1  C1  UNL     1     -32.991   6.433   2.899  1.00 20.00     0.134 C 
HETATM    2  O9  UNL     1     -32.410   5.355   2.750  1.00 20.00    -0.297 OA
ENDROOT
BRANCH   1   3
HETATM    3  C5  UNL     1     -34.493   6.482   3.160  1.00 20.00     0.084 C 
BRANCH   3   4
HETATM    4  C6  UNL     1     -35.029   5.231   3.854  1.00 20.00     0.078 C 
BRANCH   4   5
HETATM    5  C7  UNL     1     -34.386   4.993   5.209  1.00 20.00     0.353 C 
HETATM    6  F10 UNL     1     -35.196   4.196   5.951  1.00 20.00    -0.214 F 
HETATM    7  F11 UNL     1     -34.278   6.167   5.880  1.00 20.00    -0.214 F 
ENDBRANCH   4   5
ENDBRANCH   3   4
ENDBRANCH   1   3
BRANCH   1   8
HETATM    8  C8  UNL     1     -32.226   7.771   2.826  1.00 20.00     0.009 C 
HETATM    9  C2  UNL     1     -33.216   8.922   3.045  1.00 20.00     0.022 C 
HETATM   10  C3  UNL     1     -31.525   7.922   1.469  1.00 20.00     0.022 C 
HETATM   11  C4  UNL     1     -31.158   7.814   3.933  1.00 20.00     0.022 C 
ENDBRANCH   1   8
TORSDOF 4
