REMARK  4 active torsions:
REMARK  status: ('A' for Active; 'I' for Inactive)
REMARK    1  A    between atoms: C1_1  and  C8_8 
REMARK    2  A    between atoms: C1_1  and  C10_10 
REMARK    3  A    between atoms: C5_5  and  C9_9 
REMARK    4  A    between atoms: C9_9  and  C10_10 
ROOT
HETATM    1  C7  UNL     1     -33.847   7.625   4.562  1.00 20.00     0.018 C 
HETATM    2  C10 UNL     1     -33.135   6.392   4.011  1.00 20.00     0.051 C 
ENDROOT
BRANCH   2   3
HETATM    3  C1  UNL     1     -34.011   5.168   4.276  1.00 20.00     0.130 C 
HETATM    4  O11 UNL     1     -34.810   4.751   3.437  1.00 20.00    -0.298 OA
BRANCH   3   5
HETATM    5  C8  UNL     1     -33.811   4.478   5.616  1.00 20.00     0.074 C 
HETATM    6  C6  UNL     1     -35.070   3.792   6.115  1.00 20.00     0.013 C 
ENDBRANCH   3   5
ENDBRANCH   2   3
BRANCH   2   7
HETATM    7  C9  UNL     1     -32.829   6.562   2.517  1.00 20.00     0.016 C 
BRANCH   7   8
HETATM    8  C5  UNL     1     -31.916   7.755   2.279  1.00 20.00    -0.014 C 
HETATM    9  C3  UNL     1     -32.610   9.139   2.209  1.00 20.00     0.005 C 
HETATM   10  C2  UNL     1     -32.632   8.991   0.675  1.00 20.00     0.001 C 
HETATM   11  C4  UNL     1     -31.470   7.988   0.813  1.00 20.00     0.005 C 
ENDBRANCH   7   8
ENDBRANCH   2   7
TORSDOF 4
