REMARK  1 active torsions:
REMARK  status: ('A' for Active; 'I' for Inactive)
REMARK    1  A    between atoms: C7_7  and  N12_12 
ROOT
HETATM    1  C1  UNL     1     -32.262   8.594   2.381  1.00 20.00     0.134 C 
HETATM    2  C2  UNL     1     -31.364   8.298   3.561  1.00 20.00     0.106 C 
HETATM    3  C4  UNL     1     -32.200   7.843   4.741  1.00 20.00     0.243 C 
HETATM    4  C5  UNL     1     -33.471   7.689   2.182  1.00 20.00     0.082 C 
HETATM    5  C8  UNL     1     -33.248   6.362   2.928  1.00 20.00     0.195 C 
HETATM    6  C9  UNL     1     -34.745   8.450   2.532  1.00 20.00     0.020 C 
HETATM    7  C11 UNL     1     -34.335   5.319   2.687  1.00 20.00     0.041 C 
HETATM    8  N12 UNL     1     -32.963   6.572   4.410  1.00 20.00    -0.061 N 
HETATM    9  O13 UNL     1     -32.014   9.517   1.605  1.00 20.00    -0.297 OA
HETATM   10  H33 UNL     1     -32.324   5.795   4.695  1.00 20.00     0.280 HD
ENDROOT
BRANCH   8  11
HETATM   11  C7  UNL     1     -34.143   6.419   5.350  1.00 20.00     0.193 A 
HETATM   12  C3  UNL     1     -33.875   6.525   6.827  1.00 20.00     0.040 A 
HETATM   13  C6  UNL     1     -34.189   5.186   6.214  1.00 20.00     0.014 A 
HETATM   14  C10 UNL     1     -35.491   4.521   6.496  1.00 20.00     0.012 C 
ENDBRANCH   8  11
TORSDOF 1
