REMARK  2 active torsions:
REMARK  status: ('A' for Active; 'I' for Inactive)
REMARK    1  A    between atoms: C1_1  and  C9_9 
REMARK    2  A    between atoms: C6_6  and  C9_9 
ROOT
HETATM    1  C2  UNL     1     -34.357   7.076   5.248  1.00 20.00     0.031 C 
HETATM    2  C3  UNL     1     -35.304   5.055   4.097  1.00 20.00     0.031 C 
HETATM    3  C4  UNL     1     -33.989   6.156   6.407  1.00 20.00     0.168 C 
HETATM    4  C5  UNL     1     -34.883   4.249   5.321  1.00 20.00     0.168 C 
HETATM    5  C6  UNL     1     -34.452   6.319   3.917  1.00 20.00     0.000 C 
HETATM    6  O11 UNL     1     -34.901   5.062   6.493  1.00 20.00    -0.391 OA
ENDROOT
BRANCH   5   7
HETATM    7  C9  UNL     1     -33.066   5.989   3.357  1.00 20.00     0.055 C 
HETATM    8  C8  UNL     1     -33.182   5.205   2.053  1.00 20.00     0.018 C 
BRANCH   7   9
HETATM    9  C1  UNL     1     -32.269   7.273   3.155  1.00 20.00     0.127 C 
HETATM   10  C7  UNL     1     -32.840   8.287   2.195  1.00 20.00     0.091 C 
HETATM   11  O10 UNL     1     -31.195   7.479   3.721  1.00 20.00    -0.298 OA
ENDBRANCH   7   9
ENDBRANCH   5   7
TORSDOF 2
