REMARK  4 active torsions:
REMARK  status: ('A' for Active; 'I' for Inactive)
REMARK    1  A    between atoms: C1_1  and  C10_10 
REMARK    2  A    between atoms: C5_5  and  C9_9 
REMARK    3  A    between atoms: C9_9  and  C10_10 
REMARK    4  A    between atoms: C10_10  and  C11_11 
ROOT
HETATM    1  C10 UNL     1     -33.682   6.786   4.328  1.00 20.00     0.058 C 
ENDROOT
BRANCH   1   2
HETATM    2  C1  UNL     1     -33.290   5.760   3.259  1.00 20.00     0.127 C 
HETATM    3  C6  UNL     1     -31.869   5.256   3.290  1.00 20.00     0.091 C 
HETATM    4  O12 UNL     1     -34.088   5.343   2.419  1.00 20.00    -0.298 OA
ENDBRANCH   1   2
BRANCH   1   5
HETATM    5  C9  UNL     1     -32.870   8.085   4.174  1.00 20.00     0.017 C 
BRANCH   5   6
HETATM    6  C5  UNL     1     -33.104   8.711   2.815  1.00 20.00    -0.014 C 
HETATM    7  C3  UNL     1     -32.297   8.121   1.630  1.00 20.00     0.005 C 
HETATM    8  C2  UNL     1     -32.193   9.559   1.081  1.00 20.00     0.001 C 
HETATM    9  C4  UNL     1     -32.375  10.050   2.532  1.00 20.00     0.005 C 
ENDBRANCH   5   6
ENDBRANCH   1   5
BRANCH   1  10
HETATM   10  C11 UNL     1     -33.573   6.132   5.731  1.00 20.00    -0.012 C 
HETATM   11  C7  UNL     1     -34.455   4.891   5.899  1.00 20.00     0.010 C 
HETATM   12  C8  UNL     1     -33.883   7.141   6.841  1.00 20.00     0.010 C 
ENDBRANCH   1  10
TORSDOF 4
