REMARK  3 active torsions:
REMARK  status: ('A' for Active; 'I' for Inactive)
REMARK    1  A    between atoms: C7_7  and  C9_9 
REMARK    2  A    between atoms: C9_9  and  N10_10 
REMARK    3  A    between atoms: N10_10  and  O11_11 
ROOT
HETATM    1  C1  UNL     1     -34.855   4.608   5.981  1.00 20.00     0.005 C 
HETATM    2  C2  UNL     1     -34.625   6.126   5.955  1.00 20.00     0.005 C 
HETATM    3  C3  UNL     1     -35.678   5.487   3.928  1.00 20.00     0.010 C 
HETATM    4  C4  UNL     1     -33.591   4.350   3.830  1.00 20.00     0.011 C 
HETATM    5  C5  UNL     1     -34.978   4.251   4.490  1.00 20.00    -0.014 C 
HETATM    6  C6  UNL     1     -34.605   6.446   4.449  1.00 20.00    -0.009 C 
HETATM    7  C7  UNL     1     -33.303   5.866   3.846  1.00 20.00     0.005 C 
ENDROOT
BRANCH   7   8
HETATM    8  C9  UNL     1     -33.001   6.412   2.455  1.00 20.00     0.122 C 
BRANCH   8   9
HETATM    9  N10 UNL     1     -32.753   7.814   2.528  1.00 20.00    -0.206 NA
HETATM   10  H28 UNL     1     -31.950   8.019   3.139  1.00 20.00     0.153 HD
BRANCH   9  11
HETATM   11  O11 UNL     1     -32.181   8.183   1.231  1.00 20.00    -0.311 OA
HETATM   12  C8  UNL     1     -32.245   9.597   1.102  1.00 20.00     0.229 C 
ENDBRANCH   9  11
ENDBRANCH   8   9
ENDBRANCH   7   8
TORSDOF 3
