REMARK  2 active torsions:
REMARK  status: ('A' for Active; 'I' for Inactive)
REMARK    1  A    between atoms: C4_4  and  C7_7 
REMARK    2  A    between atoms: C7_7  and  O8_8 
ROOT
HETATM    1  C1  UNL     1     -32.749   6.924   5.012  1.00 20.00     0.008 C 
HETATM    2  C2  UNL     1     -33.900   6.383   5.864  1.00 20.00     0.016 C 
HETATM    3  C3  UNL     1     -34.121   5.634   3.550  1.00 20.00     0.022 C 
HETATM    4  C4  UNL     1     -32.656   5.975   3.821  1.00 20.00     0.011 C 
HETATM    5  C5  UNL     1     -34.722   5.482   4.942  1.00 20.00     0.058 C 
HETATM    6 BR9  UNL     1     -34.585   3.619   5.526  1.00 20.00    -0.091 Br
ENDROOT
BRANCH   4   7
HETATM    7  C7  UNL     1     -31.953   6.588   2.622  1.00 20.00     0.171 C 
BRANCH   7   8
HETATM    8  O8  UNL     1     -32.679   7.732   2.203  1.00 20.00    -0.396 OA
HETATM    9  C6  UNL     1     -32.071   8.356   1.078  1.00 20.00     0.201 C 
ENDBRANCH   7   8
ENDBRANCH   4   7
TORSDOF 2
