REMARK  2 active torsions:
REMARK  status: ('A' for Active; 'I' for Inactive)
REMARK    1  A    between atoms: C7_7  and  C8_8 
REMARK    2  A    between atoms: C8_8  and  S9_9 
ROOT
HETATM    1  C1  UNL     1     -34.801   4.851   3.888  1.00 20.00     0.005 C 
HETATM    2  C2  UNL     1     -35.362   6.047   3.104  1.00 20.00     0.005 C 
HETATM    3  C3  UNL     1     -34.060   6.870   4.908  1.00 20.00     0.009 C 
HETATM    4  C4  UNL     1     -32.464   5.708   3.582  1.00 20.00     0.010 C 
HETATM    5  C5  UNL     1     -33.582   5.451   4.608  1.00 20.00    -0.014 C 
HETATM    6  C6  UNL     1     -34.370   7.176   3.441  1.00 20.00    -0.009 C 
HETATM    7  C7  UNL     1     -33.028   6.869   2.735  1.00 20.00    -0.001 C 
ENDROOT
BRANCH   7   8
HETATM    8  C8  UNL     1     -32.089   8.070   2.703  1.00 20.00     0.075 C 
BRANCH   8   9
HETATM    9  S9  UNL     1     -32.804   9.402   1.706  1.00 20.00    -0.182 SA
HETATM   10  H23 UNL     1     -31.792  10.266   1.867  1.00 20.00     0.101 HD
ENDBRANCH   8   9
ENDBRANCH   7   8
TORSDOF 2
