REMARK  4 active torsions:
REMARK  status: ('A' for Active; 'I' for Inactive)
REMARK    1  A    between atoms: C6_6  and  C7_7 
REMARK    2  A    between atoms: C6_6  and  O10_10 
REMARK    3  A    between atoms: C7_7  and  C8_8 
REMARK    4  A    between atoms: C7_7  and  O9_9 
ROOT
HETATM    1  C7  UNL     1     -34.037   6.212   3.288  1.00 20.00     0.154 C 
ENDROOT
BRANCH   1   2
HETATM    2  C6  UNL     1     -34.308   5.606   4.682  1.00 20.00     0.146 C 
HETATM    3  C1  UNL     1     -35.669   4.919   4.773  1.00 20.00     0.042 C 
BRANCH   2   4
HETATM    4  O10 UNL     1     -34.259   6.603   5.696  1.00 20.00    -0.388 OA
HETATM    5  C5  UNL     1     -33.957   6.039   6.965  1.00 20.00     0.202 C 
ENDBRANCH   2   4
ENDBRANCH   1   2
BRANCH   1   6
HETATM    6  C8  UNL     1     -32.927   7.310   3.201  1.00 20.00    -0.023 C 
HETATM    7  C2  UNL     1     -33.587   8.694   3.408  1.00 20.00     0.017 C 
HETATM    8  C3  UNL     1     -31.876   7.117   4.310  1.00 20.00     0.017 C 
HETATM    9  C4  UNL     1     -32.211   7.340   1.838  1.00 20.00     0.017 C 
ENDBRANCH   1   6
BRANCH   1  10
HETATM   10  O9  UNL     1     -33.718   5.162   2.370  1.00 20.00    -0.392 OA
HETATM   11  H28 UNL     1     -32.928   4.727   2.722  1.00 20.00     0.210 HD
ENDBRANCH   1  10
TORSDOF 4
