REMARK  3 active torsions:
REMARK  status: ('A' for Active; 'I' for Inactive)
REMARK    1  A    between atoms: C3_3  and  C5_5 
REMARK    2  A    between atoms: C6_6  and  C8_8 
REMARK    3  A    between atoms: C8_8  and  C9_9 
ROOT
HETATM    1  C1  UNL     1     -33.586   6.661   4.762  1.00 20.00     0.026 A 
HETATM    2  C2  UNL     1     -34.545   5.467   3.014  1.00 20.00     0.061 A 
HETATM    3  C3  UNL     1     -33.594   6.401   3.361  1.00 20.00    -0.029 A 
HETATM    4  C4  UNL     1     -34.532   5.917   5.432  1.00 20.00    -0.021 A 
HETATM    5  C7  UNL     1     -34.835   5.901   6.879  1.00 20.00     0.056 C 
HETATM    6  S10 UNL     1     -35.423   4.908   4.373  1.00 20.00    -0.106 SA
ENDROOT
BRANCH   3   7
HETATM    7  C5  UNL     1     -32.704   7.039   2.377  1.00 20.00     0.008 C 
HETATM    8  C6  UNL     1     -32.045   8.193   2.566  1.00 20.00    -0.025 C 
BRANCH   8   9
HETATM    9  C8  UNL     1     -31.152   8.815   1.529  1.00 20.00     0.042 C 
BRANCH   9  10
HETATM   10  C9  UNL     1     -31.532   8.412   0.107  1.00 20.00     0.118 C 
HETATM   11 CL11 UNL     1     -33.188   8.925  -0.300  1.00 20.00    -0.130 Cl
ENDBRANCH   9  10
ENDBRANCH   8   9
ENDBRANCH   3   7
TORSDOF 3
