REMARK  4 active torsions:
REMARK  status: ('A' for Active; 'I' for Inactive)
REMARK    1  A    between atoms: C6_6  and  C7_7 
REMARK    2  A    between atoms: C6_6  and  O10_10 
REMARK    3  A    between atoms: C7_7  and  C8_8 
REMARK    4  A    between atoms: C7_7  and  O9_9 
ROOT
HETATM    1  C7  UNL     1     -34.014   6.494   4.115  1.00 20.00     0.154 C 
ENDROOT
BRANCH   1   2
HETATM    2  C6  UNL     1     -32.782   6.901   3.277  1.00 20.00     0.146 C 
HETATM    3  C1  UNL     1     -32.034   5.699   2.705  1.00 20.00     0.042 C 
BRANCH   2   4
HETATM    4  O10 UNL     1     -33.153   7.739   2.188  1.00 20.00    -0.388 OA
HETATM    5  C5  UNL     1     -32.064   8.543   1.758  1.00 20.00     0.202 C 
ENDBRANCH   2   4
ENDBRANCH   1   2
BRANCH   1   6
HETATM    6  C8  UNL     1     -33.749   5.992   5.573  1.00 20.00    -0.023 C 
HETATM    7  C2  UNL     1     -35.104   5.609   6.213  1.00 20.00     0.017 C 
HETATM    8  C3  UNL     1     -32.856   4.738   5.568  1.00 20.00     0.017 C 
HETATM    9  C4  UNL     1     -33.100   7.061   6.472  1.00 20.00     0.017 C 
ENDBRANCH   1   6
BRANCH   1  10
HETATM   10  O9  UNL     1     -34.743   5.477   3.421  1.00 20.00    -0.392 OA
HETATM   11  H28 UNL     1     -35.008   5.864   2.575  1.00 20.00     0.210 HD
ENDBRANCH   1  10
TORSDOF 4
