REMARK  2 active torsions:
REMARK  status: ('A' for Active; 'I' for Inactive)
REMARK    1  A    between atoms: C7_7  and  C8_8 
REMARK    2  A    between atoms: C8_8  and  S9_9 
ROOT
HETATM    1  C1  UNL     1     -34.149   5.511   6.749  1.00 20.00     0.005 C 
HETATM    2  C2  UNL     1     -34.136   6.793   5.905  1.00 20.00     0.005 C 
HETATM    3  C3  UNL     1     -35.612   5.242   4.890  1.00 20.00     0.009 C 
HETATM    4  C4  UNL     1     -33.492   4.150   4.756  1.00 20.00     0.010 C 
HETATM    5  C5  UNL     1     -34.631   4.445   5.750  1.00 20.00    -0.014 C 
HETATM    6  C6  UNL     1     -34.566   6.296   4.514  1.00 20.00    -0.009 C 
HETATM    7  C7  UNL     1     -33.480   5.407   3.862  1.00 20.00    -0.001 C 
ENDROOT
BRANCH   7   8
HETATM    8  C8  UNL     1     -32.105   6.039   3.721  1.00 20.00     0.075 C 
BRANCH   8   9
HETATM    9  S9  UNL     1     -32.189   7.511   2.666  1.00 20.00    -0.182 SA
HETATM   10  H23 UNL     1     -30.886   7.816   2.739  1.00 20.00     0.101 HD
ENDBRANCH   8   9
ENDBRANCH   7   8
TORSDOF 2
