REMARK  3 active torsions:
REMARK  status: ('A' for Active; 'I' for Inactive)
REMARK    1  A    between atoms: C1_1  and  C5_5 
REMARK    2  A    between atoms: C2_2  and  C7_7 
REMARK    3  A    between atoms: C5_5  and  C6_6 
ROOT
HETATM    1  C1  UNL     1     -32.936   7.223   3.197  1.00 20.00    -0.029 C 
HETATM    2  C2  UNL     1     -33.463   6.016   3.450  1.00 20.00    -0.027 C 
ENDROOT
BRANCH   1   3
HETATM    3  C5  UNL     1     -31.843   7.463   2.195  1.00 20.00     0.042 C 
BRANCH   3   4
HETATM    4  C6  UNL     1     -32.224   8.500   1.144  1.00 20.00     0.118 C 
HETATM    5 CL8  UNL     1     -32.618  10.072   1.884  1.00 20.00    -0.130 Cl
ENDBRANCH   3   4
ENDBRANCH   1   3
BRANCH   2   6
HETATM    6  C7  UNL     1     -34.562   5.776   4.453  1.00 20.00    -0.001 C 
HETATM    7  C3  UNL     1     -34.078   4.828   5.551  1.00 20.00     0.013 C 
HETATM    8  C4  UNL     1     -35.797   5.205   3.756  1.00 20.00     0.013 C 
ENDBRANCH   2   6
TORSDOF 3
