REMARK  2 active torsions:
REMARK  status: ('A' for Active; 'I' for Inactive)
REMARK    1  A    between atoms: C3_3  and  C4_4 
REMARK    2  A    between atoms: C3_3  and  S9_9 
ROOT
HETATM    1  C1  UNL     1     -32.441   6.944   4.044  1.00 20.00     0.083 C 
HETATM    2  C3  UNL     1     -33.552   6.125   4.551  1.00 20.00     0.261 C 
HETATM    3  N5  UNL     1     -31.562   7.589   3.649  1.00 20.00    -0.196 NA
ENDROOT
BRANCH   2   4
HETATM    4  C4  UNL     1     -34.597   5.894   3.471  1.00 20.00     0.412 C 
HETATM    5  F6  UNL     1     -35.622   5.142   3.932  1.00 20.00    -0.169 F 
HETATM    6  F7  UNL     1     -35.126   7.069   3.057  1.00 20.00    -0.169 F 
HETATM    7  F8  UNL     1     -34.085   5.273   2.387  1.00 20.00    -0.169 F 
ENDBRANCH   2   4
BRANCH   2   8
HETATM    8  S9  UNL     1     -34.325   6.907   6.008  1.00 20.00    -0.145 SA
HETATM    9  C2  UNL     1     -35.132   5.439   6.684  1.00 20.00     0.091 C 
ENDBRANCH   2   8
TORSDOF 2
