REMARK  3 active torsions:
REMARK  status: ('A' for Active; 'I' for Inactive)
REMARK    1  A    between atoms: C1_1  and  C10_10 
REMARK    2  A    between atoms: C8_8  and  C11_11 
REMARK    3  A    between atoms: C10_10  and  C11_11 
ROOT
HETATM    1  C2  UNL     1     -34.498   3.671   5.540  1.00 20.00     0.005 C 
HETATM    2  C3  UNL     1     -34.315   4.955   6.364  1.00 20.00     0.005 C 
HETATM    3  C4  UNL     1     -35.675   5.451   4.485  1.00 20.00     0.009 C 
HETATM    4  C5  UNL     1     -33.606   4.820   3.497  1.00 20.00     0.009 C 
HETATM    5  C6  UNL     1     -34.860   4.205   4.144  1.00 20.00    -0.014 C 
HETATM    6  C7  UNL     1     -34.556   6.068   5.326  1.00 20.00    -0.010 C 
HETATM    7  C8  UNL     1     -33.359   6.085   4.346  1.00 20.00    -0.010 C 
ENDROOT
BRANCH   7   8
HETATM    8  C11 UNL     1     -33.307   7.351   3.497  1.00 20.00     0.012 C 
BRANCH   8   9
HETATM    9  C10 UNL     1     -32.217   7.263   2.437  1.00 20.00     0.078 C 
BRANCH   9  10
HETATM   10  C1  UNL     1     -32.162   8.502   1.560  1.00 20.00     0.123 C 
HETATM   11  C9  UNL     1     -33.143   9.595   1.895  1.00 20.00     0.091 C 
HETATM   12  O12 UNL     1     -31.372   8.625   0.626  1.00 20.00    -0.298 OA
ENDBRANCH   9  10
ENDBRANCH   8   9
ENDBRANCH   7   8
TORSDOF 3
