REMARK  4 active torsions:
REMARK  status: ('A' for Active; 'I' for Inactive)
REMARK    1  A    between atoms: C4_4  and  C6_6 
REMARK    2  A    between atoms: C4_4  and  C7_7 
REMARK    3  A    between atoms: C5_5  and  C6_6 
REMARK    4  A    between atoms: C5_5  and  O8_8 
ROOT
HETATM    1  C1  UNL     1     -32.279   7.232   4.889  1.00 20.00     0.012 C 
HETATM    2  C6  UNL     1     -32.594   6.201   3.805  1.00 20.00     0.007 C 
ENDROOT
BRANCH   2   3
HETATM    3  C4  UNL     1     -33.829   5.338   4.156  1.00 20.00     0.026 C 
BRANCH   3   4
HETATM    4  C7  UNL     1     -33.989   4.963   5.638  1.00 20.00     0.078 C 
HETATM    5  C2  UNL     1     -34.967   3.804   5.804  1.00 20.00     0.026 C 
HETATM    6 CL9  UNL     1     -34.578   6.354   6.595  1.00 20.00    -0.125 Cl
ENDBRANCH   3   4
ENDBRANCH   2   3
BRANCH   2   7
HETATM    7  C5  UNL     1     -32.805   6.919   2.463  1.00 20.00     0.171 C 
BRANCH   7   8
HETATM    8  O8  UNL     1     -31.875   7.986   2.329  1.00 20.00    -0.396 OA
HETATM    9  C3  UNL     1     -32.032   8.662   1.090  1.00 20.00     0.201 C 
ENDBRANCH   7   8
ENDBRANCH   2   7
TORSDOF 4
