REMARK  2 active torsions:
REMARK  status: ('A' for Active; 'I' for Inactive)
REMARK    1  A    between atoms: C4_4  and  C7_7 
REMARK    2  A    between atoms: C7_7  and  O8_8 
ROOT
HETATM    1  C1  UNL     1     -33.934   5.695   2.949  1.00 20.00     0.008 C 
HETATM    2  C2  UNL     1     -34.904   4.988   3.884  1.00 20.00     0.020 C 
HETATM    3  C3  UNL     1     -33.485   6.348   5.270  1.00 20.00     0.027 C 
HETATM    4  C4  UNL     1     -33.336   6.815   3.810  1.00 20.00     0.011 C 
HETATM    5  C5  UNL     1     -34.125   4.963   5.189  1.00 20.00     0.082 C 
HETATM    6 CL9  UNL     1     -35.156   4.608   6.582  1.00 20.00    -0.125 Cl
ENDROOT
BRANCH   4   7
HETATM    7  C7  UNL     1     -31.898   7.134   3.431  1.00 20.00     0.171 C 
BRANCH   7   8
HETATM    8  O8  UNL     1     -31.863   7.536   2.072  1.00 20.00    -0.396 OA
HETATM    9  C6  UNL     1     -32.257   8.894   1.915  1.00 20.00     0.201 C 
ENDBRANCH   7   8
ENDBRANCH   4   7
TORSDOF 2
