REMARK  4 active torsions:
REMARK  status: ('A' for Active; 'I' for Inactive)
REMARK    1  A    between atoms: C4_4  and  C6_6 
REMARK    2  A    between atoms: C4_4  and  C7_7 
REMARK    3  A    between atoms: C5_5  and  C6_6 
REMARK    4  A    between atoms: C5_5  and  O8_8 
ROOT
HETATM    1  C1  UNL     1     -31.526   6.151   3.501  1.00 20.00     0.012 C 
HETATM    2  C6  UNL     1     -32.832   6.938   3.387  1.00 20.00     0.007 C 
ENDROOT
BRANCH   2   3
HETATM    3  C4  UNL     1     -34.065   6.093   3.787  1.00 20.00     0.026 C 
BRANCH   3   4
HETATM    4  C7  UNL     1     -34.104   5.608   5.245  1.00 20.00     0.078 C 
HETATM    5  C2  UNL     1     -35.400   4.856   5.533  1.00 20.00     0.026 C 
HETATM    6 CL9  UNL     1     -33.968   6.979   6.384  1.00 20.00    -0.125 Cl
ENDBRANCH   3   4
ENDBRANCH   2   3
BRANCH   2   7
HETATM    7  C5  UNL     1     -32.989   7.464   1.952  1.00 20.00     0.171 C 
BRANCH   7   8
HETATM    8  O8  UNL     1     -31.910   8.333   1.630  1.00 20.00    -0.396 OA
HETATM    9  C3  UNL     1     -32.016   8.825   0.301  1.00 20.00     0.201 C 
ENDBRANCH   7   8
ENDBRANCH   2   7
TORSDOF 4
