REMARK  4 active torsions:
REMARK  status: ('A' for Active; 'I' for Inactive)
REMARK    1  A    between atoms: C1_1  and  C9_9 
REMARK    2  A    between atoms: C8_8  and  C10_10 
REMARK    3  A    between atoms: C9_9  and  C11_11 
REMARK    4  A    between atoms: C10_10  and  C11_11 
ROOT
HETATM    1  C2  UNL     1     -34.414   3.750   5.766  1.00 20.00     0.005 C 
HETATM    2  C3  UNL     1     -34.228   3.482   4.265  1.00 20.00     0.005 C 
HETATM    3  C4  UNL     1     -35.544   5.438   4.525  1.00 20.00     0.009 C 
HETATM    4  C5  UNL     1     -33.465   6.056   5.502  1.00 20.00     0.009 C 
HETATM    5  C6  UNL     1     -34.740   5.252   5.811  1.00 20.00    -0.014 C 
HETATM    6  C7  UNL     1     -34.432   4.874   3.638  1.00 20.00    -0.010 C 
HETATM    7  C8  UNL     1     -33.216   5.756   4.008  1.00 20.00    -0.010 C 
ENDROOT
BRANCH   7   8
HETATM    8  C10 UNL     1     -33.129   7.026   3.169  1.00 20.00     0.005 C 
BRANCH   8   9
HETATM    9  C11 UNL     1     -31.760   7.692   3.313  1.00 20.00     0.007 C 
BRANCH   9  10
HETATM   10  C9  UNL     1     -31.646   8.968   2.483  1.00 20.00     0.069 C 
BRANCH  10  11
HETATM   11  C1  UNL     1     -31.834   8.754   0.999  1.00 20.00     0.231 C 
HETATM   12  O12 UNL     1     -32.745   9.230   0.330  1.00 20.00    -0.307 OA
ENDBRANCH  10  11
ENDBRANCH   9  10
ENDBRANCH   8   9
ENDBRANCH   7   8
TORSDOF 4
