REMARK  3 active torsions:
REMARK  status: ('A' for Active; 'I' for Inactive)
REMARK    1  A    between atoms: C4_4  and  C9_9 
REMARK    2  A    between atoms: C7_7  and  C8_8 
REMARK    3  A    between atoms: C8_8  and  N11_11 
ROOT
HETATM    1  C1  UNL     1     -32.394   9.118  -0.039  1.00 20.00     0.060 C 
HETATM    2  C7  UNL     1     -32.814   9.555   1.300  1.00 20.00     0.151 C 
HETATM    3  N10 UNL     1     -32.063   8.774  -1.097  1.00 20.00    -0.197 NA
ENDROOT
BRANCH   2   4
HETATM    4  C8  UNL     1     -32.219   8.691   2.402  1.00 20.00     0.249 C 
BRANCH   4   5
HETATM    5  N11 UNL     1     -32.597   7.275   2.200  1.00 20.00    -0.069 N 
HETATM    6  C2  UNL     1     -33.970   6.999   2.669  1.00 20.00     0.241 C 
HETATM    7  C4  UNL     1     -33.429   5.695   3.292  1.00 20.00     0.041 C 
HETATM    8  C3  UNL     1     -32.058   6.404   3.265  1.00 20.00     0.241 C 
HETATM    9  H28 UNL     1     -32.409   6.928   1.250  1.00 20.00     0.279 HD
BRANCH   7  10
HETATM   10  C9  UNL     1     -33.972   5.308   4.651  1.00 20.00    -0.015 C 
HETATM   11  C5  UNL     1     -34.091   6.532   5.564  1.00 20.00     0.010 C 
HETATM   12  C6  UNL     1     -35.331   4.614   4.522  1.00 20.00     0.010 C 
ENDBRANCH   7  10
ENDBRANCH   4   5
ENDBRANCH   2   4
TORSDOF 3
