REMARK  3 active torsions:
REMARK  status: ('A' for Active; 'I' for Inactive)
REMARK    1  A    between atoms: C3_3  and  C9_9 
REMARK    2  A    between atoms: C7_7  and  O11_11 
REMARK    3  A    between atoms: C9_9  and  O11_11 
ROOT
HETATM    1  C1  UNL     1     -34.559   4.473   5.091  1.00 20.00     0.129 C 
HETATM    2  C4  UNL     1     -34.182   5.487   6.139  1.00 20.00     0.081 C 
HETATM    3  C5  UNL     1     -34.456   5.027   3.691  1.00 20.00     0.110 C 
HETATM    4  C6  UNL     1     -34.155   6.780   5.328  1.00 20.00     0.040 C 
HETATM    5  C7  UNL     1     -33.732   6.349   3.929  1.00 20.00     0.129 C 
HETATM    6  O10 UNL     1     -34.907   3.327   5.347  1.00 20.00    -0.298 OA
ENDROOT
BRANCH   5   7
HETATM    7  O11 UNL     1     -32.323   6.148   3.905  1.00 20.00    -0.382 OA
BRANCH   7   8
HETATM    8  C9  UNL     1     -31.629   7.363   3.664  1.00 20.00     0.195 C 
BRANCH   8   9
HETATM    9  C3  UNL     1     -31.666   7.655   2.199  1.00 20.00    -0.005 C 
HETATM   10  C2  UNL     1     -32.236   8.748   1.672  1.00 20.00    -0.033 C 
HETATM   11  C8  UNL     1     -32.278   9.040   0.209  1.00 20.00     0.036 C 
ENDBRANCH   8   9
ENDBRANCH   7   8
ENDBRANCH   5   7
TORSDOF 3
