REMARK  4 active torsions:
REMARK  status: ('A' for Active; 'I' for Inactive)
REMARK    1  A    between atoms: C2_2  and  C7_7 
REMARK    2  A    between atoms: C2_2  and  O11_11 
REMARK    3  A    between atoms: C6_6  and  C7_7 
REMARK    4  A    between atoms: C6_6  and  C8_8 
ROOT
HETATM    1  C1  UNL     1     -30.771   7.648   4.370  1.00 20.00     0.074 C 
HETATM    2  C7  UNL     1     -31.764   6.882   3.593  1.00 20.00     0.192 C 
HETATM    3  N9  UNL     1     -29.988   8.250   4.979  1.00 20.00    -0.196 NA
ENDROOT
BRANCH   2   4
HETATM    4  C2  UNL     1     -32.375   7.759   2.511  1.00 20.00     0.276 C 
HETATM    5  O10 UNL     1     -33.570   7.990   2.384  1.00 20.00    -0.264 OA
BRANCH   4   6
HETATM    6  O11 UNL     1     -31.381   8.249   1.709  1.00 20.00    -0.325 OA
HETATM    7  C5  UNL     1     -31.812   9.102   0.644  1.00 20.00     0.213 C 
ENDBRANCH   4   6
ENDBRANCH   2   4
BRANCH   2   8
HETATM    8  C6  UNL     1     -32.886   6.341   4.497  1.00 20.00     0.033 C 
BRANCH   8   9
HETATM    9  C8  UNL     1     -33.650   5.121   3.940  1.00 20.00    -0.021 C 
HETATM   10  C3  UNL     1     -34.308   5.489   2.607  1.00 20.00     0.009 C 
HETATM   11  C4  UNL     1     -34.712   4.604   4.912  1.00 20.00     0.009 C 
ENDBRANCH   8   9
ENDBRANCH   2   8
TORSDOF 4
