REMARK  2 active torsions:
REMARK  status: ('A' for Active; 'I' for Inactive)
REMARK    1  A    between atoms: C2_2  and  C8_8 
REMARK    2  A    between atoms: C2_2  and  C9_9 
ROOT
HETATM    1  C1  UNL     1     -32.855   8.207   2.433  1.00 20.00     0.127 C 
HETATM    2  C3  UNL     1     -31.753   7.390   3.048  1.00 20.00     0.079 C 
HETATM    3  C4  UNL     1     -34.212   7.583   2.631  1.00 20.00     0.090 C 
HETATM    4  C5  UNL     1     -32.533   6.455   3.960  1.00 20.00     0.020 C 
HETATM    5  C8  UNL     1     -33.864   6.230   3.247  1.00 20.00     0.063 C 
HETATM    6  O10 UNL     1     -32.670   9.253   1.823  1.00 20.00    -0.298 OA
ENDROOT
BRANCH   5   7
HETATM    7  C2  UNL     1     -34.921   5.793   4.210  1.00 20.00     0.135 C 
HETATM    8  O11 UNL     1     -36.080   5.593   3.849  1.00 20.00    -0.297 OA
BRANCH   7   9
HETATM    9  C9  UNL     1     -34.499   5.614   5.643  1.00 20.00     0.056 A 
HETATM   10  C6  UNL     1     -35.282   4.679   6.493  1.00 20.00     0.013 A 
HETATM   11  C7  UNL     1     -33.902   4.311   6.038  1.00 20.00     0.013 A 
ENDBRANCH   7   9
ENDBRANCH   5   7
TORSDOF 2
