REMARK  3 active torsions:
REMARK  status: ('A' for Active; 'I' for Inactive)
REMARK    1  A    between atoms: C7_7  and  C9_9 
REMARK    2  A    between atoms: C8_8  and  O11_11 
REMARK    3  A    between atoms: C9_9  and  O11_11 
ROOT
HETATM    1  C1  UNL     1     -34.549   4.968   5.398  1.00 20.00     0.129 C 
HETATM    2  C2  UNL     1     -35.046   4.391   4.098  1.00 20.00     0.081 C 
HETATM    3  C3  UNL     1     -34.062   6.389   5.247  1.00 20.00     0.110 C 
HETATM    4  C4  UNL     1     -35.137   5.634   3.218  1.00 20.00     0.040 C 
HETATM    5  C8  UNL     1     -34.033   6.552   3.730  1.00 20.00     0.128 C 
HETATM    6  O10 UNL     1     -34.539   4.353   6.457  1.00 20.00    -0.298 OA
ENDROOT
BRANCH   5   7
HETATM    7  O11 UNL     1     -32.780   6.114   3.213  1.00 20.00    -0.385 OA
BRANCH   7   8
HETATM    8  C9  UNL     1     -32.533   6.654   1.923  1.00 20.00     0.172 C 
BRANCH   8   9
HETATM    9  C7  UNL     1     -32.034   8.075   2.071  1.00 20.00     0.009 A 
HETATM   10  C5  UNL     1     -31.682   8.885   0.854  1.00 20.00     0.007 A 
HETATM   11  C6  UNL     1     -32.904   9.230   1.659  1.00 20.00     0.007 A 
ENDBRANCH   8   9
ENDBRANCH   7   8
ENDBRANCH   5   7
TORSDOF 3
