REMARK  0 active torsions:
REMARK  status: ('A' for Active; 'I' for Inactive)
ROOT
HETATM    1  C1  UNL     1     -32.422   5.773   2.333  1.00 20.00     0.009 A 
HETATM    2  C2  UNL     1     -32.241   7.030   1.752  1.00 20.00     0.024 A 
HETATM    3  C3  UNL     1     -33.512   8.090   3.535  1.00 20.00     0.033 A 
HETATM    4  C4  UNL     1     -33.157   5.691   3.504  1.00 20.00    -0.050 A 
HETATM    5  C5  UNL     1     -33.692   6.839   4.104  1.00 20.00    -0.031 A 
HETATM    6  C6  UNL     1     -32.783   8.179   2.348  1.00 20.00     0.034 A 
HETATM    7  C7  UNL     1     -33.461   4.469   4.314  1.00 20.00     0.045 C 
HETATM    8  C8  UNL     1     -34.403   6.495   5.381  1.00 20.00     0.119 C 
HETATM    9  C9  UNL     1     -34.641   4.976   5.174  1.00 20.00     0.009 C 
HETATM   10  C10 UNL     1     -34.847   4.150   6.435  1.00 20.00     0.012 C 
HETATM   11 CL11 UNL     1     -32.539   9.717   1.610  1.00 20.00    -0.084 Cl
HETATM   12 CL12 UNL     1     -33.351   6.886   6.760  1.00 20.00    -0.119 Cl
ENDROOT
TORSDOF 0
