REMARK  0 active torsions:
REMARK  status: ('A' for Active; 'I' for Inactive)
ROOT
HETATM    1  C1  UNL     1     -31.742   6.007   2.705  1.00 20.00     0.009 A 
HETATM    2  C2  UNL     1     -31.654   7.296   2.175  1.00 20.00     0.024 A 
HETATM    3  C3  UNL     1     -33.727   7.941   3.274  1.00 20.00     0.032 A 
HETATM    4  C4  UNL     1     -32.829   5.700   3.506  1.00 20.00    -0.050 A 
HETATM    5  C5  UNL     1     -33.809   6.659   3.797  1.00 20.00    -0.035 A 
HETATM    6  C6  UNL     1     -32.640   8.255   2.456  1.00 20.00     0.034 A 
HETATM    7  C7  UNL     1     -33.125   4.403   4.195  1.00 20.00     0.045 C 
HETATM    8  C8  UNL     1     -34.853   6.096   4.712  1.00 20.00     0.095 C 
HETATM    9  C9  UNL     1     -34.626   4.579   4.519  1.00 20.00     0.005 C 
HETATM   10  C10 UNL     1     -35.106   3.658   5.632  1.00 20.00     0.011 C 
HETATM   11 CL11 UNL     1     -32.502   9.837   1.789  1.00 20.00    -0.084 Cl
HETATM   12 BR12 UNL     1     -34.486   6.728   6.513  1.00 20.00    -0.086 Br
ENDROOT
TORSDOF 0
