REMARK  0 active torsions:
REMARK  status: ('A' for Active; 'I' for Inactive)
ROOT
HETATM    1  C1  UNL     1     -32.037   7.863   4.924  1.00 20.00     0.009 A 
HETATM    2  C2  UNL     1     -31.612   8.281   3.662  1.00 20.00     0.024 A 
HETATM    3  C3  UNL     1     -33.261   6.851   2.588  1.00 20.00     0.033 A 
HETATM    4  C4  UNL     1     -33.079   6.954   5.000  1.00 20.00    -0.050 A 
HETATM    5  C5  UNL     1     -33.695   6.455   3.844  1.00 20.00    -0.031 A 
HETATM    6  C6  UNL     1     -32.219   7.777   2.502  1.00 20.00     0.034 A 
HETATM    7  C7  UNL     1     -33.661   6.335   6.233  1.00 20.00     0.045 C 
HETATM    8  C8  UNL     1     -34.746   5.449   4.206  1.00 20.00     0.119 C 
HETATM    9  C9  UNL     1     -35.002   5.794   5.694  1.00 20.00     0.009 C 
HETATM   10  C10 UNL     1     -35.516   4.609   6.500  1.00 20.00     0.012 C 
HETATM   11 CL11 UNL     1     -31.677   8.311   0.956  1.00 20.00    -0.084 Cl
HETATM   12 CL12 UNL     1     -36.225   5.595   3.246  1.00 20.00    -0.119 Cl
ENDROOT
TORSDOF 0
