REMARK  0 active torsions:
REMARK  status: ('A' for Active; 'I' for Inactive)
ROOT
HETATM    1  C1  UNL     1     -31.431   6.780   3.571  1.00 20.00     0.009 A 
HETATM    2  C2  UNL     1     -31.476   7.823   2.644  1.00 20.00     0.019 A 
HETATM    3  C3  UNL     1     -33.899   7.939   2.829  1.00 20.00     0.028 A 
HETATM    4  C4  UNL     1     -32.625   6.322   4.103  1.00 20.00    -0.050 A 
HETATM    5  C5  UNL     1     -33.852   6.889   3.733  1.00 20.00    -0.032 A 
HETATM    6  C6  UNL     1     -32.701   8.399   2.277  1.00 20.00     0.011 A 
HETATM    7  C7  UNL     1     -32.812   5.259   5.141  1.00 20.00     0.045 C 
HETATM    8  C8  UNL     1     -34.973   6.252   4.498  1.00 20.00     0.119 C 
HETATM    9  C9  UNL     1     -34.311   4.935   4.974  1.00 20.00     0.009 C 
HETATM   10  C10 UNL     1     -34.931   4.385   6.251  1.00 20.00     0.012 C 
HETATM   11 CL11 UNL     1     -36.409   5.933   3.514  1.00 20.00    -0.119 Cl
HETATM   12 BR12 UNL     1     -32.731   9.808   1.015  1.00 20.00    -0.051 Br
ENDROOT
TORSDOF 0
