REMARK  1 active torsions:
REMARK  status: ('A' for Active; 'I' for Inactive)
REMARK    1  A    between atoms: C2_2  and  C3_3 
ROOT
HETATM    1  C1  UNL     1     -33.129   7.295   4.383  1.00 20.00    -0.034 C 
HETATM    2  C2  UNL     1     -32.237   7.866   3.560  1.00 20.00     0.194 C 
HETATM    3  C4  UNL     1     -32.737   6.684   5.701  1.00 20.00     0.038 C 
HETATM    4  C5  UNL     1     -34.595   7.202   4.050  1.00 20.00     0.042 C 
HETATM    5  C6  UNL     1     -33.237   5.242   5.810  1.00 20.00     0.009 C 
HETATM    6  C7  UNL     1     -35.105   5.749   4.126  1.00 20.00    -0.011 C 
HETATM    7  C8  UNL     1     -34.742   5.128   5.502  1.00 20.00    -0.014 C 
HETATM    8  C9  UNL     1     -34.603   4.934   2.926  1.00 20.00     0.010 C 
HETATM    9  C10 UNL     1     -35.208   3.678   5.642  1.00 20.00     0.010 C 
HETATM   10  F13 UNL     1     -30.942   7.885   3.940  1.00 20.00    -0.199 F 
ENDROOT
BRANCH   2  11
HETATM   11  C3  UNL     1     -32.632   8.489   2.217  1.00 20.00     0.239 C 
HETATM   12  O11 UNL     1     -32.934   9.717   2.289  1.00 20.00    -0.642 OA
HETATM   13  O12 UNL     1     -32.616   7.731   1.208  1.00 20.00    -0.642 OA
ENDBRANCH   2  11
TORSDOF 1
