REMARK  2 active torsions:
REMARK  status: ('A' for Active; 'I' for Inactive)
REMARK    1  A    between atoms: C6_6  and  N11_11 
REMARK    2  A    between atoms: C10_10  and  N11_11 
ROOT
HETATM    1  C1  UNL     1     -32.235   8.817   0.872  1.00 20.00     0.013 C 
HETATM    2  C2  UNL     1     -32.166   8.138   1.860  1.00 20.00    -0.087 C 
HETATM    3  C10 UNL     1     -32.078   7.308   3.064  1.00 20.00     0.362 C 
ENDROOT
BRANCH   3   4
HETATM    4  N11 UNL     1     -33.190   7.587   3.963  1.00 20.00     0.099 N 
HETATM    5  H28 UNL     1     -32.991   8.438   4.488  1.00 20.00     0.317 HD
BRANCH   4   6
HETATM    6  C6  UNL     1     -33.399   6.486   4.891  1.00 20.00     0.229 C 
HETATM    7  C4  UNL     1     -34.200   6.906   6.125  1.00 20.00     0.036 C 
HETATM    8  C3  UNL     1     -34.794   5.606   6.673  1.00 20.00     0.003 C 
HETATM    9  C5  UNL     1     -34.516   4.523   5.626  1.00 20.00     0.011 C 
HETATM   10  C7  UNL     1     -34.182   5.280   4.327  1.00 20.00    -0.017 C 
HETATM   11  C8  UNL     1     -35.478   5.678   3.594  1.00 20.00     0.017 C 
HETATM   12  C9  UNL     1     -33.325   4.424   3.388  1.00 20.00     0.017 C 
ENDBRANCH   4   6
ENDBRANCH   3   4
TORSDOF 2
