REMARK  2 active torsions:
REMARK  status: ('A' for Active; 'I' for Inactive)
REMARK    1  A    between atoms: C1_1  and  C5_5 
REMARK    2  A    between atoms: C1_1  and  C10_10 
ROOT
HETATM    1  C2  UNL     1     -35.790   5.399   2.976  1.00 20.00     0.002 C 
HETATM    2  C3  UNL     1     -34.358   5.385   2.435  1.00 20.00     0.013 C 
HETATM    3  C4  UNL     1     -35.691   5.762   4.455  1.00 20.00     0.010 C 
HETATM    4  C5  UNL     1     -33.443   5.720   3.618  1.00 20.00     0.063 C 
HETATM    5  C6  UNL     1     -34.268   5.360   4.872  1.00 20.00    -0.037 C 
HETATM    6  C7  UNL     1     -33.829   6.092   6.145  1.00 20.00     0.015 C 
HETATM    7  C8  UNL     1     -34.192   3.843   5.141  1.00 20.00     0.015 C 
ENDROOT
BRANCH   4   8
HETATM    8  C1  UNL     1     -33.061   7.172   3.554  1.00 20.00     0.131 C 
HETATM    9  O11 UNL     1     -33.735   8.031   4.121  1.00 20.00    -0.298 OA
BRANCH   8  10
HETATM   10  C10 UNL     1     -31.811   7.500   2.757  1.00 20.00     0.074 C 
HETATM   11  C9  UNL     1     -32.092   8.414   1.579  1.00 20.00     0.013 C 
ENDBRANCH   8  10
ENDBRANCH   4   8
TORSDOF 2
