REMARK  1 active torsions:
REMARK  status: ('A' for Active; 'I' for Inactive)
REMARK    1  A    between atoms: C4_4  and  C9_9 
ROOT
HETATM    1  C1  UNL     1     -35.558   6.029   2.731  1.00 20.00     0.001 C 
HETATM    2  C2  UNL     1     -35.496   6.756   4.075  1.00 20.00     0.007 C 
HETATM    3  C3  UNL     1     -34.129   5.608   2.392  1.00 20.00     0.009 C 
HETATM    4  C4  UNL     1     -34.061   6.582   4.594  1.00 20.00     0.011 C 
HETATM    5  C5  UNL     1     -33.219   6.455   3.297  1.00 20.00    -0.043 C 
HETATM    6  C6  UNL     1     -31.854   5.787   3.493  1.00 20.00     0.015 C 
HETATM    7  C7  UNL     1     -32.987   7.845   2.667  1.00 20.00     0.015 C 
ENDROOT
BRANCH   4   8
HETATM    8  C9  UNL     1     -33.982   5.378   5.538  1.00 20.00     0.083 C 
HETATM    9  C8  UNL     1     -34.520   5.714   6.920  1.00 20.00     0.027 C 
HETATM   10 CL10 UNL     1     -34.914   4.018   4.850  1.00 20.00    -0.125 Cl
ENDBRANCH   4   8
TORSDOF 1
