REMARK  2 active torsions:
REMARK  status: ('A' for Active; 'I' for Inactive)
REMARK    1  A    between atoms: C5_5  and  C9_9 
REMARK    2  A    between atoms: C5_5  and  O10_10 
ROOT
HETATM    1  C1  UNL     1     -35.675   5.447   3.369  1.00 20.00     0.004 C 
HETATM    2  C2  UNL     1     -35.623   6.030   4.784  1.00 20.00     0.012 C 
HETATM    3  C3  UNL     1     -34.246   5.045   3.005  1.00 20.00     0.038 C 
HETATM    4  C4  UNL     1     -34.255   5.615   5.356  1.00 20.00    -0.017 C 
HETATM    5  C5  UNL     1     -33.348   5.654   4.092  1.00 20.00     0.064 C 
HETATM    6  C6  UNL     1     -34.348   4.196   5.962  1.00 20.00     0.018 C 
HETATM    7  C7  UNL     1     -33.813   6.569   6.474  1.00 20.00     0.018 C 
ENDROOT
BRANCH   5   8
HETATM    8  C9  UNL     1     -32.883   7.054   3.670  1.00 20.00     0.034 C 
HETATM    9  C8  UNL     1     -32.104   7.017   2.396  1.00 20.00     0.008 C 
ENDBRANCH   5   8
BRANCH   5  10
HETATM   10  O10 UNL     1     -32.187   4.846   4.247  1.00 20.00    -0.389 OA
HETATM   11  H28 UNL     1     -31.745   4.845   3.387  1.00 20.00     0.210 HD
ENDBRANCH   5  10
TORSDOF 2
