REMARK  1 active torsions:
REMARK  status: ('A' for Active; 'I' for Inactive)
REMARK    1  A    between atoms: C1_1  and  C4_4 
ROOT
HETATM    1  C1  UNL     1     -32.508   6.910   3.018  1.00 20.00    -0.079 C 
HETATM    2  C2  UNL     1     -32.424   7.938   2.403  1.00 20.00    -0.106 C 
HETATM    3  C7  UNL     1     -32.323   9.190   1.654  1.00 20.00     0.112 C 
ENDROOT
BRANCH   1   4
HETATM    4  C4  UNL     1     -32.604   5.692   3.746  1.00 20.00     0.070 C 
HETATM    5  C3  UNL     1     -33.766   5.236   4.210  1.00 20.00    -0.017 C 
HETATM    6  C5  UNL     1     -34.191   4.024   4.991  1.00 20.00     0.306 C 
HETATM    7  C6  UNL     1     -35.189   5.720   4.159  1.00 20.00     0.306 C 
HETATM    8  N8  UNL     1     -35.468   4.723   5.204  1.00 20.00     0.091 N 
HETATM    9  H17 UNL     1     -36.299   4.156   5.045  1.00 20.00     0.316 HD
ENDBRANCH   1   4
TORSDOF 1
