REMARK  2 active torsions:
REMARK  status: ('A' for Active; 'I' for Inactive)
REMARK    1  A    between atoms: C2_2  and  C6_6 
REMARK    2  A    between atoms: C6_6  and  O10_10 
ROOT
HETATM    1  C3  UNL     1     -32.450   6.494   3.902  1.00 20.00     0.004 C 
HETATM    2  C4  UNL     1     -33.850   6.785   3.348  1.00 20.00     0.043 C 
HETATM    3  C5  UNL     1     -32.632   5.528   5.075  1.00 20.00     0.012 C 
HETATM    4  C6  UNL     1     -34.793   5.820   4.083  1.00 20.00     0.082 C 
HETATM    5  C7  UNL     1     -34.117   5.645   5.475  1.00 20.00    -0.013 C 
HETATM    6  C8  UNL     1     -34.572   4.387   6.229  1.00 20.00     0.018 C 
HETATM    7  C9  UNL     1     -34.307   6.862   6.406  1.00 20.00     0.018 C 
ENDROOT
BRANCH   4   8
HETATM    8  C2  UNL     1     -36.208   6.308   4.087  1.00 20.00     0.001 C 
HETATM    9  C1  UNL     1     -37.277   5.505   4.109  1.00 20.00     0.010 C 
ENDBRANCH   4   8
BRANCH   4  10
HETATM   10  O10 UNL     1     -34.751   4.583   3.357  1.00 20.00    -0.385 OA
HETATM   11  H26 UNL     1     -35.063   4.784   2.464  1.00 20.00     0.211 HD
ENDBRANCH   4  10
TORSDOF 2
