REMARK  2 active torsions:
REMARK  status: ('A' for Active; 'I' for Inactive)
REMARK    1  A    between atoms: C3_3  and  C9_9 
REMARK    2  A    between atoms: C7_7  and  C9_9 
ROOT
HETATM    1  C4  UNL     1     -33.470   8.873   2.576  1.00 20.00     0.006 C 
HETATM    2  C5  UNL     1     -33.088  10.154   1.848  1.00 20.00     0.020 C 
HETATM    3  C6  UNL     1     -31.494   8.480   1.179  1.00 20.00     0.025 C 
HETATM    4  C7  UNL     1     -32.229   7.982   2.437  1.00 20.00    -0.007 C 
HETATM    5  C8  UNL     1     -32.354   9.618   0.630  1.00 20.00     0.082 C 
HETATM    6 CL12 UNL     1     -31.395  10.865  -0.181  1.00 20.00    -0.125 Cl
ENDROOT
BRANCH   4   7
HETATM    7  C9  UNL     1     -32.581   6.503   2.373  1.00 20.00     0.071 C 
BRANCH   7   8
HETATM    8  C3  UNL     1     -33.312   6.048   3.609  1.00 20.00     0.074 A 
HETATM    9  N10 UNL     1     -34.224   5.101   3.627  1.00 20.00    -0.258 NA
HETATM   10  C1  UNL     1     -34.681   4.946   4.922  1.00 20.00     0.124 A 
HETATM   11  C2  UNL     1     -34.111   5.775   5.865  1.00 20.00     0.070 A 
HETATM   12  S11 UNL     1     -32.954   6.793   5.113  1.00 20.00    -0.085 SA
ENDBRANCH   7   8
ENDBRANCH   4   7
TORSDOF 2
