REMARK  0 active torsions:
REMARK  status: ('A' for Active; 'I' for Inactive)
ROOT
HETATM    1  C1  UNL     1     -32.015   7.801   2.619  1.00 20.00     0.088 C 
HETATM    2  C2  UNL     1     -33.621   6.421   3.767  1.00 20.00    -0.062 C 
HETATM    3  C3  UNL     1     -32.775   6.613   2.741  1.00 20.00     0.097 C 
HETATM    4  C4  UNL     1     -33.767   7.500   4.821  1.00 20.00     0.036 C 
HETATM    5  C5  UNL     1     -33.534   6.944   6.223  1.00 20.00     0.004 C 
HETATM    6  C6  UNL     1     -34.425   5.739   6.507  1.00 20.00     0.001 C 
HETATM    7  C7  UNL     1     -34.251   4.656   5.441  1.00 20.00     0.013 C 
HETATM    8  C8  UNL     1     -34.465   5.157   3.988  1.00 20.00    -0.024 C 
HETATM    9  C9  UNL     1     -34.098   3.988   3.043  1.00 20.00     0.019 C 
HETATM   10  C10 UNL     1     -35.954   5.484   3.744  1.00 20.00     0.019 C 
HETATM   11  N11 UNL     1     -31.388   8.772   2.511  1.00 20.00    -0.192 NA
ENDROOT
TORSDOF 0
