REMARK  0 active torsions:
REMARK  status: ('A' for Active; 'I' for Inactive)
ROOT
HETATM    1  C1  UNL     1     -35.145   3.631   4.064  1.00 20.00     0.021 C 
HETATM    2  C2  UNL     1     -34.653   4.710   3.436  1.00 20.00     0.001 C 
HETATM    3  C3  UNL     1     -34.703   4.534   6.273  1.00 20.00     0.003 C 
HETATM    4  C4  UNL     1     -35.036   3.491   5.496  1.00 20.00     0.030 C 
HETATM    5  C5  UNL     1     -34.420   5.902   5.683  1.00 20.00     0.033 C 
HETATM    6  C6  UNL     1     -33.962   5.836   4.183  1.00 20.00     0.058 C 
HETATM    7  C7  UNL     1     -33.480   6.694   6.602  1.00 20.00     0.016 C 
HETATM    8  C8  UNL     1     -34.234   7.173   3.479  1.00 20.00     0.037 C 
HETATM    9 CL9  UNL     1     -35.411   1.957   6.192  1.00 20.00    -0.085 Cl
HETATM   10 CL10 UNL     1     -32.189   5.494   4.046  1.00 20.00    -0.115 Cl
ENDROOT
TORSDOF 0
