REMARK  2 active torsions:
REMARK  status: ('A' for Active; 'I' for Inactive)
REMARK    1  A    between atoms: C6_6  and  N11_11 
REMARK    2  A    between atoms: C10_10  and  N11_11 
ROOT
HETATM    1  C1  UNL     1     -32.293   9.233   1.333  1.00 20.00     0.013 C 
HETATM    2  C2  UNL     1     -32.416   8.140   1.812  1.00 20.00    -0.087 C 
HETATM    3  C10 UNL     1     -32.561   6.803   2.394  1.00 20.00     0.362 C 
ENDROOT
BRANCH   3   4
HETATM    4  N11 UNL     1     -33.370   6.854   3.605  1.00 20.00     0.099 N 
HETATM    5  H28 UNL     1     -34.294   7.220   3.375  1.00 20.00     0.317 HD
BRANCH   4   6
HETATM    6  C6  UNL     1     -33.510   5.523   4.201  1.00 20.00     0.229 C 
HETATM    7  C4  UNL     1     -34.604   4.764   3.440  1.00 20.00     0.036 C 
HETATM    8  C3  UNL     1     -35.923   5.149   4.115  1.00 20.00     0.003 C 
HETATM    9  C5  UNL     1     -35.557   5.833   5.437  1.00 20.00     0.011 C 
HETATM   10  C7  UNL     1     -34.058   5.554   5.652  1.00 20.00    -0.017 C 
HETATM   11  C8  UNL     1     -33.864   4.184   6.336  1.00 20.00     0.017 C 
HETATM   12  C9  UNL     1     -33.409   6.620   6.544  1.00 20.00     0.017 C 
ENDBRANCH   4   6
ENDBRANCH   3   4
TORSDOF 2
