REMARK  0 active torsions:
REMARK  status: ('A' for Active; 'I' for Inactive)
ROOT
HETATM    1  C1  UNL     1     -33.061   7.013   3.139  1.00 20.00     0.098 C 
HETATM    2  C2  UNL     1     -34.488   5.033   3.338  1.00 20.00     0.160 A 
HETATM    3  C3  UNL     1     -33.838   6.076   3.846  1.00 20.00     0.063 A 
HETATM    4  C4  UNL     1     -34.108   6.036   5.300  1.00 20.00     0.225 A 
HETATM    5  N5  UNL     1     -32.421   7.785   2.556  1.00 20.00    -0.192 NA
HETATM    6  N6  UNL     1     -35.155   4.311   4.292  1.00 20.00    -0.166 NA
HETATM    7  N7  UNL     1     -34.977   4.834   5.430  1.00 20.00    -0.188 NA
ENDROOT
TORSDOF 0
