REMARK  2 active torsions:
REMARK  status: ('A' for Active; 'I' for Inactive)
REMARK    1  A    between atoms: C5_5  and  C10_10 
REMARK    2  A    between atoms: C5_5  and  O11_11 
ROOT
HETATM    1  C1  UNL     1     -31.418   7.656   3.706  1.00 20.00     0.004 C 
HETATM    2  C2  UNL     1     -31.822   7.069   2.353  1.00 20.00     0.012 C 
HETATM    3  C3  UNL     1     -32.394   7.092   4.746  1.00 20.00     0.039 C 
HETATM    4  C4  UNL     1     -32.715   5.854   2.676  1.00 20.00    -0.016 C 
HETATM    5  C5  UNL     1     -33.469   6.344   3.944  1.00 20.00     0.068 C 
HETATM    6  C6  UNL     1     -31.830   4.619   2.938  1.00 20.00     0.018 C 
HETATM    7  C7  UNL     1     -33.647   5.542   1.496  1.00 20.00     0.018 C 
ENDROOT
BRANCH   5   8
HETATM    8  C10 UNL     1     -34.145   5.256   4.771  1.00 20.00     0.012 C 
HETATM    9  C8  UNL     1     -34.130   5.619   6.255  1.00 20.00     0.012 C 
HETATM   10  C9  UNL     1     -35.577   5.025   4.290  1.00 20.00     0.012 C 
ENDBRANCH   5   8
BRANCH   5  11
HETATM   11  O11 UNL     1     -34.500   7.277   3.595  1.00 20.00    -0.389 OA
HETATM   12  H31 UNL     1     -34.071   7.963   3.064  1.00 20.00     0.210 HD
ENDBRANCH   5  11
TORSDOF 2
