REMARK  0 active torsions:
REMARK  status: ('A' for Active; 'I' for Inactive)
ROOT
HETATM    1  C1  UNL     1     -35.512   5.353   3.164  1.00 20.00     0.035 C 
HETATM    2  C2  UNL     1     -35.826   5.466   4.666  1.00 20.00     0.014 C 
HETATM    3  C3  UNL     1     -34.043   5.624   3.063  1.00 20.00     0.152 A 
HETATM    4  C4  UNL     1     -33.429   5.453   4.406  1.00 20.00     0.158 A 
HETATM    5  C5  UNL     1     -34.512   5.060   5.388  1.00 20.00    -0.019 C 
HETATM    6  C6  UNL     1     -34.475   3.544   5.628  1.00 20.00     0.017 C 
HETATM    7  C7  UNL     1     -34.353   5.800   6.716  1.00 20.00     0.017 C 
HETATM    8  O8  UNL     1     -33.556   6.749   3.802  1.00 20.00    -0.375 OA
ENDROOT
TORSDOF 0
