REMARK  0 active torsions:
REMARK  status: ('A' for Active; 'I' for Inactive)
ROOT
HETATM    1  C1  UNL     1     -33.734   6.352   5.213  1.00 20.00    -0.081 C 
HETATM    2  C2  UNL     1     -34.192   6.922   6.335  1.00 20.00     0.015 C 
HETATM    3  C3  UNL     1     -32.600   6.923   4.404  1.00 20.00     0.034 C 
HETATM    4  C4  UNL     1     -32.715   6.194   3.073  1.00 20.00     0.005 C 
HETATM    5  C5  UNL     1     -33.232   4.815   3.462  1.00 20.00     0.013 C 
HETATM    6  C6  UNL     1     -34.275   5.085   4.565  1.00 20.00    -0.025 C 
HETATM    7  C7  UNL     1     -35.661   5.340   3.951  1.00 20.00     0.019 C 
HETATM    8  C8  UNL     1     -34.349   3.895   5.530  1.00 20.00     0.019 C 
ENDROOT
TORSDOF 0
