REMARK  0 active torsions:
REMARK  status: ('A' for Active; 'I' for Inactive)
ROOT
HETATM    1  C1  UNL     1     -32.569   6.577   3.875  1.00 20.00     0.086 C 
HETATM    2  C2  UNL     1     -35.881   4.626   3.916  1.00 20.00     0.003 C 
HETATM    3  C3  UNL     1     -35.850   4.148   5.363  1.00 20.00     0.001 C 
HETATM    4  C4  UNL     1     -34.518   5.131   3.445  1.00 20.00     0.042 C 
HETATM    5  C5  UNL     1     -35.263   5.198   6.305  1.00 20.00     0.012 C 
HETATM    6  C6  UNL     1     -33.905   6.198   4.378  1.00 20.00     0.132 C 
HETATM    7  C7  UNL     1     -33.859   5.705   5.872  1.00 20.00    -0.013 C 
HETATM    8  C8  UNL     1     -32.838   4.549   6.053  1.00 20.00     0.018 C 
HETATM    9  C9  UNL     1     -33.432   6.822   6.856  1.00 20.00     0.018 C 
HETATM   10  N10 UNL     1     -31.519   6.874   3.480  1.00 20.00    -0.195 NA
HETATM   11 CL11 UNL     1     -34.895   7.710   4.211  1.00 20.00    -0.102 Cl
ENDROOT
TORSDOF 0
