REMARK  1 active torsions:
REMARK  status: ('A' for Active; 'I' for Inactive)
REMARK    1  A    between atoms: C4_4  and  C9_9 
ROOT
HETATM    1  C1  UNL     1     -34.463   4.960   2.514  1.00 20.00     0.001 C 
HETATM    2  C2  UNL     1     -34.572   4.839   4.035  1.00 20.00     0.007 C 
HETATM    3  C3  UNL     1     -34.019   6.394   2.227  1.00 20.00     0.009 C 
HETATM    4  C4  UNL     1     -34.285   6.241   4.588  1.00 20.00     0.011 C 
HETATM    5  C5  UNL     1     -33.359   6.884   3.529  1.00 20.00    -0.043 C 
HETATM    6  C6  UNL     1     -31.901   6.396   3.608  1.00 20.00     0.015 C 
HETATM    7  C7  UNL     1     -33.375   8.414   3.608  1.00 20.00     0.015 C 
ENDROOT
BRANCH   4   8
HETATM    8  C9  UNL     1     -33.754   6.206   6.014  1.00 20.00     0.083 C 
HETATM    9  C8  UNL     1     -34.498   5.187   6.864  1.00 20.00     0.027 C 
HETATM   10 CL10 UNL     1     -33.910   7.826   6.749  1.00 20.00    -0.125 Cl
ENDBRANCH   4   8
TORSDOF 1
