REMARK  2 active torsions:
REMARK  status: ('A' for Active; 'I' for Inactive)
REMARK    1  A    between atoms: C3_3  and  C9_9 
REMARK    2  A    between atoms: C7_7  and  C9_9 
ROOT
HETATM    1  C4  UNL     1     -33.912   7.424   5.022  1.00 20.00     0.006 C 
HETATM    2  C5  UNL     1     -34.550   6.316   5.865  1.00 20.00     0.020 C 
HETATM    3  C6  UNL     1     -33.547   5.264   3.973  1.00 20.00     0.025 C 
HETATM    4  C7  UNL     1     -33.489   6.767   3.698  1.00 20.00    -0.007 C 
HETATM    5  C8  UNL     1     -34.748   5.153   4.901  1.00 20.00     0.082 C 
HETATM    6 CL12 UNL     1     -34.817   3.592   5.730  1.00 20.00    -0.125 Cl
ENDROOT
BRANCH   4   7
HETATM    7  C9  UNL     1     -32.128   7.229   3.207  1.00 20.00     0.071 C 
BRANCH   7   8
HETATM    8  C3  UNL     1     -32.209   8.557   2.502  1.00 20.00     0.074 A 
HETATM    9  N10 UNL     1     -31.826   8.766   1.262  1.00 20.00    -0.258 NA
HETATM   10  C1  UNL     1     -32.043  10.092   0.944  1.00 20.00     0.124 A 
HETATM   11  C2  UNL     1     -32.587  10.870   1.945  1.00 20.00     0.070 A 
HETATM   12  S11 UNL     1     -32.842   9.912   3.344  1.00 20.00    -0.085 SA
ENDBRANCH   7   8
ENDBRANCH   4   7
TORSDOF 2
