REMARK  3 active torsions:
REMARK  status: ('A' for Active; 'I' for Inactive)
REMARK    1  A    between atoms: C1_1  and  C6_6 
REMARK    2  A    between atoms: C2_2  and  C7_7 
REMARK    3  A    between atoms: C5_5  and  C6_6 
ROOT
HETATM    1  C3  UNL     1     -34.723   6.470   6.431  1.00 20.00     0.124 A 
HETATM    2  C4  UNL     1     -35.227   5.198   6.603  1.00 20.00     0.070 A 
HETATM    3  C5  UNL     1     -33.628   5.461   4.820  1.00 20.00     0.085 A 
HETATM    4  N8  UNL     1     -33.806   6.622   5.409  1.00 20.00    -0.257 NA
HETATM    5  S9  UNL     1     -34.533   4.142   5.443  1.00 20.00    -0.084 SA
ENDROOT
BRANCH   3   6
HETATM    6  C6  UNL     1     -32.699   5.227   3.658  1.00 20.00     0.161 C 
BRANCH   6   7
HETATM    7  C1  UNL     1     -32.602   6.406   2.788  1.00 20.00    -0.099 C 
HETATM    8  C2  UNL     1     -32.525   7.373   2.079  1.00 20.00    -0.091 C 
BRANCH   8   9
HETATM    9  C7  UNL     1     -32.432   8.548   1.217  1.00 20.00     0.208 C 
HETATM   10 CL10 UNL     1     -33.225   9.915   2.024  1.00 20.00    -0.117 Cl
ENDBRANCH   8   9
ENDBRANCH   6   7
ENDBRANCH   3   6
TORSDOF 3
