REMARK  1 active torsions:
REMARK  status: ('A' for Active; 'I' for Inactive)
REMARK    1  A    between atoms: C2_2  and  C5_5 
ROOT
HETATM    1  C1  UNL     1     -33.762   6.365   5.053  1.00 20.00     0.075 A 
HETATM    2  C2  UNL     1     -33.465   6.380   3.748  1.00 20.00     0.039 A 
HETATM    3  C3  UNL     1     -34.598   5.216   5.429  1.00 20.00     0.209 A 
HETATM    4  C4  UNL     1     -34.004   5.272   2.900  1.00 20.00     0.126 A 
HETATM    5  O6  UNL     1     -34.995   4.990   6.560  1.00 20.00    -0.281 OA
HETATM    6  S10 UNL     1     -34.949   4.215   4.035  1.00 20.00    -0.084 SA
ENDROOT
BRANCH   2   7
HETATM    7  C5  UNL     1     -32.632   7.433   3.095  1.00 20.00     0.414 C 
HETATM    8  F7  UNL     1     -32.497   7.197   1.772  1.00 20.00    -0.166 F 
HETATM    9  F8  UNL     1     -33.190   8.655   3.238  1.00 20.00    -0.166 F 
HETATM   10  F9  UNL     1     -31.394   7.483   3.631  1.00 20.00    -0.166 F 
ENDBRANCH   2   7
TORSDOF 1
