REMARK  0 active torsions:
REMARK  status: ('A' for Active; 'I' for Inactive)
ROOT
HETATM    1  C1  UNL     1     -32.717   9.381   1.954  1.00 20.00     0.064 C 
HETATM    2  C2  UNL     1     -34.887   4.391   5.996  1.00 20.00     0.000 C 
HETATM    3  C3  UNL     1     -33.691   5.292   6.284  1.00 20.00     0.003 C 
HETATM    4  C4  UNL     1     -35.012   4.081   4.509  1.00 20.00     0.003 C 
HETATM    5  C5  UNL     1     -33.735   6.566   5.438  1.00 20.00     0.038 C 
HETATM    6  C6  UNL     1     -35.037   5.358   3.666  1.00 20.00     0.038 C 
HETATM    7  C7  UNL     1     -31.458   7.665   3.203  1.00 20.00     0.045 C 
HETATM    8  C8  UNL     1     -33.959   7.567   3.090  1.00 20.00     0.057 C 
HETATM    9  C9  UNL     1     -31.409   6.192   3.593  1.00 20.00     0.170 C 
HETATM   10  C10 UNL     1     -32.678   7.962   2.342  1.00 20.00     0.097 C 
HETATM   11  C11 UNL     1     -33.812   6.266   3.921  1.00 20.00     0.062 C 
HETATM   12  N12 UNL     1     -32.748  10.500   1.648  1.00 20.00    -0.197 NA
HETATM   13  O13 UNL     1     -32.665   5.527   3.476  1.00 20.00    -0.380 OA
ENDROOT
TORSDOF 0
