REMARK  1 active torsions:
REMARK  status: ('A' for Active; 'I' for Inactive)
REMARK    1  A    between atoms: C7_7  and  C11_11 
ROOT
HETATM    1  C1  UNL     1     -35.690   4.845   4.330  1.00 20.00     0.030 C 
HETATM    2  C2  UNL     1     -34.580   5.442   5.175  1.00 20.00     0.036 C 
HETATM    3  C3  UNL     1     -32.670   7.009   4.521  1.00 20.00     0.305 C 
HETATM    4  C4  UNL     1     -35.684   5.725   3.098  1.00 20.00     0.235 C 
HETATM    5  C5  UNL     1     -33.896   7.238   2.133  1.00 20.00     0.271 C 
HETATM    6  C6  UNL     1     -33.480   5.764   4.166  1.00 20.00     0.216 C 
HETATM    7  C7  UNL     1     -32.372   7.405   2.105  1.00 20.00     0.251 C 
HETATM    8  C10 UNL     1     -30.487   6.761   3.493  1.00 20.00     0.310 C 
HETATM    9  N12 UNL     1     -31.771   7.460   3.453  1.00 20.00     0.092 N 
HETATM   10  N13 UNL     1     -34.212   5.954   2.846  1.00 20.00    -0.063 N 
HETATM   11  H36 UNL     1     -33.867   5.176   2.198  1.00 20.00     0.280 HD
ENDROOT
BRANCH   7  12
HETATM   12  C11 UNL     1     -32.010   8.689   1.356  1.00 20.00     0.012 C 
HETATM   13  C8  UNL     1     -32.499   8.616  -0.086  1.00 20.00     0.012 C 
HETATM   14  C9  UNL     1     -32.600   9.900   2.069  1.00 20.00     0.012 C 
ENDBRANCH   7  12
TORSDOF 1
