REMARK  0 active torsions:
REMARK  status: ('A' for Active; 'I' for Inactive)
ROOT
HETATM    1  C1  UNL     1     -36.442   5.698   4.169  1.00 20.00     0.067 C 
HETATM    2  C2  UNL     1     -34.383   7.025   3.915  1.00 20.00     0.059 C 
HETATM    3  C3  UNL     1     -35.388   6.434   4.891  1.00 20.00     0.129 C 
HETATM    4  C4  UNL     1     -33.305   5.944   3.782  1.00 20.00     0.056 C 
HETATM    5  C5  UNL     1     -34.498   5.549   5.781  1.00 20.00     0.071 C 
HETATM    6  C6  UNL     1     -33.522   5.049   2.559  1.00 20.00     0.045 C 
HETATM    7  C7  UNL     1     -31.902   6.548   3.732  1.00 20.00     0.045 C 
HETATM    8  C8  UNL     1     -33.896   6.367   6.936  1.00 20.00     0.047 C 
HETATM    9  C9  UNL     1     -35.179   4.309   6.363  1.00 20.00     0.047 C 
HETATM   10  N10 UNL     1     -37.271   5.119   3.601  1.00 20.00    -0.197 NA
HETATM   11  O11 UNL     1     -33.401   5.111   4.953  1.00 20.00    -0.369 OA
ENDROOT
TORSDOF 0
