REMARK  1 active torsions:
REMARK  status: ('A' for Active; 'I' for Inactive)
REMARK    1  A    between atoms: C4_4  and  S9_9 
ROOT
HETATM    1  C1  UNL     1     -33.483   6.554   5.244  1.00 20.00     0.025 C 
HETATM    2  C2  UNL     1     -35.352   5.581   3.747  1.00 20.00     0.088 C 
HETATM    3  C3  UNL     1     -32.677   5.811   2.919  1.00 20.00     0.082 C 
HETATM    4  C4  UNL     1     -34.653   5.565   5.102  1.00 20.00     0.054 C 
HETATM    5  C5  UNL     1     -32.706   6.945   3.957  1.00 20.00    -0.038 C 
HETATM    6  C6  UNL     1     -31.245   7.261   4.355  1.00 20.00     0.015 C 
HETATM    7  C7  UNL     1     -33.287   8.240   3.344  1.00 20.00     0.015 C 
HETATM    8  S8  UNL     1     -34.294   5.241   2.305  1.00 20.00    -0.167 SA
ENDROOT
BRANCH   4   9
HETATM    9  S9  UNL     1     -34.158   3.859   5.575  1.00 20.00    -0.177 SA
HETATM   10  H23 UNL     1     -33.820   4.171   6.832  1.00 20.00     0.102 HD
ENDBRANCH   4   9
TORSDOF 1
