REMARK  3 active torsions:
REMARK  status: ('A' for Active; 'I' for Inactive)
REMARK    1  A    between atoms: C4_4  and  C7_7 
REMARK    2  A    between atoms: C4_4  and  O9_9 
REMARK    3  A    between atoms: C7_7  and  C8_8 
ROOT
HETATM    1  C1  UNL     1     -33.885   6.827   3.408  1.00 20.00     0.053 C 
HETATM    2  C2  UNL     1     -31.962   7.758   4.611  1.00 20.00     0.112 C 
HETATM    3  C3  UNL     1     -34.292   6.395   4.819  1.00 20.00     0.046 C 
HETATM    4  C4  UNL     1     -32.361   6.983   3.358  1.00 20.00     0.067 C 
HETATM    5  C5  UNL     1     -34.295   4.886   5.028  1.00 20.00     0.021 C 
HETATM    6  S10 UNL     1     -33.082   7.188   5.926  1.00 20.00    -0.162 SA
ENDROOT
BRANCH   4   7
HETATM    7  C7  UNL     1     -31.909   7.702   2.090  1.00 20.00     0.038 C 
BRANCH   7   8
HETATM    8  C8  UNL     1     -32.544   9.085   1.982  1.00 20.00    -0.002 C 
HETATM    9  C6  UNL     1     -32.073   9.812   0.733  1.00 20.00     0.005 C 
ENDBRANCH   7   8
ENDBRANCH   4   7
BRANCH   4  10
HETATM   10  O9  UNL     1     -31.724   5.706   3.380  1.00 20.00    -0.389 OA
HETATM   11  H26 UNL     1     -30.770   5.875   3.347  1.00 20.00     0.210 HD
ENDBRANCH   4  10
TORSDOF 3
