REMARK  1 active torsions:
REMARK  status: ('A' for Active; 'I' for Inactive)
REMARK    1  A    between atoms: C2_2  and  C3_3 
ROOT
HETATM    1  C1  UNL     1     -33.182   6.256   3.572  1.00 20.00    -0.063 C 
HETATM    2  C2  UNL     1     -32.356   7.271   3.273  1.00 20.00     0.088 C 
HETATM    3  C4  UNL     1     -32.973   5.392   4.788  1.00 20.00     0.044 C 
HETATM    4  C5  UNL     1     -34.374   5.935   2.712  1.00 20.00     0.108 C 
HETATM    5  C6  UNL     1     -35.435   6.038   5.276  1.00 20.00     0.083 C 
HETATM    6  C7  UNL     1     -34.058   5.642   5.872  1.00 20.00    -0.036 C 
HETATM    7  C8  UNL     1     -33.600   6.780   6.809  1.00 20.00     0.016 C 
HETATM    8  C9  UNL     1     -34.202   4.362   6.720  1.00 20.00     0.016 C 
HETATM    9  S12 UNL     1     -35.782   5.271   3.661  1.00 20.00    -0.164 SA
ENDROOT
BRANCH   2  10
HETATM   10  C3  UNL     1     -32.572   8.147   2.035  1.00 20.00     0.198 C 
HETATM   11  O10 UNL     1     -33.683   8.754   2.026  1.00 20.00    -0.644 OA
HETATM   12  O11 UNL     1     -31.646   8.171   1.177  1.00 20.00    -0.644 OA
ENDBRANCH   2  10
TORSDOF 1
