REMARK  0 active torsions:
REMARK  status: ('A' for Active; 'I' for Inactive)
ROOT
HETATM    1  C1  UNL     1     -32.586   7.393   2.403  1.00 20.00     0.086 C 
HETATM    2  C2  UNL     1     -34.408   6.000   3.342  1.00 20.00     0.056 C 
HETATM    3  C3  UNL     1     -32.881   7.182   4.847  1.00 20.00     0.115 C 
HETATM    4  C4  UNL     1     -34.907   5.408   4.665  1.00 20.00     0.046 C 
HETATM    5  C5  UNL     1     -32.960   6.481   3.493  1.00 20.00     0.135 C 
HETATM    6  C6  UNL     1     -34.787   3.893   4.759  1.00 20.00     0.021 C 
HETATM    7  N7  UNL     1     -32.291   8.113   1.542  1.00 20.00    -0.195 NA
HETATM    8  S8  UNL     1     -33.930   6.217   5.971  1.00 20.00    -0.162 SA
HETATM    9 CL9  UNL     1     -31.799   5.117   3.414  1.00 20.00    -0.102 Cl
ENDROOT
TORSDOF 0
