REMARK  1 active torsions:
REMARK  status: ('A' for Active; 'I' for Inactive)
REMARK    1  A    between atoms: C6_6  and  O10_10 
ROOT
HETATM    1  C1  UNL     1     -32.750   8.653   1.978  1.00 20.00     0.015 C 
HETATM    2  C2  UNL     1     -32.893   7.632   2.594  1.00 20.00    -0.077 C 
HETATM    3  C3  UNL     1     -34.421   4.196   3.569  1.00 20.00     0.023 C 
HETATM    4  C4  UNL     1     -34.763   4.406   5.040  1.00 20.00     0.075 C 
HETATM    5  C5  UNL     1     -33.289   6.734   4.837  1.00 20.00     0.126 C 
HETATM    6  C6  UNL     1     -33.069   6.373   3.354  1.00 20.00     0.135 C 
HETATM    7  C7  UNL     1     -34.222   5.498   2.743  1.00 20.00    -0.004 C 
HETATM    8  C8  UNL     1     -33.870   5.057   1.297  1.00 20.00     0.019 C 
HETATM    9  C9  UNL     1     -35.562   6.269   2.673  1.00 20.00     0.019 C 
HETATM   10  S11 UNL     1     -33.453   5.286   5.925  1.00 20.00    -0.165 SA
ENDROOT
BRANCH   6  11
HETATM   11  O10 UNL     1     -31.839   5.640   3.256  1.00 20.00    -0.376 OA
HETATM   12  H25 UNL     1     -31.157   6.207   3.644  1.00 20.00     0.211 HD
ENDBRANCH   6  11
TORSDOF 1
