REMARK  0 active torsions:
REMARK  status: ('A' for Active; 'I' for Inactive)
ROOT
HETATM    1  C1  UNL     1     -32.508   7.779   2.473  1.00 20.00     0.086 C 
HETATM    2  C2  UNL     1     -34.528   4.587   3.205  1.00 20.00     0.013 C 
HETATM    3  C3  UNL     1     -33.937   5.793   2.476  1.00 20.00     0.043 C 
HETATM    4  C4  UNL     1     -35.285   4.970   4.466  1.00 20.00     0.074 C 
HETATM    5  C5  UNL     1     -33.558   7.135   4.633  1.00 20.00     0.081 C 
HETATM    6  C6  UNL     1     -32.938   6.632   3.301  1.00 20.00     0.137 C 
HETATM    7  C7  UNL     1     -32.613   7.970   5.507  1.00 20.00     0.024 C 
HETATM    8  N8  UNL     1     -32.170   8.679   1.823  1.00 20.00    -0.195 NA
HETATM    9  S9  UNL     1     -34.201   5.770   5.677  1.00 20.00    -0.162 SA
HETATM   10 CL10 UNL     1     -31.441   5.666   3.585  1.00 20.00    -0.102 Cl
ENDROOT
TORSDOF 0
