REMARK  2 active torsions:
REMARK  status: ('A' for Active; 'I' for Inactive)
REMARK    1  A    between atoms: C5_5  and  N9_9 
REMARK    2  A    between atoms: C8_8  and  N9_9 
ROOT
HETATM    1  C1  UNL     1     -32.917  10.401   1.935  1.00 20.00     0.013 C 
HETATM    2  C2  UNL     1     -32.477   9.291   1.812  1.00 20.00    -0.087 C 
HETATM    3  C8  UNL     1     -31.940   7.937   1.658  1.00 20.00     0.362 C 
ENDROOT
BRANCH   3   4
HETATM    4  N9  UNL     1     -31.850   7.269   2.949  1.00 20.00     0.099 N 
HETATM    5  H23 UNL     1     -31.190   6.494   2.881  1.00 20.00     0.317 HD
BRANCH   4   6
HETATM    6  C5  UNL     1     -33.133   6.763   3.357  1.00 20.00     0.232 C 
HETATM    7  C3  UNL     1     -33.196   6.518   4.862  1.00 20.00     0.051 C 
HETATM    8  C6  UNL     1     -34.534   5.833   5.129  1.00 20.00     0.045 C 
HETATM    9  C7  UNL     1     -34.563   5.097   6.457  1.00 20.00     0.021 C 
HETATM   10  S10 UNL     1     -34.751   4.691   3.725  1.00 20.00    -0.162 SA
HETATM   11  C4  UNL     1     -33.449   5.427   2.698  1.00 20.00     0.109 C 
ENDBRANCH   4   6
ENDBRANCH   3   4
TORSDOF 2
