REMARK  0 active torsions:
REMARK  status: ('A' for Active; 'I' for Inactive)
ROOT
HETATM    1  C1  UNL     1     -32.724   6.693   4.955  1.00 20.00     0.056 C 
HETATM    2  C2  UNL     1     -32.724   6.285   3.502  1.00 20.00     0.094 C 
HETATM    3  C3  UNL     1     -33.751   5.730   5.555  1.00 20.00     0.056 C 
HETATM    4  C4  UNL     1     -34.191   5.951   3.241  1.00 20.00     0.068 C 
HETATM    5  C5  UNL     1     -33.102   4.431   6.040  1.00 20.00     0.045 C 
HETATM    6  C6  UNL     1     -34.546   6.375   6.687  1.00 20.00     0.045 C 
HETATM    7  C7  UNL     1     -35.110   7.143   2.941  1.00 20.00     0.047 C 
HETATM    8  C8  UNL     1     -34.353   4.888   2.156  1.00 20.00     0.047 C 
HETATM    9  O9  UNL     1     -34.663   5.387   4.490  1.00 20.00    -0.369 OA
HETATM   10 BR10 UNL     1     -31.959   7.647   2.369  1.00 20.00    -0.088 Br
ENDROOT
TORSDOF 0
