REMARK  3 active torsions:
REMARK  status: ('A' for Active; 'I' for Inactive)
REMARK    1  A    between atoms: C6_6  and  C9_9 
REMARK    2  A    between atoms: C6_6  and  O10_10 
REMARK    3  A    between atoms: C8_8  and  C9_9 
ROOT
HETATM    1  C1  UNL     1     -32.454  10.889   0.936  1.00 20.00     0.012 C 
HETATM    2  C2  UNL     1     -32.439   9.741   1.286  1.00 20.00    -0.117 C 
HETATM    3  C8  UNL     1     -32.417   8.335   1.710  1.00 20.00     0.096 C 
ENDROOT
BRANCH   3   4
HETATM    4  C9  UNL     1     -33.159   8.172   3.024  1.00 20.00     0.050 C 
BRANCH   4   5
HETATM    5  C6  UNL     1     -33.139   6.717   3.481  1.00 20.00     0.068 C 
HETATM    6  C3  UNL     1     -33.924   6.525   4.782  1.00 20.00     0.053 C 
HETATM    7  C5  UNL     1     -34.047   5.021   5.024  1.00 20.00     0.046 C 
HETATM    8  C7  UNL     1     -35.201   4.670   5.949  1.00 20.00     0.021 C 
HETATM    9  S11 UNL     1     -34.283   4.304   3.366  1.00 20.00    -0.162 SA
HETATM   10  C4  UNL     1     -33.779   5.793   2.447  1.00 20.00     0.112 C 
BRANCH   5  11
HETATM   11  O10 UNL     1     -31.768   6.362   3.675  1.00 20.00    -0.389 OA
HETATM   12  H25 UNL     1     -31.328   6.503   2.824  1.00 20.00     0.210 HD
ENDBRANCH   5  11
ENDBRANCH   4   5
ENDBRANCH   3   4
TORSDOF 3
