REMARK  1 active torsions:
REMARK  status: ('A' for Active; 'I' for Inactive)
REMARK    1  A    between atoms: C5_5  and  O9_9 
ROOT
HETATM    1  C1  UNL     1     -34.519   4.258   4.503  1.00 20.00     0.022 C 
HETATM    2  C2  UNL     1     -35.070   4.591   5.886  1.00 20.00     0.075 C 
HETATM    3  C3  UNL     1     -34.417   7.203   5.295  1.00 20.00     0.112 C 
HETATM    4  C4  UNL     1     -34.630   5.394   3.451  1.00 20.00    -0.015 C 
HETATM    5  C5  UNL     1     -33.900   6.702   3.931  1.00 20.00     0.069 C 
HETATM    6  C6  UNL     1     -34.022   4.870   2.126  1.00 20.00     0.018 C 
HETATM    7  C7  UNL     1     -36.127   5.671   3.153  1.00 20.00     0.018 C 
HETATM    8  C8  UNL     1     -32.364   6.567   3.964  1.00 20.00     0.047 C 
HETATM    9  S10 UNL     1     -34.231   6.005   6.645  1.00 20.00    -0.166 SA
ENDROOT
BRANCH   5  10
HETATM   10  O9  UNL     1     -34.181   7.743   2.978  1.00 20.00    -0.389 OA
HETATM   11  H26 UNL     1     -33.705   8.523   3.291  1.00 20.00     0.210 HD
ENDBRANCH   5  10
TORSDOF 1
