REMARK  0 active torsions:
REMARK  status: ('A' for Active; 'I' for Inactive)
ROOT
HETATM    1  C1  UNL     1     -33.841   6.030   5.735  1.00 20.00     0.086 C 
HETATM    2  C2  UNL     1     -33.119   4.752   3.711  1.00 20.00     0.056 C 
HETATM    3  C3  UNL     1     -35.326   5.810   3.750  1.00 20.00     0.115 C 
HETATM    4  C4  UNL     1     -32.812   5.911   2.755  1.00 20.00     0.046 C 
HETATM    5  C5  UNL     1     -34.272   5.153   4.635  1.00 20.00     0.135 C 
HETATM    6  C6  UNL     1     -31.746   6.872   3.267  1.00 20.00     0.021 C 
HETATM    7  N7  UNL     1     -33.501   6.721   6.602  1.00 20.00    -0.195 NA
HETATM    8  S8  UNL     1     -34.397   6.782   2.523  1.00 20.00    -0.162 SA
HETATM    9 CL9  UNL     1     -34.960   3.696   5.420  1.00 20.00    -0.102 Cl
ENDROOT
TORSDOF 0
