REMARK  1 active torsions:
REMARK  status: ('A' for Active; 'I' for Inactive)
REMARK    1  A    between atoms: C4_4  and  S9_9 
ROOT
HETATM    1  C1  UNL     1     -35.233   3.996   4.542  1.00 20.00     0.020 C 
HETATM    2  C2  UNL     1     -35.571   4.461   5.953  1.00 20.00     0.075 C 
HETATM    3  C3  UNL     1     -33.900   6.590   5.438  1.00 20.00     0.089 C 
HETATM    4  C4  UNL     1     -33.689   5.966   4.053  1.00 20.00     0.061 C 
HETATM    5  C5  UNL     1     -34.900   5.127   3.528  1.00 20.00    -0.034 C 
HETATM    6  C6  UNL     1     -36.164   5.982   3.281  1.00 20.00     0.016 C 
HETATM    7  C7  UNL     1     -34.537   4.434   2.191  1.00 20.00     0.016 C 
HETATM    8  S8  UNL     1     -34.183   5.334   6.719  1.00 20.00    -0.168 SA
ENDROOT
BRANCH   4   9
HETATM    9  S9  UNL     1     -33.186   7.328   2.919  1.00 20.00    -0.176 SA
HETATM   10  H23 UNL     1     -32.088   7.648   3.611  1.00 20.00     0.102 HD
ENDBRANCH   4   9
TORSDOF 1
