REMARK  2 active torsions:
REMARK  status: ('A' for Active; 'I' for Inactive)
REMARK    1  A    between atoms: C2_2  and  C3_3 
REMARK    2  A    between atoms: C3_3  and  C7_7 
ROOT
HETATM    1  C4  UNL     1     -35.351   4.548   5.162  1.00 20.00     0.084 C 
HETATM    2  C5  UNL     1     -35.657   5.004   3.743  1.00 20.00     0.085 C 
HETATM    3  C6  UNL     1     -33.367   6.469   5.355  1.00 20.00     0.097 C 
HETATM    4  C7  UNL     1     -33.677   6.930   3.936  1.00 20.00     0.131 C 
HETATM    5  S10 UNL     1     -34.850   5.916   6.250  1.00 20.00    -0.167 SA
HETATM    6  S11 UNL     1     -34.178   5.561   2.846  1.00 20.00    -0.155 SA
ENDROOT
BRANCH   4   7
HETATM    7  C3  UNL     1     -32.447   7.527   3.325  1.00 20.00     0.169 C 
HETATM    8  O9  UNL     1     -31.330   7.147   3.679  1.00 20.00    -0.291 OA
BRANCH   7   9
HETATM    9  C2  UNL     1     -32.580   8.592   2.277  1.00 20.00    -0.024 C 
HETATM   10  C1  UNL     1     -33.781   9.026   1.870  1.00 20.00     0.022 C 
HETATM   11  C8  UNL     1     -31.303   9.142   1.713  1.00 20.00     0.051 C 
ENDBRANCH   7   9
ENDBRANCH   4   7
TORSDOF 2
