REMARK  0 active torsions:
REMARK  status: ('A' for Active; 'I' for Inactive)
ROOT
HETATM    1  C1  UNL     1     -34.040   5.217   5.375  1.00 20.00    -0.053 C 
HETATM    2  C2  UNL     1     -33.984   4.287   6.336  1.00 20.00     0.017 C 
HETATM    3  C3  UNL     1     -33.349   6.536   5.429  1.00 20.00     0.073 C 
HETATM    4  C4  UNL     1     -34.700   5.105   4.027  1.00 20.00     0.077 C 
HETATM    5  C5  UNL     1     -33.015   6.755   3.955  1.00 20.00     0.059 C 
HETATM    6  C6  UNL     1     -34.502   3.758   3.330  1.00 20.00     0.051 C 
HETATM    7  C7  UNL     1     -36.190   5.448   4.108  1.00 20.00     0.051 C 
HETATM    8  C8  UNL     1     -32.995   8.238   3.595  1.00 20.00     0.046 C 
HETATM    9  C9  UNL     1     -31.683   6.107   3.556  1.00 20.00     0.046 C 
HETATM   10  O10 UNL     1     -34.077   6.125   3.209  1.00 20.00    -0.366 OA
ENDROOT
TORSDOF 0
