REMARK  2 active torsions:
REMARK  status: ('A' for Active; 'I' for Inactive)
REMARK    1  A    between atoms: C2_2  and  C6_6 
REMARK    2  A    between atoms: C6_6  and  O9_9 
ROOT
HETATM    1  C3  UNL     1     -32.909   6.413   4.064  1.00 20.00     0.058 C 
HETATM    2  C4  UNL     1     -35.209   5.930   3.375  1.00 20.00     0.116 C 
HETATM    3  C5  UNL     1     -32.755   6.723   2.574  1.00 20.00     0.046 C 
HETATM    4  C6  UNL     1     -34.037   5.385   4.194  1.00 20.00     0.089 C 
HETATM    5  C8  UNL     1     -32.034   8.036   2.320  1.00 20.00     0.021 C 
HETATM    6  S10 UNL     1     -34.460   6.766   1.939  1.00 20.00    -0.161 SA
ENDROOT
BRANCH   4   7
HETATM    7  C2  UNL     1     -34.403   5.160   5.628  1.00 20.00    -0.058 C 
HETATM    8  C1  UNL     1     -34.878   3.982   6.061  1.00 20.00     0.017 C 
HETATM    9  C7  UNL     1     -34.209   6.325   6.552  1.00 20.00     0.046 C 
ENDBRANCH   4   7
BRANCH   4  10
HETATM   10  O9  UNL     1     -33.600   4.142   3.642  1.00 20.00    -0.385 OA
HETATM   11  H24 UNL     1     -34.346   3.528   3.726  1.00 20.00     0.211 HD
ENDBRANCH   4  10
TORSDOF 2
