REMARK  2 active torsions:
REMARK  status: ('A' for Active; 'I' for Inactive)
REMARK    1  A    between atoms: C1_1  and  C5_5 
REMARK    2  A    between atoms: C1_1  and  C8_8 
ROOT
HETATM    1  C2  UNL     1     -34.548   4.773   5.331  1.00 20.00     0.084 C 
HETATM    2  C3  UNL     1     -34.996   4.858   3.880  1.00 20.00     0.085 C 
HETATM    3  C4  UNL     1     -32.776   6.858   4.910  1.00 20.00     0.096 C 
HETATM    4  C5  UNL     1     -33.228   6.947   3.458  1.00 20.00     0.126 C 
HETATM    5  S10 UNL     1     -34.127   6.395   6.036  1.00 20.00    -0.167 SA
HETATM    6  S11 UNL     1     -33.649   5.323   2.752  1.00 20.00    -0.155 SA
ENDROOT
BRANCH   4   7
HETATM    7  C1  UNL     1     -32.115   7.495   2.621  1.00 20.00     0.144 C 
HETATM    8  O9  UNL     1     -30.940   7.338   2.956  1.00 20.00    -0.296 OA
BRANCH   7   9
HETATM    9  C8  UNL     1     -32.511   8.274   1.370  1.00 20.00     0.048 C 
HETATM   10  C6  UNL     1     -32.687   9.749   1.711  1.00 20.00     0.017 C 
HETATM   11  C7  UNL     1     -31.477   8.093   0.262  1.00 20.00     0.017 C 
ENDBRANCH   7   9
ENDBRANCH   4   7
TORSDOF 2
