REMARK  0 active torsions:
REMARK  status: ('A' for Active; 'I' for Inactive)
ROOT
HETATM    1  C1  UNL     1     -32.172   7.692   2.075  1.00 20.00     0.088 C 
HETATM    2  C2  UNL     1     -33.141   6.786   4.086  1.00 20.00    -0.057 C 
HETATM    3  C3  UNL     1     -32.058   7.089   3.351  1.00 20.00     0.097 C 
HETATM    4  C4  UNL     1     -34.533   7.078   3.580  1.00 20.00     0.037 C 
HETATM    5  C5  UNL     1     -35.389   5.816   3.492  1.00 20.00     0.014 C 
HETATM    6  C6  UNL     1     -35.525   5.085   4.823  1.00 20.00     0.075 C 
HETATM    7  C7  UNL     1     -33.013   6.139   5.445  1.00 20.00     0.072 C 
HETATM    8  C8  UNL     1     -33.470   7.046   6.587  1.00 20.00     0.026 C 
HETATM    9  N9  UNL     1     -32.256   8.186   1.029  1.00 20.00    -0.192 NA
HETATM   10  S10 UNL     1     -33.912   4.544   5.470  1.00 20.00    -0.160 SA
ENDROOT
TORSDOF 0
