REMARK  2 active torsions:
REMARK  status: ('A' for Active; 'I' for Inactive)
REMARK    1  A    between atoms: C5_5  and  C10_10 
REMARK    2  A    between atoms: C6_6  and  C11_11 
ROOT
HETATM    1  C1  UNL     1     -31.937   6.230   2.934  1.00 20.00     0.008 A 
HETATM    2  C2  UNL     1     -34.029   7.398   2.626  1.00 20.00     0.008 A 
HETATM    3  C3  UNL     1     -32.581   5.289   3.739  1.00 20.00     0.010 A 
HETATM    4  C4  UNL     1     -34.673   6.457   3.431  1.00 20.00     0.010 A 
HETATM    5  C5  UNL     1     -32.662   7.284   2.378  1.00 20.00    -0.054 A 
HETATM    6  C6  UNL     1     -33.948   5.403   3.987  1.00 20.00    -0.027 A 
ENDROOT
BRANCH   5   7
HETATM    7  C10 UNL     1     -31.974   8.288   1.519  1.00 20.00     0.018 A 
HETATM    8  C7  UNL     1     -32.430   9.724   1.562  1.00 20.00     0.010 A 
HETATM    9  C8  UNL     1     -32.717   8.889   0.354  1.00 20.00     0.010 A 
ENDBRANCH   5   7
BRANCH   6  10
HETATM   10  C11 UNL     1     -34.636   4.398   4.847  1.00 20.00     0.178 A 
HETATM   11  C9  UNL     1     -34.184   4.206   6.270  1.00 20.00     0.205 A 
HETATM   12  O12 UNL     1     -35.388   4.910   5.956  1.00 20.00    -0.376 OA
ENDBRANCH   6  10
TORSDOF 2
