REMARK  1 active torsions:
REMARK  status: ('A' for Active; 'I' for Inactive)
REMARK    1  A    between atoms: C5_5  and  C12_12 
ROOT
HETATM    1  C1  UNL     1     -33.285   6.331   1.757  1.00 20.00     0.008 A 
HETATM    2  C2  UNL     1     -34.041   5.330   2.376  1.00 20.00     0.009 A 
HETATM    3  C3  UNL     1     -32.925   7.446   3.887  1.00 20.00     0.023 A 
HETATM    4  C4  UNL     1     -33.676   6.443   4.470  1.00 20.00     0.017 A 
HETATM    5  C5  UNL     1     -32.731   7.381   2.507  1.00 20.00    -0.053 A 
HETATM    6  C6  UNL     1     -34.233   5.396   3.746  1.00 20.00    -0.044 A 
HETATM    7  C7  UNL     1     -34.030   6.266   5.869  1.00 20.00     0.160 A 
HETATM    8  C8  UNL     1     -35.000   4.441   4.603  1.00 20.00     0.047 A 
HETATM    9  C9  UNL     1     -34.867   5.020   6.023  1.00 20.00     0.088 A 
HETATM   10  O13 UNL     1     -33.691   7.021   6.762  1.00 20.00    -0.292 OA
ENDROOT
BRANCH   5  11
HETATM   11  C12 UNL     1     -31.930   8.436   1.822  1.00 20.00     0.018 A 
HETATM   12  C10 UNL     1     -32.326   9.880   1.989  1.00 20.00     0.010 A 
HETATM   13  C11 UNL     1     -32.546   9.195   0.676  1.00 20.00     0.010 A 
ENDBRANCH   5  11
TORSDOF 1
