REMARK  4 active torsions:
REMARK  status: ('A' for Active; 'I' for Inactive)
REMARK    1  A    between atoms: C4_4  and  C6_6 
REMARK    2  A    between atoms: C4_4  and  O7_7 
REMARK    3  A    between atoms: C5_5  and  C6_6 
REMARK    4  A    between atoms: C5_5  and  S8_8 
ROOT
HETATM    1  C1  UNL     1     -34.169   6.593   5.036  1.00 20.00     0.018 C 
HETATM    2  C2  UNL     1     -35.033   5.462   2.989  1.00 20.00     0.018 C 
HETATM    3  C6  UNL     1     -33.810   5.586   3.921  1.00 20.00    -0.018 C 
ENDROOT
BRANCH   3   4
HETATM    4  C4  UNL     1     -32.594   6.117   3.128  1.00 20.00     0.176 C 
BRANCH   4   5
HETATM    5  O7  UNL     1     -32.695   7.521   2.916  1.00 20.00    -0.395 OA
HETATM    6  C3  UNL     1     -31.837   7.952   1.870  1.00 20.00     0.201 C 
ENDBRANCH   4   5
ENDBRANCH   3   4
BRANCH   3   7
HETATM    7  C5  UNL     1     -33.486   4.230   4.603  1.00 20.00     0.081 C 
BRANCH   7   8
HETATM    8  S8  UNL     1     -34.513   3.781   6.040  1.00 20.00    -0.181 SA
HETATM    9  H22 UNL     1     -33.906   2.612   6.279  1.00 20.00     0.101 HD
ENDBRANCH   7   8
ENDBRANCH   3   7
TORSDOF 4
