REMARK  5 active torsions:
REMARK  status: ('A' for Active; 'I' for Inactive)
REMARK    1  A    between atoms: C4_4  and  C6_6 
REMARK    2  A    between atoms: C4_4  and  O8_8 
REMARK    3  A    between atoms: C5_5  and  C6_6 
REMARK    4  A    between atoms: C5_5  and  S9_9 
REMARK    5  A    between atoms: C7_7  and  O8_8 
ROOT
HETATM    1  C4  UNL     1     -32.729   7.163   3.557  1.00 20.00     0.173 C 
ENDROOT
BRANCH   1   2
HETATM    2  C6  UNL     1     -33.386   5.921   2.940  1.00 20.00     0.014 C 
HETATM    3  C1  UNL     1     -32.359   4.808   2.701  1.00 20.00     0.012 C 
BRANCH   2   4
HETATM    4  C5  UNL     1     -34.601   5.444   3.755  1.00 20.00     0.077 C 
BRANCH   4   5
HETATM    5  S9  UNL     1     -34.233   4.835   5.431  1.00 20.00    -0.182 SA
HETATM    6  H25 UNL     1     -35.500   4.545   5.753  1.00 20.00     0.101 HD
ENDBRANCH   4   5
ENDBRANCH   2   4
ENDBRANCH   1   2
BRANCH   1   7
HETATM    7  O8  UNL     1     -31.727   7.662   2.679  1.00 20.00    -0.386 OA
BRANCH   7   8
HETATM    8  C7  UNL     1     -32.293   8.433   1.629  1.00 20.00     0.113 C 
HETATM    9  C2  UNL     1     -32.605   9.829   2.145  1.00 20.00     0.039 C 
HETATM   10  C3  UNL     1     -31.327   8.466   0.454  1.00 20.00     0.039 C 
ENDBRANCH   7   8
ENDBRANCH   1   7
TORSDOF 5
