REMARK  4 active torsions:
REMARK  status: ('A' for Active; 'I' for Inactive)
REMARK    1  A    between atoms: C4_4  and  O8_8 
REMARK    2  A    between atoms: C5_5  and  C6_6 
REMARK    3  A    between atoms: C5_5  and  O8_8 
REMARK    4  A    between atoms: C6_6  and  S9_9 
ROOT
HETATM    1  C1  UNL     1     -34.274   5.290   2.904  1.00 20.00     0.060 C 
HETATM    2  C2  UNL     1     -35.444   4.881   3.770  1.00 20.00     0.170 C 
HETATM    3  C3  UNL     1     -33.870   5.938   5.122  1.00 20.00     0.199 C 
HETATM    4  C4  UNL     1     -33.685   6.428   3.700  1.00 20.00     0.147 C 
HETATM    5  O7  UNL     1     -35.060   5.137   5.129  1.00 20.00    -0.389 OA
ENDROOT
BRANCH   4   6
HETATM    6  O8  UNL     1     -32.328   6.644   3.381  1.00 20.00    -0.383 OA
BRANCH   6   7
HETATM    7  C5  UNL     1     -32.190   7.388   2.178  1.00 20.00     0.178 C 
BRANCH   7   8
HETATM    8  C6  UNL     1     -32.486   8.857   2.437  1.00 20.00     0.097 C 
BRANCH   8   9
HETATM    9  S9  UNL     1     -32.313   9.846   0.920  1.00 20.00    -0.180 SA
HETATM   10  H21 UNL     1     -32.629  11.020   1.483  1.00 20.00     0.101 HD
ENDBRANCH   8   9
ENDBRANCH   7   8
ENDBRANCH   6   7
ENDBRANCH   4   6
TORSDOF 4
