REMARK  1 active torsions:
REMARK  status: ('A' for Active; 'I' for Inactive)
REMARK    1  A    between atoms: C4_4  and  C11_11 
ROOT
HETATM    1  C1  UNL     1     -31.967   7.729   2.424  1.00 20.00     0.008 A 
HETATM    2  C2  UNL     1     -31.772   6.876   3.512  1.00 20.00     0.008 A 
HETATM    3  C3  UNL     1     -34.352   7.858   2.890  1.00 20.00     0.016 A 
HETATM    4  C4  UNL     1     -33.246   8.217   2.116  1.00 20.00    -0.053 A 
HETATM    5  C5  UNL     1     -32.871   6.533   4.281  1.00 20.00    -0.050 A 
HETATM    6  C6  UNL     1     -34.151   7.014   3.971  1.00 20.00    -0.033 A 
HETATM    7  C7  UNL     1     -32.917   5.618   5.465  1.00 20.00     0.041 C 
HETATM    8  C8  UNL     1     -34.271   6.005   6.083  1.00 20.00     0.030 C 
HETATM    9  C12 UNL     1     -35.171   6.471   4.924  1.00 20.00     0.116 C 
HETATM   10 CL13 UNL     1     -36.035   5.106   4.185  1.00 20.00    -0.120 Cl
ENDROOT
BRANCH   4  11
HETATM   11  C11 UNL     1     -33.428   9.126   0.948  1.00 20.00     0.018 A 
HETATM   12  C9  UNL     1     -32.575   8.922  -0.277  1.00 20.00     0.010 A 
HETATM   13  C10 UNL     1     -32.337  10.107   0.606  1.00 20.00     0.010 A 
ENDBRANCH   4  11
TORSDOF 1
