REMARK  4 active torsions:
REMARK  status: ('A' for Active; 'I' for Inactive)
REMARK    1  A    between atoms: C1_1  and  C9_9 
REMARK    2  A    between atoms: C2_2  and  C10_10 
REMARK    3  A    between atoms: C9_9  and  N11_11 
REMARK    4  A    between atoms: C10_10  and  S12_12 
ROOT
HETATM    1  C3  UNL     1     -34.997   4.256   6.145  1.00 20.00     0.002 C 
HETATM    2  C4  UNL     1     -35.035   5.665   6.723  1.00 20.00     0.002 C 
HETATM    3  C5  UNL     1     -35.021   4.175   4.622  1.00 20.00     0.030 C 
HETATM    4  C6  UNL     1     -33.660   6.329   6.716  1.00 20.00     0.030 C 
HETATM    5  C7  UNL     1     -34.383   5.325   3.843  1.00 20.00     0.272 C 
HETATM    6  C8  UNL     1     -33.147   6.774   5.346  1.00 20.00     0.272 C 
HETATM    7  N11 UNL     1     -33.051   5.701   4.340  1.00 20.00     0.091 N 
ENDROOT
BRANCH   7   8
HETATM    8  C9  UNL     1     -32.222   6.168   3.222  1.00 20.00     0.299 C 
BRANCH   8   9
HETATM    9  C1  UNL     1     -32.827   7.362   2.548  1.00 20.00    -0.000 C 
HETATM   10  C2  UNL     1     -32.231   8.562   2.478  1.00 20.00    -0.019 C 
BRANCH  10  11
HETATM   11  C10 UNL     1     -32.837   9.750   1.800  1.00 20.00     0.097 C 
BRANCH  11  12
HETATM   12  S12 UNL     1     -31.776  10.300   0.437  1.00 20.00    -0.178 SA
HETATM   13  H31 UNL     1     -32.552  11.323   0.053  1.00 20.00     0.101 HD
ENDBRANCH  11  12
ENDBRANCH  10  11
ENDBRANCH   8   9
ENDBRANCH   7   8
TORSDOF 4
