REMARK  6 active torsions:
REMARK  status: ('A' for Active; 'I' for Inactive)
REMARK    1  A    between atoms: C3_3  and  C4_4 
REMARK    2  A    between atoms: C4_4  and  C7_7 
REMARK    3  A    between atoms: C5_5  and  C7_7 
REMARK    4  A    between atoms: C5_5  and  S8_8 
REMARK    5  A    between atoms: C6_6  and  C7_7 
REMARK    6  A    between atoms: C6_6  and  S9_9 
ROOT
HETATM    1  C7  UNL     1     -33.835   6.516   4.277  1.00 20.00     0.004 C 
ENDROOT
BRANCH   1   2
HETATM    2  C4  UNL     1     -32.913   5.794   3.262  1.00 20.00     0.006 C 
BRANCH   2   3
HETATM    3  C3  UNL     1     -31.779   6.632   2.662  1.00 20.00    -0.004 C 
HETATM    4  C1  UNL     1     -32.260   7.881   1.940  1.00 20.00     0.005 C 
ENDBRANCH   2   3
ENDBRANCH   1   2
BRANCH   1   5
HETATM    5  C5  UNL     1     -33.066   6.671   5.609  1.00 20.00     0.076 C 
BRANCH   5   6
HETATM    6  S8  UNL     1     -34.012   7.526   6.906  1.00 20.00    -0.182 SA
HETATM    7  H25 UNL     1     -33.055   7.462   7.841  1.00 20.00     0.101 HD
ENDBRANCH   5   6
ENDBRANCH   1   5
BRANCH   1   8
HETATM    8  C6  UNL     1     -35.229   5.863   4.417  1.00 20.00     0.078 C 
BRANCH   8   9
HETATM    9  S9  UNL     1     -35.238   4.043   4.455  1.00 20.00    -0.173 SA
HETATM   10  C2  UNL     1     -34.683   3.818   6.160  1.00 20.00     0.089 C 
ENDBRANCH   8   9
ENDBRANCH   1   8
TORSDOF 6
