REMARK  5 active torsions:
REMARK  status: ('A' for Active; 'I' for Inactive)
REMARK    1  A    between atoms: C5_5  and  C8_8 
REMARK    2  A    between atoms: C5_5  and  N9_9 
REMARK    3  A    between atoms: C6_6  and  C8_8 
REMARK    4  A    between atoms: C6_6  and  S10_10 
REMARK    5  A    between atoms: C7_7  and  C8_8 
ROOT
HETATM    1  C8  UNL     1     -33.639   6.123   4.368  1.00 20.00     0.024 C 
ENDROOT
BRANCH   1   2
HETATM    2  C5  UNL     1     -33.337   7.524   3.790  1.00 20.00     0.239 C 
BRANCH   2   3
HETATM    3  N9  UNL     1     -32.658   7.440   2.476  1.00 20.00    -0.078 N 
HETATM    4  C3  UNL     1     -32.359   8.799   1.888  1.00 20.00     0.269 C 
HETATM    5  C4  UNL     1     -31.419   6.579   2.513  1.00 20.00     0.269 C 
HETATM    6  H29 UNL     1     -33.305   6.980   1.812  1.00 20.00     0.278 HD
ENDBRANCH   2   3
ENDBRANCH   1   2
BRANCH   1   7
HETATM    7  C6  UNL     1     -34.352   6.169   5.744  1.00 20.00     0.077 C 
BRANCH   7   8
HETATM    8  S10 UNL     1     -34.183   4.658   6.748  1.00 20.00    -0.182 SA
HETATM    9  H30 UNL     1     -34.903   5.103   7.785  1.00 20.00     0.101 HD
ENDBRANCH   7   8
ENDBRANCH   1   7
BRANCH   1  10
HETATM   10  C7  UNL     1     -34.446   5.214   3.378  1.00 20.00    -0.016 C 
HETATM   11  C1  UNL     1     -35.958   5.470   3.441  1.00 20.00     0.010 C 
HETATM   12  C2  UNL     1     -34.205   3.718   3.633  1.00 20.00     0.010 C 
ENDBRANCH   1  10
TORSDOF 5
