REMARK  5 active torsions:
REMARK  status: ('A' for Active; 'I' for Inactive)
REMARK    1  A    between atoms: C5_5  and  C7_7 
REMARK    2  A    between atoms: C5_5  and  S9_9 
REMARK    3  A    between atoms: C6_6  and  C7_7 
REMARK    4  A    between atoms: C6_6  and  S10_10 
REMARK    5  A    between atoms: C7_7  and  C8_8 
ROOT
HETATM    1  C7  UNL     1     -34.119   6.065   5.047  1.00 20.00     0.011 C 
ENDROOT
BRANCH   1   2
HETATM    2  C5  UNL     1     -34.787   6.438   6.397  1.00 20.00     0.077 C 
BRANCH   2   3
HETATM    3  S9  UNL     1     -33.880   7.696   7.357  1.00 20.00    -0.182 SA
HETATM    4  H28 UNL     1     -34.739   7.727   8.383  1.00 20.00     0.101 HD
ENDBRANCH   2   3
ENDBRANCH   1   2
BRANCH   1   5
HETATM    5  C6  UNL     1     -33.924   7.272   4.086  1.00 20.00     0.079 C 
BRANCH   5   6
HETATM    6  S10 UNL     1     -32.613   7.137   2.835  1.00 20.00    -0.173 SA
HETATM    7  C4  UNL     1     -31.189   7.376   3.922  1.00 20.00     0.089 C 
ENDBRANCH   5   6
ENDBRANCH   1   5
BRANCH   1   8
HETATM    8  C8  UNL     1     -34.779   4.794   4.360  1.00 20.00    -0.046 C 
HETATM    9  C1  UNL     1     -34.790   3.582   5.317  1.00 20.00     0.015 C 
HETATM   10  C2  UNL     1     -36.220   5.033   3.872  1.00 20.00     0.015 C 
HETATM   11  C3  UNL     1     -33.937   4.377   3.128  1.00 20.00     0.015 C 
ENDBRANCH   1   8
TORSDOF 5
