REMARK  5 active torsions:
REMARK  status: ('A' for Active; 'I' for Inactive)
REMARK    1  A    between atoms: C1_1  and  C7_7 
REMARK    2  A    between atoms: C2_2  and  C8_8 
REMARK    3  A    between atoms: C5_5  and  N9_9 
REMARK    4  A    between atoms: C7_7  and  N9_9 
REMARK    5  A    between atoms: C8_8  and  S10_10 
ROOT
HETATM    1  C7  UNL     1     -32.651   6.523   3.747  1.00 20.00     0.299 C 
ENDROOT
BRANCH   1   2
HETATM    2  C1  UNL     1     -32.722   7.432   2.558  1.00 20.00    -0.000 C 
HETATM    3  C2  UNL     1     -31.670   7.725   1.778  1.00 20.00    -0.019 C 
BRANCH   3   4
HETATM    4  C8  UNL     1     -31.746   8.630   0.590  1.00 20.00     0.097 C 
BRANCH   4   5
HETATM    5  S10 UNL     1     -32.265  10.290   1.102  1.00 20.00    -0.178 SA
HETATM    6  H25 UNL     1     -32.238  10.834  -0.123  1.00 20.00     0.101 HD
ENDBRANCH   4   5
ENDBRANCH   3   4
ENDBRANCH   1   2
BRANCH   1   7
HETATM    7  N9  UNL     1     -33.927   5.859   3.992  1.00 20.00     0.092 N 
HETATM    8  C6  UNL     1     -34.348   5.101   2.813  1.00 20.00     0.310 C 
BRANCH   7   9
HETATM    9  C5  UNL     1     -33.833   4.977   5.156  1.00 20.00     0.223 A 
HETATM   10  C3  UNL     1     -33.864   5.547   6.548  1.00 20.00     0.038 A 
HETATM   11  C4  UNL     1     -35.028   4.747   6.040  1.00 20.00     0.038 A 
ENDBRANCH   7   9
ENDBRANCH   1   7
TORSDOF 5
