REMARK  6 active torsions:
REMARK  status: ('A' for Active; 'I' for Inactive)
REMARK    1  A    between atoms: C5_5  and  C7_7 
REMARK    2  A    between atoms: C6_6  and  C11_11 
REMARK    3  A    between atoms: C7_7  and  C8_8 
REMARK    4  A    between atoms: C8_8  and  C11_11 
REMARK    5  A    between atoms: C9_9  and  C11_11 
REMARK    6  A    between atoms: C10_10  and  C11_11 
ROOT
HETATM    1  C11 UNL     1     -34.011   6.045   4.225  1.00 20.00    -0.025 C 
ENDROOT
BRANCH   1   2
HETATM    2  C6  UNL     1     -34.612   6.993   5.330  1.00 20.00     0.006 C 
HETATM    3  C2  UNL     1     -34.806   6.384   6.716  1.00 20.00     0.006 C 
ENDBRANCH   1   2
BRANCH   1   4
HETATM    4  C8  UNL     1     -34.992   4.832   4.061  1.00 20.00     0.011 C 
BRANCH   4   5
HETATM    5  C7  UNL     1     -36.423   5.170   3.608  1.00 20.00     0.000 C 
BRANCH   5   6
HETATM    6  C5  UNL     1     -37.257   3.898   3.435  1.00 20.00    -0.005 C 
HETATM    7  C1  UNL     1     -37.380   3.130   4.741  1.00 20.00     0.005 C 
ENDBRANCH   5   6
ENDBRANCH   4   5
ENDBRANCH   1   4
BRANCH   1   8
HETATM    8  C9  UNL     1     -32.604   5.595   4.740  1.00 20.00     0.124 C 
HETATM    9 CL12 UNL     1     -31.642   6.833   5.593  1.00 20.00    -0.130 Cl
ENDBRANCH   1   8
BRANCH   1  10
HETATM   10  C10 UNL     1     -33.874   6.837   2.852  1.00 20.00    -0.013 C 
HETATM   11  C3  UNL     1     -33.006   8.105   2.949  1.00 20.00     0.010 C 
HETATM   12  C4  UNL     1     -33.364   6.017   1.657  1.00 20.00     0.010 C 
ENDBRANCH   1  10
TORSDOF 6
