REMARK  3 active torsions:
REMARK  status: ('A' for Active; 'I' for Inactive)
REMARK    1  A    between atoms: C5_5  and  C6_6 
REMARK    2  A    between atoms: C6_6  and  C7_7 
REMARK    3  A    between atoms: C7_7  and  C8_8 
ROOT
HETATM    1  C1  UNL     1     -32.022   8.681   0.524  1.00 20.00     0.012 C 
HETATM    2  C2  UNL     1     -32.059   8.090   1.568  1.00 20.00    -0.117 C 
HETATM    3  C5  UNL     1     -32.102   7.367   2.848  1.00 20.00     0.093 C 
ENDROOT
BRANCH   3   4
HETATM    4  C6  UNL     1     -33.422   6.605   3.004  1.00 20.00     0.018 C 
BRANCH   4   5
HETATM    5  C7  UNL     1     -33.563   5.890   4.370  1.00 20.00     0.000 C 
HETATM    6  C3  UNL     1     -33.926   6.877   5.487  1.00 20.00     0.011 C 
BRANCH   5   7
HETATM    7  C8  UNL     1     -34.550   4.698   4.251  1.00 20.00     0.082 C 
HETATM    8  C4  UNL     1     -34.626   3.846   5.516  1.00 20.00     0.027 C 
HETATM    9 CL9  UNL     1     -36.204   5.228   3.809  1.00 20.00    -0.125 Cl
ENDBRANCH   5   7
ENDBRANCH   4   5
ENDBRANCH   3   4
TORSDOF 3
