REMARK  2 active torsions:
REMARK  status: ('A' for Active; 'I' for Inactive)
REMARK    1  A    between atoms: C4_4  and  C7_7 
REMARK    2  A    between atoms: C7_7  and  C8_8 
ROOT
HETATM    1  C1  UNL     1     -34.475   4.801   4.743  1.00 20.00     0.033 C 
HETATM    2  C2  UNL     1     -34.672   4.717   6.242  1.00 20.00     0.168 C 
HETATM    3  C3  UNL     1     -33.941   6.866   5.719  1.00 20.00     0.172 C 
HETATM    4  C4  UNL     1     -33.464   5.922   4.630  1.00 20.00     0.016 C 
HETATM    5  O9  UNL     1     -34.489   6.043   6.760  1.00 20.00    -0.391 OA
ENDROOT
BRANCH   4   6
HETATM    6  C7  UNL     1     -33.394   6.558   3.255  1.00 20.00     0.002 C 
HETATM    7  C5  UNL     1     -34.765   7.048   2.848  1.00 20.00     0.011 C 
BRANCH   6   8
HETATM    8  C8  UNL     1     -32.304   7.648   3.216  1.00 20.00     0.058 C 
HETATM    9  C6  UNL     1     -30.980   7.294   3.878  1.00 20.00     0.022 C 
HETATM   10 BR10 UNL     1     -31.945   8.176   1.354  1.00 20.00    -0.091 Br
ENDBRANCH   6   8
ENDBRANCH   4   6
TORSDOF 2
