REMARK  4 active torsions:
REMARK  status: ('A' for Active; 'I' for Inactive)
REMARK    1  A    between atoms: C2_2  and  C6_6 
REMARK    2  A    between atoms: C2_2  and  C7_7 
REMARK    3  A    between atoms: C7_7  and  C8_8 
REMARK    4  A    between atoms: C8_8  and  C9_9 
ROOT
HETATM    1  C7  UNL     1     -32.896   5.722   2.717  1.00 20.00     0.039 C 
ENDROOT
BRANCH   1   2
HETATM    2  C2  UNL     1     -32.504   7.150   3.048  1.00 20.00    -0.089 C 
HETATM    3  C1  UNL     1     -31.633   7.411   4.038  1.00 20.00     0.014 C 
BRANCH   2   4
HETATM    4  C6  UNL     1     -33.109   8.273   2.236  1.00 20.00     0.029 C 
HETATM    5  C3  UNL     1     -32.289   8.631   1.004  1.00 20.00     0.010 C 
ENDBRANCH   2   4
ENDBRANCH   1   2
BRANCH   1   6
HETATM    6  C8  UNL     1     -34.171   5.214   3.433  1.00 20.00     0.003 C 
HETATM    7  C4  UNL     1     -35.408   6.023   3.011  1.00 20.00     0.011 C 
BRANCH   6   8
HETATM    8  C9  UNL     1     -34.042   5.174   4.979  1.00 20.00     0.082 C 
HETATM    9  C5  UNL     1     -34.368   6.508   5.645  1.00 20.00     0.027 C 
HETATM   10 CL10 UNL     1     -35.049   3.893   5.724  1.00 20.00    -0.125 Cl
ENDBRANCH   6   8
ENDBRANCH   1   6
TORSDOF 4
