REMARK  4 active torsions:
REMARK  status: ('A' for Active; 'I' for Inactive)
REMARK    1  A    between atoms: C1_1  and  C9_9 
REMARK    2  A    between atoms: C1_1  and  C10_10 
REMARK    3  A    between atoms: C7_7  and  C9_9 
REMARK    4  A    between atoms: C8_8  and  C9_9 
ROOT
HETATM    1  C1  UNL     1     -33.908   6.795   3.992  1.00 20.00     0.138 C 
HETATM    2  O11 UNL     1     -34.903   7.369   3.539  1.00 20.00    -0.297 OA
ENDROOT
BRANCH   1   3
HETATM    3  C9  UNL     1     -34.055   5.830   5.177  1.00 20.00     0.055 C 
BRANCH   3   4
HETATM    4  C7  UNL     1     -34.611   6.626   6.373  1.00 20.00     0.007 C 
HETATM    5  C2  UNL     1     -33.728   7.798   6.777  1.00 20.00     0.006 C 
ENDBRANCH   3   4
BRANCH   3   6
HETATM    6  C8  UNL     1     -34.973   4.650   4.806  1.00 20.00     0.007 C 
HETATM    7  C3  UNL     1     -35.151   3.650   5.941  1.00 20.00     0.006 C 
ENDBRANCH   3   6
ENDBRANCH   1   3
BRANCH   1   8
HETATM    8  C10 UNL     1     -32.501   7.038   3.397  1.00 20.00     0.010 C 
HETATM    9  C4  UNL     1     -31.899   5.726   2.879  1.00 20.00     0.022 C 
HETATM   10  C5  UNL     1     -32.583   8.068   2.263  1.00 20.00     0.022 C 
HETATM   11  C6  UNL     1     -31.574   7.595   4.494  1.00 20.00     0.022 C 
ENDBRANCH   1   8
TORSDOF 4
