REMARK  4 active torsions:
REMARK  status: ('A' for Active; 'I' for Inactive)
REMARK    1  A    between atoms: C5_5  and  C8_8 
REMARK    2  A    between atoms: C6_6  and  C8_8 
REMARK    3  A    between atoms: C7_7  and  C8_8 
REMARK    4  A    between atoms: C7_7  and  S10_10 
ROOT
HETATM    1  C1  UNL     1     -32.812   6.641   3.673  1.00 20.00     0.074 C 
HETATM    2  C7  UNL     1     -33.513   5.855   4.708  1.00 20.00     0.157 C 
HETATM    3  N9  UNL     1     -32.255   7.254   2.860  1.00 20.00    -0.196 NA
ENDROOT
BRANCH   2   4
HETATM    4  C8  UNL     1     -34.465   4.797   4.072  1.00 20.00     0.012 C 
BRANCH   4   5
HETATM    5  C5  UNL     1     -35.782   5.421   3.536  1.00 20.00     0.002 C 
HETATM    6  C2  UNL     1     -35.561   6.530   2.514  1.00 20.00     0.005 C 
ENDBRANCH   4   5
BRANCH   4   7
HETATM    7  C6  UNL     1     -34.777   3.608   5.016  1.00 20.00     0.002 C 
HETATM    8  C3  UNL     1     -35.519   3.993   6.289  1.00 20.00     0.005 C 
ENDBRANCH   4   7
ENDBRANCH   2   4
BRANCH   2   9
HETATM    9  S10 UNL     1     -34.328   6.970   5.911  1.00 20.00    -0.154 SA
HETATM   10  C4  UNL     1     -32.874   7.367   6.904  1.00 20.00     0.091 C 
ENDBRANCH   2   9
TORSDOF 4
