REMARK  4 active torsions:
REMARK  status: ('A' for Active; 'I' for Inactive)
REMARK    1  A    between atoms: C5_5  and  C6_6 
REMARK    2  A    between atoms: C6_6  and  C9_9 
REMARK    3  A    between atoms: C7_7  and  C9_9 
REMARK    4  A    between atoms: C8_8  and  C9_9 
ROOT
HETATM    1  C4  UNL     1     -34.894   4.281   3.725  1.00 20.00     0.016 C 
HETATM    2  C9  UNL     1     -34.634   5.685   4.343  1.00 20.00    -0.029 C 
ENDROOT
BRANCH   2   3
HETATM    3  C6  UNL     1     -33.667   6.405   3.341  1.00 20.00     0.010 C 
BRANCH   3   4
HETATM    4  C5  UNL     1     -33.637   7.936   3.351  1.00 20.00    -0.004 C 
HETATM    5  C1  UNL     1     -32.712   8.473   2.266  1.00 20.00     0.005 C 
ENDBRANCH   3   4
ENDBRANCH   2   3
BRANCH   2   6
HETATM    6  C7  UNL     1     -36.026   6.390   4.373  1.00 20.00     0.124 C 
HETATM    7 CL10 UNL     1     -37.294   5.565   5.312  1.00 20.00    -0.130 Cl
ENDBRANCH   2   6
BRANCH   2   8
HETATM    8  C8  UNL     1     -34.008   5.543   5.784  1.00 20.00    -0.014 C 
HETATM    9  C2  UNL     1     -34.399   4.245   6.508  1.00 20.00     0.010 C 
HETATM   10  C3  UNL     1     -34.318   6.723   6.721  1.00 20.00     0.010 C 
ENDBRANCH   2   8
TORSDOF 4
