REMARK  3 active torsions:
REMARK  status: ('A' for Active; 'I' for Inactive)
REMARK    1  A    between atoms: C4_4  and  C10_10 
REMARK    2  A    between atoms: C8_8  and  C10_10 
REMARK    3  A    between atoms: C9_9  and  C10_10 
ROOT
HETATM    1  C1  UNL     1     -33.660   5.334   2.797  1.00 20.00     0.006 C 
HETATM    2  C2  UNL     1     -32.964   6.403   1.968  1.00 20.00     0.020 C 
HETATM    3  C3  UNL     1     -33.492   7.411   4.088  1.00 20.00     0.025 C 
HETATM    4  C4  UNL     1     -33.617   5.883   4.228  1.00 20.00    -0.009 C 
HETATM    5  C5  UNL     1     -33.507   7.683   2.585  1.00 20.00     0.082 C 
HETATM    6 CL11 UNL     1     -32.551   9.103   2.140  1.00 20.00    -0.125 Cl
ENDROOT
BRANCH   4   7
HETATM    7  C10 UNL     1     -34.825   5.458   5.050  1.00 20.00    -0.011 C 
BRANCH   7   8
HETATM    8  C8  UNL     1     -34.561   5.602   6.563  1.00 20.00     0.000 C 
HETATM    9  C6  UNL     1     -34.207   7.019   6.995  1.00 20.00     0.005 C 
ENDBRANCH   7   8
BRANCH   7  10
HETATM   10  C9  UNL     1     -35.234   4.002   4.747  1.00 20.00     0.000 C 
HETATM   11  C7  UNL     1     -34.153   2.979   5.070  1.00 20.00     0.005 C 
ENDBRANCH   7  10
ENDBRANCH   4   7
TORSDOF 3
