REMARK  3 active torsions:
REMARK  status: ('A' for Active; 'I' for Inactive)
REMARK    1  A    between atoms: C4_4  and  C7_7 
REMARK    2  A    between atoms: C4_4  and  C9_9 
REMARK    3  A    between atoms: C8_8  and  C9_9 
ROOT
HETATM    1  C1  UNL     1     -33.782   5.290   2.353  1.00 20.00     0.002 C 
HETATM    2  C2  UNL     1     -33.466   6.225   3.536  1.00 20.00     0.011 C 
HETATM    3  C3  UNL     1     -34.469   4.340   3.353  1.00 20.00     0.011 C 
HETATM    4  C4  UNL     1     -34.630   5.550   4.319  1.00 20.00    -0.025 C 
ENDROOT
BRANCH   4   5
HETATM    5  C7  UNL     1     -35.971   6.276   4.197  1.00 20.00     0.124 C 
HETATM    6 CL10 UNL     1     -37.301   5.175   4.598  1.00 20.00    -0.130 Cl
ENDBRANCH   4   5
BRANCH   4   7
HETATM    7  C9  UNL     1     -34.298   5.232   5.773  1.00 20.00    -0.010 C 
HETATM    8  C6  UNL     1     -35.035   3.963   6.207  1.00 20.00     0.011 C 
BRANCH   7   9
HETATM    9  C8  UNL     1     -34.653   6.389   6.724  1.00 20.00     0.000 C 
HETATM   10  C5  UNL     1     -33.922   7.685   6.405  1.00 20.00     0.005 C 
ENDBRANCH   7   9
ENDBRANCH   4   7
TORSDOF 3
