REMARK  4 active torsions:
REMARK  status: ('A' for Active; 'I' for Inactive)
REMARK    1  A    between atoms: C2_2  and  C6_6 
REMARK    2  A    between atoms: C2_2  and  C7_7 
REMARK    3  A    between atoms: C7_7  and  C8_8 
REMARK    4  A    between atoms: C8_8  and  C9_9 
ROOT
HETATM    1  C7  UNL     1     -32.310   7.340   3.506  1.00 20.00     0.039 C 
ENDROOT
BRANCH   1   2
HETATM    2  C2  UNL     1     -32.300   8.493   2.521  1.00 20.00    -0.089 C 
HETATM    3  C1  UNL     1     -31.848   8.322   1.267  1.00 20.00     0.014 C 
BRANCH   2   4
HETATM    4  C6  UNL     1     -32.815   9.839   2.978  1.00 20.00     0.029 C 
HETATM    5  C3  UNL     1     -32.756  10.904   1.892  1.00 20.00     0.010 C 
ENDBRANCH   2   4
ENDBRANCH   1   2
BRANCH   1   6
HETATM    6  C8  UNL     1     -33.578   6.453   3.458  1.00 20.00     0.003 C 
HETATM    7  C4  UNL     1     -33.549   5.501   2.251  1.00 20.00     0.011 C 
BRANCH   6   8
HETATM    8  C9  UNL     1     -33.828   5.668   4.774  1.00 20.00     0.082 C 
HETATM    9  C5  UNL     1     -33.852   6.559   6.012  1.00 20.00     0.027 C 
HETATM   10 CL10 UNL     1     -35.337   4.702   4.726  1.00 20.00    -0.125 Cl
ENDBRANCH   6   8
ENDBRANCH   1   6
TORSDOF 4
