REMARK  5 active torsions:
REMARK  status: ('A' for Active; 'I' for Inactive)
REMARK    1  A    between atoms: C1_1  and  C7_7 
REMARK    2  A    between atoms: C1_1  and  C11_11 
REMARK    3  A    between atoms: C7_7  and  C10_10 
REMARK    4  A    between atoms: C8_8  and  C10_10 
REMARK    5  A    between atoms: C9_9  and  C10_10 
ROOT
HETATM    1  C1  UNL     1     -32.800   7.477   2.884  1.00 20.00     0.134 C 
HETATM    2  O12 UNL     1     -32.099   6.467   2.979  1.00 20.00    -0.297 OA
ENDROOT
BRANCH   1   3
HETATM    3  C7  UNL     1     -34.052   7.646   3.745  1.00 20.00     0.083 C 
BRANCH   3   4
HETATM    4  C10 UNL     1     -34.292   6.476   4.722  1.00 20.00    -0.008 C 
BRANCH   4   5
HETATM    5  C8  UNL     1     -33.149   6.389   5.758  1.00 20.00     0.000 C 
HETATM    6  C2  UNL     1     -32.924   7.648   6.584  1.00 20.00     0.005 C 
ENDBRANCH   4   5
BRANCH   4   7
HETATM    7  C9  UNL     1     -34.522   5.164   3.940  1.00 20.00     0.000 C 
HETATM    8  C3  UNL     1     -34.817   3.964   4.830  1.00 20.00     0.005 C 
ENDBRANCH   4   7
ENDBRANCH   3   4
ENDBRANCH   1   3
BRANCH   1   9
HETATM    9  C11 UNL     1     -32.451   8.604   1.889  1.00 20.00     0.009 C 
HETATM   10  C4  UNL     1     -33.508   9.710   1.997  1.00 20.00     0.022 C 
HETATM   11  C5  UNL     1     -31.075   9.195   2.246  1.00 20.00     0.022 C 
HETATM   12  C6  UNL     1     -32.389   8.061   0.456  1.00 20.00     0.022 C 
ENDBRANCH   1   9
TORSDOF 5
