REMARK  2 active torsions:
REMARK  status: ('A' for Active; 'I' for Inactive)
REMARK    1  A    between atoms: C4_4  and  C7_7 
REMARK    2  A    between atoms: C4_4  and  C8_8 
ROOT
HETATM    1  C1  UNL     1     -32.397   5.147   4.133  1.00 20.00     0.039 C 
HETATM    2  C2  UNL     1     -31.845   5.951   2.972  1.00 20.00     0.168 C 
HETATM    3  C3  UNL     1     -33.624   7.134   3.905  1.00 20.00     0.178 C 
HETATM    4  C4  UNL     1     -33.823   5.663   4.263  1.00 20.00    -0.001 C 
HETATM    5  O9  UNL     1     -32.575   7.184   2.925  1.00 20.00    -0.390 OA
ENDROOT
BRANCH   4   6
HETATM    6  C7  UNL     1     -34.753   4.976   3.250  1.00 20.00     0.126 C 
HETATM    7 CL10 UNL     1     -36.407   5.587   3.428  1.00 20.00    -0.130 Cl
ENDBRANCH   4   6
BRANCH   4   8
HETATM    8  C8  UNL     1     -34.384   5.483   5.673  1.00 20.00    -0.011 C 
HETATM    9  C5  UNL     1     -34.427   4.005   6.037  1.00 20.00     0.010 C 
HETATM   10  C6  UNL     1     -33.549   6.268   6.676  1.00 20.00     0.010 C 
ENDBRANCH   4   8
TORSDOF 2
