REMARK  3 active torsions:
REMARK  status: ('A' for Active; 'I' for Inactive)
REMARK    1  A    between atoms: C1_1  and  C5_5 
REMARK    2  A    between atoms: C1_1  and  C8_8 
REMARK    3  A    between atoms: C8_8  and  C9_9 
ROOT
HETATM    1  C2  UNL     1     -34.845   4.522   6.567  1.00 20.00     0.029 C 
HETATM    2  C3  UNL     1     -34.738   4.102   5.121  1.00 20.00     0.048 C 
HETATM    3  C4  UNL     1     -34.069   5.818   6.576  1.00 20.00     0.169 C 
HETATM    4  C5  UNL     1     -34.751   5.434   4.380  1.00 20.00     0.117 C 
HETATM    5  C6  UNL     1     -36.128   5.817   3.856  1.00 20.00     0.054 C 
HETATM    6  O11 UNL     1     -34.318   6.440   5.309  1.00 20.00    -0.373 OA
ENDROOT
BRANCH   4   7
HETATM    7  C1  UNL     1     -33.746   5.438   3.266  1.00 20.00     0.160 C 
HETATM    8  O10 UNL     1     -34.053   5.064   2.135  1.00 20.00    -0.295 OA
BRANCH   7   9
HETATM    9  C8  UNL     1     -32.353   5.925   3.625  1.00 20.00     0.081 C 
BRANCH   9  10
HETATM   10  C9  UNL     1     -32.201   7.434   3.463  1.00 20.00     0.003 C 
HETATM   11  C7  UNL     1     -32.431   7.867   2.024  1.00 20.00     0.005 C 
ENDBRANCH   9  10
ENDBRANCH   7   9
ENDBRANCH   4   7
TORSDOF 3
