REMARK  2 active torsions:
REMARK  status: ('A' for Active; 'I' for Inactive)
REMARK    1  A    between atoms: C5_5  and  C7_7 
REMARK    2  A    between atoms: C7_7  and  N8_8 
ROOT
HETATM    1  C1  UNL     1     -31.974   7.760   2.502  1.00 20.00     0.332 C 
HETATM    2  N8  UNL     1     -32.126   7.342   3.591  1.00 20.00    -0.245 NA
HETATM    3  O9  UNL     1     -31.822   8.180   1.414  1.00 20.00    -0.260 OA
ENDROOT
BRANCH   2   4
HETATM    4  C7  UNL     1     -32.676   5.993   3.653  1.00 20.00     0.190 C 
BRANCH   4   5
HETATM    5  C5  UNL     1     -33.998   6.045   4.413  1.00 20.00     0.075 C 
HETATM    6  C3  UNL     1     -34.644   4.664   4.531  1.00 20.00     0.041 C 
HETATM    7  C2  UNL     1     -35.327   4.732   5.875  1.00 20.00     0.029 C 
HETATM    8  C4  UNL     1     -34.353   5.564   6.677  1.00 20.00     0.169 C 
HETATM    9  O10 UNL     1     -33.737   6.482   5.762  1.00 20.00    -0.379 OA
HETATM   10  C6  UNL     1     -34.940   7.064   3.768  1.00 20.00     0.048 C 
ENDBRANCH   4   5
ENDBRANCH   2   4
TORSDOF 2
