REMARK  1 active torsions:
REMARK  status: ('A' for Active; 'I' for Inactive)
REMARK    1  A    between atoms: C4_4  and  C6_6 
ROOT
HETATM    1  C1  UNL     1     -34.952   5.818   6.567  1.00 20.00     0.029 C 
HETATM    2  C2  UNL     1     -34.199   6.605   5.522  1.00 20.00     0.041 C 
HETATM    3  C3  UNL     1     -34.501   4.404   6.277  1.00 20.00     0.169 C 
HETATM    4  C4  UNL     1     -34.203   5.658   4.322  1.00 20.00     0.070 C 
HETATM    5  C5  UNL     1     -35.438   5.856   3.440  1.00 20.00     0.047 C 
HETATM    6  O7  UNL     1     -34.263   4.323   4.865  1.00 20.00    -0.379 OA
ENDROOT
BRANCH   4   7
HETATM    7  C6  UNL     1     -32.933   5.789   3.487  1.00 20.00     0.152 C 
HETATM    8 CL8  UNL     1     -32.780   7.441   2.864  1.00 20.00    -0.127 Cl
ENDBRANCH   4   7
TORSDOF 1
