REMARK  3 active torsions:
REMARK  status: ('A' for Active; 'I' for Inactive)
REMARK    1  A    between atoms: C1_1  and  C3_3 
REMARK    2  A    between atoms: C2_2  and  C8_8 
REMARK    3  A    between atoms: C8_8  and  C10_10 
ROOT
HETATM    1  C4  UNL     1     -35.668   5.413   3.063  1.00 20.00     0.002 C 
HETATM    2  C5  UNL     1     -34.430   4.518   3.105  1.00 20.00     0.002 C 
HETATM    3  C6  UNL     1     -35.397   6.561   4.036  1.00 20.00     0.022 C 
HETATM    4  C7  UNL     1     -33.468   5.166   4.101  1.00 20.00     0.022 C 
HETATM    5  C8  UNL     1     -33.869   6.646   4.136  1.00 20.00     0.024 C 
ENDROOT
BRANCH   5   6
HETATM    6  C2  UNL     1     -33.306   7.371   2.977  1.00 20.00    -0.085 C 
HETATM    7  C1  UNL     1     -32.848   7.960   2.036  1.00 20.00     0.005 C 
BRANCH   7   8
HETATM    8  C3  UNL     1     -32.261   8.715   0.828  1.00 20.00     0.258 C 
HETATM    9  O11 UNL     1     -31.085   8.391   0.492  1.00 20.00    -0.637 OA
HETATM   10  O12 UNL     1     -33.016   9.582   0.298  1.00 20.00    -0.637 OA
ENDBRANCH   7   8
ENDBRANCH   5   6
BRANCH   5  11
HETATM   11  C10 UNL     1     -33.419   7.329   5.426  1.00 20.00     0.018 C 
HETATM   12  C9  UNL     1     -33.959   6.638   6.635  1.00 20.00     0.007 C 
ENDBRANCH   5  11
TORSDOF 3
