REMARK  1 active torsions:
REMARK  status: ('A' for Active; 'I' for Inactive)
REMARK    1  A    between atoms: C3_3  and  C8_8 
ROOT
HETATM    1  C1  UNL     1     -32.071   6.827   3.766  1.00 20.00     0.017 A 
HETATM    2  C2  UNL     1     -31.575   7.563   2.651  1.00 20.00     0.032 A 
HETATM    3  C3  UNL     1     -33.423   6.582   3.665  1.00 20.00    -0.012 A 
HETATM    4  C4  UNL     1     -32.567   7.853   1.740  1.00 20.00     0.075 A 
HETATM    5  S10 UNL     1     -34.089   7.238   2.230  1.00 20.00    -0.082 SA
HETATM    6 CL11 UNL     1     -32.421   8.713   0.265  1.00 20.00    -0.076 Cl
ENDROOT
BRANCH   3   7
HETATM    7  C8  UNL     1     -34.319   5.840   4.630  1.00 20.00     0.027 C 
HETATM    8  C5  UNL     1     -33.599   5.296   5.884  1.00 20.00     0.011 C 
HETATM    9  C6  UNL     1     -33.784   3.781   5.844  1.00 20.00     0.021 C 
HETATM   10  C9  UNL     1     -35.109   3.613   5.119  1.00 20.00     0.083 C 
HETATM   11  C7  UNL     1     -35.005   4.621   3.982  1.00 20.00     0.030 C 
HETATM   12 CL12 UNL     1     -35.351   1.961   4.534  1.00 20.00    -0.125 Cl
ENDBRANCH   3   7
TORSDOF 1
