REMARK  2 active torsions:
REMARK  status: ('A' for Active; 'I' for Inactive)
REMARK    1  A    between atoms: C1_1  and  C4_4 
REMARK    2  A    between atoms: C1_1  and  C6_6 
ROOT
HETATM    1  C2  UNL     1     -34.154   4.070   5.589  1.00 20.00     0.018 A 
HETATM    2  C3  UNL     1     -35.462   4.717   5.933  1.00 20.00     0.018 A 
HETATM    3  C4  UNL     1     -34.330   5.561   5.385  1.00 20.00     0.018 A 
HETATM    4  C5  UNL     1     -33.623   6.473   6.355  1.00 20.00     0.023 C 
ENDROOT
BRANCH   3   5
HETATM    5  C1  UNL     1     -34.464   6.037   3.987  1.00 20.00     0.148 C 
HETATM    6  O7  UNL     1     -35.386   5.641   3.276  1.00 20.00    -0.296 OA
BRANCH   5   7
HETATM    7  C6  UNL     1     -33.409   7.015   3.522  1.00 20.00     0.193 C 
HETATM    8 CL8  UNL     1     -32.026   6.160   2.826  1.00 20.00    -0.123 Cl
ENDBRANCH   5   7
ENDBRANCH   3   5
TORSDOF 2
