REMARK  1 active torsions:
REMARK  status: ('A' for Active; 'I' for Inactive)
REMARK    1  A    between atoms: C3_3  and  C8_8 
ROOT
HETATM    1  C1  UNL     1     -30.791   7.835   3.731  1.00 20.00     0.089 C 
HETATM    2  C2  UNL     1     -31.877   7.164   4.355  1.00 20.00     0.113 C 
HETATM    3  C3  UNL     1     -32.777   6.428   3.686  1.00 20.00     0.030 C 
HETATM    4  N10 UNL     1     -29.901   8.386   3.229  1.00 20.00    -0.192 NA
HETATM    5 CL11 UNL     1     -32.620   6.276   1.960  1.00 20.00    -0.087 Cl
ENDROOT
BRANCH   3   6
HETATM    6  C8  UNL     1     -33.971   5.675   4.267  1.00 20.00    -0.005 C 
HETATM    7  C6  UNL     1     -33.599   4.236   4.660  1.00 20.00     0.015 C 
HETATM    8  C4  UNL     1     -34.468   3.940   5.874  1.00 20.00     0.001 C 
HETATM    9  C5  UNL     1     -34.442   5.252   6.637  1.00 20.00     0.001 C 
HETATM   10  C7  UNL     1     -34.508   6.329   5.556  1.00 20.00     0.015 C 
HETATM   11  C9  UNL     1     -35.068   5.653   3.233  1.00 20.00     0.021 C 
ENDBRANCH   3   6
TORSDOF 1
