REMARK  1 active torsions:
REMARK  status: ('A' for Active; 'I' for Inactive)
REMARK    1  A    between atoms: C4_4  and  C5_5 
ROOT
HETATM    1  C1  UNL     1     -35.466   5.128   5.389  1.00 20.00     0.013 A 
HETATM    2  C2  UNL     1     -34.251   4.314   5.731  1.00 20.00     0.013 A 
HETATM    3  C4  UNL     1     -34.090   5.734   5.239  1.00 20.00    -0.011 A 
HETATM    4  C6  UNL     1     -33.691   6.760   6.270  1.00 20.00     0.018 C 
ENDROOT
BRANCH   3   5
HETATM    5  C5  UNL     1     -33.514   6.007   3.844  1.00 20.00     0.086 A 
HETATM    6  C3  UNL     1     -32.669   7.221   3.565  1.00 20.00     0.207 A 
HETATM    7  O8  UNL     1     -32.089   5.923   3.765  1.00 20.00    -0.375 OA
HETATM    8  C7  UNL     1     -34.215   5.345   2.702  1.00 20.00     0.049 C 
ENDBRANCH   3   5
TORSDOF 1
