REMARK  3 active torsions:
REMARK  status: ('A' for Active; 'I' for Inactive)
REMARK    1  A    between atoms: C1_1  and  C10_10 
REMARK    2  A    between atoms: C5_5  and  C10_10 
REMARK    3  A    between atoms: C10_10  and  O11_11 
ROOT
HETATM    1  C9  UNL     1     -33.747   5.070   3.414  1.00 20.00     0.051 C 
HETATM    2  C10 UNL     1     -33.494   6.317   4.230  1.00 20.00     0.079 C 
ENDROOT
BRANCH   2   3
HETATM    3  C1  UNL     1     -32.053   6.792   4.150  1.00 20.00     0.013 C 
HETATM    4  C2  UNL     1     -31.471   7.614   3.253  1.00 20.00    -0.088 C 
HETATM    5  C6  UNL     1     -30.007   7.951   3.372  1.00 20.00     0.042 C 
HETATM    6  C7  UNL     1     -32.153   8.244   2.072  1.00 20.00     0.042 C 
ENDBRANCH   2   3
BRANCH   2   7
HETATM    7  C5  UNL     1     -33.860   6.062   5.702  1.00 20.00    -0.010 A 
HETATM    8  C3  UNL     1     -33.618   4.680   6.262  1.00 20.00     0.013 A 
HETATM    9  C4  UNL     1     -35.022   5.142   5.994  1.00 20.00     0.013 A 
HETATM   10  C8  UNL     1     -33.647   7.240   6.613  1.00 20.00     0.018 C 
ENDBRANCH   2   7
BRANCH   2  11
HETATM   11  O11 UNL     1     -34.369   7.354   3.772  1.00 20.00    -0.385 OA
HETATM   12  H29 UNL     1     -35.267   7.000   3.844  1.00 20.00     0.211 HD
ENDBRANCH   2  11
TORSDOF 3
