REMARK  4 active torsions:
REMARK  status: ('A' for Active; 'I' for Inactive)
REMARK    1  A    between atoms: C3_3  and  C10_10 
REMARK    2  A    between atoms: C8_8  and  C9_9 
REMARK    3  A    between atoms: C9_9  and  C10_10 
REMARK    4  A    between atoms: C10_10  and  O11_11 
ROOT
HETATM    1  C7  UNL     1     -36.051   5.081   3.777  1.00 20.00     0.047 C 
HETATM    2  C10 UNL     1     -34.857   5.767   4.409  1.00 20.00     0.065 C 
ENDROOT
BRANCH   2   3
HETATM    3  C3  UNL     1     -34.576   5.154   5.786  1.00 20.00    -0.013 A 
HETATM    4  C1  UNL     1     -35.259   5.766   6.987  1.00 20.00     0.013 A 
HETATM    5  C2  UNL     1     -33.786   5.975   6.779  1.00 20.00     0.013 A 
HETATM    6  C4  UNL     1     -34.366   3.665   5.777  1.00 20.00     0.018 C 
ENDBRANCH   2   3
BRANCH   2   7
HETATM    7  C9  UNL     1     -33.612   5.758   3.459  1.00 20.00     0.016 C 
HETATM    8  C6  UNL     1     -33.839   4.867   2.224  1.00 20.00     0.013 C 
BRANCH   7   9
HETATM    9  C8  UNL     1     -33.158   7.174   3.036  1.00 20.00     0.002 C 
HETATM   10  C5  UNL     1     -31.919   7.181   2.149  1.00 20.00     0.005 C 
ENDBRANCH   7   9
ENDBRANCH   2   7
BRANCH   2  11
HETATM   11  O11 UNL     1     -35.237   7.131   4.648  1.00 20.00    -0.389 OA
HETATM   12  H31 UNL     1     -35.413   7.514   3.778  1.00 20.00     0.210 HD
ENDBRANCH   2  11
TORSDOF 4
