REMARK  3 active torsions:
REMARK  status: ('A' for Active; 'I' for Inactive)
REMARK    1  A    between atoms: C3_3  and  C6_6 
REMARK    2  A    between atoms: C6_6  and  C7_7 
REMARK    3  A    between atoms: C6_6  and  O8_8 
ROOT
HETATM    1  C5  UNL     1     -36.368   5.527   3.766  1.00 20.00     0.056 C 
HETATM    2  C6  UNL     1     -35.079   4.922   4.288  1.00 20.00     0.158 C 
ENDROOT
BRANCH   2   3
HETATM    3  C3  UNL     1     -34.835   5.303   5.722  1.00 20.00    -0.004 A 
HETATM    4  C1  UNL     1     -34.074   4.331   6.593  1.00 20.00     0.013 A 
HETATM    5  C2  UNL     1     -35.550   4.516   6.795  1.00 20.00     0.013 A 
HETATM    6  C4  UNL     1     -34.619   6.773   5.951  1.00 20.00     0.018 C 
ENDBRANCH   2   3
BRANCH   2   7
HETATM    7  C7  UNL     1     -33.907   5.325   3.384  1.00 20.00     0.418 C 
HETATM    8  F9  UNL     1     -32.766   4.718   3.780  1.00 20.00    -0.168 F 
HETATM    9  F10 UNL     1     -33.682   6.658   3.398  1.00 20.00    -0.168 F 
HETATM   10  F11 UNL     1     -34.137   4.962   2.102  1.00 20.00    -0.168 F 
ENDBRANCH   2   7
BRANCH   2  11
HETATM   11  O8  UNL     1     -35.215   3.494   4.195  1.00 20.00    -0.380 OA
HETATM   12  H22 UNL     1     -35.968   3.263   4.754  1.00 20.00     0.211 HD
ENDBRANCH   2  11
TORSDOF 3
