REMARK  3 active torsions:
REMARK  status: ('A' for Active; 'I' for Inactive)
REMARK    1  A    between atoms: C4_4  and  C9_9 
REMARK    2  A    between atoms: C8_8  and  C9_9 
REMARK    3  A    between atoms: C9_9  and  O11_11 
ROOT
HETATM    1  C1  UNL     1     -33.732   6.950   6.416  1.00 20.00     0.066 C 
HETATM    2  C6  UNL     1     -35.039   4.888   6.421  1.00 20.00     0.028 C 
HETATM    3  C8  UNL     1     -33.994   5.709   5.652  1.00 20.00     0.123 C 
HETATM    4  N10 UNL     1     -33.523   7.924   7.012  1.00 20.00    -0.197 NA
ENDROOT
BRANCH   3   5
HETATM    5  C9  UNL     1     -34.412   6.014   4.180  1.00 20.00     0.077 C 
HETATM    6  C7  UNL     1     -34.679   4.734   3.412  1.00 20.00     0.048 C 
BRANCH   5   7
HETATM    7  C4  UNL     1     -33.330   6.820   3.437  1.00 20.00    -0.012 A 
HETATM    8  C2  UNL     1     -33.367   8.326   3.550  1.00 20.00     0.013 A 
HETATM    9  C3  UNL     1     -33.760   7.665   2.260  1.00 20.00     0.013 A 
HETATM   10  C5  UNL     1     -31.986   6.150   3.371  1.00 20.00     0.018 C 
ENDBRANCH   5   7
BRANCH   5  11
HETATM   11  O11 UNL     1     -35.615   6.790   4.189  1.00 20.00    -0.388 OA
HETATM   12  H26 UNL     1     -36.274   6.261   4.661  1.00 20.00     0.210 HD
ENDBRANCH   5  11
ENDBRANCH   3   5
TORSDOF 3
