REMARK  4 active torsions:
REMARK  status: ('A' for Active; 'I' for Inactive)
REMARK    1  A    between atoms: C3_3  and  C6_6 
REMARK    2  A    between atoms: C5_5  and  C6_6 
REMARK    3  A    between atoms: C5_5  and  O7_7 
REMARK    4  A    between atoms: C6_6  and  S8_8 
ROOT
HETATM    1  C6  UNL     1     -33.283   5.978   3.918  1.00 20.00     0.072 C 
ENDROOT
BRANCH   1   2
HETATM    2  C3  UNL     1     -34.191   6.171   5.129  1.00 20.00     0.001 A 
HETATM    3  C1  UNL     1     -35.265   5.165   5.438  1.00 20.00     0.006 A 
HETATM    4  C2  UNL     1     -34.056   5.270   6.325  1.00 20.00     0.006 A 
ENDBRANCH   1   2
BRANCH   1   5
HETATM    5  C5  UNL     1     -32.619   7.281   3.468  1.00 20.00     0.182 C 
BRANCH   5   6
HETATM    6  O7  UNL     1     -32.149   7.187   2.129  1.00 20.00    -0.395 OA
HETATM    7  C4  UNL     1     -31.963   8.472   1.551  1.00 20.00     0.201 C 
ENDBRANCH   5   6
ENDBRANCH   1   5
BRANCH   1   8
HETATM    8  S8  UNL     1     -34.253   5.255   2.546  1.00 20.00    -0.175 SA
HETATM    9  H20 UNL     1     -33.235   5.210   1.678  1.00 20.00     0.102 HD
ENDBRANCH   1   8
TORSDOF 4
