REMARK  3 active torsions:
REMARK  status: ('A' for Active; 'I' for Inactive)
REMARK    1  A    between atoms: C3_3  and  C6_6 
REMARK    2  A    between atoms: C5_5  and  C6_6 
REMARK    3  A    between atoms: C5_5  and  O7_7 
ROOT
HETATM    1  C6  UNL     1     -33.297   5.642   4.165  1.00 20.00     0.110 C 
HETATM    2 CL8  UNL     1     -34.319   5.204   2.745  1.00 20.00    -0.122 Cl
ENDROOT
BRANCH   1   3
HETATM    3  C3  UNL     1     -34.138   5.754   5.389  1.00 20.00     0.006 A 
HETATM    4  C1  UNL     1     -35.302   4.824   5.595  1.00 20.00     0.006 A 
HETATM    5  C2  UNL     1     -34.073   4.692   6.451  1.00 20.00     0.006 A 
ENDBRANCH   1   3
BRANCH   1   6
HETATM    6  C5  UNL     1     -32.548   6.944   3.839  1.00 20.00     0.187 C 
BRANCH   6   7
HETATM    7  O7  UNL     1     -32.168   6.980   2.469  1.00 20.00    -0.394 OA
HETATM    8  C4  UNL     1     -31.960   8.311   2.020  1.00 20.00     0.201 C 
ENDBRANCH   6   7
ENDBRANCH   1   6
TORSDOF 3
