REMARK  3 active torsions:
REMARK  status: ('A' for Active; 'I' for Inactive)
REMARK    1  A    between atoms: C3_3  and  C6_6 
REMARK    2  A    between atoms: C5_5  and  C6_6 
REMARK    3  A    between atoms: C5_5  and  O7_7 
ROOT
HETATM    1  C6  UNL     1     -33.983   6.328   3.760  1.00 20.00     0.110 C 
HETATM    2 CL8  UNL     1     -34.197   4.978   2.584  1.00 20.00    -0.122 Cl
ENDROOT
BRANCH   1   3
HETATM    3  C3  UNL     1     -34.646   5.991   5.050  1.00 20.00     0.006 A 
HETATM    4  C1  UNL     1     -34.159   4.830   5.873  1.00 20.00     0.006 A 
HETATM    5  C2  UNL     1     -33.938   6.237   6.353  1.00 20.00     0.006 A 
ENDBRANCH   1   3
BRANCH   1   6
HETATM    6  C5  UNL     1     -32.480   6.607   3.923  1.00 20.00     0.187 C 
BRANCH   6   7
HETATM    7  O7  UNL     1     -31.892   6.953   2.675  1.00 20.00    -0.394 OA
HETATM    8  C4  UNL     1     -32.192   8.294   2.312  1.00 20.00     0.201 C 
ENDBRANCH   6   7
ENDBRANCH   1   6
TORSDOF 3
