REMARK  0 active torsions:
REMARK  status: ('A' for Active; 'I' for Inactive)
ROOT
HETATM    1  C1  UNL     1     -33.184   6.630   5.116  1.00 20.00     0.005 C 
HETATM    2  C2  UNL     1     -33.845   5.641   5.932  1.00 20.00     0.041 C 
HETATM    3  C3  UNL     1     -33.218   6.572   3.773  1.00 20.00    -0.081 C 
HETATM    4  C4  UNL     1     -34.701   4.763   5.396  1.00 20.00     0.128 C 
HETATM    5  C5  UNL     1     -33.975   5.474   3.057  1.00 20.00     0.078 C 
HETATM    6  C6  UNL     1     -35.010   4.744   3.930  1.00 20.00     0.235 C 
HETATM    7  C7  UNL     1     -32.496   7.563   2.911  1.00 20.00     0.043 C 
HETATM    8  F8  UNL     1     -35.307   3.864   6.203  1.00 20.00    -0.208 F 
HETATM    9  F9  UNL     1     -36.223   5.336   3.724  1.00 20.00    -0.242 F 
ENDROOT
TORSDOF 0
