REMARK  0 active torsions:
REMARK  status: ('A' for Active; 'I' for Inactive)
ROOT
HETATM    1  C1  UNL     1     -32.794   8.328   2.091  1.00 20.00     0.128 C 
HETATM    2  C2  UNL     1     -34.140   7.876   2.679  1.00 20.00     0.088 C 
HETATM    3  C3  UNL     1     -32.122   6.996   2.458  1.00 20.00     0.088 C 
HETATM    4  C4  UNL     1     -34.465   5.395   6.141  1.00 20.00     0.000 C 
HETATM    5  C5  UNL     1     -35.419   4.717   5.163  1.00 20.00     0.000 C 
HETATM    6  C6  UNL     1     -34.147   6.855   5.834  1.00 20.00     0.001 C 
HETATM    7  C7  UNL     1     -35.335   5.141   3.700  1.00 20.00     0.001 C 
HETATM    8  C8  UNL     1     -32.983   7.006   4.855  1.00 20.00     0.010 C 
HETATM    9  C9  UNL     1     -33.919   5.303   3.154  1.00 20.00     0.010 C 
HETATM   10  C10 UNL     1     -33.357   6.713   3.392  1.00 20.00    -0.027 C 
HETATM   11  O11 UNL     1     -32.409   9.346   1.557  1.00 20.00    -0.298 OA
ENDROOT
TORSDOF 0
