REMARK  4 active torsions:
REMARK  status: ('A' for Active; 'I' for Inactive)
REMARK    1  A    between atoms: C2_2  and  C6_6 
REMARK    2  A    between atoms: C6_6  and  O10_10 
REMARK    3  A    between atoms: C7_7  and  C8_8 
REMARK    4  A    between atoms: C8_8  and  O10_10 
ROOT
HETATM    1  C5  UNL     1     -34.214   4.868   3.012  1.00 20.00     0.040 C 
HETATM    2  C8  UNL     1     -34.226   6.028   4.002  1.00 20.00     0.120 C 
ENDROOT
BRANCH   2   3
HETATM    3  C7  UNL     1     -34.012   5.590   5.466  1.00 20.00     0.006 C 
HETATM    4  C3  UNL     1     -35.128   4.674   5.973  1.00 20.00     0.012 C 
HETATM    5  C4  UNL     1     -33.897   6.811   6.389  1.00 20.00     0.012 C 
ENDBRANCH   2   3
BRANCH   2   6
HETATM    6  O10 UNL     1     -33.177   6.927   3.637  1.00 20.00    -0.383 OA
BRANCH   6   7
HETATM    7  C6  UNL     1     -33.568   7.762   2.559  1.00 20.00     0.202 C 
BRANCH   7   8
HETATM    8  C2  UNL     1     -32.423   8.691   2.215  1.00 20.00     0.169 A 
HETATM    9  C1  UNL     1     -32.341   9.361   0.872  1.00 20.00     0.202 A 
HETATM   10  O9  UNL     1     -31.550   8.205   1.189  1.00 20.00    -0.379 OA
ENDBRANCH   7   8
ENDBRANCH   6   7
ENDBRANCH   2   6
TORSDOF 4
