REMARK  3 active torsions:
REMARK  status: ('A' for Active; 'I' for Inactive)
REMARK    1  A    between atoms: C3_3  and  C6_6 
REMARK    2  A    between atoms: C4_4  and  O8_8 
REMARK    3  A    between atoms: C6_6  and  C7_7 
ROOT
HETATM    1  C1  UNL     1     -34.112   6.019   4.874  1.00 20.00     0.036 C 
HETATM    2  C2  UNL     1     -34.932   4.660   3.448  1.00 20.00     0.036 C 
HETATM    3  C3  UNL     1     -34.050   5.926   3.330  1.00 20.00    -0.010 C 
HETATM    4  C4  UNL     1     -35.426   5.205   4.809  1.00 20.00     0.118 C 
ENDROOT
BRANCH   3   5
HETATM    5  C6  UNL     1     -32.678   5.742   2.717  1.00 20.00     0.004 C 
BRANCH   5   6
HETATM    6  C7  UNL     1     -31.753   6.918   3.036  1.00 20.00    -0.004 C 
HETATM    7  C5  UNL     1     -32.295   8.226   2.481  1.00 20.00     0.005 C 
ENDBRANCH   5   6
ENDBRANCH   3   5
BRANCH   4   8
HETATM    8  O8  UNL     1     -35.613   4.233   5.851  1.00 20.00    -0.396 OA
HETATM    9  H22 UNL     1     -36.466   3.815   5.672  1.00 20.00     0.210 HD
ENDBRANCH   4   8
TORSDOF 3
