REMARK  3 active torsions:
REMARK  status: ('A' for Active; 'I' for Inactive)
REMARK    1  A    between atoms: C4_4  and  O7_7 
REMARK    2  A    between atoms: C5_5  and  C6_6 
REMARK    3  A    between atoms: C6_6  and  O7_7 
ROOT
HETATM    1  C3  UNL     1     -34.238   5.952   6.356  1.00 20.00     0.040 C 
HETATM    2  C6  UNL     1     -34.709   5.814   4.912  1.00 20.00     0.122 C 
ENDROOT
BRANCH   2   3
HETATM    3  C5  UNL     1     -33.553   5.707   3.895  1.00 20.00     0.006 C 
HETATM    4  C1  UNL     1     -32.677   6.961   3.870  1.00 20.00     0.012 C 
HETATM    5  C2  UNL     1     -34.091   5.433   2.485  1.00 20.00     0.012 C 
ENDBRANCH   2   3
BRANCH   2   6
HETATM    6  O7  UNL     1     -35.507   4.632   4.822  1.00 20.00    -0.371 OA
BRANCH   6   7
HETATM    7  C4  UNL     1     -34.953   3.579   5.593  1.00 20.00     0.282 C 
HETATM    8 CL8  UNL     1     -35.580   2.039   4.978  1.00 20.00    -0.102 Cl
ENDBRANCH   6   7
ENDBRANCH   2   6
TORSDOF 3
