REMARK  3 active torsions:
REMARK  status: ('A' for Active; 'I' for Inactive)
REMARK    1  A    between atoms: C4_4  and  C7_7 
REMARK    2  A    between atoms: C6_6  and  C7_7 
REMARK    3  A    between atoms: C6_6  and  O9_9 
ROOT
HETATM    1  C1  UNL     1     -34.111   6.375   5.899  1.00 20.00     0.066 C 
HETATM    2  C7  UNL     1     -34.490   5.724   4.635  1.00 20.00     0.120 C 
HETATM    3  N8  UNL     1     -33.813   6.895   6.893  1.00 20.00    -0.197 NA
ENDROOT
BRANCH   2   4
HETATM    4  C4  UNL     1     -34.694   4.277   4.988  1.00 20.00     0.005 A 
HETATM    5  C2  UNL     1     -33.828   3.621   6.028  1.00 20.00     0.006 A 
HETATM    6  C3  UNL     1     -35.277   3.898   6.321  1.00 20.00     0.006 A 
ENDBRANCH   2   4
BRANCH   2   7
HETATM    7  C6  UNL     1     -33.440   5.927   3.545  1.00 20.00     0.186 C 
BRANCH   7   8
HETATM    8  O9  UNL     1     -33.247   7.309   3.269  1.00 20.00    -0.395 OA
HETATM    9  C5  UNL     1     -32.292   7.506   2.237  1.00 20.00     0.201 C 
ENDBRANCH   7   8
ENDBRANCH   2   7
TORSDOF 3
