REMARK  3 active torsions:
REMARK  status: ('A' for Active; 'I' for Inactive)
REMARK    1  A    between atoms: C1_1  and  C6_6 
REMARK    2  A    between atoms: C1_1  and  O8_8 
REMARK    3  A    between atoms: C4_4  and  C6_6 
ROOT
HETATM    1  C1  UNL     1     -33.483   5.882   3.948  1.00 20.00     0.132 C 
HETATM    2  N7  UNL     1     -34.234   5.438   2.996  1.00 20.00    -0.282 NA
HETATM    3  H19 UNL     1     -35.072   4.991   3.382  1.00 20.00     0.189 HD
ENDROOT
BRANCH   1   4
HETATM    4  C6  UNL     1     -33.817   5.733   5.405  1.00 20.00     0.090 C 
BRANCH   4   5
HETATM    5  C4  UNL     1     -35.091   4.980   5.617  1.00 20.00    -0.007 A 
HETATM    6  C2  UNL     1     -35.072   3.483   5.755  1.00 20.00     0.005 A 
HETATM    7  C3  UNL     1     -35.381   4.344   6.948  1.00 20.00     0.005 A 
ENDBRANCH   4   5
ENDBRANCH   1   4
BRANCH   1   8
HETATM    8  O8  UNL     1     -32.294   6.509   3.757  1.00 20.00    -0.343 OA
HETATM    9  C5  UNL     1     -32.147   7.286   2.561  1.00 20.00     0.211 C 
ENDBRANCH   1   8
TORSDOF 3
