REMARK  4 active torsions:
REMARK  status: ('A' for Active; 'I' for Inactive)
REMARK    1  A    between atoms: C1_1  and  C4_4 
REMARK    2  A    between atoms: C1_1  and  C9_9 
REMARK    3  A    between atoms: C9_9  and  C10_10 
REMARK    4  A    between atoms: C10_10  and  C11_11 
ROOT
HETATM    1  C1  UNL     1     -31.967   7.385   2.370  1.00 20.00     0.135 C 
HETATM    2  O12 UNL     1     -30.885   6.815   2.433  1.00 20.00    -0.297 OA
ENDROOT
BRANCH   1   3
HETATM    3  C4  UNL     1     -32.152   8.532   1.434  1.00 20.00     0.017 A 
HETATM    4  C2  UNL     1     -32.536   9.856   2.053  1.00 20.00     0.018 A 
HETATM    5  C3  UNL     1     -33.557   9.068   1.290  1.00 20.00     0.018 A 
HETATM    6  C5  UNL     1     -31.267   8.564   0.219  1.00 20.00     0.023 C 
ENDBRANCH   1   3
BRANCH   1   7
HETATM    7  C9  UNL     1     -33.187   7.014   3.188  1.00 20.00     0.080 C 
BRANCH   7   8
HETATM    8  C10 UNL     1     -32.925   5.807   4.093  1.00 20.00     0.015 C 
BRANCH   8   9
HETATM    9  C11 UNL     1     -34.139   5.310   4.921  1.00 20.00    -0.051 C 
HETATM   10  C6  UNL     1     -34.565   6.441   5.877  1.00 20.00     0.014 C 
HETATM   11  C7  UNL     1     -33.772   4.075   5.760  1.00 20.00     0.014 C 
HETATM   12  C8  UNL     1     -35.330   4.966   4.010  1.00 20.00     0.014 C 
ENDBRANCH   8   9
ENDBRANCH   7   8
ENDBRANCH   1   7
TORSDOF 4
