REMARK  6 active torsions:
REMARK  status: ('A' for Active; 'I' for Inactive)
REMARK    1  A    between atoms: C5_5  and  C10_10 
REMARK    2  A    between atoms: C6_6  and  C7_7 
REMARK    3  A    between atoms: C6_6  and  C10_10 
REMARK    4  A    between atoms: C7_7  and  C11_11 
REMARK    5  A    between atoms: C8_8  and  C9_9 
REMARK    6  A    between atoms: C8_8  and  C11_11 
ROOT
HETATM    1  C7  UNL     1     -33.223   5.697   2.954  1.00 20.00     0.020 C 
ENDROOT
BRANCH   1   2
HETATM    2  C6  UNL     1     -33.382   5.079   4.353  1.00 20.00     0.005 C 
BRANCH   2   3
HETATM    3  C10 UNL     1     -34.672   5.530   5.069  1.00 20.00    -0.019 C 
HETATM    4  C4  UNL     1     -34.798   4.916   6.467  1.00 20.00     0.010 C 
BRANCH   3   5
HETATM    5  C5  UNL     1     -35.925   5.246   4.214  1.00 20.00    -0.000 C 
HETATM    6  C1  UNL     1     -37.244   5.714   4.814  1.00 20.00     0.005 C 
ENDBRANCH   3   5
ENDBRANCH   2   3
ENDBRANCH   1   2
BRANCH   1   7
HETATM    7  C11 UNL     1     -33.194   7.235   2.965  1.00 20.00     0.082 C 
HETATM    8 CL12 UNL     1     -31.890   7.829   4.053  1.00 20.00    -0.125 Cl
BRANCH   7   9
HETATM    9  C8  UNL     1     -32.954   7.848   1.574  1.00 20.00     0.024 C 
BRANCH   9  10
HETATM   10  C9  UNL     1     -32.859   9.386   1.523  1.00 20.00    -0.021 C 
HETATM   11  C2  UNL     1     -34.132  10.069   2.023  1.00 20.00     0.009 C 
HETATM   12  C3  UNL     1     -32.561   9.836   0.089  1.00 20.00     0.009 C 
ENDBRANCH   9  10
ENDBRANCH   7   9
ENDBRANCH   1   7
TORSDOF 6
