REMARK  3 active torsions:
REMARK  status: ('A' for Active; 'I' for Inactive)
REMARK    1  A    between atoms: C5_5  and  C8_8 
REMARK    2  A    between atoms: C6_6  and  C8_8 
REMARK    3  A    between atoms: C8_8  and  O9_9 
ROOT
HETATM    1  C8  UNL     1     -33.270   5.619   5.030  1.00 20.00     0.130 C 
ENDROOT
BRANCH   1   2
HETATM    2  C5  UNL     1     -32.654   5.950   3.672  1.00 20.00     0.015 A 
HETATM    3  C1  UNL     1     -33.201   7.082   2.848  1.00 20.00     0.007 A 
HETATM    4  C2  UNL     1     -31.849   7.207   3.492  1.00 20.00     0.007 A 
ENDBRANCH   1   2
BRANCH   1   5
HETATM    5  C6  UNL     1     -34.565   4.864   4.906  1.00 20.00    -0.018 A 
HETATM    6  C3  UNL     1     -35.300   4.505   6.176  1.00 20.00     0.012 A 
HETATM    7  C4  UNL     1     -34.600   3.433   5.390  1.00 20.00     0.012 A 
HETATM    8  C7  UNL     1     -35.382   5.219   3.694  1.00 20.00     0.018 C 
ENDBRANCH   1   5
BRANCH   1   9
HETATM    9  O9  UNL     1     -33.487   6.840   5.741  1.00 20.00    -0.394 OA
HETATM   10  H23 UNL     1     -33.876   6.592   6.593  1.00 20.00     0.210 HD
ENDBRANCH   1   9
TORSDOF 3
