REMARK  3 active torsions:
REMARK  status: ('A' for Active; 'I' for Inactive)
REMARK    1  A    between atoms: C5_5  and  C8_8 
REMARK    2  A    between atoms: C7_7  and  C8_8 
REMARK    3  A    between atoms: C8_8  and  O9_9 
ROOT
HETATM    1  C1  UNL     1     -32.621   8.601   1.839  1.00 20.00     0.012 C 
HETATM    2  C2  UNL     1     -32.702   7.899   2.810  1.00 20.00    -0.115 C 
HETATM    3  C7  UNL     1     -32.797   7.040   4.001  1.00 20.00     0.125 C 
ENDROOT
BRANCH   3   4
HETATM    4  C8  UNL     1     -34.149   6.312   4.082  1.00 20.00     0.137 C 
BRANCH   4   5
HETATM    5  C5  UNL     1     -34.412   5.772   5.460  1.00 20.00    -0.017 A 
HETATM    6  C3  UNL     1     -33.885   4.396   5.794  1.00 20.00     0.012 A 
HETATM    7  C4  UNL     1     -35.359   4.602   5.594  1.00 20.00     0.012 A 
HETATM    8  C6  UNL     1     -34.414   6.809   6.549  1.00 20.00     0.018 C 
ENDBRANCH   4   5
BRANCH   4   9
HETATM    9  O9  UNL     1     -34.127   5.228   3.145  1.00 20.00    -0.394 OA
HETATM   10  H21 UNL     1     -33.956   5.626   2.279  1.00 20.00     0.210 HD
ENDBRANCH   4   9
ENDBRANCH   3   4
TORSDOF 3
