REMARK  2 active torsions:
REMARK  status: ('A' for Active; 'I' for Inactive)
REMARK    1  A    between atoms: C6_6  and  C8_8 
REMARK    2  A    between atoms: C7_7  and  C9_9 
ROOT
HETATM    1  C4  UNL     1     -35.326   4.771   6.106  1.00 20.00     0.034 C 
HETATM    2  C5  UNL     1     -35.145   3.948   4.850  1.00 20.00     0.168 C 
HETATM    3  C7  UNL     1     -34.168   5.742   6.002  1.00 20.00     0.031 C 
HETATM    4  C8  UNL     1     -34.140   6.026   4.502  1.00 20.00     0.130 C 
HETATM    5  O10 UNL     1     -34.632   4.839   3.851  1.00 20.00    -0.385 OA
ENDROOT
BRANCH   4   6
HETATM    6  C6  UNL     1     -32.732   6.310   4.004  1.00 20.00     0.015 C 
HETATM    7  C2  UNL     1     -32.229   7.771   4.138  1.00 20.00     0.007 C 
HETATM    8  C1  UNL     1     -31.510   7.569   2.788  1.00 20.00     0.001 C 
HETATM    9  C3  UNL     1     -32.559   6.483   2.473  1.00 20.00     0.007 C 
ENDBRANCH   4   6
BRANCH   3  10
HETATM   10  C9  UNL     1     -34.337   6.985   6.859  1.00 20.00     0.121 C 
HETATM   11 CL11 UNL     1     -32.764   7.756   7.146  1.00 20.00    -0.130 Cl
ENDBRANCH   3  10
TORSDOF 2
