REMARK  2 active torsions:
REMARK  status: ('A' for Active; 'I' for Inactive)
REMARK    1  A    between atoms: C6_6  and  C8_8 
REMARK    2  A    between atoms: C7_7  and  C9_9 
ROOT
HETATM    1  C4  UNL     1     -35.202   4.305   5.951  1.00 20.00     0.034 C 
HETATM    2  C5  UNL     1     -34.900   5.480   6.861  1.00 20.00     0.168 C 
HETATM    3  C7  UNL     1     -34.894   4.858   4.571  1.00 20.00     0.031 C 
HETATM    4  C8  UNL     1     -33.681   5.732   4.891  1.00 20.00     0.130 C 
HETATM    5  O10 UNL     1     -33.901   6.273   6.206  1.00 20.00    -0.385 OA
ENDROOT
BRANCH   4   6
HETATM    6  C6  UNL     1     -33.429   6.861   3.910  1.00 20.00     0.015 C 
HETATM    7  C2  UNL     1     -33.100   6.453   2.450  1.00 20.00     0.007 C 
HETATM    8  C1  UNL     1     -32.119   7.644   2.417  1.00 20.00     0.001 C 
HETATM    9  C3  UNL     1     -32.025   7.517   3.952  1.00 20.00     0.007 C 
ENDBRANCH   4   6
BRANCH   3  10
HETATM   10  C9  UNL     1     -36.103   5.606   4.004  1.00 20.00     0.121 C 
HETATM   11 CL11 UNL     1     -37.278   4.460   3.329  1.00 20.00    -0.130 Cl
ENDBRANCH   3  10
TORSDOF 2
