REMARK  3 active torsions:
REMARK  status: ('A' for Active; 'I' for Inactive)
REMARK    1  A    between atoms: C1_1  and  C7_7 
REMARK    2  A    between atoms: C2_2  and  C3_3 
REMARK    3  A    between atoms: C3_3  and  C10_10 
ROOT
HETATM    1  C1  UNL     1     -32.405   7.105   3.691  1.00 20.00    -0.012 C 
HETATM    2  C3  UNL     1     -33.395   6.353   4.207  1.00 20.00    -0.020 C 
ENDROOT
BRANCH   2   3
HETATM    3  C2  UNL     1     -33.463   6.384   5.697  1.00 20.00     0.265 C 
HETATM    4  O11 UNL     1     -34.291   5.768   6.356  1.00 20.00    -0.302 OA
ENDBRANCH   2   3
BRANCH   2   5
HETATM    5  C10 UNL     1     -34.391   5.523   3.420  1.00 20.00     0.013 C 
HETATM    6  C8  UNL     1     -35.830   6.010   3.612  1.00 20.00     0.015 C 
HETATM    7  C9  UNL     1     -34.268   4.028   3.724  1.00 20.00     0.015 C 
ENDBRANCH   2   5
BRANCH   1   8
HETATM    8  C7  UNL     1     -32.167   7.210   2.241  1.00 20.00     0.009 C 
HETATM    9  C5  UNL     1     -33.233   8.002   1.441  1.00 20.00     0.008 C 
HETATM   10  C4  UNL     1     -32.073   8.555   0.587  1.00 20.00     0.001 C 
HETATM   11  C6  UNL     1     -31.158   8.302   1.803  1.00 20.00     0.008 C 
ENDBRANCH   1   8
TORSDOF 3
