REMARK  1 active torsions:
REMARK  status: ('A' for Active; 'I' for Inactive)
REMARK    1  A    between atoms: C8_8  and  C9_9 
ROOT
HETATM    1  C1  UNL     1     -35.138   4.896   5.152  1.00 20.00     0.074 C 
HETATM    2  C2  UNL     1     -35.323   4.736   3.838  1.00 20.00     0.139 C 
HETATM    3  C3  UNL     1     -34.065   5.814   5.590  1.00 20.00     0.153 C 
HETATM    4  C4  UNL     1     -33.353   6.585   4.509  1.00 20.00     0.116 C 
HETATM    5  C9  UNL     1     -33.269   5.715   3.258  1.00 20.00     0.139 C 
HETATM    6  O10 UNL     1     -33.832   5.980   6.784  1.00 20.00    -0.293 OA
HETATM    7  O11 UNL     1     -34.563   5.268   2.829  1.00 20.00    -0.357 OA
ENDROOT
BRANCH   5   8
HETATM    8  C8  UNL     1     -32.654   6.506   2.122  1.00 20.00     0.015 C 
HETATM    9  C6  UNL     1     -31.325   7.243   2.428  1.00 20.00     0.007 C 
HETATM   10  C5  UNL     1     -31.832   8.381   1.518  1.00 20.00     0.001 C 
HETATM   11  C7  UNL     1     -33.264   7.903   1.839  1.00 20.00     0.007 C 
ENDBRANCH   5   8
TORSDOF 1
