REMARK  2 active torsions:
REMARK  status: ('A' for Active; 'I' for Inactive)
REMARK    1  A    between atoms: C1_1  and  C3_3 
REMARK       I    between atoms: C3_3  and  N7_7 
REMARK    2  A    between atoms: N7_7  and  O9_9 
ROOT
HETATM    1  C3  UNL     1     -33.188   6.653   3.845  1.00 20.00     0.266 C 
HETATM    2  C5  UNL     1     -35.171   5.384   3.016  1.00 20.00     0.189 C 
HETATM    3  N7  UNL     1     -34.327   5.916   4.072  1.00 20.00    -0.228 N 
HETATM    4  O8  UNL     1     -32.480   7.098   4.750  1.00 20.00    -0.266 OA
ENDROOT
BRANCH   1   5
HETATM    5  C1  UNL     1     -32.836   6.903   2.416  1.00 20.00     0.072 C 
HETATM    6  C2  UNL     1     -32.180   8.019   2.067  1.00 20.00    -0.025 C 
HETATM    7  C4  UNL     1     -31.792   8.339   0.660  1.00 20.00     0.036 C 
ENDBRANCH   1   5
BRANCH   3   8
HETATM    8  O9  UNL     1     -34.809   5.590   5.353  1.00 20.00    -0.281 OA
HETATM    9  C6  UNL     1     -34.237   4.350   5.761  1.00 20.00     0.238 C 
ENDBRANCH   3   8
TORSDOF 2
