REMARK  1 active torsions:
REMARK  status: ('A' for Active; 'I' for Inactive)
REMARK    1  A    between atoms: C3_3  and  C7_7 
ROOT
HETATM    1  C1  UNL     1     -32.367   7.075   2.923  1.00 20.00     0.087 C 
HETATM    2  C2  UNL     1     -33.160   6.121   3.617  1.00 20.00     0.090 C 
HETATM    3  C3  UNL     1     -34.404   6.405   4.023  1.00 20.00    -0.011 C 
HETATM    4  N8  UNL     1     -31.717   7.850   2.356  1.00 20.00    -0.192 NA
ENDROOT
BRANCH   3   5
HETATM    5  C7  UNL     1     -35.269   5.447   4.748  1.00 20.00     0.009 C 
HETATM    6  C5  UNL     1     -34.869   3.956   4.613  1.00 20.00     0.008 C 
HETATM    7  C4  UNL     1     -34.089   4.094   5.935  1.00 20.00     0.001 C 
HETATM    8  C6  UNL     1     -34.980   5.307   6.264  1.00 20.00     0.008 C 
ENDBRANCH   3   5
TORSDOF 1
