REMARK  3 active torsions:
REMARK  status: ('A' for Active; 'I' for Inactive)
REMARK    1  A    between atoms: C1_1  and  C6_6 
REMARK    2  A    between atoms: C2_2  and  C8_8 
REMARK    3  A    between atoms: C2_2  and  C9_9 
ROOT
HETATM    1  C1  UNL     1     -33.652   6.927   3.355  1.00 20.00    -0.018 C 
HETATM    2  C2  UNL     1     -32.581   7.703   3.102  1.00 20.00    -0.070 C 
ENDROOT
BRANCH   1   3
HETATM    3  C6  UNL     1     -33.673   5.923   4.432  1.00 20.00     0.008 C 
HETATM    4  C4  UNL     1     -34.397   6.348   5.735  1.00 20.00     0.008 C 
HETATM    5  C3  UNL     1     -34.916   4.898   5.832  1.00 20.00     0.001 C 
HETATM    6  C5  UNL     1     -34.753   4.818   4.300  1.00 20.00     0.008 C 
ENDBRANCH   1   3
BRANCH   2   7
HETATM    7  C8  UNL     1     -31.333   7.551   3.950  1.00 20.00     0.030 C 
HETATM    8  C7  UNL     1     -31.341   8.461   5.171  1.00 20.00     0.010 C 
ENDBRANCH   2   7
BRANCH   2   9
HETATM    9  C9  UNL     1     -32.528   8.743   2.013  1.00 20.00     0.148 C 
HETATM   10 CL10 UNL     1     -31.225   8.371   0.860  1.00 20.00    -0.126 Cl
ENDBRANCH   2   9
TORSDOF 3
