REMARK  3 active torsions:
REMARK  status: ('A' for Active; 'I' for Inactive)
REMARK    1  A    between atoms: C3_3  and  C7_7 
REMARK    2  A    between atoms: C6_6  and  C7_7 
REMARK    3  A    between atoms: C7_7  and  O8_8 
ROOT
HETATM    1  C7  UNL     1     -34.416   4.605   4.995  1.00 20.00     0.126 C 
ENDROOT
BRANCH   1   2
HETATM    2  C3  UNL     1     -34.779   5.251   3.686  1.00 20.00    -0.018 A 
HETATM    3  C1  UNL     1     -34.049   4.795   2.444  1.00 20.00     0.012 A 
HETATM    4  C2  UNL     1     -33.753   6.146   3.030  1.00 20.00     0.012 A 
HETATM    5  C4  UNL     1     -36.229   5.625   3.554  1.00 20.00     0.018 C 
ENDBRANCH   1   2
BRANCH   1   6
HETATM    6  C6  UNL     1     -34.656   5.547   6.185  1.00 20.00     0.028 C 
HETATM    7  C5  UNL     1     -33.794   6.802   6.131  1.00 20.00     0.007 C 
ENDBRANCH   1   6
BRANCH   1   8
HETATM    8  O8  UNL     1     -35.208   3.428   5.183  1.00 20.00    -0.395 OA
HETATM    9  H22 UNL     1     -36.131   3.719   5.184  1.00 20.00     0.210 HD
ENDBRANCH   1   8
TORSDOF 3
