REMARK  3 active torsions:
REMARK  status: ('A' for Active; 'I' for Inactive)
REMARK    1  A    between atoms: C1_1  and  C7_7 
REMARK    2  A    between atoms: C2_2  and  C3_3 
REMARK    3  A    between atoms: C3_3  and  C9_9 
ROOT
HETATM    1  C1  UNL     1     -33.291   7.650   3.611  1.00 20.00    -0.012 C 
HETATM    2  C3  UNL     1     -33.810   6.504   4.086  1.00 20.00    -0.024 C 
ENDROOT
BRANCH   1   3
HETATM    3  C7  UNL     1     -33.150   8.040   2.197  1.00 20.00     0.009 C 
HETATM    4  C5  UNL     1     -32.971   9.556   1.932  1.00 20.00     0.008 C 
HETATM    5  C4  UNL     1     -31.983   9.168   0.811  1.00 20.00     0.001 C 
HETATM    6  C6  UNL     1     -31.736   7.858   1.588  1.00 20.00     0.008 C 
ENDBRANCH   1   3
BRANCH   2   7
HETATM    7  C2  UNL     1     -33.828   6.351   5.566  1.00 20.00     0.265 C 
HETATM    8  O10 UNL     1     -34.270   5.358   6.131  1.00 20.00    -0.302 OA
ENDBRANCH   2   7
BRANCH   2   9
HETATM    9  C9  UNL     1     -34.329   5.369   3.247  1.00 20.00     0.037 C 
HETATM   10  C8  UNL     1     -35.811   5.520   2.933  1.00 20.00     0.010 C 
ENDBRANCH   2   9
TORSDOF 3
