REMARK  4 active torsions:
REMARK  status: ('A' for Active; 'I' for Inactive)
REMARK    1  A    between atoms: C3_3  and  C7_7 
REMARK    2  A    between atoms: C6_6  and  C7_7 
REMARK    3  A    between atoms: C6_6  and  O9_9 
REMARK    4  A    between atoms: C7_7  and  C8_8 
ROOT
HETATM    1  C7  UNL     1     -33.215   6.189   4.550  1.00 20.00     0.032 C 
ENDROOT
BRANCH   1   2
HETATM    2  C3  UNL     1     -33.919   6.904   5.685  1.00 20.00    -0.007 A 
HETATM    3  C1  UNL     1     -34.402   6.133   6.883  1.00 20.00     0.005 A 
HETATM    4  C2  UNL     1     -33.235   7.071   7.014  1.00 20.00     0.005 A 
ENDBRANCH   1   2
BRANCH   1   5
HETATM    5  C6  UNL     1     -32.324   7.169   3.769  1.00 20.00     0.173 C 
BRANCH   5   6
HETATM    6  O9  UNL     1     -33.127   7.928   2.870  1.00 20.00    -0.396 OA
HETATM    7  C5  UNL     1     -32.337   8.816   2.092  1.00 20.00     0.201 C 
ENDBRANCH   5   6
ENDBRANCH   1   5
BRANCH   1   8
HETATM    8  C8  UNL     1     -34.181   5.439   3.600  1.00 20.00     0.084 C 
HETATM    9  C4  UNL     1     -33.476   4.730   2.447  1.00 20.00     0.027 C 
HETATM   10 CL10 UNL     1     -35.213   4.260   4.470  1.00 20.00    -0.125 Cl
ENDBRANCH   1   8
TORSDOF 4
