REMARK  4 active torsions:
REMARK  status: ('A' for Active; 'I' for Inactive)
REMARK    1  A    between atoms: C2_2  and  C8_8 
REMARK    2  A    between atoms: C3_3  and  C8_8 
REMARK    3  A    between atoms: C3_3  and  C9_9 
REMARK    4  A    between atoms: C6_6  and  C9_9 
ROOT
HETATM    1  C1  UNL     1     -32.253   8.501   1.327  1.00 20.00    -0.111 C 
HETATM    2  C2  UNL     1     -31.904   7.945   2.333  1.00 20.00    -0.100 C 
HETATM    3  C7  UNL     1     -32.680   9.178   0.103  1.00 20.00     0.112 C 
ENDROOT
BRANCH   2   4
HETATM    4  C8  UNL     1     -31.471   7.266   3.559  1.00 20.00     0.172 C 
BRANCH   4   5
HETATM    5  C3  UNL     1     -32.634   6.878   4.453  1.00 20.00     0.138 C 
HETATM    6  O10 UNL     1     -33.059   7.614   5.343  1.00 20.00    -0.297 OA
BRANCH   5   7
HETATM    7  C9  UNL     1     -33.243   5.515   4.176  1.00 20.00     0.083 C 
BRANCH   7   8
HETATM    8  C6  UNL     1     -34.366   5.156   5.099  1.00 20.00    -0.007 A 
HETATM    9  C4  UNL     1     -34.780   3.720   5.265  1.00 20.00     0.005 A 
HETATM   10  C5  UNL     1     -34.084   4.437   6.389  1.00 20.00     0.005 A 
ENDBRANCH   7   8
ENDBRANCH   5   7
ENDBRANCH   4   5
ENDBRANCH   2   4
TORSDOF 4
