REMARK  3 active torsions:
REMARK  status: ('A' for Active; 'I' for Inactive)
REMARK    1  A    between atoms: C3_3  and  C7_7 
REMARK    2  A    between atoms: C3_3  and  C8_8 
REMARK    3  A    between atoms: C6_6  and  C8_8 
ROOT
HETATM    1  C1  UNL     1     -32.465   9.064   2.125  1.00 20.00     0.012 C 
HETATM    2  C2  UNL     1     -32.330   7.891   2.341  1.00 20.00    -0.110 C 
HETATM    3  C7  UNL     1     -32.158   6.457   2.602  1.00 20.00     0.171 C 
ENDROOT
BRANCH   3   4
HETATM    4  C3  UNL     1     -33.433   5.796   3.092  1.00 20.00     0.138 C 
HETATM    5  O9  UNL     1     -34.245   5.276   2.327  1.00 20.00    -0.297 OA
BRANCH   4   6
HETATM    6  C8  UNL     1     -33.645   5.819   4.596  1.00 20.00     0.083 C 
BRANCH   6   7
HETATM    7  C6  UNL     1     -34.927   5.186   5.035  1.00 20.00    -0.007 A 
HETATM    8  C4  UNL     1     -34.978   3.717   5.352  1.00 20.00     0.005 A 
HETATM    9  C5  UNL     1     -35.097   4.729   6.457  1.00 20.00     0.005 A 
ENDBRANCH   6   7
ENDBRANCH   4   6
ENDBRANCH   3   4
TORSDOF 3
