REMARK  2 active torsions:
REMARK  status: ('A' for Active; 'I' for Inactive)
REMARK    1  A    between atoms: C7_7  and  C9_9 
REMARK    2  A    between atoms: C9_9  and  O11_11 
ROOT
HETATM    1  C1  UNL     1     -35.169   3.765   6.334  1.00 20.00     0.010 A 
HETATM    2  C2  UNL     1     -34.124   6.171   6.367  1.00 20.00     0.012 C 
HETATM    3  C3  UNL     1     -35.077   5.377   4.267  1.00 20.00     0.012 C 
HETATM    4  C5  UNL     1     -33.974   4.676   6.318  1.00 20.00    -0.010 A 
HETATM    5  C6  UNL     1     -34.559   4.189   5.028  1.00 20.00    -0.010 A 
HETATM    6  C7  UNL     1     -34.356   6.585   4.900  1.00 20.00     0.021 C 
ENDROOT
BRANCH   6   7
HETATM    7  C9  UNL     1     -33.056   6.884   4.197  1.00 20.00     0.065 A 
HETATM    8  C4  UNL     1     -32.313   5.770   3.522  1.00 20.00     0.045 A 
HETATM    9  C8  UNL     1     -32.999   6.829   2.698  1.00 20.00     0.019 A 
HETATM   10  C10 UNL     1     -32.191   7.812   1.921  1.00 20.00     0.013 C 
BRANCH   7  11
HETATM   11  O11 UNL     1     -32.266   7.870   4.871  1.00 20.00    -0.389 OA
HETATM   12  H27 UNL     1     -32.892   8.506   5.246  1.00 20.00     0.210 HD
ENDBRANCH   7  11
ENDBRANCH   6   7
TORSDOF 2
