REMARK  3 active torsions:
REMARK  status: ('A' for Active; 'I' for Inactive)
REMARK    1  A    between atoms: C1_1  and  C4_4 
REMARK    2  A    between atoms: C1_1  and  C7_7 
REMARK    3  A    between atoms: C7_7  and  O9_9 
ROOT
HETATM    1  C1  UNL     1     -34.849   5.988   4.005  1.00 20.00     0.158 C 
HETATM    2  O8  UNL     1     -35.711   5.342   3.410  1.00 20.00    -0.295 OA
ENDROOT
BRANCH   1   3
HETATM    3  C4  UNL     1     -34.491   5.683   5.411  1.00 20.00     0.019 A 
HETATM    4  C2  UNL     1     -33.961   4.293   5.698  1.00 20.00     0.018 A 
HETATM    5  C3  UNL     1     -35.347   4.662   6.131  1.00 20.00     0.018 A 
HETATM    6  C5  UNL     1     -33.932   6.814   6.237  1.00 20.00     0.023 C 
ENDBRANCH   1   3
BRANCH   1   7
HETATM    7  C7  UNL     1     -34.098   7.130   3.354  1.00 20.00     0.246 C 
BRANCH   7   8
HETATM    8  O9  UNL     1     -32.712   6.862   3.323  1.00 20.00    -0.389 OA
HETATM    9  C6  UNL     1     -31.980   7.922   2.715  1.00 20.00     0.202 C 
ENDBRANCH   7   8
ENDBRANCH   1   7
TORSDOF 3
