REMARK  5 active torsions:
REMARK  status: ('A' for Active; 'I' for Inactive)
REMARK    1  A    between atoms: C3_3  and  C9_9 
REMARK    2  A    between atoms: C7_7  and  C10_10 
REMARK    3  A    between atoms: C8_8  and  C10_10 
REMARK    4  A    between atoms: C9_9  and  C10_10 
REMARK    5  A    between atoms: C9_9  and  O11_11 
ROOT
HETATM    1  C9  UNL     1     -33.675   6.998   4.891  1.00 20.00     0.130 C 
ENDROOT
BRANCH   1   2
HETATM    2  C3  UNL     1     -32.844   6.972   3.612  1.00 20.00    -0.018 A 
HETATM    3  C1  UNL     1     -31.570   6.160   3.612  1.00 20.00     0.012 A 
HETATM    4  C2  UNL     1     -31.499   7.660   3.628  1.00 20.00     0.012 A 
HETATM    5  C4  UNL     1     -33.648   7.023   2.342  1.00 20.00     0.018 C 
ENDBRANCH   1   2
BRANCH   1   6
HETATM    6  C10 UNL     1     -34.096   5.594   5.396  1.00 20.00     0.014 C 
BRANCH   6   7
HETATM    7  C7  UNL     1     -34.904   4.786   4.356  1.00 20.00     0.002 C 
HETATM    8  C5  UNL     1     -36.232   5.409   3.948  1.00 20.00     0.005 C 
ENDBRANCH   6   7
BRANCH   6   9
HETATM    9  C8  UNL     1     -34.821   5.721   6.760  1.00 20.00     0.002 C 
HETATM   10  C6  UNL     1     -35.184   4.388   7.401  1.00 20.00     0.005 C 
ENDBRANCH   6   9
ENDBRANCH   1   6
BRANCH   1  11
HETATM   11  O11 UNL     1     -32.887   7.629   5.905  1.00 20.00    -0.394 OA
HETATM   12  H31 UNL     1     -32.089   7.089   6.003  1.00 20.00     0.210 HD
ENDBRANCH   1  11
TORSDOF 5
