REMARK  3 active torsions:
REMARK  status: ('A' for Active; 'I' for Inactive)
REMARK    1  A    between atoms: C3_3  and  C8_8 
REMARK    2  A    between atoms: C8_8  and  C9_9 
REMARK    3  A    between atoms: C8_8  and  O10_10 
ROOT
HETATM    1  C8  UNL     1     -33.817   5.353   3.719  1.00 20.00     0.133 C 
ENDROOT
BRANCH   1   2
HETATM    2  C3  UNL     1     -35.060   5.038   4.548  1.00 20.00    -0.017 A 
HETATM    3  C1  UNL     1     -34.922   5.021   6.053  1.00 20.00     0.012 A 
HETATM    4  C2  UNL     1     -35.093   3.730   5.304  1.00 20.00     0.012 A 
HETATM    5  C4  UNL     1     -36.348   5.548   3.964  1.00 20.00     0.018 C 
ENDBRANCH   1   2
BRANCH   1   6
HETATM    6  C9  UNL     1     -33.190   6.760   3.954  1.00 20.00    -0.025 C 
HETATM    7  C5  UNL     1     -31.964   6.964   3.044  1.00 20.00     0.017 C 
HETATM    8  C6  UNL     1     -34.233   7.844   3.607  1.00 20.00     0.017 C 
HETATM    9  C7  UNL     1     -32.758   6.970   5.418  1.00 20.00     0.017 C 
ENDBRANCH   1   6
BRANCH   1  10
HETATM   10  O10 UNL     1     -34.151   5.174   2.340  1.00 20.00    -0.394 OA
HETATM   11  H28 UNL     1     -34.873   5.792   2.153  1.00 20.00     0.210 HD
ENDBRANCH   1  10
TORSDOF 3
