REMARK  2 active torsions:
REMARK  status: ('A' for Active; 'I' for Inactive)
REMARK    1  A    between atoms: C1_1  and  C5_5 
REMARK    2  A    between atoms: C1_1  and  C8_8 
ROOT
HETATM    1  C2  UNL     1     -33.623   5.417   2.919  1.00 20.00     0.017 C 
HETATM    2  C3  UNL     1     -34.135   6.904   4.790  1.00 20.00     0.017 C 
HETATM    3  C4  UNL     1     -35.972   5.166   4.071  1.00 20.00     0.010 A 
HETATM    4  C5  UNL     1     -33.715   6.902   3.309  1.00 20.00     0.057 C 
HETATM    5  C6  UNL     1     -34.556   4.704   3.853  1.00 20.00    -0.009 A 
HETATM    6  C7  UNL     1     -34.868   5.611   4.994  1.00 20.00    -0.009 A 
ENDROOT
BRANCH   4   7
HETATM    7  C1  UNL     1     -32.419   7.617   3.096  1.00 20.00     0.144 C 
HETATM    8  O9  UNL     1     -31.573   7.659   3.988  1.00 20.00    -0.296 OA
BRANCH   7   9
HETATM    9  C8  UNL     1     -32.241   8.263   1.741  1.00 20.00     0.193 C 
HETATM   10 CL10 UNL     1     -32.858   9.922   1.753  1.00 20.00    -0.123 Cl
ENDBRANCH   7   9
ENDBRANCH   4   7
TORSDOF 2
