REMARK  4 active torsions:
REMARK  status: ('A' for Active; 'I' for Inactive)
REMARK    1  A    between atoms: C5_5  and  C8_8 
REMARK    2  A    between atoms: C6_6  and  C8_8 
REMARK    3  A    between atoms: C7_7  and  C8_8 
REMARK    4  A    between atoms: C8_8  and  N9_9 
ROOT
HETATM    1  C8  UNL     1     -34.777   5.778   4.204  1.00 20.00     0.217 C 
ENDROOT
BRANCH   1   2
HETATM    2  C5  UNL     1     -35.801   5.455   3.076  1.00 20.00     0.043 C 
HETATM    3  C1  UNL     1     -37.255   5.815   3.364  1.00 20.00     0.008 C 
ENDBRANCH   1   2
BRANCH   1   4
HETATM    4  C6  UNL     1     -35.095   5.031   5.548  1.00 20.00     0.021 C 
HETATM    5  C2  UNL     1     -34.131   5.360   6.696  1.00 20.00     0.012 C 
HETATM    6  C3  UNL     1     -35.163   3.500   5.402  1.00 20.00     0.012 C 
ENDBRANCH   1   4
BRANCH   1   7
HETATM    7  C7  UNL     1     -33.361   5.473   3.677  1.00 20.00     0.391 C 
HETATM    8  F10 UNL     1     -33.305   5.683   2.334  1.00 20.00    -0.212 F 
HETATM    9  F11 UNL     1     -32.453   6.320   4.224  1.00 20.00    -0.212 F 
ENDBRANCH   1   7
BRANCH   1  10
HETATM   10  N9  UNL     1     -34.807   7.231   4.463  1.00 20.00     0.094 N 
HETATM   11  C4  UNL     1     -34.452   7.961   3.261  1.00 20.00     0.307 C 
HETATM   12  H28 UNL     1     -34.144   7.434   5.202  1.00 20.00     0.316 HD
ENDBRANCH   1  10
TORSDOF 4
