REMARK  2 active torsions:
REMARK  status: ('A' for Active; 'I' for Inactive)
REMARK    1  A    between atoms: C5_5  and  C8_8 
REMARK    2  A    between atoms: C5_5  and  O9_9 
ROOT
HETATM    1  C1  UNL     1     -35.798   5.587   3.151  1.00 20.00     0.004 C 
HETATM    2  C2  UNL     1     -35.754   6.104   4.591  1.00 20.00     0.012 C 
HETATM    3  C3  UNL     1     -34.364   5.212   2.774  1.00 20.00     0.044 C 
HETATM    4  C4  UNL     1     -34.385   5.672   5.148  1.00 20.00    -0.011 C 
HETATM    5  C5  UNL     1     -33.474   5.776   3.891  1.00 20.00     0.123 C 
HETATM    6  C6  UNL     1     -34.470   4.226   5.688  1.00 20.00     0.018 C 
HETATM    7  C7  UNL     1     -33.953   6.576   6.311  1.00 20.00     0.018 C 
ENDROOT
BRANCH   5   8
HETATM    8  C8  UNL     1     -33.018   7.197   3.536  1.00 20.00     0.388 C 
HETATM    9  F10 UNL     1     -32.290   7.149   2.400  1.00 20.00    -0.211 F 
HETATM   10  F11 UNL     1     -32.211   7.653   4.517  1.00 20.00    -0.211 F 
ENDBRANCH   5   8
BRANCH   5  11
HETATM   11  O9  UNL     1     -32.308   4.970   4.012  1.00 20.00    -0.383 OA
HETATM   12  H25 UNL     1     -31.863   5.012   3.154  1.00 20.00     0.210 HD
ENDBRANCH   5  11
TORSDOF 2
