REMARK  1 active torsions:
REMARK  status: ('A' for Active; 'I' for Inactive)
REMARK    1  A    between atoms: C4_4  and  C7_7 
ROOT
HETATM    1  C1  UNL     1     -34.909   5.185   6.110  1.00 20.00     0.040 C 
HETATM    2  C2  UNL     1     -35.496   4.958   4.718  1.00 20.00     0.272 C 
HETATM    3  C3  UNL     1     -34.273   6.557   6.279  1.00 20.00     0.078 C 
HETATM    4  C4  UNL     1     -33.834   6.349   3.535  1.00 20.00     0.201 C 
HETATM    5  C5  UNL     1     -34.811   7.461   3.122  1.00 20.00     0.061 C 
HETATM    6  N8  UNL     1     -34.495   5.041   3.657  1.00 20.00     0.102 N 
HETATM    7  S9  UNL     1     -32.944   6.829   5.071  1.00 20.00    -0.128 SA
HETATM    8  H24 UNL     1     -33.790   4.319   3.813  1.00 20.00     0.317 HD
ENDROOT
BRANCH   4   9
HETATM    9  C7  UNL     1     -32.766   6.209   2.435  1.00 20.00     0.048 C 
HETATM   10  C6  UNL     1     -32.009   7.480   2.250  1.00 20.00     0.009 C 
ENDBRANCH   4   9
TORSDOF 1
