REMARK  2 active torsions:
REMARK  status: ('A' for Active; 'I' for Inactive)
REMARK    1  A    between atoms: C3_3  and  C7_7 
REMARK    2  A    between atoms: C3_3  and  C8_8 
ROOT
HETATM    1  C1  UNL     1     -32.204   5.951   3.205  1.00 20.00     0.286 C 
HETATM    2  C2  UNL     1     -32.498   7.445   3.104  1.00 20.00     0.074 C 
HETATM    3  C3  UNL     1     -34.087   6.004   4.656  1.00 20.00     0.205 C 
HETATM    4  C4  UNL     1     -32.380   7.974   1.685  1.00 20.00     0.023 C 
HETATM    5  N9  UNL     1     -32.717   5.492   4.498  1.00 20.00     0.104 N 
HETATM    6  S10 UNL     1     -34.192   7.582   3.734  1.00 20.00    -0.122 SA
HETATM    7  H27 UNL     1     -32.696   4.475   4.549  1.00 20.00     0.318 HD
ENDROOT
BRANCH   3   8
HETATM    8  C7  UNL     1     -35.120   5.020   4.096  1.00 20.00     0.048 C 
HETATM    9  C5  UNL     1     -35.068   3.709   4.805  1.00 20.00     0.009 C 
ENDBRANCH   3   8
BRANCH   3  10
HETATM   10  C8  UNL     1     -34.344   6.264   6.141  1.00 20.00     0.048 C 
HETATM   11  C6  UNL     1     -33.349   7.220   6.712  1.00 20.00     0.009 C 
ENDBRANCH   3  10
TORSDOF 2
