REMARK  1 active torsions:
REMARK  status: ('A' for Active; 'I' for Inactive)
REMARK    1  A    between atoms: C3_3  and  C8_8 
ROOT
HETATM    1  C1  UNL     1     -34.290   7.202   2.731  1.00 20.00     0.111 C 
HETATM    2  C2  UNL     1     -32.917   6.536   2.739  1.00 20.00     0.227 C 
HETATM    3  C3  UNL     1     -33.874   5.343   4.565  1.00 20.00     0.205 C 
HETATM    4  C4  UNL     1     -31.823   7.509   2.312  1.00 20.00     0.043 C 
HETATM    5  C5  UNL     1     -33.787   3.859   4.193  1.00 20.00     0.062 C 
HETATM    6  N9  UNL     1     -32.663   6.051   4.108  1.00 20.00     0.108 N 
HETATM    7  S10 UNL     1     -35.313   6.097   3.726  1.00 20.00    -0.126 SA
HETATM    8  H27 UNL     1     -31.849   5.439   4.125  1.00 20.00     0.318 HD
ENDROOT
BRANCH   3   9
HETATM    9  C8  UNL     1     -34.031   5.500   6.080  1.00 20.00     0.026 C 
HETATM   10  C6  UNL     1     -34.083   6.977   6.461  1.00 20.00     0.013 C 
HETATM   11  C7  UNL     1     -35.282   4.774   6.566  1.00 20.00     0.013 C 
ENDBRANCH   3   9
TORSDOF 1
