REMARK  3 active torsions:
REMARK  status: ('A' for Active; 'I' for Inactive)
REMARK    1  A    between atoms: C3_3  and  N7_7 
REMARK    2  A    between atoms: C4_4  and  C5_5 
REMARK    3  A    between atoms: C4_4  and  N7_7 
ROOT
HETATM    1  C1  UNL     1     -32.137   7.137   3.456  1.00 20.00     0.089 C 
HETATM    2  C3  UNL     1     -32.663   6.143   4.390  1.00 20.00     0.395 C 
HETATM    3  N6  UNL     1     -31.715   7.924   2.715  1.00 20.00    -0.195 NA
ENDROOT
BRANCH   2   4
HETATM    4  N7  UNL     1     -34.102   6.319   4.582  1.00 20.00     0.099 N 
HETATM    5  C2  UNL     1     -34.842   5.725   3.469  1.00 20.00     0.311 C 
BRANCH   4   6
HETATM    6  C4  UNL     1     -34.524   5.727   5.851  1.00 20.00     0.304 C 
BRANCH   6   7
HETATM    7  C5  UNL     1     -34.311   4.229   5.863  1.00 20.00     0.252 C 
HETATM    8  F8  UNL     1     -35.047   3.668   4.866  1.00 20.00    -0.254 F 
ENDBRANCH   6   7
ENDBRANCH   4   6
ENDBRANCH   2   4
TORSDOF 3
