REMARK  1 active torsions:
REMARK  status: ('A' for Active; 'I' for Inactive)
REMARK    1  A    between atoms: C5_5  and  C6_6 
ROOT
HETATM    1  C3  UNL     1     -34.539   5.346   6.289  1.00 20.00     0.282 C 
HETATM    2  C4  UNL     1     -34.196   3.884   6.056  1.00 20.00     0.106 C 
HETATM    3  C6  UNL     1     -34.369   5.437   3.922  1.00 20.00     0.208 C 
HETATM    4  C8  UNL     1     -35.722   5.952   3.421  1.00 20.00     0.062 C 
HETATM    5  N9  UNL     1     -33.995   6.128   5.171  1.00 20.00     0.104 N 
HETATM    6  S10 UNL     1     -34.497   3.649   4.292  1.00 20.00    -0.126 SA
HETATM    7  H25 UNL     1     -34.437   7.043   5.187  1.00 20.00     0.318 HD
ENDROOT
BRANCH   3   8
HETATM    8  C5  UNL     1     -33.291   5.658   2.858  1.00 20.00     0.001 A 
HETATM    9  C1  UNL     1     -32.527   6.962   2.884  1.00 20.00     0.013 A 
HETATM   10  C2  UNL     1     -31.848   5.690   3.307  1.00 20.00     0.013 A 
HETATM   11  C7  UNL     1     -33.599   5.048   1.518  1.00 20.00     0.019 C 
ENDBRANCH   3   8
TORSDOF 1
