REMARK  1 active torsions:
REMARK  status: ('A' for Active; 'I' for Inactive)
REMARK    1  A    between atoms: C3_3  and  C8_8 
ROOT
HETATM    1  C1  UNL     1     -32.425   8.148   1.328  1.00 20.00     0.021 C 
HETATM    2  C2  UNL     1     -32.473   7.372   2.243  1.00 20.00    -0.037 C 
HETATM    3  C3  UNL     1     -32.530   6.438   3.343  1.00 20.00     0.235 C 
HETATM    4  O10 UNL     1     -31.582   5.695   3.560  1.00 20.00    -0.280 OA
ENDROOT
BRANCH   3   5
HETATM    5  C8  UNL     1     -33.788   6.451   4.163  1.00 20.00     0.129 C 
HETATM    6  C6  UNL     1     -33.447   6.793   5.619  1.00 20.00     0.047 C 
HETATM    7  C4  UNL     1     -34.583   6.430   6.570  1.00 20.00     0.006 C 
HETATM    8  C5  UNL     1     -35.033   4.994   6.334  1.00 20.00     0.026 C 
HETATM    9  C7  UNL     1     -35.344   4.759   4.864  1.00 20.00     0.169 C 
HETATM   10  O11 UNL     1     -34.233   5.098   4.036  1.00 20.00    -0.372 OA
HETATM   11  C9  UNL     1     -34.773   7.432   3.527  1.00 20.00     0.055 C 
ENDBRANCH   3   5
TORSDOF 1
