REMARK  2 active torsions:
REMARK  status: ('A' for Active; 'I' for Inactive)
REMARK    1  A    between atoms: C5_5  and  C6_6 
REMARK    2  A    between atoms: C5_5  and  N7_7 
ROOT
HETATM    1  C1  UNL     1     -34.966   5.439   3.324  1.00 20.00     0.048 C 
HETATM    2  C2  UNL     1     -33.747   5.867   2.517  1.00 20.00     0.273 C 
HETATM    3  C3  UNL     1     -33.233   6.425   4.711  1.00 20.00     0.288 C 
HETATM    4  C4  UNL     1     -34.611   5.782   4.767  1.00 20.00     0.087 C 
HETATM    5  N7  UNL     1     -33.176   6.935   3.339  1.00 20.00     0.091 N 
HETATM    6 BR9  UNL     1     -34.588   4.198   5.889  1.00 20.00    -0.089 Br
ENDROOT
BRANCH   5   7
HETATM    7  C5  UNL     1     -31.823   7.284   2.931  1.00 20.00     0.303 C 
BRANCH   7   8
HETATM    8  C6  UNL     1     -31.824   8.170   1.704  1.00 20.00     0.252 C 
HETATM    9  F8  UNL     1     -32.515   9.309   1.981  1.00 20.00    -0.254 F 
ENDBRANCH   7   8
ENDBRANCH   5   7
TORSDOF 2
