REMARK  3 active torsions:
REMARK  status: ('A' for Active; 'I' for Inactive)
REMARK    1  A    between atoms: C2_2  and  C8_8 
REMARK    2  A    between atoms: C6_6  and  C8_8 
REMARK    3  A    between atoms: C8_8  and  N9_9 
ROOT
HETATM    1  C8  UNL     1     -33.444   6.295   3.509  1.00 20.00     0.255 C 
ENDROOT
BRANCH   1   2
HETATM    2  C2  UNL     1     -34.018   5.558   2.331  1.00 20.00    -0.001 C 
HETATM    3  C1  UNL     1     -33.888   4.240   2.139  1.00 20.00     0.009 C 
ENDBRANCH   1   2
BRANCH   1   4
HETATM    4  C6  UNL     1     -34.444   6.388   4.655  1.00 20.00     0.084 C 
HETATM    5  C4  UNL     1     -35.164   5.068   4.926  1.00 20.00     0.018 C 
HETATM    6  C3  UNL     1     -34.259   4.229   5.818  1.00 20.00     0.011 C 
HETATM    7  C5  UNL     1     -33.822   5.129   6.960  1.00 20.00     0.074 C 
HETATM    8  S10 UNL     1     -33.572   6.763   6.212  1.00 20.00    -0.162 SA
ENDBRANCH   1   4
BRANCH   1   9
HETATM    9  N9  UNL     1     -33.050   7.609   3.059  1.00 20.00     0.088 N 
HETATM   10  C7  UNL     1     -31.765   7.572   2.364  1.00 20.00     0.307 C 
HETATM   11  H25 UNL     1     -32.971   8.242   3.859  1.00 20.00     0.316 HD
ENDBRANCH   1   9
TORSDOF 3
