REMARK  2 active torsions:
REMARK  status: ('A' for Active; 'I' for Inactive)
REMARK    1  A    between atoms: C4_4  and  C10_10 
REMARK    2  A    between atoms: C10_10  and  C11_11 
ROOT
HETATM    1  C1  UNL     1     -31.424   6.894   3.851  1.00 20.00     0.007 C 
HETATM    2  C2  UNL     1     -31.133   8.192   3.103  1.00 20.00     0.009 C 
HETATM    3  C3  UNL     1     -33.446   7.450   2.736  1.00 20.00     0.015 C 
HETATM    4  C4  UNL     1     -32.929   6.937   4.079  1.00 20.00     0.005 C 
HETATM    5  C5  UNL     1     -32.418   8.519   2.303  1.00 20.00    -0.047 C 
HETATM    6  C6  UNL     1     -32.163   8.443   0.793  1.00 20.00     0.015 C 
HETATM    7  C7  UNL     1     -32.921   9.927   2.655  1.00 20.00     0.015 C 
ENDROOT
BRANCH   4   8
HETATM    8  C10 UNL     1     -33.513   5.590   4.470  1.00 20.00     0.089 C 
HETATM    9 CL12 UNL     1     -33.566   4.534   3.021  1.00 20.00    -0.124 Cl
BRANCH   8  10
HETATM   10  C11 UNL     1     -34.892   5.701   5.168  1.00 20.00    -0.004 C 
HETATM   11  C8  UNL     1     -36.061   5.947   4.209  1.00 20.00     0.011 C 
HETATM   12  C9  UNL     1     -35.189   4.478   6.043  1.00 20.00     0.011 C 
ENDBRANCH   8  10
ENDBRANCH   4   8
TORSDOF 2
