REMARK  2 active torsions:
REMARK  status: ('A' for Active; 'I' for Inactive)
REMARK    1  A    between atoms: C3_3  and  C8_8 
REMARK    2  A    between atoms: C3_3  and  C9_9 
ROOT
HETATM    1  C1  UNL     1     -31.515   8.779   0.766  1.00 20.00     0.012 C 
HETATM    2  C2  UNL     1     -31.684   7.905   1.572  1.00 20.00    -0.110 C 
HETATM    3  C9  UNL     1     -31.883   6.834   2.555  1.00 20.00     0.172 C 
ENDROOT
BRANCH   3   4
HETATM    4  C3  UNL     1     -33.290   6.815   3.118  1.00 20.00     0.151 C 
HETATM    5  O10 UNL     1     -34.167   7.600   2.761  1.00 20.00    -0.296 OA
BRANCH   4   6
HETATM    6  C8  UNL     1     -33.569   5.773   4.152  1.00 20.00     0.117 C 
HETATM    7  C6  UNL     1     -34.707   4.865   3.695  1.00 20.00     0.023 C 
HETATM    8  C4  UNL     1     -35.045   3.777   4.712  1.00 20.00     0.002 C 
HETATM    9  C5  UNL     1     -35.474   4.343   6.063  1.00 20.00     0.010 C 
HETATM   10  C7  UNL     1     -34.405   5.208   6.717  1.00 20.00     0.075 C 
HETATM   11  S11 UNL     1     -33.977   6.645   5.693  1.00 20.00    -0.157 SA
ENDBRANCH   4   6
ENDBRANCH   3   4
TORSDOF 2
