REMARK  1 active torsions:
REMARK  status: ('A' for Active; 'I' for Inactive)
REMARK    1  A    between atoms: C5_5  and  O9_9 
ROOT
HETATM    1  C1  UNL     1     -32.687   6.137   4.888  1.00 20.00     0.012 C 
HETATM    2  C2  UNL     1     -33.175   4.818   5.466  1.00 20.00     0.038 C 
HETATM    3  C3  UNL     1     -35.073   5.818   4.377  1.00 20.00     0.046 C 
HETATM    4  C4  UNL     1     -33.801   6.575   3.914  1.00 20.00    -0.045 C 
HETATM    5  C5  UNL     1     -34.678   5.028   5.633  1.00 20.00     0.055 C 
HETATM    6  C6  UNL     1     -33.442   6.169   2.476  1.00 20.00     0.015 C 
HETATM    7  C7  UNL     1     -34.004   8.093   3.966  1.00 20.00     0.015 C 
HETATM    8  C8  UNL     1     -35.033   5.777   6.917  1.00 20.00     0.045 C 
ENDROOT
BRANCH   5   9
HETATM    9  O9  UNL     1     -35.351   3.775   5.644  1.00 20.00    -0.390 OA
HETATM   10  H25 UNL     1     -36.294   3.971   5.752  1.00 20.00     0.210 HD
ENDBRANCH   5   9
TORSDOF 1
