REMARK  0 active torsions:
REMARK  status: ('A' for Active; 'I' for Inactive)
ROOT
HETATM    1  C1  UNL     1     -32.715   6.997   2.339  1.00 20.00     0.064 C 
HETATM    2  C2  UNL     1     -34.496   5.268   2.549  1.00 20.00     0.020 C 
HETATM    3  C3  UNL     1     -35.354   5.233   3.813  1.00 20.00     0.010 C 
HETATM    4  C4  UNL     1     -33.180   5.898   4.518  1.00 20.00     0.027 C 
HETATM    5  C5  UNL     1     -33.104   5.740   2.992  1.00 20.00     0.093 C 
HETATM    6  C6  UNL     1     -34.357   5.016   4.960  1.00 20.00    -0.046 C 
HETATM    7  C7  UNL     1     -34.936   5.476   6.300  1.00 20.00     0.015 C 
HETATM    8  C8  UNL     1     -33.939   3.541   5.070  1.00 20.00     0.015 C 
HETATM    9  N9  UNL     1     -32.408   7.990   1.824  1.00 20.00    -0.197 NA
ENDROOT
TORSDOF 0
