REMARK  0 active torsions:
REMARK  status: ('A' for Active; 'I' for Inactive)
ROOT
HETATM    1  C1  UNL     1     -34.296   5.715   2.999  1.00 20.00     0.016 C 
HETATM    2  C2  UNL     1     -35.046   5.030   4.138  1.00 20.00     0.010 C 
HETATM    3  C3  UNL     1     -33.030   6.173   4.956  1.00 20.00     0.024 C 
HETATM    4  C4  UNL     1     -33.552   6.837   3.693  1.00 20.00     0.058 C 
HETATM    5  C5  UNL     1     -34.189   5.256   5.410  1.00 20.00    -0.047 C 
HETATM    6  C6  UNL     1     -33.648   3.930   5.955  1.00 20.00     0.015 C 
HETATM    7  C7  UNL     1     -35.026   5.943   6.500  1.00 20.00     0.015 C 
HETATM    8 BR8  UNL     1     -32.114   7.520   2.599  1.00 20.00    -0.091 Br
ENDROOT
TORSDOF 0
