REMARK  3 active torsions:
REMARK  status: ('A' for Active; 'I' for Inactive)
REMARK    1  A    between atoms: C2_2  and  C8_8 
REMARK    2  A    between atoms: C6_6  and  N9_9 
REMARK    3  A    between atoms: C8_8  and  N9_9 
ROOT
HETATM    1  N9  UNL     1     -33.691   6.837   2.632  1.00 20.00     0.094 N 
HETATM    2  H25 UNL     1     -33.859   6.390   1.729  1.00 20.00     0.316 HD
ENDROOT
BRANCH   1   3
HETATM    3  C6  UNL     1     -33.856   5.863   3.695  1.00 20.00     0.246 C 
HETATM    4  C3  UNL     1     -35.236   5.244   3.751  1.00 20.00     0.064 C 
HETATM    5  C4  UNL     1     -35.264   4.700   5.164  1.00 20.00     0.170 C 
HETATM    6  O10 UNL     1     -34.472   5.591   5.964  1.00 20.00    -0.389 OA
HETATM    7  C5  UNL     1     -33.735   6.459   5.086  1.00 20.00     0.203 C 
ENDBRANCH   1   3
BRANCH   1   8
HETATM    8  C8  UNL     1     -32.346   7.402   2.638  1.00 20.00     0.303 C 
BRANCH   8   9
HETATM    9  C2  UNL     1     -32.217   8.419   1.541  1.00 20.00    -0.066 C 
HETATM   10  C1  UNL     1     -31.322   8.273   0.551  1.00 20.00     0.015 C 
HETATM   11  C7  UNL     1     -33.105   9.628   1.620  1.00 20.00     0.044 C 
ENDBRANCH   8   9
ENDBRANCH   1   8
TORSDOF 3
