REMARK  0 active torsions:
REMARK  status: ('A' for Active; 'I' for Inactive)
ROOT
HETATM    1  C1  UNL     1     -32.457   7.079   3.974  1.00 20.00     0.064 C 
HETATM    2  C2  UNL     1     -34.610   6.023   3.327  1.00 20.00     0.020 C 
HETATM    3  C3  UNL     1     -35.367   4.952   4.104  1.00 20.00     0.010 C 
HETATM    4  C4  UNL     1     -33.928   6.022   5.687  1.00 20.00     0.027 C 
HETATM    5  C5  UNL     1     -33.848   6.834   4.383  1.00 20.00     0.093 C 
HETATM    6  C6  UNL     1     -34.457   4.629   5.296  1.00 20.00    -0.046 C 
HETATM    7  C7  UNL     1     -35.243   3.985   6.441  1.00 20.00     0.015 C 
HETATM    8  C8  UNL     1     -33.308   3.691   4.889  1.00 20.00     0.015 C 
HETATM    9  N9  UNL     1     -31.359   7.272   3.651  1.00 20.00    -0.197 NA
ENDROOT
TORSDOF 0
