REMARK  0 active torsions:
REMARK  status: ('A' for Active; 'I' for Inactive)
ROOT
HETATM    1  C1  UNL     1     -32.492   8.385   1.702  1.00 20.00     0.088 C 
HETATM    2  C2  UNL     1     -33.196   6.643   3.210  1.00 20.00    -0.069 C 
HETATM    3  C3  UNL     1     -32.229   7.254   2.518  1.00 20.00     0.096 C 
HETATM    4  C4  UNL     1     -34.638   7.065   3.210  1.00 20.00     0.036 C 
HETATM    5  C5  UNL     1     -32.985   5.459   4.114  1.00 20.00     0.043 C 
HETATM    6  C6  UNL     1     -35.332   5.949   3.990  1.00 20.00     0.013 C 
HETATM    7  C7  UNL     1     -34.266   5.423   4.968  1.00 20.00    -0.044 C 
HETATM    8  C8  UNL     1     -34.141   6.339   6.199  1.00 20.00     0.015 C 
HETATM    9  C9  UNL     1     -34.588   4.001   5.435  1.00 20.00     0.015 C 
HETATM   10  N10 UNL     1     -32.702   9.309   1.034  1.00 20.00    -0.192 NA
ENDROOT
TORSDOF 0
