REMARK  2 active torsions:
REMARK  status: ('A' for Active; 'I' for Inactive)
REMARK    1  A    between atoms: C1_1  and  C5_5 
REMARK    2  A    between atoms: C1_1  and  C11_11 
ROOT
HETATM    1  C2  UNL     1     -31.855   6.462   3.638  1.00 20.00     0.013 C 
HETATM    2  C3  UNL     1     -31.383   7.567   2.697  1.00 20.00     0.009 C 
HETATM    3  C4  UNL     1     -33.638   7.089   2.069  1.00 20.00     0.021 C 
HETATM    4  C5  UNL     1     -33.242   6.054   3.131  1.00 20.00     0.056 C 
HETATM    5  C6  UNL     1     -32.669   8.271   2.249  1.00 20.00    -0.047 C 
HETATM    6  C7  UNL     1     -32.463   9.032   0.936  1.00 20.00     0.015 C 
HETATM    7  C8  UNL     1     -33.176   9.250   3.321  1.00 20.00     0.015 C 
ENDROOT
BRANCH   4   8
HETATM    8  C1  UNL     1     -34.238   6.000   4.251  1.00 20.00     0.134 C 
HETATM    9  O12 UNL     1     -35.227   6.733   4.248  1.00 20.00    -0.297 OA
BRANCH   8  10
HETATM   10  C11 UNL     1     -33.944   5.027   5.389  1.00 20.00     0.047 C 
HETATM   11  C9  UNL     1     -33.804   5.788   6.701  1.00 20.00     0.017 C 
HETATM   12  C10 UNL     1     -35.033   3.961   5.492  1.00 20.00     0.017 C 
ENDBRANCH   8  10
ENDBRANCH   4   8
TORSDOF 2
