REMARK  1 active torsions:
REMARK  status: ('A' for Active; 'I' for Inactive)
REMARK    1  A    between atoms: C4_4  and  C8_8 
ROOT
HETATM    1  C1  UNL     1     -31.042   7.063   3.494  1.00 20.00     0.006 C 
HETATM    2  C2  UNL     1     -31.679   5.722   3.158  1.00 20.00     0.009 C 
HETATM    3  C3  UNL     1     -33.394   7.481   3.163  1.00 20.00     0.014 C 
HETATM    4  C4  UNL     1     -32.008   8.086   2.904  1.00 20.00     0.000 C 
HETATM    5  C5  UNL     1     -33.192   5.954   3.337  1.00 20.00    -0.047 C 
HETATM    6  C6  UNL     1     -33.989   5.165   2.293  1.00 20.00     0.015 C 
HETATM    7  C7  UNL     1     -33.638   5.516   4.741  1.00 20.00     0.015 C 
ENDROOT
BRANCH   4   8
HETATM    8  C8  UNL     1     -31.762   8.323   1.414  1.00 20.00     0.119 C 
HETATM    9 CL9  UNL     1     -32.918   9.511   0.779  1.00 20.00    -0.130 Cl
ENDBRANCH   4   8
TORSDOF 1
