REMARK  4 active torsions:
REMARK  status: ('A' for Active; 'I' for Inactive)
REMARK    1  A    between atoms: C1_1  and  C4_4 
REMARK    2  A    between atoms: C1_1  and  C7_7 
REMARK    3  A    between atoms: C4_4  and  C5_5 
REMARK    4  A    between atoms: C5_5  and  C6_6 
ROOT
HETATM    1  C1  UNL     1     -33.907   5.525   4.545  1.00 20.00     0.130 C 
HETATM    2  O8  UNL     1     -34.879   5.057   3.952  1.00 20.00    -0.298 OA
ENDROOT
BRANCH   1   3
HETATM    3  C4  UNL     1     -32.712   6.103   3.797  1.00 20.00     0.081 C 
BRANCH   3   4
HETATM    4  C5  UNL     1     -33.069   7.285   2.897  1.00 20.00     0.038 C 
BRANCH   4   5
HETATM    5  C6  UNL     1     -31.861   7.852   2.167  1.00 20.00     0.222 C 
HETATM    6  F9  UNL     1     -32.263   8.871   1.362  1.00 20.00    -0.255 F 
ENDBRANCH   4   5
ENDBRANCH   3   4
ENDBRANCH   1   3
BRANCH   1   7
HETATM    7  C7  UNL     1     -33.857   5.607   6.071  1.00 20.00     0.047 C 
HETATM    8  C2  UNL     1     -33.745   7.061   6.513  1.00 20.00     0.017 C 
HETATM    9  C3  UNL     1     -35.082   4.944   6.697  1.00 20.00     0.017 C 
ENDBRANCH   1   7
TORSDOF 4
