REMARK  1 active torsions:
REMARK  status: ('A' for Active; 'I' for Inactive)
REMARK    1  A    between atoms: C5_5  and  O11_11 
ROOT
HETATM    1  C1  UNL     1     -33.547   6.460   5.137  1.00 20.00     0.098 C 
HETATM    2  C2  UNL     1     -31.750   6.037   3.470  1.00 20.00     0.054 C 
HETATM    3  C3  UNL     1     -31.301   7.487   3.341  1.00 20.00     0.013 C 
HETATM    4  C4  UNL     1     -33.691   7.265   2.789  1.00 20.00     0.062 C 
HETATM    5  C5  UNL     1     -33.250   6.140   3.731  1.00 20.00     0.148 C 
HETATM    6  C6  UNL     1     -32.467   8.205   2.626  1.00 20.00    -0.044 C 
HETATM    7  C7  UNL     1     -32.730   9.576   3.262  1.00 20.00     0.015 C 
HETATM    8  C8  UNL     1     -32.145   8.400   1.137  1.00 20.00     0.015 C 
HETATM    9  N10 UNL     1     -33.781   6.712   6.245  1.00 20.00    -0.194 NA
ENDROOT
BRANCH   5  10
HETATM   10  O11 UNL     1     -33.902   4.929   3.376  1.00 20.00    -0.370 OA
HETATM   11  C9  UNL     1     -35.311   5.034   3.526  1.00 20.00     0.204 C 
ENDBRANCH   5  10
TORSDOF 1
