REMARK  0 active torsions:
REMARK  status: ('A' for Active; 'I' for Inactive)
ROOT
HETATM    1  C1  UNL     1     -34.576   5.661   3.177  1.00 20.00     0.021 C 
HETATM    2  C2  UNL     1     -35.272   5.121   4.425  1.00 20.00     0.010 C 
HETATM    3  C3  UNL     1     -33.035   5.989   4.953  1.00 20.00     0.029 C 
HETATM    4  C4  UNL     1     -33.613   6.695   3.734  1.00 20.00     0.083 C 
HETATM    5  C5  UNL     1     -34.247   5.261   5.579  1.00 20.00    -0.046 C 
HETATM    6  C6  UNL     1     -33.832   3.888   6.120  1.00 20.00     0.015 C 
HETATM    7  C7  UNL     1     -34.845   6.092   6.724  1.00 20.00     0.015 C 
HETATM    8 CL8  UNL     1     -32.366   7.150   2.564  1.00 20.00    -0.125 Cl
ENDROOT
TORSDOF 0
