REMARK  2 active torsions:
REMARK  status: ('A' for Active; 'I' for Inactive)
REMARK    1  A    between atoms: C6_6  and  C7_7 
REMARK    2  A    between atoms: C6_6  and  N9_9 
ROOT
HETATM    1  C1  UNL     1     -33.552   6.672   6.468  1.00 20.00     0.095 C 
HETATM    2  C2  UNL     1     -35.053   3.559   5.810  1.00 20.00     0.033 C 
HETATM    3  C3  UNL     1     -35.234   4.854   6.590  1.00 20.00     0.053 C 
HETATM    4  C4  UNL     1     -34.841   4.029   4.385  1.00 20.00     0.274 C 
HETATM    5  C5  UNL     1     -34.588   5.943   5.723  1.00 20.00     0.328 C 
HETATM    6  N8  UNL     1     -32.734   7.247   7.056  1.00 20.00    -0.195 NA
HETATM    7  N9  UNL     1     -34.011   5.217   4.581  1.00 20.00     0.108 N 
ENDROOT
BRANCH   7   8
HETATM    8  C6  UNL     1     -33.922   6.027   3.372  1.00 20.00     0.305 C 
BRANCH   8   9
HETATM    9  C7  UNL     1     -32.739   6.971   3.422  1.00 20.00     0.252 C 
HETATM   10  F10 UNL     1     -32.699   7.690   2.268  1.00 20.00    -0.254 F 
ENDBRANCH   8   9
ENDBRANCH   7   8
TORSDOF 2
