REMARK  1 active torsions:
REMARK  status: ('A' for Active; 'I' for Inactive)
REMARK    1  A    between atoms: C4_4  and  S8_8 
ROOT
HETATM    1  C1  UNL     1     -34.072   6.805   5.429  1.00 20.00     0.015 C 
HETATM    2  C2  UNL     1     -32.684   6.872   4.806  1.00 20.00     0.010 C 
HETATM    3  C3  UNL     1     -34.225   5.703   3.286  1.00 20.00     0.023 C 
HETATM    4  C4  UNL     1     -34.745   5.631   4.726  1.00 20.00     0.045 C 
HETATM    5  C5  UNL     1     -32.900   6.510   3.323  1.00 20.00    -0.047 C 
HETATM    6  C6  UNL     1     -33.033   7.786   2.476  1.00 20.00     0.015 C 
HETATM    7  C7  UNL     1     -31.727   5.681   2.789  1.00 20.00     0.015 C 
ENDROOT
BRANCH   4   8
HETATM    8  S8  UNL     1     -34.325   4.036   5.513  1.00 20.00    -0.177 SA
HETATM    9  H22 UNL     1     -35.052   3.284   4.677  1.00 20.00     0.102 HD
ENDBRANCH   4   8
TORSDOF 1
