REMARK  5 active torsions:
REMARK  status: ('A' for Active; 'I' for Inactive)
REMARK    1  A    between atoms: C3_3  and  C4_4 
REMARK    2  A    between atoms: C3_3  and  N8_8 
REMARK    3  A    between atoms: C5_5  and  C7_7 
REMARK    4  A    between atoms: C6_6  and  C7_7 
REMARK    5  A    between atoms: C7_7  and  N8_8 
ROOT
HETATM    1  C7  UNL     1     -32.987   6.400   4.120  1.00 20.00     0.237 C 
ENDROOT
BRANCH   1   2
HETATM    2  C5  UNL     1     -33.177   7.486   5.185  1.00 20.00     0.150 C 
HETATM    3 CL10 UNL     1     -33.688   6.783   6.745  1.00 20.00    -0.128 Cl
ENDBRANCH   1   2
BRANCH   1   4
HETATM    4  C6  UNL     1     -34.333   5.972   3.480  1.00 20.00     0.011 C 
HETATM    5  C1  UNL     1     -35.342   5.415   4.489  1.00 20.00     0.012 C 
HETATM    6  C2  UNL     1     -34.116   4.957   2.352  1.00 20.00     0.012 C 
ENDBRANCH   1   4
BRANCH   1   7
HETATM    7  N8  UNL     1     -32.040   6.826   3.114  1.00 20.00     0.091 N 
HETATM    8  H25 UNL     1     -31.144   7.050   3.555  1.00 20.00     0.316 HD
BRANCH   7   9
HETATM    9  C3  UNL     1     -32.519   8.006   2.399  1.00 20.00     0.301 C 
BRANCH   9  10
HETATM   10  C4  UNL     1     -31.542   8.441   1.328  1.00 20.00     0.252 C 
HETATM   11  F9  UNL     1     -32.043   9.532   0.689  1.00 20.00    -0.254 F 
ENDBRANCH   9  10
ENDBRANCH   7   9
ENDBRANCH   1   7
TORSDOF 5
