REMARK  1 active torsions:
REMARK  status: ('A' for Active; 'I' for Inactive)
REMARK    1  A    between atoms: C7_7  and  N8_8 
ROOT
HETATM    1  C1  UNL     1     -34.861   4.858   3.669  1.00 20.00     0.048 C 
HETATM    2  C2  UNL     1     -33.677   5.450   2.916  1.00 20.00     0.274 C 
HETATM    3  C3  UNL     1     -33.664   6.517   4.978  1.00 20.00     0.288 C 
HETATM    4  C4  UNL     1     -34.830   5.541   5.032  1.00 20.00     0.087 C 
HETATM    5  N8  UNL     1     -33.523   6.765   3.540  1.00 20.00     0.093 N 
HETATM    6 BR9  UNL     1     -34.587   4.256   6.466  1.00 20.00    -0.089 Br
ENDROOT
BRANCH   5   7
HETATM    7  C7  UNL     1     -32.254   7.393   3.206  1.00 20.00     0.215 C 
HETATM    8  C5  UNL     1     -32.364   8.038   1.832  1.00 20.00     0.042 C 
HETATM    9  C6  UNL     1     -31.156   6.340   3.248  1.00 20.00     0.042 C 
ENDBRANCH   5   7
TORSDOF 1
