REMARK  2 active torsions:
REMARK  status: ('A' for Active; 'I' for Inactive)
REMARK    1  A    between atoms: C1_1  and  C5_5 
REMARK    2  A    between atoms: C6_6  and  C10_10 
ROOT
HETATM    1  C2  UNL     1     -32.299   6.571   4.323  1.00 20.00     0.016 C 
HETATM    2  C3  UNL     1     -31.778   7.520   3.245  1.00 20.00     0.005 C 
HETATM    3  C4  UNL     1     -34.125   7.748   2.322  1.00 20.00     0.009 C 
HETATM    4  C5  UNL     1     -33.764   6.851   4.641  1.00 20.00     0.090 C 
HETATM    5  C6  UNL     1     -32.648   7.492   1.981  1.00 20.00    -0.014 C 
HETATM    6  C7  UNL     1     -34.669   6.792   3.401  1.00 20.00    -0.004 C 
HETATM    7  C8  UNL     1     -34.854   5.379   2.831  1.00 20.00     0.011 C 
ENDROOT
BRANCH   4   8
HETATM    8  C1  UNL     1     -34.234   5.875   5.705  1.00 20.00     0.177 C 
HETATM    9  O11 UNL     1     -34.207   4.658   5.370  1.00 20.00    -0.648 OA
HETATM   10  O12 UNL     1     -34.593   6.409   6.792  1.00 20.00    -0.648 OA
ENDBRANCH   4   8
BRANCH   5  11
HETATM   11  C10 UNL     1     -32.147   8.516   0.963  1.00 20.00     0.000 C 
HETATM   12  C9  UNL     1     -32.229   9.908   1.497  1.00 20.00     0.005 C 
ENDBRANCH   5  11
TORSDOF 2
