REMARK  3 active torsions:
REMARK  status: ('A' for Active; 'I' for Inactive)
REMARK    1  A    between atoms: C2_2  and  C9_9 
REMARK    2  A    between atoms: C3_3  and  C6_6 
REMARK    3  A    between atoms: C7_7  and  C9_9 
ROOT
HETATM    1  C4  UNL     1     -33.946   5.530   6.276  1.00 20.00     0.016 C 
HETATM    2  C5  UNL     1     -33.357   6.953   6.339  1.00 20.00     0.007 C 
HETATM    3  C6  UNL     1     -34.605   5.929   4.935  1.00 20.00     0.091 C 
HETATM    4  C7  UNL     1     -33.500   7.020   4.797  1.00 20.00     0.004 C 
ENDROOT
BRANCH   4   5
HETATM    5  C9  UNL     1     -32.231   6.690   4.021  1.00 20.00     0.038 C 
BRANCH   5   6
HETATM    6  C2  UNL     1     -32.333   7.049   2.559  1.00 20.00    -0.093 C 
HETATM    7  C1  UNL     1     -32.173   6.126   1.598  1.00 20.00     0.014 C 
HETATM    8  C8  UNL     1     -32.582   8.491   2.224  1.00 20.00     0.042 C 
ENDBRANCH   5   6
ENDBRANCH   4   5
BRANCH   3   9
HETATM    9  C3  UNL     1     -34.640   4.875   3.887  1.00 20.00     0.177 C 
HETATM   10  O10 UNL     1     -34.883   3.708   4.305  1.00 20.00    -0.648 OA
HETATM   11  O11 UNL     1     -34.423   5.287   2.714  1.00 20.00    -0.648 OA
ENDBRANCH   3   9
TORSDOF 3
