REMARK  3 active torsions:
REMARK  status: ('A' for Active; 'I' for Inactive)
REMARK    1  A    between atoms: C6_6  and  C7_7 
REMARK    2  A    between atoms: C6_6  and  C8_8 
REMARK    3  A    between atoms: C7_7  and  N9_9 
ROOT
HETATM    1  C1  UNL     1     -34.948   5.315   4.108  1.00 20.00     0.050 C 
HETATM    2  C2  UNL     1     -34.393   6.569   6.209  1.00 20.00     0.050 C 
HETATM    3  C3  UNL     1     -33.558   5.677   3.573  1.00 20.00     0.274 C 
HETATM    4  C4  UNL     1     -33.022   6.890   5.606  1.00 20.00     0.274 C 
HETATM    5  C5  UNL     1     -35.002   5.289   5.635  1.00 20.00     0.085 C 
HETATM    6  N9  UNL     1     -33.089   6.949   4.140  1.00 20.00     0.088 N 
HETATM    7 CL11 UNL     1     -34.141   3.850   6.267  1.00 20.00    -0.125 Cl
ENDROOT
BRANCH   6   8
HETATM    8  C7  UNL     1     -31.785   7.308   3.581  1.00 20.00     0.275 C 
BRANCH   8   9
HETATM    9  C6  UNL     1     -31.953   7.901   2.183  1.00 20.00     0.061 C 
BRANCH   9  10
HETATM   10  C8  UNL     1     -32.797   9.165   2.213  1.00 20.00     0.223 C 
HETATM   11  F10 UNL     1     -32.912   9.656   0.951  1.00 20.00    -0.255 F 
ENDBRANCH   9  10
ENDBRANCH   8   9
ENDBRANCH   6   8
TORSDOF 3
