REMARK  1 active torsions:
REMARK  status: ('A' for Active; 'I' for Inactive)
REMARK    1  A    between atoms: C6_6  and  C11_11 
ROOT
HETATM    1  C1  UNL     1     -35.516   5.343   3.154  1.00 20.00     0.002 C 
HETATM    2  C2  UNL     1     -34.200   5.387   2.384  1.00 20.00     0.010 C 
HETATM    3  C3  UNL     1     -35.326   4.729   4.542  1.00 20.00     0.009 C 
HETATM    4  C4  UNL     1     -31.916   6.592   2.420  1.00 20.00     0.016 A 
HETATM    5  C5  UNL     1     -32.916   5.526   4.558  1.00 20.00     0.018 C 
HETATM    6  C6  UNL     1     -32.878   7.602   2.979  1.00 20.00     0.005 A 
HETATM    7  C7  UNL     1     -33.139   6.115   3.177  1.00 20.00    -0.035 A 
HETATM    8  C8  UNL     1     -34.225   5.429   5.376  1.00 20.00    -0.047 C 
HETATM    9  C9  UNL     1     -34.693   6.828   5.822  1.00 20.00     0.015 C 
HETATM   10  C10 UNL     1     -33.957   4.595   6.644  1.00 20.00     0.015 C 
ENDROOT
BRANCH   6  11
HETATM   11  C11 UNL     1     -33.689   8.454   2.065  1.00 20.00     0.090 C 
HETATM   12 BR12 UNL     1     -32.637   9.971   1.432  1.00 20.00    -0.096 Br
ENDBRANCH   6  11
TORSDOF 1
