REMARK  2 active torsions:
REMARK  status: ('A' for Active; 'I' for Inactive)
REMARK    1  A    between atoms: C4_4  and  C6_6 
REMARK    2  A    between atoms: C7_7  and  C8_8 
ROOT
HETATM    1  C1  UNL     1     -33.783   6.411   6.300  1.00 20.00     0.034 A 
HETATM    2  C2  UNL     1     -34.938   5.711   6.561  1.00 20.00     0.142 A 
HETATM    3  C3  UNL     1     -34.593   5.531   4.417  1.00 20.00     0.148 A 
HETATM    4  C4  UNL     1     -33.559   6.294   4.907  1.00 20.00    -0.029 A 
HETATM    5  O9  UNL     1     -35.438   5.172   5.419  1.00 20.00    -0.334 OA
ENDROOT
BRANCH   4   6
HETATM    6  C6  UNL     1     -32.417   6.887   4.116  1.00 20.00     0.026 A 
HETATM    7  C5  UNL     1     -31.827   6.131   2.945  1.00 20.00     0.016 A 
HETATM    8  C7  UNL     1     -32.647   7.362   2.697  1.00 20.00     0.005 A 
BRANCH   8   9
HETATM    9  C8  UNL     1     -31.996   8.611   2.212  1.00 20.00     0.090 C 
HETATM   10 BR10 UNL     1     -31.639   8.496   0.296  1.00 20.00    -0.096 Br
ENDBRANCH   8   9
ENDBRANCH   4   6
TORSDOF 2
