REMARK  1 active torsions:
REMARK  status: ('A' for Active; 'I' for Inactive)
REMARK    1  A    between atoms: C5_5  and  C10_10 
ROOT
HETATM    1  C1  UNL     1     -34.280   5.734   2.797  1.00 20.00     0.036 C 
HETATM    2  C2  UNL     1     -31.838   6.519   3.261  1.00 20.00     0.016 A 
HETATM    3  C3  UNL     1     -33.758   6.800   5.012  1.00 20.00     0.047 C 
HETATM    4  C4  UNL     1     -34.554   4.441   3.555  1.00 20.00     0.169 C 
HETATM    5  C5  UNL     1     -32.612   7.757   2.901  1.00 20.00     0.009 A 
HETATM    6  C6  UNL     1     -33.317   6.593   3.579  1.00 20.00    -0.031 A 
HETATM    7  C7  UNL     1     -34.117   5.466   5.695  1.00 20.00     0.054 C 
HETATM    8  C8  UNL     1     -32.873   4.638   6.048  1.00 20.00     0.045 C 
HETATM    9  C9  UNL     1     -34.881   5.761   6.995  1.00 20.00     0.045 C 
HETATM   10  O11 UNL     1     -35.025   4.710   4.875  1.00 20.00    -0.381 OA
ENDROOT
BRANCH   5  11
HETATM   11  C10 UNL     1     -32.835   8.114   1.472  1.00 20.00     0.120 C 
HETATM   12 CL12 UNL     1     -31.399   8.911   0.772  1.00 20.00    -0.130 Cl
ENDBRANCH   5  11
TORSDOF 1
