REMARK  4 active torsions:
REMARK  status: ('A' for Active; 'I' for Inactive)
REMARK    1  A    between atoms: C4_4  and  C6_6 
REMARK    2  A    between atoms: C5_5  and  C8_8 
REMARK    3  A    between atoms: C6_6  and  C9_9 
REMARK    4  A    between atoms: C9_9  and  O10_10 
ROOT
HETATM    1  C3  UNL     1     -31.792   6.693   3.181  1.00 20.00     0.019 A 
HETATM    2  C5  UNL     1     -32.807   7.345   2.286  1.00 20.00     0.011 A 
HETATM    3  C6  UNL     1     -33.261   6.659   3.574  1.00 20.00    -0.010 A 
ENDROOT
BRANCH   3   4
HETATM    4  C4  UNL     1     -34.056   5.348   3.481  1.00 20.00    -0.004 A 
HETATM    5  C1  UNL     1     -34.037   4.308   4.567  1.00 20.00     0.006 A 
HETATM    6  C2  UNL     1     -35.293   5.089   4.295  1.00 20.00     0.006 A 
ENDBRANCH   3   4
BRANCH   3   7
HETATM    7  C9  UNL     1     -33.665   7.516   4.750  1.00 20.00     0.177 C 
BRANCH   7   8
HETATM    8  O10 UNL     1     -33.338   6.838   5.955  1.00 20.00    -0.395 OA
HETATM    9  C7  UNL     1     -33.698   7.603   7.098  1.00 20.00     0.201 C 
ENDBRANCH   7   8
ENDBRANCH   3   7
BRANCH   2  10
HETATM   10  C8  UNL     1     -32.817   8.825   2.110  1.00 20.00     0.120 C 
HETATM   11 CL11 UNL     1     -31.563   9.347   0.952  1.00 20.00    -0.130 Cl
ENDBRANCH   2  10
TORSDOF 4
