REMARK  2 active torsions:
REMARK  status: ('A' for Active; 'I' for Inactive)
REMARK    1  A    between atoms: C5_5  and  C6_6 
REMARK    2  A    between atoms: C7_7  and  C8_8 
ROOT
HETATM    1  C4  UNL     1     -32.133   5.602   3.353  1.00 20.00     0.011 A 
HETATM    2  C6  UNL     1     -33.470   6.282   3.408  1.00 20.00    -0.005 A 
HETATM    3  C7  UNL     1     -32.230   7.091   3.155  1.00 20.00     0.000 A 
ENDROOT
BRANCH   2   4
HETATM    4  C5  UNL     1     -34.276   6.402   4.684  1.00 20.00    -0.010 C 
HETATM    5  C2  UNL     1     -33.478   6.650   5.990  1.00 20.00     0.005 C 
HETATM    6  C1  UNL     1     -34.499   5.738   6.701  1.00 20.00     0.001 C 
HETATM    7  C3  UNL     1     -34.753   5.075   5.331  1.00 20.00     0.005 C 
ENDBRANCH   2   4
BRANCH   3   8
HETATM    8  C8  UNL     1     -31.993   7.685   1.810  1.00 20.00     0.090 C 
HETATM    9 BR9  UNL     1     -32.823   9.448   1.685  1.00 20.00    -0.096 Br
ENDBRANCH   3   8
TORSDOF 2
