REMARK  1 active torsions:
REMARK  status: ('A' for Active; 'I' for Inactive)
REMARK    1  A    between atoms: C1_1  and  C5_5 
ROOT
HETATM    1  C2  UNL     1     -34.911   5.963   3.497  1.00 20.00     0.013 C 
HETATM    2  C3  UNL     1     -34.607   4.568   4.041  1.00 20.00     0.009 C 
HETATM    3  C4  UNL     1     -34.193   5.886   6.200  1.00 20.00     0.013 C 
HETATM    4  C5  UNL     1     -33.866   6.994   3.949  1.00 20.00     0.059 C 
HETATM    5  C6  UNL     1     -33.209   6.649   5.303  1.00 20.00    -0.007 C 
HETATM    6  C7  UNL     1     -34.616   4.524   5.589  1.00 20.00    -0.047 C 
HETATM    7  C9  UNL     1     -32.715   7.916   6.006  1.00 20.00     0.011 C 
HETATM    8  C10 UNL     1     -36.028   4.173   6.097  1.00 20.00     0.015 C 
HETATM    9  C11 UNL     1     -33.653   3.417   6.057  1.00 20.00     0.015 C 
ENDROOT
BRANCH   4  10
HETATM   10  C1  UNL     1     -32.804   7.107   2.893  1.00 20.00     0.127 C 
HETATM   11  C8  UNL     1     -32.653   8.448   2.226  1.00 20.00     0.091 C 
HETATM   12  O12 UNL     1     -32.093   6.151   2.589  1.00 20.00    -0.298 OA
ENDBRANCH   4  10
TORSDOF 1
