REMARK  1 active torsions:
REMARK  status: ('A' for Active; 'I' for Inactive)
REMARK    1  A    between atoms: C6_6  and  C8_8 
ROOT
HETATM    1  C1  UNL     1     -34.870   4.791   3.189  1.00 20.00     0.027 C 
HETATM    2  C2  UNL     1     -34.140   6.044   2.710  1.00 20.00     0.014 C 
HETATM    3  C3  UNL     1     -31.651   5.944   3.451  1.00 20.00     0.018 A 
HETATM    4  C4  UNL     1     -35.318   4.950   4.637  1.00 20.00     0.167 C 
HETATM    5  C5  UNL     1     -33.567   6.473   5.125  1.00 20.00     0.177 C 
HETATM    6  C6  UNL     1     -31.975   7.407   3.315  1.00 20.00     0.011 A 
HETATM    7  C7  UNL     1     -33.065   6.424   3.702  1.00 20.00    -0.014 A 
HETATM    8  O9  UNL     1     -34.196   5.237   5.474  1.00 20.00    -0.390 OA
ENDROOT
BRANCH   6   9
HETATM    9  C8  UNL     1     -31.926   8.068   1.980  1.00 20.00     0.120 C 
HETATM   10 CL10 UNL     1     -32.881   9.577   1.970  1.00 20.00    -0.130 Cl
ENDBRANCH   6   9
TORSDOF 1
