REMARK  2 active torsions:
REMARK  status: ('A' for Active; 'I' for Inactive)
REMARK    1  A    between atoms: C1_1  and  C11_11 
REMARK    2  A    between atoms: C5_5  and  C11_11 
ROOT
HETATM    1  C2  UNL     1     -32.885   8.080   4.484  1.00 20.00     0.006 C 
HETATM    2  C3  UNL     1     -31.861   8.735   3.556  1.00 20.00     0.009 C 
HETATM    3  C4  UNL     1     -32.477   7.193   1.630  1.00 20.00     0.013 C 
HETATM    4  C5  UNL     1     -33.546   6.813   3.905  1.00 20.00    -0.001 C 
HETATM    5  C6  UNL     1     -32.677   6.194   2.793  1.00 20.00    -0.013 C 
HETATM    6  C7  UNL     1     -32.239   8.663   2.066  1.00 20.00    -0.047 C 
HETATM    7  C8  UNL     1     -33.245   4.883   2.240  1.00 20.00     0.010 C 
HETATM    8  C9  UNL     1     -33.500   9.509   1.795  1.00 20.00     0.015 C 
HETATM    9  C10 UNL     1     -31.090   9.262   1.231  1.00 20.00     0.015 C 
ENDROOT
BRANCH   4  10
HETATM   10  C11 UNL     1     -33.871   5.841   5.042  1.00 20.00     0.118 C 
BRANCH  10  11
HETATM   11  C1  UNL     1     -34.998   4.858   4.742  1.00 20.00     0.172 C 
HETATM   12  O12 UNL     1     -35.915   5.253   3.972  1.00 20.00    -0.648 OA
HETATM   13  O13 UNL     1     -34.862   3.742   5.322  1.00 20.00    -0.648 OA
ENDBRANCH  10  11
ENDBRANCH   4  10
TORSDOF 2
