REMARK  1 active torsions:
REMARK  status: ('A' for Active; 'I' for Inactive)
REMARK    1  A    between atoms: C4_4  and  C10_10 
ROOT
HETATM    1  C1  UNL     1     -32.505   4.919   3.438  1.00 20.00     0.006 C 
HETATM    2  C2  UNL     1     -33.688   4.076   3.929  1.00 20.00     0.009 C 
HETATM    3  C3  UNL     1     -33.829   5.962   5.624  1.00 20.00     0.013 C 
HETATM    4  C4  UNL     1     -32.881   6.393   3.266  1.00 20.00    -0.001 C 
HETATM    5  C5  UNL     1     -33.329   7.021   4.615  1.00 20.00    -0.013 C 
HETATM    6  C6  UNL     1     -34.579   4.776   4.987  1.00 20.00    -0.047 C 
HETATM    7  C7  UNL     1     -32.268   7.887   5.306  1.00 20.00     0.010 C 
HETATM    8  C8  UNL     1     -35.900   5.253   4.351  1.00 20.00     0.015 C 
HETATM    9  C9  UNL     1     -34.940   3.763   6.093  1.00 20.00     0.015 C 
ENDROOT
BRANCH   4  10
HETATM   10  C10 UNL     1     -31.768   7.152   2.542  1.00 20.00     0.090 C 
HETATM   11 BR11 UNL     1     -32.504   8.759   1.750  1.00 20.00    -0.096 Br
ENDBRANCH   4  10
TORSDOF 1
