REMARK  2 active torsions:
REMARK  status: ('A' for Active; 'I' for Inactive)
REMARK    1  A    between atoms: C5_5  and  C8_8 
REMARK    2  A    between atoms: C9_9  and  C10_10 
ROOT
HETATM    1  C1  UNL     1     -32.452   6.323   3.740  1.00 20.00     0.009 A 
HETATM    2  C2  UNL     1     -34.452   6.983   2.556  1.00 20.00     0.009 A 
HETATM    3  C3  UNL     1     -31.800   7.466   3.275  1.00 20.00     0.024 A 
HETATM    4  C4  UNL     1     -33.801   8.125   2.091  1.00 20.00     0.024 A 
HETATM    5  C5  UNL     1     -33.778   6.082   3.380  1.00 20.00    -0.053 A 
HETATM    6  C6  UNL     1     -32.475   8.367   2.451  1.00 20.00     0.034 A 
HETATM    7 CL11 UNL     1     -31.670   9.776   1.877  1.00 20.00    -0.084 Cl
ENDROOT
BRANCH   5   8
HETATM    8  C8  UNL     1     -34.474   4.861   3.877  1.00 20.00     0.024 A 
HETATM    9  C7  UNL     1     -35.967   4.906   4.093  1.00 20.00     0.016 A 
HETATM   10  C9  UNL     1     -35.050   4.806   5.275  1.00 20.00     0.008 A 
BRANCH  10  11
HETATM   11  C10 UNL     1     -34.945   5.941   6.237  1.00 20.00     0.119 C 
HETATM   12 CL12 UNL     1     -33.441   5.841   7.192  1.00 20.00    -0.130 Cl
ENDBRANCH  10  11
ENDBRANCH   5   8
TORSDOF 2
