REMARK  2 active torsions:
REMARK  status: ('A' for Active; 'I' for Inactive)
REMARK    1  A    between atoms: C7_7  and  C10_10 
REMARK    2  A    between atoms: C7_7  and  C11_11 
ROOT
HETATM    1  C1  UNL     1     -34.653   5.752   4.012  1.00 20.00     0.140 C 
HETATM    2  C2  UNL     1     -34.811   6.592   6.973  1.00 20.00     0.001 C 
HETATM    3  C3  UNL     1     -34.995   5.149   6.525  1.00 20.00     0.013 C 
HETATM    4  C4  UNL     1     -33.342   6.872   6.682  1.00 20.00     0.007 C 
HETATM    5  C5  UNL     1     -34.138   5.034   5.274  1.00 20.00     0.061 C 
HETATM    6  C6  UNL     1     -33.034   6.123   5.380  1.00 20.00     0.013 C 
HETATM    7  C7  UNL     1     -33.423   6.701   3.962  1.00 20.00     0.025 C 
HETATM    8  O12 UNL     1     -35.643   5.621   3.322  1.00 20.00    -0.297 OA
ENDROOT
BRANCH   7   9
HETATM    9  C10 UNL     1     -32.425   6.322   2.866  1.00 20.00     0.013 C 
HETATM   10  C8  UNL     1     -31.256   7.249   2.842  1.00 20.00     0.006 C 
ENDBRANCH   7   9
BRANCH   7  11
HETATM   11  C11 UNL     1     -33.780   8.182   3.886  1.00 20.00     0.013 C 
HETATM   12  C9  UNL     1     -34.586   8.496   2.668  1.00 20.00     0.006 C 
ENDBRANCH   7  11
TORSDOF 2
