REMARK  2 active torsions:
REMARK  status: ('A' for Active; 'I' for Inactive)
REMARK    1  A    between atoms: C4_4  and  C6_6 
REMARK    2  A    between atoms: C7_7  and  C8_8 
ROOT
HETATM    1  C1  UNL     1     -33.928   5.635   5.217  1.00 20.00     0.034 A 
HETATM    2  C2  UNL     1     -35.270   5.334   5.207  1.00 20.00     0.142 A 
HETATM    3  C3  UNL     1     -34.643   5.367   3.121  1.00 20.00     0.148 A 
HETATM    4  C4  UNL     1     -33.520   5.656   3.862  1.00 20.00    -0.029 A 
HETATM    5  O9  UNL     1     -35.714   5.170   3.934  1.00 20.00    -0.334 OA
ENDROOT
BRANCH   4   6
HETATM    6  C6  UNL     1     -32.109   5.946   3.322  1.00 20.00     0.026 A 
HETATM    7  C5  UNL     1     -31.423   7.226   3.749  1.00 20.00     0.016 A 
HETATM    8  C7  UNL     1     -31.878   7.070   2.329  1.00 20.00     0.005 A 
BRANCH   8   9
HETATM    9  C8  UNL     1     -32.989   7.915   1.804  1.00 20.00     0.090 C 
HETATM   10 BR10 UNL     1     -32.339   9.704   1.373  1.00 20.00    -0.096 Br
ENDBRANCH   8   9
ENDBRANCH   4   6
TORSDOF 2
