REMARK  3 active torsions:
REMARK  status: ('A' for Active; 'I' for Inactive)
REMARK    1  A    between atoms: C4_4  and  C6_6 
REMARK    2  A    between atoms: C5_5  and  C8_8 
REMARK    3  A    between atoms: C6_6  and  C9_9 
ROOT
HETATM    1  C3  UNL     1     -31.958   6.160   3.459  1.00 20.00     0.017 A 
HETATM    2  C5  UNL     1     -32.655   7.054   2.474  1.00 20.00     0.009 A 
HETATM    3  C6  UNL     1     -33.419   6.517   3.683  1.00 20.00    -0.032 A 
ENDROOT
BRANCH   3   4
HETATM    4  C4  UNL     1     -34.514   5.461   3.465  1.00 20.00    -0.006 A 
HETATM    5  C1  UNL     1     -35.743   5.378   4.327  1.00 20.00     0.006 A 
HETATM    6  C2  UNL     1     -35.861   5.797   2.889  1.00 20.00     0.006 A 
ENDBRANCH   3   4
BRANCH   3   7
HETATM    7  C9  UNL     1     -33.718   7.454   4.828  1.00 20.00     0.006 C 
HETATM    8  C7  UNL     1     -33.270   6.901   6.149  1.00 20.00     0.006 C 
ENDBRANCH   3   7
BRANCH   2   9
HETATM    9  C8  UNL     1     -32.256   8.483   2.337  1.00 20.00     0.120 C 
HETATM   10 CL10 UNL     1     -32.782   9.154   0.768  1.00 20.00    -0.130 Cl
ENDBRANCH   2   9
TORSDOF 3
