REMARK  0 active torsions:
REMARK  status: ('A' for Active; 'I' for Inactive)
ROOT
HETATM    1  C1  UNL     1     -35.445   4.744   6.574  1.00 20.00     0.006 C 
HETATM    2  C2  UNL     1     -34.323   4.205   5.670  1.00 20.00     0.038 C 
HETATM    3  C3  UNL     1     -34.845   6.147   6.386  1.00 20.00     0.038 C 
HETATM    4  C4  UNL     1     -33.131   4.886   2.650  1.00 20.00     0.042 C 
HETATM    5  C5  UNL     1     -32.790   6.175   4.833  1.00 20.00     0.053 C 
HETATM    6  C6  UNL     1     -34.625   5.206   2.686  1.00 20.00     0.170 C 
HETATM    7  C7  UNL     1     -32.293   5.906   3.410  1.00 20.00     0.062 C 
HETATM    8  C8  UNL     1     -34.208   5.639   5.057  1.00 20.00     0.062 C 
HETATM    9  O9  UNL     1     -35.016   5.881   3.880  1.00 20.00    -0.380 OA
HETATM   10 BR10 UNL     1     -32.257   7.591   2.392  1.00 20.00    -0.091 Br
ENDROOT
TORSDOF 0
