REMARK  3 active torsions:
REMARK  status: ('A' for Active; 'I' for Inactive)
REMARK    1  A    between atoms: C2_2  and  C5_5 
REMARK    2  A    between atoms: C3_3  and  C6_6 
REMARK    3  A    between atoms: C5_5  and  C7_7 
ROOT
HETATM    1  C1  UNL     1     -33.614   5.581   2.663  1.00 20.00     0.011 A 
HETATM    2  C2  UNL     1     -33.205   6.867   3.332  1.00 20.00    -0.009 A 
HETATM    3  C3  UNL     1     -33.403   5.619   4.154  1.00 20.00     0.004 A 
ENDROOT
BRANCH   2   4
HETATM    4  C5  UNL     1     -31.836   7.416   3.125  1.00 20.00     0.005 C 
BRANCH   4   5
HETATM    5  C7  UNL     1     -31.686   8.131   1.770  1.00 20.00    -0.004 C 
HETATM    6  C4  UNL     1     -32.665   9.283   1.608  1.00 20.00     0.005 C 
ENDBRANCH   4   5
ENDBRANCH   2   4
BRANCH   3   7
HETATM    7  C6  UNL     1     -34.565   5.510   5.078  1.00 20.00     0.119 C 
HETATM    8 CL8  UNL     1     -35.088   3.812   5.263  1.00 20.00    -0.130 Cl
ENDBRANCH   3   7
TORSDOF 3
