REMARK  2 active torsions:
REMARK  status: ('A' for Active; 'I' for Inactive)
REMARK    1  A    between atoms: C5_5  and  C6_6 
REMARK    2  A    between atoms: C7_7  and  C8_8 
ROOT
HETATM    1  C4  UNL     1     -31.994   5.722   2.945  1.00 20.00     0.011 A 
HETATM    2  C6  UNL     1     -33.388   6.278   2.938  1.00 20.00    -0.005 A 
HETATM    3  C7  UNL     1     -32.214   7.208   2.828  1.00 20.00     0.004 A 
ENDROOT
BRANCH   2   4
HETATM    4  C5  UNL     1     -34.290   6.242   4.154  1.00 20.00    -0.010 C 
HETATM    5  C2  UNL     1     -33.612   6.473   5.530  1.00 20.00     0.005 C 
HETATM    6  C1  UNL     1     -34.592   5.430   6.105  1.00 20.00     0.001 C 
HETATM    7  C3  UNL     1     -34.688   4.840   4.683  1.00 20.00     0.005 C 
ENDBRANCH   2   4
BRANCH   3   8
HETATM    8  C8  UNL     1     -31.938   7.908   1.543  1.00 20.00     0.119 C 
HETATM    9 CL9  UNL     1     -32.797   9.471   1.459  1.00 20.00    -0.130 Cl
ENDBRANCH   3   8
TORSDOF 2
