REMARK  1 active torsions:
REMARK  status: ('A' for Active; 'I' for Inactive)
REMARK    1  A    between atoms: C4_4  and  C10_10 
ROOT
HETATM    1  C1  UNL     1     -31.664   7.339   4.522  1.00 20.00     0.006 C 
HETATM    2  C2  UNL     1     -31.235   7.949   3.189  1.00 20.00     0.009 C 
HETATM    3  C3  UNL     1     -33.448   7.286   2.175  1.00 20.00     0.013 C 
HETATM    4  C4  UNL     1     -32.675   6.196   4.337  1.00 20.00    -0.001 C 
HETATM    5  C5  UNL     1     -33.897   6.665   3.512  1.00 20.00    -0.013 C 
HETATM    6  C6  UNL     1     -32.420   8.429   2.327  1.00 20.00    -0.047 C 
HETATM    7  C7  UNL     1     -34.882   5.525   3.230  1.00 20.00     0.010 C 
HETATM    8  C8  UNL     1     -31.896   8.820   0.932  1.00 20.00     0.015 C 
HETATM    9  C9  UNL     1     -33.078   9.675   2.950  1.00 20.00     0.015 C 
ENDROOT
BRANCH   4  10
HETATM   10  C10 UNL     1     -33.071   5.645   5.710  1.00 20.00     0.090 C 
HETATM   11 BR11 UNL     1     -33.829   7.072   6.779  1.00 20.00    -0.096 Br
ENDBRANCH   4  10
TORSDOF 1
