REMARK  1 active torsions:
REMARK  status: ('A' for Active; 'I' for Inactive)
REMARK    1  A    between atoms: C6_6  and  C8_8 
ROOT
HETATM    1  C1  UNL     1     -34.002   6.393   5.390  1.00 20.00     0.036 C 
HETATM    2  C2  UNL     1     -34.882   4.502   3.986  1.00 20.00     0.036 C 
HETATM    3  C3  UNL     1     -32.457   5.356   3.569  1.00 20.00     0.016 A 
HETATM    4  C4  UNL     1     -34.079   5.441   6.581  1.00 20.00     0.168 C 
HETATM    5  C5  UNL     1     -34.901   3.662   5.258  1.00 20.00     0.168 C 
HETATM    6  C6  UNL     1     -33.392   6.278   2.832  1.00 20.00     0.005 A 
HETATM    7  C7  UNL     1     -33.849   5.600   4.111  1.00 20.00    -0.032 A 
HETATM    8  O9  UNL     1     -35.134   4.493   6.399  1.00 20.00    -0.391 OA
ENDROOT
BRANCH   6   9
HETATM    9  C8  UNL     1     -33.104   7.738   2.756  1.00 20.00     0.090 C 
HETATM   10 BR10 UNL     1     -31.736   8.094   1.410  1.00 20.00    -0.096 Br
ENDBRANCH   6   9
TORSDOF 1
