REMARK  3 active torsions:
REMARK  status: ('A' for Active; 'I' for Inactive)
REMARK    1  A    between atoms: C1_1  and  C9_9 
REMARK    2  A    between atoms: C5_5  and  C8_8 
REMARK    3  A    between atoms: C6_6  and  C9_9 
ROOT
HETATM    1  C2  UNL     1     -31.247   8.208   3.174  1.00 20.00     0.005 C 
HETATM    2  C3  UNL     1     -31.924   7.242   4.152  1.00 20.00     0.008 C 
HETATM    3  C4  UNL     1     -33.195   7.272   2.114  1.00 20.00     0.012 C 
HETATM    4  C5  UNL     1     -32.275   8.489   2.074  1.00 20.00    -0.014 C 
HETATM    5  C6  UNL     1     -33.339   7.019   3.612  1.00 20.00     0.030 C 
ENDROOT
BRANCH   5   6
HETATM    6  C9  UNL     1     -33.894   5.643   3.935  1.00 20.00     0.274 C 
HETATM    7  F12 UNL     1     -34.916   5.392   3.072  1.00 20.00    -0.238 F 
BRANCH   6   8
HETATM    8  C1  UNL     1     -34.475   5.470   5.335  1.00 20.00     0.208 C 
HETATM    9  O10 UNL     1     -35.480   4.714   5.438  1.00 20.00    -0.646 OA
HETATM   10  O11 UNL     1     -33.876   6.130   6.232  1.00 20.00    -0.646 OA
ENDBRANCH   6   8
ENDBRANCH   5   6
BRANCH   4  11
HETATM   11  C8  UNL     1     -31.646   8.720   0.711  1.00 20.00     0.000 C 
HETATM   12  C7  UNL     1     -32.677   8.970  -0.346  1.00 20.00     0.005 C 
ENDBRANCH   4  11
TORSDOF 3
