REMARK  3 active torsions:
REMARK  status: ('A' for Active; 'I' for Inactive)
REMARK    1  A    between atoms: C3_3  and  O10_10 
REMARK    2  A    between atoms: C4_4  and  C8_8 
REMARK    3  A    between atoms: C4_4  and  C9_9 
ROOT
HETATM    1  C1  UNL     1     -34.875   3.696   4.342  1.00 20.00     0.037 C 
HETATM    2  C2  UNL     1     -34.454   4.251   5.725  1.00 20.00    -0.005 C 
HETATM    3  C3  UNL     1     -34.828   5.133   3.783  1.00 20.00     0.127 C 
HETATM    4  C4  UNL     1     -33.902   5.522   4.982  1.00 20.00    -0.012 C 
HETATM    5  C5  UNL     1     -35.600   4.401   6.718  1.00 20.00     0.011 C 
ENDROOT
BRANCH   4   6
HETATM    6  C8  UNL     1     -34.238   6.883   5.589  1.00 20.00     0.008 C 
HETATM    7  C6  UNL     1     -33.709   7.012   6.979  1.00 20.00     0.006 C 
ENDBRANCH   4   6
BRANCH   4   8
HETATM    8  C9  UNL     1     -32.398   5.421   4.698  1.00 20.00     0.008 C 
HETATM    9  C7  UNL     1     -31.894   6.635   3.994  1.00 20.00     0.006 C 
ENDBRANCH   4   8
BRANCH   3  10
HETATM   10  O10 UNL     1     -34.277   5.280   2.462  1.00 20.00    -0.395 OA
HETATM   11  H28 UNL     1     -34.838   4.748   1.883  1.00 20.00     0.210 HD
ENDBRANCH   3  10
TORSDOF 3
