REMARK  1 active torsions:
REMARK  status: ('A' for Active; 'I' for Inactive)
REMARK    1  A    between atoms: C4_4  and  C10_10 
ROOT
HETATM    1  C1  UNL     1     -34.663   5.390   3.269  1.00 20.00     0.007 C 
HETATM    2  C2  UNL     1     -35.603   5.218   4.460  1.00 20.00     0.009 C 
HETATM    3  C3  UNL     1     -33.983   6.487   5.919  1.00 20.00     0.013 C 
HETATM    4  C4  UNL     1     -33.800   6.655   3.389  1.00 20.00     0.003 C 
HETATM    5  C5  UNL     1     -33.023   6.670   4.727  1.00 20.00    -0.013 C 
HETATM    6  C6  UNL     1     -34.875   5.230   5.819  1.00 20.00    -0.047 C 
HETATM    7  C7  UNL     1     -32.223   7.964   4.921  1.00 20.00     0.010 C 
HETATM    8  C8  UNL     1     -35.923   5.270   6.947  1.00 20.00     0.015 C 
HETATM    9  C9  UNL     1     -34.036   3.950   5.999  1.00 20.00     0.015 C 
ENDROOT
BRANCH   4  10
HETATM   10  C10 UNL     1     -32.875   6.754   2.172  1.00 20.00     0.119 C 
HETATM   11 CL11 UNL     1     -32.315   8.422   1.972  1.00 20.00    -0.130 Cl
ENDBRANCH   4  10
TORSDOF 1
