REMARK  2 active torsions:
REMARK  status: ('A' for Active; 'I' for Inactive)
REMARK    1  A    between atoms: C2_2  and  C6_6 
REMARK    2  A    between atoms: C7_7  and  C10_10 
ROOT
HETATM    1  C1  UNL     1     -33.795   5.571   3.906  1.00 20.00     0.022 A 
HETATM    2  C2  UNL     1     -33.264   6.731   4.542  1.00 20.00    -0.040 A 
HETATM    3  C3  UNL     1     -34.345   4.691   4.812  1.00 20.00    -0.020 A 
HETATM    4  C4  UNL     1     -33.428   6.693   5.909  1.00 20.00    -0.014 A 
HETATM    5  C8  UNL     1     -34.990   3.386   4.552  1.00 20.00     0.056 C 
HETATM    6  C9  UNL     1     -33.020   7.692   6.922  1.00 20.00     0.057 C 
HETATM    7  S11 UNL     1     -34.220   5.264   6.421  1.00 20.00    -0.100 SA
ENDROOT
BRANCH   2   8
HETATM    8  C6  UNL     1     -32.599   7.863   3.793  1.00 20.00     0.025 A 
HETATM    9  C5  UNL     1     -31.093   7.900   3.647  1.00 20.00     0.016 A 
HETATM   10  C7  UNL     1     -31.947   7.602   2.451  1.00 20.00     0.008 A 
BRANCH  10  11
HETATM   11  C10 UNL     1     -32.074   8.601   1.353  1.00 20.00     0.119 C 
HETATM   12 CL12 UNL     1     -32.205  10.260   1.998  1.00 20.00    -0.130 Cl
ENDBRANCH  10  11
ENDBRANCH   2   8
TORSDOF 2
