REMARK  1 active torsions:
REMARK  status: ('A' for Active; 'I' for Inactive)
REMARK    1  A    between atoms: C7_7  and  C11_11 
ROOT
HETATM    1  C1  UNL     1     -34.921   4.744   3.948  1.00 20.00     0.005 C 
HETATM    2  C2  UNL     1     -33.848   5.197   2.957  1.00 20.00     0.010 C 
HETATM    3  C3  UNL     1     -33.874   7.241   4.482  1.00 20.00     0.014 C 
HETATM    4  C4  UNL     1     -31.650   6.550   3.332  1.00 20.00     0.016 A 
HETATM    5  C5  UNL     1     -34.420   4.887   5.388  1.00 20.00    -0.015 C 
HETATM    6  C6  UNL     1     -34.115   6.369   5.731  1.00 20.00    -0.014 C 
HETATM    7  C7  UNL     1     -32.448   7.251   2.273  1.00 20.00     0.009 A 
HETATM    8  C8  UNL     1     -33.166   6.488   3.378  1.00 20.00    -0.035 A 
HETATM    9  C9  UNL     1     -35.430   4.291   6.371  1.00 20.00     0.010 C 
HETATM   10  C10 UNL     1     -32.935   6.460   6.706  1.00 20.00     0.010 C 
ENDROOT
BRANCH   7  11
HETATM   11  C11 UNL     1     -32.446   8.739   2.188  1.00 20.00     0.120 C 
HETATM   12 CL12 UNL     1     -33.852   9.337   1.265  1.00 20.00    -0.130 Cl
ENDBRANCH   7  11
TORSDOF 1
