REMARK  2 active torsions:
REMARK  status: ('A' for Active; 'I' for Inactive)
REMARK    1  A    between atoms: C4_4  and  C9_9 
REMARK    2  A    between atoms: C5_5  and  C6_6 
ROOT
HETATM    1  C3  UNL     1     -34.698   6.594   3.592  1.00 20.00     0.017 A 
HETATM    2  C4  UNL     1     -33.221   6.443   3.822  1.00 20.00     0.009 A 
HETATM    3  C6  UNL     1     -34.175   5.333   4.262  1.00 20.00    -0.032 A 
HETATM    4  C8  UNL     1     -34.236   4.062   3.450  1.00 20.00     0.016 C 
ENDROOT
BRANCH   3   5
HETATM    5  C5  UNL     1     -34.409   5.103   5.763  1.00 20.00    -0.036 A 
HETATM    6  C1  UNL     1     -33.402   5.596   6.776  1.00 20.00     0.011 A 
HETATM    7  C2  UNL     1     -34.743   6.265   6.669  1.00 20.00     0.011 A 
HETATM    8  C7  UNL     1     -35.089   3.792   6.074  1.00 20.00     0.016 C 
ENDBRANCH   3   5
BRANCH   2   9
HETATM    9  C9  UNL     1     -32.289   6.298   2.668  1.00 20.00     0.120 C 
HETATM   10 CL10 UNL     1     -31.939   7.880   1.918  1.00 20.00    -0.130 Cl
ENDBRANCH   2   9
TORSDOF 2
