REMARK  1 active torsions:
REMARK  status: ('A' for Active; 'I' for Inactive)
REMARK    1  A    between atoms: C5_5  and  C10_10 
ROOT
HETATM    1  C1  UNL     1     -35.571   5.067   4.038  1.00 20.00     0.002 C 
HETATM    2  C2  UNL     1     -34.412   4.977   3.053  1.00 20.00     0.011 C 
HETATM    3  C3  UNL     1     -34.889   5.408   5.354  1.00 20.00     0.010 C 
HETATM    4  C4  UNL     1     -31.903   5.576   3.291  1.00 20.00     0.017 A 
HETATM    5  C5  UNL     1     -32.529   6.729   2.568  1.00 20.00     0.009 A 
HETATM    6  C6  UNL     1     -33.353   5.936   3.583  1.00 20.00    -0.028 A 
HETATM    7  C7  UNL     1     -33.804   6.450   4.964  1.00 20.00    -0.040 C 
HETATM    8  C8  UNL     1     -34.455   7.842   4.874  1.00 20.00     0.015 C 
HETATM    9  C9  UNL     1     -32.720   6.459   6.044  1.00 20.00     0.015 C 
ENDROOT
BRANCH   5  10
HETATM   10  C10 UNL     1     -31.976   8.094   2.781  1.00 20.00     0.120 C 
HETATM   11 CL11 UNL     1     -32.862   9.311   1.819  1.00 20.00    -0.130 Cl
ENDBRANCH   5  10
TORSDOF 1
