REMARK  2 active torsions:
REMARK  status: ('A' for Active; 'I' for Inactive)
REMARK    1  A    between atoms: C3_3  and  C6_6 
REMARK    2  A    between atoms: C7_7  and  C9_9 
ROOT
HETATM    1  C1  UNL     1     -33.221   7.447   4.555  1.00 20.00     0.016 A 
HETATM    2  C2  UNL     1     -34.167   6.547   5.127  1.00 20.00     0.015 A 
HETATM    3  C3  UNL     1     -32.632   6.928   3.423  1.00 20.00    -0.013 A 
HETATM    4  C4  UNL     1     -34.264   5.375   4.410  1.00 20.00    -0.021 A 
HETATM    5  C8  UNL     1     -35.127   4.204   4.674  1.00 20.00     0.056 C 
HETATM    6  S10 UNL     1     -33.218   5.362   3.053  1.00 20.00    -0.099 SA
ENDROOT
BRANCH   3   7
HETATM    7  C6  UNL     1     -31.574   7.665   2.583  1.00 20.00     0.031 A 
HETATM    8  C5  UNL     1     -31.815   7.825   1.098  1.00 20.00     0.016 A 
HETATM    9  C7  UNL     1     -31.872   9.029   1.991  1.00 20.00     0.005 A 
BRANCH   9  10
HETATM   10  C9  UNL     1     -33.167   9.733   2.213  1.00 20.00     0.090 C 
HETATM   11 BR11 UNL     1     -33.546  10.947   0.733  1.00 20.00    -0.096 Br
ENDBRANCH   9  10
ENDBRANCH   3   7
TORSDOF 2
