REMARK  3 active torsions:
REMARK  status: ('A' for Active; 'I' for Inactive)
REMARK    1  A    between atoms: C4_4  and  C6_6 
REMARK    2  A    between atoms: C5_5  and  C8_8 
REMARK    3  A    between atoms: C6_6  and  C9_9 
ROOT
HETATM    1  C3  UNL     1     -32.101   5.575   3.948  1.00 20.00     0.017 A 
HETATM    2  C5  UNL     1     -31.969   7.042   3.656  1.00 20.00     0.009 A 
HETATM    3  C6  UNL     1     -33.220   6.522   4.350  1.00 20.00    -0.032 A 
ENDROOT
BRANCH   3   4
HETATM    4  C4  UNL     1     -34.578   6.457   3.638  1.00 20.00    -0.006 A 
HETATM    5  C1  UNL     1     -34.827   5.580   2.443  1.00 20.00     0.006 A 
HETATM    6  C2  UNL     1     -35.499   5.274   3.752  1.00 20.00     0.006 A 
ENDBRANCH   3   4
BRANCH   3   7
HETATM    7  C9  UNL     1     -33.336   6.840   5.822  1.00 20.00     0.006 C 
HETATM    8  C7  UNL     1     -33.576   5.614   6.652  1.00 20.00     0.006 C 
ENDBRANCH   3   7
BRANCH   2   9
HETATM    9  C8  UNL     1     -31.989   7.530   2.248  1.00 20.00     0.120 C 
HETATM   10 CL10 UNL     1     -32.402   9.265   2.171  1.00 20.00    -0.130 Cl
ENDBRANCH   2   9
TORSDOF 3
