REMARK  0 active torsions:
REMARK  status: ('A' for Active; 'I' for Inactive)
ROOT
HETATM    1  C1  UNL     1     -35.037   3.893   6.310  1.00 20.00     0.006 C 
HETATM    2  C2  UNL     1     -35.236   5.417   6.376  1.00 20.00     0.038 C 
HETATM    3  C3  UNL     1     -33.897   4.144   5.308  1.00 20.00     0.038 C 
HETATM    4  C4  UNL     1     -33.528   5.815   2.455  1.00 20.00     0.046 C 
HETATM    5  C5  UNL     1     -33.637   6.717   4.827  1.00 20.00     0.058 C 
HETATM    6  C6  UNL     1     -34.964   5.305   2.559  1.00 20.00     0.170 C 
HETATM    7  C7  UNL     1     -33.335   7.029   3.355  1.00 20.00     0.087 C 
HETATM    8  C8  UNL     1     -34.576   5.511   4.968  1.00 20.00     0.062 C 
HETATM    9  O9  UNL     1     -35.514   5.482   3.865  1.00 20.00    -0.380 OA
HETATM   10 CL10 UNL     1     -31.678   7.671   3.182  1.00 20.00    -0.125 Cl
ENDROOT
TORSDOF 0
