REMARK  4 active torsions:
REMARK  status: ('A' for Active; 'I' for Inactive)
REMARK    1  A    between atoms: C2_2  and  C6_6 
REMARK    2  A    between atoms: C3_3  and  C7_7 
REMARK    3  A    between atoms: C3_3  and  C8_8 
REMARK    4  A    between atoms: C8_8  and  O9_9 
ROOT
HETATM    1  C1  UNL     1     -32.619   5.474   4.326  1.00 20.00     0.018 A 
HETATM    2  C2  UNL     1     -32.563   6.867   3.768  1.00 20.00     0.011 A 
HETATM    3  C3  UNL     1     -33.823   6.389   4.476  1.00 20.00    -0.014 A 
ENDROOT
BRANCH   3   4
HETATM    4  C7  UNL     1     -34.105   6.964   5.840  1.00 20.00     0.007 C 
HETATM    5  C4  UNL     1     -34.349   5.900   6.871  1.00 20.00     0.006 C 
ENDBRANCH   3   4
BRANCH   3   6
HETATM    6  C8  UNL     1     -35.060   6.067   3.681  1.00 20.00     0.176 C 
BRANCH   6   7
HETATM    7  O9  UNL     1     -35.779   5.025   4.328  1.00 20.00    -0.395 OA
HETATM    8  C5  UNL     1     -35.214   3.751   4.049  1.00 20.00     0.201 C 
ENDBRANCH   6   7
ENDBRANCH   3   6
BRANCH   2   9
HETATM    9  C6  UNL     1     -32.502   7.086   2.295  1.00 20.00     0.120 C 
HETATM   10 CL10 UNL     1     -32.453   8.826   1.901  1.00 20.00    -0.130 Cl
ENDBRANCH   2   9
TORSDOF 4
