REMARK  3 active torsions:
REMARK  status: ('A' for Active; 'I' for Inactive)
REMARK    1  A    between atoms: C1_1  and  C5_5 
REMARK    2  A    between atoms: C5_5  and  C7_7 
REMARK    3  A    between atoms: C6_6  and  C7_7 
ROOT
HETATM    1  C5  UNL     1     -33.494   7.187   4.404  1.00 20.00     0.274 C 
HETATM    2  F10 UNL     1     -32.708   7.101   5.517  1.00 20.00    -0.238 F 
ENDROOT
BRANCH   1   3
HETATM    3  C1  UNL     1     -32.525   6.968   3.242  1.00 20.00     0.208 C 
HETATM    4  O8  UNL     1     -32.016   5.812   3.188  1.00 20.00    -0.646 OA
HETATM    5  O9  UNL     1     -32.360   7.957   2.475  1.00 20.00    -0.646 OA
ENDBRANCH   1   3
BRANCH   1   6
HETATM    6  C7  UNL     1     -34.608   6.135   4.519  1.00 20.00     0.029 C 
HETATM    7  C4  UNL     1     -35.202   5.878   3.126  1.00 20.00     0.014 C 
BRANCH   6   8
HETATM    8  C6  UNL     1     -34.138   4.836   5.235  1.00 20.00    -0.016 C 
HETATM    9  C2  UNL     1     -34.089   5.011   6.758  1.00 20.00     0.010 C 
HETATM   10  C3  UNL     1     -34.969   3.597   4.888  1.00 20.00     0.010 C 
ENDBRANCH   6   8
ENDBRANCH   1   6
TORSDOF 3
