REMARK  2 active torsions:
REMARK  status: ('A' for Active; 'I' for Inactive)
REMARK    1  A    between atoms: C3_3  and  C7_7 
REMARK    2  A    between atoms: C4_4  and  O8_8 
ROOT
HETATM    1  C1  UNL     1     -35.037   5.314   6.148  1.00 20.00     0.037 C 
HETATM    2  C2  UNL     1     -34.361   6.634   5.706  1.00 20.00    -0.010 C 
HETATM    3  C3  UNL     1     -34.315   6.047   4.259  1.00 20.00     0.018 C 
HETATM    4  C4  UNL     1     -35.492   5.119   4.684  1.00 20.00     0.122 C 
HETATM    5  C5  UNL     1     -33.071   6.999   6.413  1.00 20.00     0.010 C 
ENDROOT
BRANCH   3   6
HETATM    6  C7  UNL     1     -33.038   5.358   3.798  1.00 20.00     0.003 C 
HETATM    7  C6  UNL     1     -31.917   6.331   3.613  1.00 20.00     0.005 C 
ENDBRANCH   3   6
BRANCH   4   8
HETATM    8  O8  UNL     1     -35.468   3.771   4.185  1.00 20.00    -0.395 OA
HETATM    9  H22 UNL     1     -36.065   3.268   4.754  1.00 20.00     0.210 HD
ENDBRANCH   4   8
TORSDOF 2
