REMARK  1 active torsions:
REMARK  status: ('A' for Active; 'I' for Inactive)
REMARK    1  A    between atoms: C4_4  and  C8_8 
ROOT
HETATM    1  C1  UNL     1     -33.800   8.030   2.916  1.00 20.00     0.017 A 
HETATM    2  C2  UNL     1     -33.485   6.335   4.863  1.00 20.00     0.025 C 
HETATM    3  C3  UNL     1     -34.176   5.473   2.631  1.00 20.00     0.084 C 
HETATM    4  C4  UNL     1     -32.430   7.431   2.755  1.00 20.00     0.009 A 
HETATM    5  C5  UNL     1     -34.831   5.731   5.243  1.00 20.00     0.044 C 
HETATM    6  C6  UNL     1     -33.542   6.612   3.383  1.00 20.00    -0.026 A 
HETATM    7  C7  UNL     1     -34.791   4.982   6.563  1.00 20.00     0.021 C 
HETATM    8  S9  UNL     1     -35.221   4.620   3.856  1.00 20.00    -0.164 SA
ENDROOT
BRANCH   4   9
HETATM    9  C8  UNL     1     -31.900   7.139   1.393  1.00 20.00     0.120 C 
HETATM   10 CL10 UNL     1     -31.276   8.617   0.611  1.00 20.00    -0.130 Cl
ENDBRANCH   4   9
TORSDOF 1
