REMARK  1 active torsions:
REMARK  status: ('A' for Active; 'I' for Inactive)
REMARK    1  A    between atoms: C1_1  and  C5_5 
ROOT
HETATM    1  C2  UNL     1     -34.593   5.063   4.040  1.00 20.00     0.013 C 
HETATM    2  C3  UNL     1     -34.040   5.758   2.792  1.00 20.00     0.009 C 
HETATM    3  C4  UNL     1     -33.604   7.594   4.499  1.00 20.00     0.013 C 
HETATM    4  C5  UNL     1     -33.615   5.128   5.210  1.00 20.00     0.051 C 
HETATM    5  C6  UNL     1     -33.304   6.584   5.630  1.00 20.00    -0.007 C 
HETATM    6  C7  UNL     1     -33.273   7.074   3.083  1.00 20.00    -0.047 C 
HETATM    7  C8  UNL     1     -34.017   7.049   6.906  1.00 20.00     0.011 C 
HETATM    8  C9  UNL     1     -33.688   8.142   2.052  1.00 20.00     0.015 C 
HETATM    9  C10 UNL     1     -31.754   6.852   2.934  1.00 20.00     0.015 C 
ENDROOT
BRANCH   4  10
HETATM   10  C1  UNL     1     -34.120   4.273   6.335  1.00 20.00     0.236 C 
HETATM   11  O11 UNL     1     -35.202   3.696   6.313  1.00 20.00    -0.306 OA
ENDBRANCH   4  10
TORSDOF 1
