REMARK  1 active torsions:
REMARK  status: ('A' for Active; 'I' for Inactive)
REMARK    1  A    between atoms: C5_5  and  C9_9 
ROOT
HETATM    1  C1  UNL     1     -33.637   7.760   4.852  1.00 20.00     0.036 C 
HETATM    2  C2  UNL     1     -31.817   6.688   3.333  1.00 20.00     0.016 A 
HETATM    3  C3  UNL     1     -34.063   5.484   3.875  1.00 20.00     0.041 C 
HETATM    4  C4  UNL     1     -33.602   7.084   6.219  1.00 20.00     0.169 C 
HETATM    5  C5  UNL     1     -32.858   7.234   2.393  1.00 20.00     0.009 A 
HETATM    6  C6  UNL     1     -33.992   4.933   5.302  1.00 20.00     0.118 C 
HETATM    7  C7  UNL     1     -33.261   6.764   3.779  1.00 20.00    -0.031 A 
HETATM    8  C8  UNL     1     -34.884   3.710   5.462  1.00 20.00     0.039 C 
HETATM    9  O10 UNL     1     -34.445   5.929   6.230  1.00 20.00    -0.386 OA
ENDROOT
BRANCH   5  10
HETATM   10  C9  UNL     1     -32.841   8.673   2.006  1.00 20.00     0.120 C 
HETATM   11 CL11 UNL     1     -31.627   8.987   0.735  1.00 20.00    -0.130 Cl
ENDBRANCH   5  10
TORSDOF 1
