REMARK  1 active torsions:
REMARK  status: ('A' for Active; 'I' for Inactive)
REMARK    1  A    between atoms: C5_5  and  C10_10 
ROOT
HETATM    1  C1  UNL     1     -34.132   6.020   6.268  1.00 20.00     0.002 C 
HETATM    2  C2  UNL     1     -33.054   6.886   5.625  1.00 20.00     0.011 C 
HETATM    3  C3  UNL     1     -34.216   4.818   5.340  1.00 20.00     0.010 C 
HETATM    4  C4  UNL     1     -31.833   6.705   3.349  1.00 20.00     0.017 A 
HETATM    5  C5  UNL     1     -32.894   7.746   3.158  1.00 20.00     0.005 A 
HETATM    6  C6  UNL     1     -33.134   6.592   4.132  1.00 20.00    -0.029 A 
HETATM    7  C7  UNL     1     -34.121   5.429   3.914  1.00 20.00    -0.040 C 
HETATM    8  C8  UNL     1     -33.646   4.342   2.945  1.00 20.00     0.015 C 
HETATM    9  C9  UNL     1     -35.513   5.928   3.487  1.00 20.00     0.015 C 
ENDROOT
BRANCH   5  10
HETATM   10  C10 UNL     1     -33.523   7.891   1.818  1.00 20.00     0.090 C 
HETATM   11 BR11 UNL     1     -32.391   8.964   0.643  1.00 20.00    -0.096 Br
ENDBRANCH   5  10
TORSDOF 1
