REMARK  2 active torsions:
REMARK  status: ('A' for Active; 'I' for Inactive)
REMARK    1  A    between atoms: C3_3  and  C6_6 
REMARK    2  A    between atoms: C7_7  and  C9_9 
ROOT
HETATM    1  C1  UNL     1     -34.458   4.914   3.447  1.00 20.00     0.016 A 
HETATM    2  C2  UNL     1     -35.040   4.027   4.398  1.00 20.00     0.015 A 
HETATM    3  C3  UNL     1     -33.999   6.072   4.033  1.00 20.00    -0.013 A 
HETATM    4  C4  UNL     1     -35.003   4.541   5.675  1.00 20.00    -0.021 A 
HETATM    5  C8  UNL     1     -35.498   3.930   6.928  1.00 20.00     0.056 C 
HETATM    6  S10 UNL     1     -34.269   6.088   5.724  1.00 20.00    -0.099 SA
ENDROOT
BRANCH   3   7
HETATM    7  C6  UNL     1     -33.331   7.199   3.280  1.00 20.00     0.031 A 
HETATM    8  C5  UNL     1     -31.968   7.700   3.707  1.00 20.00     0.016 A 
HETATM    9  C7  UNL     1     -32.107   6.921   2.432  1.00 20.00     0.009 A 
BRANCH   9  10
HETATM   10  C9  UNL     1     -31.939   7.601   1.117  1.00 20.00     0.120 C 
HETATM   11 CL11 UNL     1     -32.701   9.215   1.121  1.00 20.00    -0.130 Cl
ENDBRANCH   9  10
ENDBRANCH   3   7
TORSDOF 2
