REMARK  1 active torsions:
REMARK  status: ('A' for Active; 'I' for Inactive)
REMARK    1  A    between atoms: C5_5  and  C10_10 
ROOT
HETATM    1  C1  UNL     1     -35.317   5.159   5.466  1.00 20.00     0.019 C 
HETATM    2  C2  UNL     1     -34.140   7.708   3.410  1.00 20.00     0.018 A 
HETATM    3  C3  UNL     1     -34.492   5.261   6.742  1.00 20.00     0.075 C 
HETATM    4  C4  UNL     1     -32.662   6.620   5.225  1.00 20.00     0.084 C 
HETATM    5  C5  UNL     1     -33.125   6.881   2.672  1.00 20.00     0.010 A 
HETATM    6  C6  UNL     1     -33.613   6.433   4.054  1.00 20.00    -0.020 A 
HETATM    7  C7  UNL     1     -34.509   5.158   4.138  1.00 20.00    -0.038 C 
HETATM    8  C8  UNL     1     -35.558   5.046   3.002  1.00 20.00     0.015 C 
HETATM    9  C9  UNL     1     -33.624   3.895   4.039  1.00 20.00     0.015 C 
HETATM   10  S11 UNL     1     -33.552   6.806   6.785  1.00 20.00    -0.168 SA
ENDROOT
BRANCH   5  11
HETATM   11  C10 UNL     1     -31.756   7.418   2.424  1.00 20.00     0.120 C 
HETATM   12 CL12 UNL     1     -31.742   8.529   1.028  1.00 20.00    -0.130 Cl
ENDBRANCH   5  11
TORSDOF 1
