REMARK  3 active torsions:
REMARK  status: ('A' for Active; 'I' for Inactive)
REMARK    1  A    between atoms: C2_2  and  C6_6 
REMARK    2  A    between atoms: C3_3  and  C7_7 
REMARK    3  A    between atoms: C6_6  and  O8_8 
ROOT
HETATM    1  C1  UNL     1     -33.029   4.372   4.485  1.00 20.00     0.017 A 
HETATM    2  C2  UNL     1     -34.074   5.330   4.983  1.00 20.00     0.018 A 
HETATM    3  C3  UNL     1     -33.368   5.600   3.655  1.00 20.00    -0.038 A 
HETATM    4  C4  UNL     1     -34.103   5.397   2.357  1.00 20.00     0.015 C 
ENDROOT
BRANCH   2   5
HETATM    5  C6  UNL     1     -35.501   4.910   5.066  1.00 20.00     0.169 C 
BRANCH   5   6
HETATM    6  O8  UNL     1     -35.709   4.126   6.241  1.00 20.00    -0.400 OA
HETATM    7  H22 UNL     1     -36.647   3.882   6.244  1.00 20.00     0.209 HD
ENDBRANCH   5   6
ENDBRANCH   2   5
BRANCH   3   8
HETATM    8  C7  UNL     1     -32.368   6.726   3.623  1.00 20.00     0.005 C 
HETATM    9  C5  UNL     1     -32.825   7.873   2.769  1.00 20.00     0.006 C 
ENDBRANCH   3   8
TORSDOF 3
