REMARK  2 active torsions:
REMARK  status: ('A' for Active; 'I' for Inactive)
REMARK    1  A    between atoms: C4_4  and  C8_8 
REMARK    2  A    between atoms: C8_8  and  O9_9 
ROOT
HETATM    1  C1  UNL     1     -31.845   6.502   3.664  1.00 20.00     0.018 A 
HETATM    2  C2  UNL     1     -34.216   6.892   4.667  1.00 20.00     0.025 C 
HETATM    3  C3  UNL     1     -33.999   5.528   2.578  1.00 20.00     0.084 C 
HETATM    4  C4  UNL     1     -32.459   7.595   2.840  1.00 20.00     0.019 A 
HETATM    5  C5  UNL     1     -34.941   5.623   5.102  1.00 20.00     0.044 C 
HETATM    6  C6  UNL     1     -33.350   6.544   3.482  1.00 20.00    -0.025 A 
HETATM    7  C7  UNL     1     -34.068   4.696   5.939  1.00 20.00     0.021 C 
HETATM    8  S10 UNL     1     -35.379   4.826   3.531  1.00 20.00    -0.164 SA
ENDROOT
BRANCH   4   9
HETATM    9  C8  UNL     1     -32.419   9.006   3.319  1.00 20.00     0.169 C 
BRANCH   9  10
HETATM   10  O9  UNL     1     -33.417   9.775   2.647  1.00 20.00    -0.400 OA
HETATM   11  H24 UNL     1     -33.346  10.677   2.994  1.00 20.00     0.209 HD
ENDBRANCH   9  10
ENDBRANCH   4   9
TORSDOF 2
