REMARK  1 active torsions:
REMARK  status: ('A' for Active; 'I' for Inactive)
REMARK    1  A    between atoms: C4_4  and  C9_9 
ROOT
HETATM    1  C1  UNL     1     -34.386   5.465   5.490  1.00 20.00     0.131 C 
HETATM    2  C2  UNL     1     -33.448   6.675   5.327  1.00 20.00     0.084 C 
HETATM    3  C3  UNL     1     -34.201   5.048   4.011  1.00 20.00     0.056 C 
HETATM    4  C4  UNL     1     -32.990   6.047   3.981  1.00 20.00     0.011 C 
HETATM    5  C5  UNL     1     -35.412   5.304   3.133  1.00 20.00     0.018 C 
HETATM    6  O10 UNL     1     -35.025   5.017   6.418  1.00 20.00    -0.298 OA
ENDROOT
BRANCH   4   7
HETATM    7  C9  UNL     1     -32.859   7.012   2.817  1.00 20.00    -0.047 C 
HETATM    8  C6  UNL     1     -32.540   6.239   1.522  1.00 20.00     0.015 C 
HETATM    9  C7  UNL     1     -31.723   8.018   3.090  1.00 20.00     0.015 C 
HETATM   10  C8  UNL     1     -34.176   7.788   2.622  1.00 20.00     0.015 C 
ENDBRANCH   4   7
TORSDOF 1
