REMARK  1 active torsions:
REMARK  status: ('A' for Active; 'I' for Inactive)
REMARK    1  A    between atoms: C6_6  and  C8_8 
ROOT
HETATM    1  C1  UNL     1     -34.937   3.691   4.846  1.00 20.00     0.011 C 
HETATM    2  C2  UNL     1     -33.761   4.245   4.044  1.00 20.00     0.011 C 
HETATM    3  C3  UNL     1     -34.545   6.527   3.064  1.00 20.00     0.017 A 
HETATM    4  C4  UNL     1     -34.888   4.091   6.315  1.00 20.00     0.074 C 
HETATM    5  C5  UNL     1     -33.547   6.345   5.458  1.00 20.00     0.083 C 
HETATM    6  C6  UNL     1     -33.054   6.438   2.887  1.00 20.00     0.009 A 
HETATM    7  C7  UNL     1     -33.719   5.760   4.078  1.00 20.00    -0.027 A 
HETATM    8  S9  UNL     1     -34.949   5.896   6.518  1.00 20.00    -0.168 SA
ENDROOT
BRANCH   6   9
HETATM    9  C8  UNL     1     -32.208   7.658   3.013  1.00 20.00     0.120 C 
HETATM   10 CL10 UNL     1     -32.241   8.626   1.513  1.00 20.00    -0.130 Cl
ENDBRANCH   6   9
TORSDOF 1
