REMARK  2 active torsions:
REMARK  status: ('A' for Active; 'I' for Inactive)
REMARK    1  A    between atoms: C3_3  and  O9_9 
REMARK    2  A    between atoms: C4_4  and  C8_8 
ROOT
HETATM    1  C1  UNL     1     -35.048   5.523   6.193  1.00 20.00     0.037 C 
HETATM    2  C2  UNL     1     -34.129   6.577   5.530  1.00 20.00    -0.006 C 
HETATM    3  C3  UNL     1     -35.369   4.987   4.779  1.00 20.00     0.127 C 
HETATM    4  C4  UNL     1     -34.012   5.607   4.299  1.00 20.00    -0.015 C 
HETATM    5  C5  UNL     1     -32.886   6.969   6.308  1.00 20.00     0.011 C 
HETATM    6  C6  UNL     1     -32.828   4.636   4.308  1.00 20.00     0.018 C 
ENDROOT
BRANCH   4   7
HETATM    7  C8  UNL     1     -34.113   6.324   2.954  1.00 20.00     0.007 C 
HETATM    8  C7  UNL     1     -33.033   7.342   2.790  1.00 20.00     0.006 C 
ENDBRANCH   4   7
BRANCH   3   9
HETATM    9  O9  UNL     1     -35.508   3.560   4.653  1.00 20.00    -0.395 OA
HETATM   10  H25 UNL     1     -36.235   3.314   5.240  1.00 20.00     0.210 HD
ENDBRANCH   3   9
TORSDOF 2
