REMARK  3 active torsions:
REMARK  status: ('A' for Active; 'I' for Inactive)
REMARK    1  A    between atoms: C2_2  and  C6_6 
REMARK    2  A    between atoms: C3_3  and  C7_7 
REMARK    3  A    between atoms: C7_7  and  C8_8 
ROOT
HETATM    1  C1  UNL     1     -32.688   5.029   3.576  1.00 20.00     0.016 A 
HETATM    2  C2  UNL     1     -32.995   6.263   2.776  1.00 20.00     0.008 A 
HETATM    3  C3  UNL     1     -33.604   6.089   4.167  1.00 20.00    -0.039 A 
HETATM    4  C4  UNL     1     -33.090   6.906   5.322  1.00 20.00     0.015 C 
ENDROOT
BRANCH   3   5
HETATM    5  C7  UNL     1     -35.077   5.784   4.239  1.00 20.00     0.009 C 
BRANCH   5   6
HETATM    6  C8  UNL     1     -35.415   4.860   5.414  1.00 20.00    -0.004 C 
HETATM    7  C5  UNL     1     -34.718   3.514   5.299  1.00 20.00     0.005 C 
ENDBRANCH   5   6
ENDBRANCH   3   5
BRANCH   2   8
HETATM    8  C6  UNL     1     -31.924   7.257   2.486  1.00 20.00     0.120 C 
HETATM    9 CL9  UNL     1     -32.614   8.842   2.042  1.00 20.00    -0.130 Cl
ENDBRANCH   2   8
TORSDOF 3
