REMARK  2 active torsions:
REMARK  status: ('A' for Active; 'I' for Inactive)
REMARK    1  A    between atoms: C4_4  and  C6_6 
REMARK    2  A    between atoms: C5_5  and  C8_8 
ROOT
HETATM    1  C3  UNL     1     -31.731   5.903   3.360  1.00 20.00     0.016 A 
HETATM    2  C5  UNL     1     -32.828   6.761   2.796  1.00 20.00     0.009 A 
HETATM    3  C6  UNL     1     -32.997   6.121   4.174  1.00 20.00    -0.035 A 
HETATM    4  C7  UNL     1     -32.869   6.993   5.400  1.00 20.00     0.016 C 
ENDROOT
BRANCH   3   5
HETATM    5  C4  UNL     1     -34.011   4.980   4.346  1.00 20.00    -0.006 A 
HETATM    6  C1  UNL     1     -34.284   4.332   5.676  1.00 20.00     0.006 A 
HETATM    7  C2  UNL     1     -35.342   5.172   5.018  1.00 20.00     0.006 A 
ENDBRANCH   3   5
BRANCH   2   8
HETATM    8  C8  UNL     1     -32.618   8.224   2.603  1.00 20.00     0.120 C 
HETATM    9 CL9  UNL     1     -31.690   8.552   1.113  1.00 20.00    -0.130 Cl
ENDBRANCH   2   8
TORSDOF 2
