REMARK  1 active torsions:
REMARK  status: ('A' for Active; 'I' for Inactive)
REMARK    1  A    between atoms: C5_5  and  C7_7 
ROOT
HETATM    1  C1  UNL     1     -35.156   4.969   6.555  1.00 20.00     0.002 C 
HETATM    2  C2  UNL     1     -34.232   6.138   6.170  1.00 20.00     0.010 C 
HETATM    3  C3  UNL     1     -34.633   4.214   5.320  1.00 20.00     0.010 C 
HETATM    4  C4  UNL     1     -34.851   6.214   3.589  1.00 20.00     0.016 A 
HETATM    5  C5  UNL     1     -33.384   5.862   3.647  1.00 20.00     0.005 A 
HETATM    6  C6  UNL     1     -34.276   5.558   4.807  1.00 20.00    -0.036 A 
ENDROOT
BRANCH   5   7
HETATM    7  C7  UNL     1     -32.362   6.942   3.726  1.00 20.00     0.090 C 
HETATM    8 BR8  UNL     1     -32.004   7.675   1.953  1.00 20.00    -0.096 Br
ENDBRANCH   5   7
TORSDOF 1
