REMARK  1 active torsions:
REMARK  status: ('A' for Active; 'I' for Inactive)
REMARK    1  A    between atoms: C6_6  and  C8_8 
ROOT
HETATM    1  C1  UNL     1     -35.347   5.101   3.348  1.00 20.00     0.011 C 
HETATM    2  C2  UNL     1     -34.602   6.366   2.918  1.00 20.00     0.011 C 
HETATM    3  C3  UNL     1     -32.068   5.772   2.884  1.00 20.00     0.017 A 
HETATM    4  C4  UNL     1     -35.561   5.018   4.854  1.00 20.00     0.074 C 
HETATM    5  C5  UNL     1     -33.264   6.515   5.072  1.00 20.00     0.083 C 
HETATM    6  C6  UNL     1     -32.138   7.274   2.887  1.00 20.00     0.009 A 
HETATM    7  C7  UNL     1     -33.235   6.461   3.564  1.00 20.00    -0.027 A 
HETATM    8  S9  UNL     1     -33.981   4.998   5.751  1.00 20.00    -0.168 SA
ENDROOT
BRANCH   6   9
HETATM    9  C8  UNL     1     -32.346   8.019   1.613  1.00 20.00     0.120 C 
HETATM   10 CL10 UNL     1     -32.967   9.664   1.920  1.00 20.00    -0.130 Cl
ENDBRANCH   6   9
TORSDOF 1
