REMARK  1 active torsions:
REMARK  status: ('A' for Active; 'I' for Inactive)
REMARK    1  A    between atoms: C4_4  and  C10_10 
ROOT
HETATM    1  C1  UNL     1     -32.945   7.967   5.339  1.00 20.00     0.007 C 
HETATM    2  C2  UNL     1     -31.586   8.259   4.705  1.00 20.00     0.009 C 
HETATM    3  C3  UNL     1     -31.924   6.292   3.136  1.00 20.00     0.013 C 
HETATM    4  C4  UNL     1     -33.283   6.472   5.278  1.00 20.00     0.003 C 
HETATM    5  C5  UNL     1     -33.252   5.928   3.832  1.00 20.00    -0.013 C 
HETATM    6  C6  UNL     1     -31.465   7.767   3.248  1.00 20.00    -0.047 C 
HETATM    7  C7  UNL     1     -34.480   6.298   2.995  1.00 20.00     0.010 C 
HETATM    8  C8  UNL     1     -32.253   8.687   2.299  1.00 20.00     0.015 C 
HETATM    9  C9  UNL     1     -29.982   7.845   2.823  1.00 20.00     0.015 C 
ENDROOT
BRANCH   4  10
HETATM   10  C10 UNL     1     -34.605   6.190   5.995  1.00 20.00     0.119 C 
HETATM   11 CL11 UNL     1     -34.983   4.463   5.906  1.00 20.00    -0.130 Cl
ENDBRANCH   4  10
TORSDOF 1
