REMARK  2 active torsions:
REMARK  status: ('A' for Active; 'I' for Inactive)
REMARK    1  A    between atoms: C4_4  and  C9_9 
REMARK    2  A    between atoms: C5_5  and  C6_6 
ROOT
HETATM    1  C3  UNL     1     -34.727   6.414   3.642  1.00 20.00     0.017 A 
HETATM    2  C4  UNL     1     -33.434   5.782   3.210  1.00 20.00     0.009 A 
HETATM    3  C6  UNL     1     -34.217   5.181   4.370  1.00 20.00    -0.032 A 
HETATM    4  C8  UNL     1     -34.932   3.883   4.076  1.00 20.00     0.016 C 
ENDROOT
BRANCH   3   5
HETATM    5  C5  UNL     1     -33.732   5.287   5.822  1.00 20.00    -0.036 A 
HETATM    6  C1  UNL     1     -33.757   6.617   6.538  1.00 20.00     0.011 A 
HETATM    7  C2  UNL     1     -34.719   5.535   6.938  1.00 20.00     0.011 A 
HETATM    8  C7  UNL     1     -32.574   4.373   6.140  1.00 20.00     0.016 C 
ENDBRANCH   3   5
BRANCH   2   9
HETATM    9  C9  UNL     1     -32.145   6.501   3.415  1.00 20.00     0.120 C 
HETATM   10 CL10 UNL     1     -31.876   7.723   2.141  1.00 20.00    -0.130 Cl
ENDBRANCH   2   9
TORSDOF 2
