REMARK  2 active torsions:
REMARK  status: ('A' for Active; 'I' for Inactive)
REMARK    1  A    between atoms: C5_5  and  C6_6 
REMARK    2  A    between atoms: C7_7  and  C8_8 
ROOT
HETATM    1  C1  UNL     1     -34.631   5.342   3.981  1.00 20.00     0.033 C 
HETATM    2  C3  UNL     1     -35.624   5.215   5.117  1.00 20.00     0.168 C 
HETATM    3  C4  UNL     1     -33.602   5.973   5.992  1.00 20.00     0.172 C 
HETATM    4  C5  UNL     1     -33.669   6.374   4.528  1.00 20.00     0.016 C 
HETATM    5  O9  UNL     1     -34.898   5.457   6.332  1.00 20.00    -0.391 OA
ENDROOT
BRANCH   4   6
HETATM    6  C6  UNL     1     -32.319   6.394   3.837  1.00 20.00    -0.003 A 
HETATM    7  C2  UNL     1     -31.470   7.636   3.872  1.00 20.00     0.011 A 
HETATM    8  C7  UNL     1     -32.072   7.175   2.570  1.00 20.00     0.000 A 
BRANCH   8   9
HETATM    9  C8  UNL     1     -33.134   7.982   1.905  1.00 20.00     0.090 C 
HETATM   10 BR10 UNL     1     -32.349   9.505   0.970  1.00 20.00    -0.096 Br
ENDBRANCH   8   9
ENDBRANCH   4   6
TORSDOF 2
