REMARK  3 active torsions:
REMARK  status: ('A' for Active; 'I' for Inactive)
REMARK    1  A    between atoms: C4_4  and  C6_6 
REMARK    2  A    between atoms: C5_5  and  C8_8 
REMARK    3  A    between atoms: C6_6  and  C9_9 
ROOT
HETATM    1  C3  UNL     1     -31.822   6.097   3.403  1.00 20.00     0.017 A 
HETATM    2  C5  UNL     1     -31.976   7.568   3.139  1.00 20.00     0.009 A 
HETATM    3  C6  UNL     1     -33.041   6.829   3.938  1.00 20.00    -0.032 A 
ENDROOT
BRANCH   3   4
HETATM    4  C4  UNL     1     -33.175   7.109   5.444  1.00 20.00    -0.006 A 
HETATM    5  C1  UNL     1     -34.386   6.706   6.239  1.00 20.00     0.006 A 
HETATM    6  C2  UNL     1     -33.067   6.027   6.482  1.00 20.00     0.006 A 
ENDBRANCH   3   4
BRANCH   3   7
HETATM    7  C9  UNL     1     -34.361   6.518   3.274  1.00 20.00     0.006 C 
HETATM    8  C7  UNL     1     -34.726   5.067   3.387  1.00 20.00     0.006 C 
ENDBRANCH   3   7
BRANCH   2   9
HETATM    9  C8  UNL     1     -32.201   8.068   1.754  1.00 20.00     0.120 C 
HETATM   10 CL10 UNL     1     -32.918   9.703   1.764  1.00 20.00    -0.130 Cl
ENDBRANCH   2   9
TORSDOF 3
