REMARK  1 active torsions:
REMARK  status: ('A' for Active; 'I' for Inactive)
REMARK    1  A    between atoms: C5_5  and  C10_10 
ROOT
HETATM    1  C1  UNL     1     -31.857   6.674   3.319  1.00 20.00     0.017 A 
HETATM    2  C2  UNL     1     -33.991   6.751   4.835  1.00 20.00     0.020 C 
HETATM    3  C3  UNL     1     -34.091   5.549   2.589  1.00 20.00     0.083 C 
HETATM    4  C4  UNL     1     -34.865   4.355   4.941  1.00 20.00     0.082 C 
HETATM    5  C5  UNL     1     -32.751   7.775   2.826  1.00 20.00     0.009 A 
HETATM    6  C6  UNL     1     -33.361   6.532   3.468  1.00 20.00    -0.026 A 
HETATM    7  C7  UNL     1     -34.111   5.470   5.696  1.00 20.00    -0.038 C 
HETATM    8  C8  UNL     1     -32.722   4.984   6.160  1.00 20.00     0.015 C 
HETATM    9  C9  UNL     1     -34.924   5.822   6.961  1.00 20.00     0.015 C 
HETATM   10  S11 UNL     1     -34.117   3.907   3.345  1.00 20.00    -0.168 SA
ENDROOT
BRANCH   5  11
HETATM   11  C10 UNL     1     -32.843   8.070   1.368  1.00 20.00     0.120 C 
HETATM   12 CL12 UNL     1     -31.463   9.063   0.821  1.00 20.00    -0.130 Cl
ENDBRANCH   5  11
TORSDOF 1
