REMARK  3 active torsions:
REMARK  status: ('A' for Active; 'I' for Inactive)
REMARK    1  A    between atoms: C2_2  and  C7_7 
REMARK    2  A    between atoms: C3_3  and  C9_9 
REMARK    3  A    between atoms: C8_8  and  C9_9 
ROOT
HETATM    1  C1  UNL     1     -34.984   5.967   3.552  1.00 20.00     0.016 A 
HETATM    2  C2  UNL     1     -33.895   5.648   4.536  1.00 20.00     0.009 A 
HETATM    3  C3  UNL     1     -33.535   6.193   3.155  1.00 20.00    -0.036 A 
HETATM    4  C4  UNL     1     -32.914   5.230   2.177  1.00 20.00     0.016 C 
ENDROOT
BRANCH   3   5
HETATM    5  C9  UNL     1     -33.053   7.611   3.007  1.00 20.00    -0.010 C 
HETATM    6  C6  UNL     1     -31.572   7.725   3.406  1.00 20.00     0.011 C 
BRANCH   5   7
HETATM    7  C8  UNL     1     -33.231   8.169   1.574  1.00 20.00     0.000 C 
HETATM    8  C5  UNL     1     -32.722   9.595   1.418  1.00 20.00     0.005 C 
ENDBRANCH   5   7
ENDBRANCH   3   5
BRANCH   2   9
HETATM    9  C7  UNL     1     -33.749   6.453   5.782  1.00 20.00     0.120 C 
HETATM   10 CL10 UNL     1     -34.927   5.943   7.023  1.00 20.00    -0.130 Cl
ENDBRANCH   2   9
TORSDOF 3
