REMARK  1 active torsions:
REMARK  status: ('A' for Active; 'I' for Inactive)
REMARK    1  A    between atoms: C5_5  and  C10_10 
ROOT
HETATM    1  C1  UNL     1     -34.250   5.619   6.035  1.00 20.00     0.019 C 
HETATM    2  C2  UNL     1     -33.965   6.322   2.347  1.00 20.00     0.017 A 
HETATM    3  C3  UNL     1     -35.341   4.722   5.465  1.00 20.00     0.075 C 
HETATM    4  C4  UNL     1     -33.131   4.370   3.818  1.00 20.00     0.084 C 
HETATM    5  C5  UNL     1     -32.488   6.489   2.519  1.00 20.00     0.006 A 
HETATM    6  C6  UNL     1     -33.320   5.868   3.655  1.00 20.00    -0.020 A 
HETATM    7  C7  UNL     1     -33.624   6.610   4.997  1.00 20.00    -0.038 C 
HETATM    8  C8  UNL     1     -32.321   7.135   5.637  1.00 20.00     0.015 C 
HETATM    9  C9  UNL     1     -34.607   7.790   4.846  1.00 20.00     0.015 C 
HETATM   10  S11 UNL     1     -34.702   3.561   4.222  1.00 20.00    -0.168 SA
ENDROOT
BRANCH   5  11
HETATM   11  C10 UNL     1     -31.902   7.855   2.470  1.00 20.00     0.090 C 
HETATM   12 BR12 UNL     1     -31.650   8.429   0.620  1.00 20.00    -0.096 Br
ENDBRANCH   5  11
TORSDOF 1
