REMARK  1 active torsions:
REMARK  status: ('A' for Active; 'I' for Inactive)
REMARK    1  A    between atoms: C5_5  and  C10_10 
ROOT
HETATM    1  C1  UNL     1     -34.694   5.377   2.921  1.00 20.00     0.011 C 
HETATM    2  C2  UNL     1     -35.541   4.957   4.126  1.00 20.00     0.009 C 
HETATM    3  C3  UNL     1     -32.141   5.886   2.760  1.00 20.00     0.016 A 
HETATM    4  C4  UNL     1     -33.437   5.688   5.021  1.00 20.00     0.018 C 
HETATM    5  C5  UNL     1     -32.784   7.221   3.002  1.00 20.00     0.005 A 
HETATM    6  C6  UNL     1     -33.442   5.959   3.532  1.00 20.00    -0.035 A 
HETATM    7  C7  UNL     1     -34.520   4.607   5.222  1.00 20.00    -0.047 C 
HETATM    8  C8  UNL     1     -35.147   4.690   6.615  1.00 20.00     0.015 C 
HETATM    9  C9  UNL     1     -33.936   3.200   5.011  1.00 20.00     0.015 C 
ENDROOT
BRANCH   5  10
HETATM   10  C10 UNL     1     -33.336   7.996   1.856  1.00 20.00     0.090 C 
HETATM   11 BR11 UNL     1     -31.913   8.966   0.939  1.00 20.00    -0.096 Br
ENDBRANCH   5  10
TORSDOF 1
