REMARK  2 active torsions:
REMARK  status: ('A' for Active; 'I' for Inactive)
REMARK    1  A    between atoms: C6_6  and  C10_10 
REMARK    2  A    between atoms: C7_7  and  C9_9 
ROOT
HETATM    1  C1  UNL     1     -32.793   6.825   6.166  1.00 20.00     0.001 C 
HETATM    2  C2  UNL     1     -34.267   6.497   6.401  1.00 20.00     0.013 C 
HETATM    3  C3  UNL     1     -32.580   7.517   4.822  1.00 20.00     0.010 C 
HETATM    4  C4  UNL     1     -34.634   6.348   3.902  1.00 20.00     0.023 C 
HETATM    5  C5  UNL     1     -32.283   5.742   2.938  1.00 20.00     0.016 A 
HETATM    6  C6  UNL     1     -34.882   5.673   5.260  1.00 20.00     0.094 C 
HETATM    7  C7  UNL     1     -32.754   6.997   2.257  1.00 20.00     0.009 A 
HETATM    8  C8  UNL     1     -33.176   6.709   3.690  1.00 20.00    -0.035 A 
ENDROOT
BRANCH   6   9
HETATM    9  C10 UNL     1     -34.387   4.225   5.274  1.00 20.00     0.391 C 
HETATM   10  F11 UNL     1     -34.989   3.523   4.302  1.00 20.00    -0.171 F 
HETATM   11  F12 UNL     1     -33.061   4.189   5.078  1.00 20.00    -0.171 F 
HETATM   12  F13 UNL     1     -34.666   3.655   6.457  1.00 20.00    -0.171 F 
ENDBRANCH   6   9
BRANCH   7  13
HETATM   13  C9  UNL     1     -31.781   8.068   1.900  1.00 20.00     0.120 C 
HETATM   14 CL14 UNL     1     -32.606   9.630   1.640  1.00 20.00    -0.130 Cl
ENDBRANCH   7  13
TORSDOF 2
