REMARK  2 active torsions:
REMARK  status: ('A' for Active; 'I' for Inactive)
REMARK    1  A    between atoms: C6_6  and  C7_7 
REMARK    2  A    between atoms: C8_8  and  C9_9 
ROOT
HETATM    1  C1  UNL     1     -34.002   6.671   5.809  1.00 20.00     0.031 C 
HETATM    2  C2  UNL     1     -34.895   5.808   3.627  1.00 20.00     0.031 C 
HETATM    3  C4  UNL     1     -34.083   5.240   6.327  1.00 20.00     0.168 C 
HETATM    4  C5  UNL     1     -34.926   4.425   4.268  1.00 20.00     0.168 C 
HETATM    5  C6  UNL     1     -33.855   6.725   4.283  1.00 20.00    -0.006 C 
HETATM    6  O10 UNL     1     -35.132   4.524   5.677  1.00 20.00    -0.391 OA
ENDROOT
BRANCH   5   7
HETATM    7  C7  UNL     1     -32.432   6.370   3.841  1.00 20.00    -0.005 A 
HETATM    8  C3  UNL     1     -31.366   7.424   3.845  1.00 20.00     0.011 A 
HETATM    9  C8  UNL     1     -31.858   6.856   2.540  1.00 20.00     0.004 A 
BRANCH   9  10
HETATM   10  C9  UNL     1     -32.621   7.711   1.587  1.00 20.00     0.119 C 
HETATM   11 CL11 UNL     1     -31.528   8.758   0.640  1.00 20.00    -0.130 Cl
ENDBRANCH   9  10
ENDBRANCH   5   7
TORSDOF 2
