REMARK  2 active torsions:
REMARK  status: ('A' for Active; 'I' for Inactive)
REMARK    1  A    between atoms: C2_2  and  C6_6 
REMARK    2  A    between atoms: C7_7  and  C10_10 
ROOT
HETATM    1  C1  UNL     1     -33.931   5.766   3.120  1.00 20.00     0.022 A 
HETATM    2  C2  UNL     1     -33.312   6.706   3.994  1.00 20.00    -0.040 A 
HETATM    3  C3  UNL     1     -34.646   4.811   3.809  1.00 20.00    -0.020 A 
HETATM    4  C4  UNL     1     -33.578   6.435   5.318  1.00 20.00    -0.014 A 
HETATM    5  C8  UNL     1     -35.421   3.674   3.269  1.00 20.00     0.056 C 
HETATM    6  C9  UNL     1     -33.129   7.164   6.525  1.00 20.00     0.057 C 
HETATM    7  S11 UNL     1     -34.570   5.050   5.503  1.00 20.00    -0.100 SA
ENDROOT
BRANCH   2   8
HETATM    8  C6  UNL     1     -32.466   7.862   3.513  1.00 20.00     0.025 A 
HETATM    9  C5  UNL     1     -31.578   7.702   2.298  1.00 20.00     0.016 A 
HETATM   10  C7  UNL     1     -32.806   8.559   2.213  1.00 20.00     0.004 A 
BRANCH  10  11
HETATM   11  C10 UNL     1     -32.682  10.039   2.103  1.00 20.00     0.090 C 
HETATM   12 BR12 UNL     1     -34.363  10.903   2.590  1.00 20.00    -0.096 Br
ENDBRANCH  10  11
ENDBRANCH   2   8
TORSDOF 2
