REMARK  1 active torsions:
REMARK  status: ('A' for Active; 'I' for Inactive)
REMARK    1  A    between atoms: C5_5  and  C7_7 
ROOT
HETATM    1  C1  UNL     1     -35.161   4.295   4.567  1.00 20.00     0.038 C 
HETATM    2  C2  UNL     1     -34.873   6.582   3.362  1.00 20.00     0.018 A 
HETATM    3  C3  UNL     1     -34.930   3.922   6.020  1.00 20.00     0.168 C 
HETATM    4  C4  UNL     1     -34.337   6.142   5.882  1.00 20.00     0.177 C 
HETATM    5  C5  UNL     1     -33.513   5.943   3.378  1.00 20.00     0.007 A 
HETATM    6  C6  UNL     1     -34.506   5.635   4.482  1.00 20.00    -0.012 A 
HETATM    7  O8  UNL     1     -34.977   5.169   6.730  1.00 20.00    -0.390 OA
ENDROOT
BRANCH   5   8
HETATM    8  C7  UNL     1     -32.303   6.783   3.607  1.00 20.00     0.090 C 
HETATM    9 BR9  UNL     1     -31.757   7.658   1.950  1.00 20.00    -0.096 Br
ENDBRANCH   5   8
TORSDOF 1
