REMARK  2 active torsions:
REMARK  status: ('A' for Active; 'I' for Inactive)
REMARK    1  A    between atoms: C4_4  and  C6_6 
REMARK    2  A    between atoms: C7_7  and  C8_8 
ROOT
HETATM    1  C1  UNL     1     -34.539   5.280   3.330  1.00 20.00     0.015 A 
HETATM    2  C2  UNL     1     -35.655   5.057   4.106  1.00 20.00     0.050 A 
HETATM    3  C3  UNL     1     -33.762   5.900   5.431  1.00 20.00     0.057 A 
HETATM    4  C4  UNL     1     -33.442   5.769   4.097  1.00 20.00    -0.047 A 
HETATM    5  S9  UNL     1     -35.378   5.435   5.753  1.00 20.00    -0.113 SA
ENDROOT
BRANCH   4   6
HETATM    6  C6  UNL     1     -32.064   6.111   3.504  1.00 20.00     0.024 A 
HETATM    7  C5  UNL     1     -31.489   7.486   3.763  1.00 20.00     0.016 A 
HETATM    8  C7  UNL     1     -31.937   7.121   2.379  1.00 20.00     0.004 A 
BRANCH   8   9
HETATM    9  C8  UNL     1     -33.119   7.798   1.774  1.00 20.00     0.090 C 
HETATM   10 BR10 UNL     1     -32.629   9.570   1.120  1.00 20.00    -0.096 Br
ENDBRANCH   8   9
ENDBRANCH   4   6
TORSDOF 2
