REMARK  1 active torsions:
REMARK  status: ('A' for Active; 'I' for Inactive)
REMARK    1  A    between atoms: C5_5  and  C7_7 
ROOT
HETATM    1  C1  UNL     1     -34.559   4.820   4.212  1.00 20.00     0.020 C 
HETATM    2  C2  UNL     1     -34.752   7.253   3.316  1.00 20.00     0.017 A 
HETATM    3  C3  UNL     1     -35.297   4.686   5.530  1.00 20.00     0.075 C 
HETATM    4  C4  UNL     1     -33.452   6.651   5.487  1.00 20.00     0.083 C 
HETATM    5  C5  UNL     1     -33.420   6.726   2.861  1.00 20.00     0.005 A 
HETATM    6  C6  UNL     1     -34.023   6.226   4.160  1.00 20.00    -0.026 A 
HETATM    7  S8  UNL     1     -34.256   5.572   6.716  1.00 20.00    -0.168 SA
ENDROOT
BRANCH   5   8
HETATM    8  C7  UNL     1     -32.234   7.628   2.831  1.00 20.00     0.090 C 
HETATM    9 BR9  UNL     1     -32.241   8.710   1.206  1.00 20.00    -0.096 Br
ENDBRANCH   5   8
TORSDOF 1
