REMARK  3 active torsions:
REMARK  status: ('A' for Active; 'I' for Inactive)
REMARK    1  A    between atoms: C1_1  and  C6_6 
REMARK    2  A    between atoms: C6_6  and  C7_7 
REMARK    3  A    between atoms: C7_7  and  C8_8 
ROOT
HETATM    1  C2  UNL     1     -33.336   7.297   5.870  1.00 20.00     0.014 C 
HETATM    2  C7  UNL     1     -33.408   6.055   4.962  1.00 20.00     0.034 C 
ENDROOT
BRANCH   2   3
HETATM    3  C6  UNL     1     -33.554   6.509   3.496  1.00 20.00     0.275 C 
HETATM    4  F11 UNL     1     -34.752   7.138   3.339  1.00 20.00    -0.237 F 
BRANCH   3   5
HETATM    5  C1  UNL     1     -32.489   7.479   2.965  1.00 20.00     0.208 C 
HETATM    6  O9  UNL     1     -31.329   7.331   3.441  1.00 20.00    -0.646 OA
HETATM    7  O10 UNL     1     -32.908   8.331   2.130  1.00 20.00    -0.646 OA
ENDBRANCH   3   5
ENDBRANCH   2   3
BRANCH   2   8
HETATM    8  C8  UNL     1     -34.508   5.018   5.412  1.00 20.00    -0.045 C 
HETATM    9  C3  UNL     1     -33.854   3.680   5.823  1.00 20.00     0.015 C 
HETATM   10  C4  UNL     1     -35.263   5.549   6.653  1.00 20.00     0.015 C 
HETATM   11  C5  UNL     1     -35.544   4.725   4.311  1.00 20.00     0.015 C 
ENDBRANCH   2   8
TORSDOF 3
