REMARK  3 active torsions:
REMARK  status: ('A' for Active; 'I' for Inactive)
REMARK    1  A    between atoms: C2_2  and  C6_6 
REMARK    2  A    between atoms: C3_3  and  C7_7 
REMARK    3  A    between atoms: C3_3  and  C8_8 
ROOT
HETATM    1  C1  UNL     1     -34.283   4.086   3.391  1.00 20.00     0.016 A 
HETATM    2  C2  UNL     1     -33.826   5.383   2.778  1.00 20.00     0.009 A 
HETATM    3  C3  UNL     1     -34.852   5.394   3.900  1.00 20.00    -0.036 A 
ENDROOT
BRANCH   3   4
HETATM    4  C7  UNL     1     -34.456   5.847   5.280  1.00 20.00     0.005 C 
HETATM    5  C4  UNL     1     -34.853   4.863   6.342  1.00 20.00     0.006 C 
ENDBRANCH   3   4
BRANCH   3   6
HETATM    6  C8  UNL     1     -36.271   5.736   3.528  1.00 20.00     0.005 C 
HETATM    7  C5  UNL     1     -37.254   4.716   4.023  1.00 20.00     0.006 C 
ENDBRANCH   3   6
BRANCH   2   8
HETATM    8  C6  UNL     1     -32.423   5.850   2.966  1.00 20.00     0.120 C 
HETATM    9 CL9  UNL     1     -32.278   7.603   2.656  1.00 20.00    -0.130 Cl
ENDBRANCH   2   8
TORSDOF 3
