REMARK  2 active torsions:
REMARK  status: ('A' for Active; 'I' for Inactive)
REMARK    1  A    between atoms: C3_3  and  C9_9 
REMARK    2  A    between atoms: C4_4  and  C10_10 
ROOT
HETATM    1  C1  UNL     1     -35.118   5.110   4.534  1.00 20.00     0.131 C 
HETATM    2  C2  UNL     1     -34.652   5.731   3.205  1.00 20.00     0.084 C 
HETATM    3  C3  UNL     1     -34.191   6.035   5.359  1.00 20.00     0.060 C 
HETATM    4  C4  UNL     1     -34.022   6.877   4.045  1.00 20.00     0.011 C 
HETATM    5  O11 UNL     1     -35.904   4.232   4.819  1.00 20.00    -0.298 OA
ENDROOT
BRANCH   4   6
HETATM    6  C10 UNL     1     -32.631   7.313   3.623  1.00 20.00    -0.047 C 
HETATM    7  C6  UNL     1     -32.074   8.347   4.621  1.00 20.00     0.015 C 
HETATM    8  C7  UNL     1     -32.679   7.950   2.220  1.00 20.00     0.015 C 
HETATM    9  C8  UNL     1     -31.684   6.097   3.585  1.00 20.00     0.015 C 
ENDBRANCH   4   6
BRANCH   3  10
HETATM   10  C9  UNL     1     -32.990   5.335   5.968  1.00 20.00     0.008 C 
HETATM   11  C5  UNL     1     -33.388   4.357   7.029  1.00 20.00     0.006 C 
ENDBRANCH   3  10
TORSDOF 2
