REMARK  1 active torsions:
REMARK  status: ('A' for Active; 'I' for Inactive)
REMARK    1  A    between atoms: C5_5  and  C10_10 
ROOT
HETATM    1  C1  UNL     1     -32.021   7.364   2.493  1.00 20.00     0.017 A 
HETATM    2  C2  UNL     1     -33.475   5.466   3.460  1.00 20.00     0.020 C 
HETATM    3  C3  UNL     1     -33.648   7.852   4.446  1.00 20.00     0.083 C 
HETATM    4  C4  UNL     1     -34.816   5.678   5.655  1.00 20.00     0.082 C 
HETATM    5  C5  UNL     1     -33.377   7.521   1.874  1.00 20.00     0.005 A 
HETATM    6  C6  UNL     1     -33.251   6.963   3.289  1.00 20.00    -0.026 A 
HETATM    7  C7  UNL     1     -34.776   5.105   4.213  1.00 20.00    -0.038 C 
HETATM    8  C8  UNL     1     -36.007   5.589   3.417  1.00 20.00     0.015 C 
HETATM    9  C9  UNL     1     -34.866   3.565   4.297  1.00 20.00     0.015 C 
HETATM   10  S11 UNL     1     -33.598   6.984   6.024  1.00 20.00    -0.168 SA
ENDROOT
BRANCH   5  11
HETATM   11  C10 UNL     1     -33.913   8.883   1.590  1.00 20.00     0.090 C 
HETATM   12 BR12 UNL     1     -32.715   9.851   0.391  1.00 20.00    -0.096 Br
ENDBRANCH   5  11
TORSDOF 1
