REMARK  2 active torsions:
REMARK  status: ('A' for Active; 'I' for Inactive)
REMARK    1  A    between atoms: C2_2  and  C6_6 
REMARK    2  A    between atoms: C3_3  and  C7_7 
ROOT
HETATM    1  C1  UNL     1     -34.836   5.326   2.881  1.00 20.00     0.011 A 
HETATM    2  C2  UNL     1     -33.849   6.433   3.146  1.00 20.00     0.004 A 
HETATM    3  C3  UNL     1     -34.750   5.941   4.254  1.00 20.00    -0.006 A 
ENDROOT
BRANCH   3   4
HETATM    4  C7  UNL     1     -34.241   5.142   5.404  1.00 20.00    -0.018 C 
HETATM    5  C4  UNL     1     -34.650   5.758   6.756  1.00 20.00     0.010 C 
HETATM    6  C5  UNL     1     -34.724   3.681   5.347  1.00 20.00     0.010 C 
ENDBRANCH   3   4
BRANCH   2   7
HETATM    7  C6  UNL     1     -32.385   6.157   3.123  1.00 20.00     0.119 C 
HETATM    8 CL8  UNL     1     -31.447   7.656   2.879  1.00 20.00    -0.130 Cl
ENDBRANCH   2   7
TORSDOF 2
