REMARK  1 active torsions:
REMARK  status: ('A' for Active; 'I' for Inactive)
REMARK    1  A    between atoms: C6_6  and  C8_8 
ROOT
HETATM    1  C1  UNL     1     -34.206   6.060   5.806  1.00 20.00     0.027 C 
HETATM    2  C2  UNL     1     -33.717   7.075   4.775  1.00 20.00     0.014 C 
HETATM    3  C3  UNL     1     -32.084   5.918   3.116  1.00 20.00     0.018 A 
HETATM    4  C4  UNL     1     -35.374   5.252   5.255  1.00 20.00     0.167 C 
HETATM    5  C5  UNL     1     -34.653   5.535   3.013  1.00 20.00     0.177 C 
HETATM    6  C6  UNL     1     -32.681   7.074   2.358  1.00 20.00     0.011 A 
HETATM    7  C7  UNL     1     -33.485   6.388   3.449  1.00 20.00    -0.014 A 
HETATM    8  O9  UNL     1     -34.997   4.601   4.040  1.00 20.00    -0.390 OA
ENDROOT
BRANCH   6   9
HETATM    9  C8  UNL     1     -32.121   8.445   2.514  1.00 20.00     0.120 C 
HETATM   10 CL10 UNL     1     -33.294   9.687   1.995  1.00 20.00    -0.130 Cl
ENDBRANCH   6   9
TORSDOF 1
