REMARK  1 active torsions:
REMARK  status: ('A' for Active; 'I' for Inactive)
REMARK    1  A    between atoms: C3_3  and  O10_10 
ROOT
HETATM    1  C1  UNL     1     -33.938   5.608   3.871  1.00 20.00     0.143 C 
HETATM    2  C2  UNL     1     -34.264   5.165   5.308  1.00 20.00     0.082 C 
HETATM    3  C3  UNL     1     -33.464   6.406   5.811  1.00 20.00     0.146 C 
HETATM    4  C4  UNL     1     -33.271   6.928   4.342  1.00 20.00     0.040 C 
HETATM    5  C5  UNL     1     -35.744   5.086   5.631  1.00 20.00     0.020 C 
HETATM    6  C6  UNL     1     -34.072   8.171   3.958  1.00 20.00     0.026 C 
HETATM    7  C7  UNL     1     -31.807   7.055   3.927  1.00 20.00     0.026 C 
HETATM    8  O9  UNL     1     -34.140   5.113   2.781  1.00 20.00    -0.297 OA
ENDROOT
BRANCH   3   9
HETATM    9  O10 UNL     1     -34.156   7.285   6.721  1.00 20.00    -0.389 OA
HETATM   10  C8  UNL     1     -33.238   8.078   7.446  1.00 20.00     0.202 C 
ENDBRANCH   3   9
TORSDOF 1
