REMARK  0 active torsions:
REMARK  status: ('A' for Active; 'I' for Inactive)
ROOT
HETATM    1  C1  UNL     1     -34.401   5.939   6.305  1.00 20.00     0.068 C 
HETATM    2  C2  UNL     1     -32.066   6.715   4.115  1.00 20.00     0.010 A 
HETATM    3  C3  UNL     1     -31.747   7.494   3.000  1.00 20.00     0.019 A 
HETATM    4  C4  UNL     1     -33.845   6.892   1.923  1.00 20.00     0.026 A 
HETATM    5  C5  UNL     1     -33.271   6.029   4.116  1.00 20.00    -0.034 A 
HETATM    6  C6  UNL     1     -34.147   6.113   3.027  1.00 20.00    -0.049 A 
HETATM    7  C7  UNL     1     -32.631   7.583   1.913  1.00 20.00     0.011 A 
HETATM    8  C8  UNL     1     -35.389   5.318   3.277  1.00 20.00     0.041 C 
HETATM    9  C9  UNL     1     -34.928   4.396   4.419  1.00 20.00     0.028 C 
HETATM   10  C10 UNL     1     -33.834   5.155   5.201  1.00 20.00     0.126 C 
HETATM   11  N11 UNL     1     -34.849   6.558   7.178  1.00 20.00    -0.197 NA
HETATM   12 BR12 UNL     1     -32.175   8.655   0.423  1.00 20.00    -0.051 Br
ENDROOT
TORSDOF 0
