REMARK  0 active torsions:
REMARK  status: ('A' for Active; 'I' for Inactive)
ROOT
HETATM    1  C1  UNL     1     -36.039   5.246   4.346  1.00 20.00     0.007 C 
HETATM    2  C2  UNL     1     -34.963   6.126   3.693  1.00 20.00     0.027 C 
HETATM    3  C3  UNL     1     -34.812   5.292   6.523  1.00 20.00     0.027 C 
HETATM    4  C4  UNL     1     -33.913   4.194   4.590  1.00 20.00     0.032 C 
HETATM    5  C5  UNL     1     -35.233   4.394   5.341  1.00 20.00    -0.011 C 
HETATM    6  C6  UNL     1     -33.681   6.143   5.916  1.00 20.00     0.106 C 
HETATM    7  C7  UNL     1     -33.681   5.701   4.436  1.00 20.00     0.054 C 
HETATM    8 CL8  UNL     1     -33.921   7.881   6.170  1.00 20.00    -0.123 Cl
HETATM    9 CL9  UNL     1     -32.210   6.122   3.574  1.00 20.00    -0.118 Cl
ENDROOT
TORSDOF 0
