REMARK  1 active torsions:
REMARK  status: ('A' for Active; 'I' for Inactive)
REMARK       I    between atoms: C1_1  and  N5_5 
REMARK    1  A    between atoms: C4_4  and  N5_5 
ROOT
HETATM    1  C1  UNL     1     -34.342   5.498   5.647  1.00 20.00     0.314 C 
HETATM    2  N5  UNL     1     -33.852   5.680   4.355  1.00 20.00    -0.343 N 
HETATM    3  O6  UNL     1     -34.285   6.368   6.514  1.00 20.00    -0.254 OA
HETATM    4 CL7  UNL     1     -35.034   3.913   5.881  1.00 20.00    -0.020 Cl
HETATM    5  H13 UNL     1     -33.938   4.906   3.692  1.00 20.00     0.164 HD
ENDROOT
BRANCH   2   6
HETATM    6  C4  UNL     1     -33.241   6.881   3.909  1.00 20.00     0.085 A 
HETATM    7  C2  UNL     1     -31.782   7.149   4.152  1.00 20.00     0.027 A 
HETATM    8  C3  UNL     1     -32.272   6.883   2.759  1.00 20.00     0.027 A 
ENDBRANCH   2   6
TORSDOF 1
