REMARK  1 active torsions:
REMARK  status: ('A' for Active; 'I' for Inactive)
REMARK    1  A    between atoms: C1_1  and  C5_5 
ROOT
HETATM    1  C1  UNL     1     -32.487   7.670   1.989  1.00 20.00    -0.089 C 
HETATM    2  C2  UNL     1     -32.946   7.031   2.896  1.00 20.00    -0.023 C 
HETATM    3 BR6  UNL     1     -33.672   6.019   4.331  1.00 20.00     0.010 Br
ENDROOT
BRANCH   1   4
HETATM    4  C5  UNL     1     -31.939   8.432   0.907  1.00 20.00     0.066 A 
HETATM    5  C3  UNL     1     -32.363   9.867   0.742  1.00 20.00     0.018 A 
HETATM    6  C4  UNL     1     -32.841   8.830  -0.230  1.00 20.00     0.018 A 
ENDBRANCH   1   4
TORSDOF 1
