REMARK  2 active torsions:
REMARK  status: ('A' for Active; 'I' for Inactive)
REMARK    1  A    between atoms: C1_1  and  C3_3 
REMARK    2  A    between atoms: C2_2  and  C5_5 
ROOT
HETATM    1  C1  UNL     1     -33.762   5.783   3.634  1.00 20.00     0.005 C 
HETATM    2  C2  UNL     1     -33.143   6.376   2.603  1.00 20.00     0.068 C 
ENDROOT
BRANCH   1   3
HETATM    3  C3  UNL     1     -33.498   6.139   5.011  1.00 20.00    -0.004 C 
HETATM    4  C4  UNL     1     -34.111   5.553   6.050  1.00 20.00    -0.031 C 
HETATM    5  C6  UNL     1     -35.132   4.472   5.908  1.00 20.00     0.036 C 
ENDBRANCH   1   3
BRANCH   2   6
HETATM    6  C5  UNL     1     -32.132   7.452   2.832  1.00 20.00     0.241 C 
HETATM    7  O7  UNL     1     -31.116   7.227   3.485  1.00 20.00    -0.275 OA
HETATM    8 CL8  UNL     1     -32.507   9.005   2.114  1.00 20.00    -0.039 Cl
ENDBRANCH   2   6
TORSDOF 2
