REMARK  0 active torsions:
REMARK  status: ('A' for Active; 'I' for Inactive)
ROOT
HETATM    1  C1  UNL     1     -36.030   5.991   4.451  1.00 20.00     0.005 C 
HETATM    2  C2  UNL     1     -35.055   3.852   5.432  1.00 20.00     0.005 C 
HETATM    3  C3  UNL     1     -34.053   6.110   6.054  1.00 20.00     0.005 C 
HETATM    4  C4  UNL     1     -35.594   5.494   3.079  1.00 20.00     0.006 C 
HETATM    5  C5  UNL     1     -33.724   3.506   4.777  1.00 20.00     0.006 C 
HETATM    6  C6  UNL     1     -33.229   6.679   4.906  1.00 20.00     0.006 C 
HETATM    7  C7  UNL     1     -35.320   5.347   5.648  1.00 20.00    -0.014 C 
HETATM    8  C8  UNL     1     -34.133   5.317   2.834  1.00 20.00    -0.006 A 
HETATM    9  C9  UNL     1     -33.288   4.326   3.609  1.00 20.00    -0.006 A 
HETATM   10  C10 UNL     1     -33.002   5.811   3.715  1.00 20.00    -0.006 A 
ENDROOT
TORSDOF 0
