REMARK  4 active torsions:
REMARK  status: ('A' for Active; 'I' for Inactive)
REMARK    1  A    between atoms: C2_2  and  C4_4 
REMARK    2  A    between atoms: C3_3  and  C7_7 
REMARK    3  A    between atoms: C6_6  and  O10_10 
REMARK    4  A    between atoms: C7_7  and  O10_10 
ROOT
HETATM    1  C2  UNL     1     -32.635   7.546   2.394  1.00 20.00     0.006 C 
HETATM    2  C3  UNL     1     -32.688   6.327   2.947  1.00 20.00     0.082 C 
ENDROOT
BRANCH   2   3
HETATM    3  C7  UNL     1     -33.496   6.106   4.170  1.00 20.00     0.287 C 
HETATM    4  O9  UNL     1     -33.322   6.677   5.236  1.00 20.00    -0.260 OA
BRANCH   3   5
HETATM    5  O10 UNL     1     -34.434   5.159   3.865  1.00 20.00    -0.289 OA
BRANCH   5   6
HETATM    6  C6  UNL     1     -35.266   4.835   4.919  1.00 20.00     0.135 C 
HETATM    7  C1  UNL     1     -35.032   3.869   5.810  1.00 20.00     0.038 C 
ENDBRANCH   5   6
ENDBRANCH   3   5
ENDBRANCH   2   3
BRANCH   1   8
HETATM    8  C4  UNL     1     -31.865   7.830   1.204  1.00 20.00    -0.004 C 
HETATM    9  C5  UNL     1     -31.804   9.047   0.642  1.00 20.00    -0.031 C 
HETATM   10  C8  UNL     1     -32.520  10.243   1.177  1.00 20.00     0.036 C 
ENDBRANCH   1   8
TORSDOF 4
