REMARK  1 active torsions:
REMARK  status: ('A' for Active; 'I' for Inactive)
REMARK    1  A    between atoms: C8_8  and  C11_11 
ROOT
HETATM    1  C1  UNL     1     -34.754   5.398   3.081  1.00 20.00    -0.076 C 
HETATM    2  C2  UNL     1     -34.208   5.045   5.754  1.00 20.00     0.136 C 
HETATM    3  C3  UNL     1     -34.874   4.312   2.321  1.00 20.00     0.015 C 
HETATM    4  C4  UNL     1     -34.512   6.911   2.798  1.00 20.00     0.045 C 
HETATM    5  C5  UNL     1     -33.545   6.195   6.520  1.00 20.00     0.080 C 
HETATM    6  C6  UNL     1     -33.697   7.410   5.537  1.00 20.00     0.018 C 
HETATM    7  C7  UNL     1     -34.827   5.705   4.534  1.00 20.00     0.092 C 
HETATM    8  C8  UNL     1     -33.692   6.771   4.136  1.00 20.00    -0.019 C 
HETATM    9  O12 UNL     1     -34.213   3.878   6.110  1.00 20.00    -0.297 OA
ENDROOT
BRANCH   8  10
HETATM   10  C11 UNL     1     -32.230   6.398   3.767  1.00 20.00    -0.013 C 
HETATM   11  C9  UNL     1     -32.212   5.068   3.036  1.00 20.00     0.010 C 
HETATM   12  C10 UNL     1     -31.618   7.505   2.928  1.00 20.00     0.010 C 
ENDBRANCH   8  10
TORSDOF 1
