REMARK  0 active torsions:
REMARK  status: ('A' for Active; 'I' for Inactive)
ROOT
HETATM    1  C1  UNL     1     -34.751   5.373   3.914  1.00 20.00     0.198 C 
HETATM    2  C2  UNL     1     -34.239   4.011   4.324  1.00 20.00     0.085 C 
HETATM    3  C3  UNL     1     -34.795   3.580   5.675  1.00 20.00     0.008 C 
HETATM    4  C4  UNL     1     -34.285   4.383   6.878  1.00 20.00     0.000 C 
HETATM    5  C5  UNL     1     -34.772   5.834   6.921  1.00 20.00     0.000 C 
HETATM    6  C6  UNL     1     -33.732   6.884   6.517  1.00 20.00     0.006 C 
HETATM    7  C7  UNL     1     -32.954   6.643   5.225  1.00 20.00     0.087 C 
HETATM    8  C8  UNL     1     -33.793   6.543   3.958  1.00 20.00     0.302 C 
HETATM    9  O9  UNL     1     -35.916   5.525   3.540  1.00 20.00    -0.291 OA
HETATM   10  F10 UNL     1     -34.464   7.718   3.794  1.00 20.00    -0.198 F 
HETATM   11  F11 UNL     1     -32.936   6.461   2.899  1.00 20.00    -0.198 F 
ENDROOT
TORSDOF 0
