REMARK  3 active torsions:
REMARK  status: ('A' for Active; 'I' for Inactive)
REMARK    1  A    between atoms: C3_3  and  C5_5 
REMARK    2  A    between atoms: C4_4  and  C5_5 
REMARK    3  A    between atoms: C5_5  and  O6_6 
ROOT
HETATM    1  C5  UNL     1     -33.879   5.351   4.022  1.00 20.00     0.132 C 
ENDROOT
BRANCH   1   2
HETATM    2  C3  UNL     1     -34.695   4.839   5.158  1.00 20.00     0.015 A 
HETATM    3  C1  UNL     1     -34.687   3.373   5.495  1.00 20.00     0.007 A 
HETATM    4  C2  UNL     1     -34.024   4.360   6.416  1.00 20.00     0.007 A 
ENDBRANCH   1   2
BRANCH   1   5
HETATM    5  C4  UNL     1     -33.689   6.863   4.110  1.00 20.00     0.117 C 
HETATM    6 BR7  UNL     1     -32.194   7.433   2.992  1.00 20.00    -0.094 Br
ENDBRANCH   1   5
BRANCH   1   7
HETATM    7  O6  UNL     1     -34.544   5.055   2.790  1.00 20.00    -0.394 OA
HETATM    8  H16 UNL     1     -35.403   5.500   2.832  1.00 20.00     0.210 HD
ENDBRANCH   1   7
TORSDOF 3
