REMARK  1 active torsions:
REMARK  status: ('A' for Active; 'I' for Inactive)
REMARK    1  A    between atoms: C6_6  and  C11_11 
ROOT
HETATM    1  C1  UNL     1     -31.798   7.858   2.020  1.00 20.00    -0.004 C 
HETATM    2  C2  UNL     1     -33.066   8.360   2.483  1.00 20.00    -0.003 C 
HETATM    3  C3  UNL     1     -31.383   6.626   2.345  1.00 20.00    -0.025 C 
HETATM    4  C4  UNL     1     -33.972   7.552   3.054  1.00 20.00    -0.013 C 
HETATM    5  C7  UNL     1     -32.212   5.705   3.199  1.00 20.00     0.044 C 
HETATM    6  C11 UNL     1     -33.730   6.065   3.266  1.00 20.00    -0.000 C 
HETATM    7  C12 UNL     1     -34.497   5.305   2.167  1.00 20.00     0.025 C 
ENDROOT
BRANCH   6   8
HETATM    8  C6  UNL     1     -34.274   5.630   4.604  1.00 20.00    -0.071 C 
HETATM    9  C5  UNL     1     -34.373   6.372   5.714  1.00 20.00    -0.023 C 
HETATM   10  C8  UNL     1     -34.998   5.613   6.835  1.00 20.00     0.027 C 
HETATM   11  C10 UNL     1     -34.965   4.171   6.332  1.00 20.00     0.008 C 
HETATM   12  C9  UNL     1     -34.816   4.252   4.812  1.00 20.00     0.035 C 
ENDBRANCH   6   8
TORSDOF 1
