REMARK  1 active torsions:
REMARK  status: ('A' for Active; 'I' for Inactive)
REMARK    1  A    between atoms: C5_5  and  C7_7 
ROOT
HETATM    1  C1  UNL     1     -32.260   6.769   4.290  1.00 20.00     0.019 C 
HETATM    2  C2  UNL     1     -34.635   4.372   4.796  1.00 20.00     0.292 C 
HETATM    3  C3  UNL     1     -35.848   5.519   3.543  1.00 20.00     0.292 C 
HETATM    4  C4  UNL     1     -31.998   6.343   2.855  1.00 20.00     0.075 C 
HETATM    5  C5  UNL     1     -33.775   6.918   4.432  1.00 20.00     0.037 C 
HETATM    6  C6  UNL     1     -34.343   5.605   3.895  1.00 20.00     0.066 C 
HETATM    7  N8  UNL     1     -36.056   4.780   4.808  1.00 20.00     0.086 N 
HETATM    8  S10 UNL     1     -33.267   5.100   2.462  1.00 20.00    -0.155 SA
HETATM    9  H22 UNL     1     -36.724   4.014   4.752  1.00 20.00     0.316 HD
ENDROOT
BRANCH   5  10
HETATM   10  C7  UNL     1     -34.182   7.243   5.861  1.00 20.00     0.228 C 
HETATM   11  F9  UNL     1     -33.783   6.223   6.661  1.00 20.00    -0.255 F 
ENDBRANCH   5  10
TORSDOF 1
