REMARK  0 active torsions:
REMARK  status: ('A' for Active; 'I' for Inactive)
ROOT
HETATM    1  C1  UNL     1     -33.035   5.310   5.771  1.00 20.00     0.008 C 
HETATM    2  C2  UNL     1     -34.130   4.891   6.753  1.00 20.00     0.030 C 
HETATM    3  C3  UNL     1     -33.490   6.433   4.844  1.00 20.00     0.081 C 
HETATM    4  C4  UNL     1     -35.312   4.146   6.134  1.00 20.00     0.270 C 
HETATM    5  C5  UNL     1     -35.273   4.833   3.810  1.00 20.00     0.348 C 
HETATM    6  C6  UNL     1     -34.275   5.968   3.626  1.00 20.00     0.269 C 
HETATM    7  N7  UNL     1     -36.007   4.865   5.069  1.00 20.00     0.089 N 
HETATM    8  F8  UNL     1     -33.383   5.576   2.671  1.00 20.00    -0.204 F 
HETATM    9  F9  UNL     1     -34.922   7.047   3.102  1.00 20.00    -0.204 F 
HETATM   10  H20 UNL     1     -36.954   4.496   4.945  1.00 20.00     0.316 HD
ENDROOT
TORSDOF 0
