REMARK  0 active torsions:
REMARK  status: ('A' for Active; 'I' for Inactive)
ROOT
HETATM    1  C1  UNL     1     -33.223   6.474   5.224  1.00 20.00     0.078 C 
HETATM    2  C2  UNL     1     -34.008   5.847   3.043  1.00 20.00     0.152 C 
HETATM    3  C3  UNL     1     -33.121   6.637   3.906  1.00 20.00     0.134 C 
HETATM    4  C4  UNL     1     -35.458   5.403   4.829  1.00 20.00     0.213 C 
HETATM    5  C5  UNL     1     -34.275   5.573   5.790  1.00 20.00     0.217 C 
HETATM    6  N6  UNL     1     -35.068   5.222   3.420  1.00 20.00    -0.294 NA
HETATM    7  F7  UNL     1     -32.181   7.389   3.312  1.00 20.00    -0.205 F 
HETATM    8  F8  UNL     1     -34.759   6.095   6.953  1.00 20.00    -0.219 F 
HETATM    9 CL9  UNL     1     -33.535   3.989   6.162  1.00 20.00    -0.076 Cl
ENDROOT
TORSDOF 0
