REMARK  3 active torsions:
REMARK  status: ('A' for Active; 'I' for Inactive)
REMARK    1  A    between atoms: C5_5  and  C8_8 
REMARK    2  A    between atoms: C6_6  and  C7_7 
REMARK    3  A    between atoms: C6_6  and  C8_8 
ROOT
HETATM    1  C4  UNL     1     -31.625   5.628   3.541  1.00 20.00     0.032 C 
HETATM    2  C8  UNL     1     -32.410   6.952   3.488  1.00 20.00     0.033 C 
HETATM    3 CL9  UNL     1     -32.026   7.811   5.035  1.00 20.00    -0.120 Cl
ENDROOT
BRANCH   2   4
HETATM    4  C5  UNL     1     -31.908   7.838   2.326  1.00 20.00     0.021 C 
HETATM    5  C1  UNL     1     -32.619   9.179   2.179  1.00 20.00     0.007 C 
ENDBRANCH   2   4
BRANCH   2   6
HETATM    6  C6  UNL     1     -33.927   6.626   3.430  1.00 20.00     0.029 C 
BRANCH   6   7
HETATM    7  C7  UNL     1     -34.509   5.557   4.387  1.00 20.00    -0.021 C 
HETATM    8  C2  UNL     1     -34.260   5.997   5.837  1.00 20.00     0.009 C 
HETATM    9  C3  UNL     1     -36.000   5.286   4.200  1.00 20.00     0.009 C 
ENDBRANCH   6   7
ENDBRANCH   2   6
TORSDOF 3
