REMARK  0 active torsions:
REMARK  status: ('A' for Active; 'I' for Inactive)
ROOT
HETATM    1  C1  UNL     1     -33.295   6.087   4.794  1.00 20.00     0.078 C 
HETATM    2  C2  UNL     1     -34.106   5.638   2.579  1.00 20.00     0.152 C 
HETATM    3  C3  UNL     1     -33.137   6.267   3.484  1.00 20.00     0.134 C 
HETATM    4  C4  UNL     1     -35.658   5.373   4.318  1.00 20.00     0.213 C 
HETATM    5  C5  UNL     1     -34.479   5.323   5.298  1.00 20.00     0.217 C 
HETATM    6  N6  UNL     1     -35.258   5.169   2.912  1.00 20.00    -0.294 NA
HETATM    7  F7  UNL     1     -32.078   6.882   2.933  1.00 20.00    -0.205 F 
HETATM    8  F8  UNL     1     -34.136   4.016   5.480  1.00 20.00    -0.219 F 
HETATM    9 CL9  UNL     1     -34.996   5.976   6.878  1.00 20.00    -0.076 Cl
ENDROOT
TORSDOF 0
