REMARK  3 active torsions:
REMARK  status: ('A' for Active; 'I' for Inactive)
REMARK    1  A    between atoms: C3_3  and  C8_8 
REMARK    2  A    between atoms: C6_6  and  C7_7 
REMARK    3  A    between atoms: C7_7  and  C8_8 
ROOT
HETATM    1  C5  UNL     1     -36.016   5.782   3.472  1.00 20.00     0.010 C 
HETATM    2  C8  UNL     1     -34.742   5.248   4.129  1.00 20.00    -0.014 C 
ENDROOT
BRANCH   2   3
HETATM    3  C3  UNL     1     -35.041   4.830   5.571  1.00 20.00    -0.011 A 
HETATM    4  C1  UNL     1     -33.962   4.220   6.422  1.00 20.00     0.005 A 
HETATM    5  C2  UNL     1     -34.459   5.607   6.720  1.00 20.00     0.005 A 
ENDBRANCH   2   3
BRANCH   2   6
HETATM    6  C7  UNL     1     -33.595   6.276   4.110  1.00 20.00     0.004 C 
BRANCH   6   7
HETATM    7  C6  UNL     1     -32.945   6.439   2.734  1.00 20.00    -0.004 C 
HETATM    8  C4  UNL     1     -31.870   7.515   2.753  1.00 20.00     0.005 C 
ENDBRANCH   6   7
ENDBRANCH   2   6
TORSDOF 3
