REMARK  0 active torsions:
REMARK  status: ('A' for Active; 'I' for Inactive)
ROOT
HETATM    1  C1  UNL     1     -33.757   5.574   5.987  1.00 20.00     0.047 C 
HETATM    2  C2  UNL     1     -33.228   6.488   5.164  1.00 20.00    -0.014 C 
HETATM    3  C3  UNL     1     -34.642   4.522   5.421  1.00 20.00     0.149 C 
HETATM    4  C4  UNL     1     -34.850   4.472   3.917  1.00 20.00     0.084 C 
HETATM    5  C5  UNL     1     -34.750   5.854   3.275  1.00 20.00     0.021 C 
HETATM    6  C6  UNL     1     -33.019   7.756   2.943  1.00 20.00     0.014 A 
HETATM    7  C7  UNL     1     -32.267   6.465   2.799  1.00 20.00     0.014 A 
HETATM    8  C8  UNL     1     -33.474   6.535   3.710  1.00 20.00    -0.022 A 
HETATM    9  O9  UNL     1     -35.139   3.680   6.167  1.00 20.00    -0.293 OA
ENDROOT
TORSDOF 0
