REMARK  3 active torsions:
REMARK  status: ('A' for Active; 'I' for Inactive)
REMARK    1  A    between atoms: C1_1  and  C3_3 
REMARK    2  A    between atoms: C2_2  and  C9_9 
REMARK    3  A    between atoms: C3_3  and  O11_11 
ROOT
HETATM    1  C1  UNL     1     -32.436   7.016   4.333  1.00 20.00     0.085 C 
HETATM    2  C2  UNL     1     -33.426   6.167   4.682  1.00 20.00    -0.070 C 
HETATM    3  C4  UNL     1     -33.469   5.510   6.047  1.00 20.00     0.044 C 
ENDROOT
BRANCH   2   4
HETATM    4  C9  UNL     1     -34.596   5.815   3.724  1.00 20.00    -0.028 C 
HETATM    5  C5  UNL     1     -35.572   4.837   4.414  1.00 20.00     0.019 C 
HETATM    6  C6  UNL     1     -34.148   5.135   2.407  1.00 20.00     0.019 C 
HETATM    7  C7  UNL     1     -35.356   7.100   3.335  1.00 20.00     0.019 C 
ENDBRANCH   2   4
BRANCH   1   8
HETATM    8  C3  UNL     1     -32.319   7.700   3.020  1.00 20.00     0.282 C 
HETATM    9  O10 UNL     1     -31.735   7.269   2.040  1.00 20.00    -0.260 OA
BRANCH   8  10
HETATM   10  O11 UNL     1     -33.001   8.874   3.113  1.00 20.00    -0.323 OA
HETATM   11  C8  UNL     1     -33.021   9.670   1.923  1.00 20.00     0.213 C 
ENDBRANCH   8  10
ENDBRANCH   1   8
TORSDOF 3
