REMARK  1 active torsions:
REMARK  status: ('A' for Active; 'I' for Inactive)
REMARK    1  A    between atoms: C5_5  and  C6_6 
ROOT
HETATM    1  C1  UNL     1     -35.137   4.560   5.610  1.00 20.00     0.011 C 
HETATM    2  C2  UNL     1     -34.858   5.540   6.754  1.00 20.00     0.011 C 
HETATM    3  C3  UNL     1     -35.661   5.224   4.339  1.00 20.00     0.075 C 
HETATM    4  C4  UNL     1     -33.536   6.298   6.694  1.00 20.00     0.075 C 
HETATM    5  C5  UNL     1     -32.975   6.109   3.995  1.00 20.00     0.122 C 
HETATM    6  S7  UNL     1     -34.437   5.596   3.039  1.00 20.00    -0.152 SA
HETATM    7  S8  UNL     1     -33.349   7.376   5.245  1.00 20.00    -0.152 SA
ENDROOT
BRANCH   5   8
HETATM    8  C6  UNL     1     -31.945   6.683   3.023  1.00 20.00     0.140 C 
HETATM    9 CL9  UNL     1     -32.629   8.073   2.162  1.00 20.00    -0.128 Cl
ENDBRANCH   5   8
TORSDOF 1
