REMARK  1 active torsions:
REMARK  status: ('A' for Active; 'I' for Inactive)
REMARK    1  A    between atoms: C1_1  and  C4_4 
ROOT
HETATM    1  C2  UNL     1     -34.321   6.300   6.214  1.00 20.00     0.173 C 
HETATM    2  C3  UNL     1     -34.843   4.438   4.914  1.00 20.00     0.173 C 
HETATM    3  C4  UNL     1     -33.049   6.071   3.943  1.00 20.00     0.060 A 
HETATM    4  C5  UNL     1     -34.123   6.702   4.794  1.00 20.00     0.027 A 
HETATM    5  C6  UNL     1     -34.453   5.522   3.970  1.00 20.00     0.027 A 
HETATM    6  O8  UNL     1     -34.432   4.864   6.228  1.00 20.00    -0.390 OA
ENDROOT
BRANCH   3   7
HETATM    7  C1  UNL     1     -32.583   6.777   2.744  1.00 20.00     0.236 C 
HETATM    8  O7  UNL     1     -32.139   7.920   2.762  1.00 20.00    -0.306 OA
ENDBRANCH   3   7
TORSDOF 1
