REMARK  1 active torsions:
REMARK  status: ('A' for Active; 'I' for Inactive)
REMARK    1  A    between atoms: C1_1  and  C3_3 
ROOT
HETATM    1  C1  UNL     1     -34.907   4.743   5.277  1.00 20.00     0.072 C 
HETATM    2  C2  UNL     1     -34.551   5.254   6.455  1.00 20.00     0.189 C 
HETATM    3  F4  UNL     1     -33.945   6.451   6.550  1.00 20.00    -0.220 F 
ENDROOT
BRANCH   1   4
HETATM    4  C3  UNL     1     -34.684   5.416   3.967  1.00 20.00     0.378 C 
HETATM    5  F5  UNL     1     -35.845   5.676   3.308  1.00 20.00    -0.210 F 
HETATM    6  F6  UNL     1     -34.070   6.616   4.143  1.00 20.00    -0.210 F 
ENDBRANCH   1   4
TORSDOF 1
