REMARK  1 active torsions:
REMARK  status: ('A' for Active; 'I' for Inactive)
REMARK    1  A    between atoms: C4_4  and  C10_10 
ROOT
HETATM    1  C1  UNL     1     -33.470   5.291   4.966  1.00 20.00     0.016 C 
HETATM    2  C2  UNL     1     -34.049   5.445   3.565  1.00 20.00     0.017 C 
HETATM    3  C3  UNL     1     -33.887   6.618   5.595  1.00 20.00     0.122 C 
HETATM    4  C4  UNL     1     -33.778   6.924   3.271  1.00 20.00     0.129 C 
HETATM    5  C5  UNL     1     -33.981   4.075   5.725  1.00 20.00     0.013 C 
HETATM    6  C6  UNL     1     -33.510   4.454   2.546  1.00 20.00     0.013 C 
HETATM    7  C7  UNL     1     -33.001   7.056   6.748  1.00 20.00     0.040 C 
HETATM    8  O11 UNL     1     -33.816   7.599   4.545  1.00 20.00    -0.380 OA
ENDROOT
BRANCH   4   9
HETATM    9  C10 UNL     1     -32.434   7.242   2.626  1.00 20.00     0.007 C 
HETATM   10  C8  UNL     1     -32.483   8.594   1.916  1.00 20.00     0.012 C 
HETATM   11  C9  UNL     1     -31.318   7.226   3.670  1.00 20.00     0.012 C 
ENDBRANCH   4   9
TORSDOF 1
