REMARK  0 active torsions:
REMARK  status: ('A' for Active; 'I' for Inactive)
ROOT
HETATM    1  C1  UNL     1     -33.631   5.797   2.916  1.00 20.00     0.184 A 
HETATM    2  C2  UNL     1     -32.963   6.685   3.781  1.00 20.00     0.175 A 
HETATM    3  C3  UNL     1     -33.460   6.389   5.027  1.00 20.00     0.162 A 
HETATM    4  C4  UNL     1     -35.156   4.714   5.845  1.00 20.00     0.181 C 
HETATM    5  N5  UNL     1     -34.486   4.997   3.559  1.00 20.00    -0.181 NA
HETATM    6  N6  UNL     1     -34.359   5.381   4.840  1.00 20.00    -0.260 N 
HETATM    7  F7  UNL     1     -32.056   7.602   3.463  1.00 20.00    -0.201 F 
HETATM    8 CL8  UNL     1     -33.143   7.027   6.564  1.00 20.00    -0.059 Cl
ENDROOT
TORSDOF 0
