REMARK  0 active torsions:
REMARK  status: ('A' for Active; 'I' for Inactive)
ROOT
HETATM    1  C1  UNL     1     -34.829   4.856   5.259  1.00 20.00     0.016 C 
HETATM    2  C2  UNL     1     -33.626   5.790   5.426  1.00 20.00     0.016 C 
HETATM    3  C3  UNL     1     -35.217   5.011   3.779  1.00 20.00     0.122 C 
HETATM    4  C4  UNL     1     -33.047   5.807   4.011  1.00 20.00     0.122 C 
HETATM    5  C5  UNL     1     -34.455   3.405   5.574  1.00 20.00     0.013 C 
HETATM    6  C6  UNL     1     -34.069   7.165   5.932  1.00 20.00     0.013 C 
HETATM    7  C7  UNL     1     -36.544   5.727   3.579  1.00 20.00     0.040 C 
HETATM    8  C8  UNL     1     -32.157   6.983   3.656  1.00 20.00     0.040 C 
HETATM    9  O9  UNL     1     -34.186   5.783   3.140  1.00 20.00    -0.381 OA
ENDROOT
TORSDOF 0
