REMARK  1 active torsions:
REMARK  status: ('A' for Active; 'I' for Inactive)
REMARK    1  A    between atoms: C7_7  and  N8_8 
ROOT
HETATM    1  C1  UNL     1     -34.140   6.495   6.424  1.00 20.00     0.065 C 
HETATM    2  C2  UNL     1     -33.164   6.675   5.257  1.00 20.00     0.275 C 
HETATM    3  C3  UNL     1     -34.311   5.134   3.775  1.00 20.00     0.306 C 
HETATM    4  C4  UNL     1     -35.002   5.285   6.281  1.00 20.00     0.154 A 
HETATM    5  C5  UNL     1     -35.119   4.635   4.932  1.00 20.00     0.179 A 
HETATM    6  N8  UNL     1     -33.867   6.524   3.974  1.00 20.00     0.090 N 
HETATM    7  O9  UNL     1     -34.320   4.065   5.989  1.00 20.00    -0.374 OA
ENDROOT
BRANCH   6   8
HETATM    8  C7  UNL     1     -33.009   6.942   2.865  1.00 20.00     0.268 C 
HETATM    9  C6  UNL     1     -31.765   6.122   2.809  1.00 20.00     0.037 C 
ENDBRANCH   6   8
TORSDOF 1
