REMARK  0 active torsions:
REMARK  status: ('A' for Active; 'I' for Inactive)
ROOT
HETATM    1  C1  UNL     1     -34.342   5.531   4.643  1.00 20.00     0.094 A 
HETATM    2  C2  UNL     1     -33.515   6.390   5.391  1.00 20.00     0.073 A 
HETATM    3  C3  UNL     1     -33.912   5.684   3.347  1.00 20.00     0.225 A 
HETATM    4  C4  UNL     1     -33.526   6.627   6.847  1.00 20.00     0.074 C 
HETATM    5  C5  UNL     1     -32.125   7.074   2.276  1.00 20.00     0.183 C 
HETATM    6  N6  UNL     1     -32.627   7.040   4.635  1.00 20.00    -0.174 NA
HETATM    7  N7  UNL     1     -32.894   6.590   3.397  1.00 20.00    -0.247 N 
HETATM    8  F8  UNL     1     -34.390   5.079   2.260  1.00 20.00    -0.183 F 
HETATM    9 BR9  UNL     1     -35.707   4.442   5.294  1.00 20.00    -0.044 Br
ENDROOT
TORSDOF 0
