REMARK  0 active torsions:
REMARK  status: ('A' for Active; 'I' for Inactive)
ROOT
HETATM    1  C1  UNL     1     -33.029   7.029   3.981  1.00 20.00     0.017 C 
HETATM    2  C2  UNL     1     -33.395   6.230   5.228  1.00 20.00     0.027 C 
HETATM    3  C3  UNL     1     -33.541   6.121   2.860  1.00 20.00     0.123 C 
HETATM    4  C4  UNL     1     -34.737   5.642   4.814  1.00 20.00     0.197 C 
HETATM    5  C5  UNL     1     -31.564   7.427   3.894  1.00 20.00     0.013 C 
HETATM    6  C6  UNL     1     -33.470   7.067   6.498  1.00 20.00     0.014 C 
HETATM    7  C7  UNL     1     -32.582   5.033   2.391  1.00 20.00     0.040 C 
HETATM    8  O8  UNL     1     -34.714   5.475   3.390  1.00 20.00    -0.369 OA
HETATM    9 BR9  UNL     1     -35.050   3.927   5.670  1.00 20.00    -0.061 Br
ENDROOT
TORSDOF 0
