REMARK  1 active torsions:
REMARK  status: ('A' for Active; 'I' for Inactive)
REMARK    1  A    between atoms: C4_4  and  C10_10 
ROOT
HETATM    1  C1  UNL     1     -34.839   5.044   4.157  1.00 20.00     0.016 C 
HETATM    2  C2  UNL     1     -33.744   5.267   3.109  1.00 20.00     0.017 C 
HETATM    3  C3  UNL     1     -34.539   6.095   5.237  1.00 20.00     0.122 C 
HETATM    4  C4  UNL     1     -33.556   6.781   3.235  1.00 20.00     0.129 C 
HETATM    5  C5  UNL     1     -35.046   3.616   4.637  1.00 20.00     0.013 C 
HETATM    6  C6  UNL     1     -32.468   4.457   3.342  1.00 20.00     0.013 C 
HETATM    7  C7  UNL     1     -33.896   5.603   6.525  1.00 20.00     0.040 C 
HETATM    8  O11 UNL     1     -33.657   7.066   4.639  1.00 20.00    -0.380 OA
ENDROOT
BRANCH   4   9
HETATM    9  C10 UNL     1     -32.261   7.357   2.692  1.00 20.00     0.007 C 
HETATM   10  C8  UNL     1     -32.412   8.849   2.395  1.00 20.00     0.012 C 
HETATM   11  C9  UNL     1     -31.111   7.124   3.673  1.00 20.00     0.012 C 
ENDBRANCH   4   9
TORSDOF 1
