REMARK  2 active torsions:
REMARK  status: ('A' for Active; 'I' for Inactive)
REMARK    1  A    between atoms: C2_2  and  C9_9 
REMARK    2  A    between atoms: C3_3  and  C10_10 
ROOT
HETATM    1  C1  UNL     1     -33.671   5.130   3.102  1.00 20.00     0.079 A 
HETATM    2  C2  UNL     1     -33.495   6.131   4.035  1.00 20.00     0.046 A 
HETATM    3  C3  UNL     1     -32.420   7.050   2.358  1.00 20.00     0.079 A 
HETATM    4  N11 UNL     1     -32.778   7.233   3.610  1.00 20.00    -0.249 NA
HETATM    5  S12 UNL     1     -32.913   5.576   1.630  1.00 20.00    -0.084 SA
ENDROOT
BRANCH   3   6
HETATM    6  C10 UNL     1     -31.573   8.140   1.557  1.00 20.00     0.045 C 
HETATM    7  C7  UNL     1     -31.334   7.885   0.041  1.00 20.00     0.011 C 
HETATM    8  C4  UNL     1     -32.465   8.886  -0.256  1.00 20.00     0.002 C 
HETATM    9  C8  UNL     1     -32.215   9.491   1.137  1.00 20.00     0.011 C 
ENDBRANCH   3   6
BRANCH   2  10
HETATM   10  C9  UNL     1     -34.056   6.035   5.457  1.00 20.00     0.038 A 
HETATM   11  C5  UNL     1     -34.107   4.680   6.130  1.00 20.00     0.011 A 
HETATM   12  C6  UNL     1     -35.377   5.328   5.673  1.00 20.00     0.011 A 
ENDBRANCH   2  10
TORSDOF 2
