REMARK  1 active torsions:
REMARK  status: ('A' for Active; 'I' for Inactive)
REMARK    1  A    between atoms: CA_4  and  C_5 
ROOT
HETATM    1  C1  UNK A   1     -33.088   6.903   3.323  1.00 20.00     0.013 A 
HETATM    2  C2  UNK A   1     -32.472   7.457   2.081  1.00 20.00     0.066 C 
ATOM      3  N   VAL A   1     -33.742   5.781   3.349  1.00 20.00    -0.255 NA
ATOM      4  CA  VAL A   1     -34.131   5.648   4.655  1.00 20.00     0.096 A 
ATOM      5  CB  VAL A   1     -33.743   6.651   5.451  1.00 20.00    -0.047 A 
ATOM      6  CG1 VAL A   1     -33.955   6.883   6.903  1.00 20.00     0.046 C 
ATOM      7  CG2 VAL A   1     -32.976   7.640   4.633  1.00 20.00     0.090 A 
ENDROOT
BRANCH   4   8
ATOM      8  C   VAL A   1     -34.903   4.484   5.075  1.00 20.00     0.290 C 
ATOM      9  O   VAL A   1     -35.276   4.315   6.233  1.00 20.00    -0.300 OA
ENDBRANCH   4   8
TORSDOF 1
