REMARK  2 active torsions:
REMARK  status: ('A' for Active; 'I' for Inactive)
REMARK    1  A    between atoms: C2_2  and  C9_9 
REMARK    2  A    between atoms: C3_3  and  C6_6 
ROOT
HETATM    1  C1  UNL     1     -34.348   5.090   3.238  1.00 20.00     0.079 A 
HETATM    2  C2  UNL     1     -34.175   5.965   4.290  1.00 20.00     0.045 A 
HETATM    3  C3  UNL     1     -32.918   6.981   2.806  1.00 20.00     0.079 A 
HETATM    4  N10 UNL     1     -33.355   7.050   4.044  1.00 20.00    -0.249 NA
HETATM    5  S11 UNL     1     -33.454   5.639   1.881  1.00 20.00    -0.084 SA
ENDROOT
BRANCH   2   6
HETATM    6  C9  UNL     1     -34.801   5.832   5.666  1.00 20.00     0.030 C 
HETATM    7  C7  UNL     1     -33.940   6.499   6.742  1.00 20.00     0.016 C 
HETATM    8  C8  UNL     1     -35.078   4.369   6.018  1.00 20.00     0.016 C 
ENDBRANCH   2   6
BRANCH   3   9
HETATM    9  C6  UNL     1     -31.978   8.046   2.218  1.00 20.00     0.045 A 
HETATM   10  C4  UNL     1     -32.584   9.295   1.622  1.00 20.00     0.012 A 
HETATM   11  C5  UNL     1     -31.977   8.264   0.723  1.00 20.00     0.012 A 
ENDBRANCH   3   9
TORSDOF 2
