REMARK  2 active torsions:
REMARK  status: ('A' for Active; 'I' for Inactive)
REMARK    1  A    between atoms: C1_1  and  C3_3 
REMARK    2  A    between atoms: C3_3  and  C4_4 
ROOT
HETATM    1  C3  UNL     1     -34.147   5.233   4.731  1.00 20.00     0.319 C 
HETATM    2  F7  UNL     1     -33.479   4.193   4.143  1.00 20.00    -0.209 F 
HETATM    3 CL12 UNL     1     -35.703   5.398   3.855  1.00 20.00    -0.067 Cl
ENDROOT
BRANCH   1   4
HETATM    4  C1  UNL     1     -33.346   6.509   4.606  1.00 20.00     0.143 C 
HETATM    5  C2  UNL     1     -32.999   7.077   3.442  1.00 20.00     0.289 C 
HETATM    6  F5  UNL     1     -32.280   8.219   3.423  1.00 20.00    -0.171 F 
HETATM    7  F6  UNL     1     -33.363   6.516   2.268  1.00 20.00    -0.171 F 
HETATM    8 CL11 UNL     1     -32.847   7.277   6.086  1.00 20.00    -0.078 Cl
ENDBRANCH   1   4
BRANCH   1   9
HETATM    9  C4  UNL     1     -34.404   4.806   6.168  1.00 20.00     0.443 C 
HETATM   10  F8  UNL     1     -35.093   5.760   6.837  1.00 20.00    -0.166 F 
HETATM   11  F9  UNL     1     -33.266   4.576   6.856  1.00 20.00    -0.166 F 
HETATM   12  F10 UNL     1     -35.145   3.675   6.210  1.00 20.00    -0.166 F 
ENDBRANCH   1   9
TORSDOF 2
