REMARK  0 active torsions:
REMARK  status: ('A' for Active; 'I' for Inactive)
ROOT
HETATM    1  C1  UNL     1     -32.701   7.304   3.033  1.00 20.00     0.217 C 
HETATM    2  C2  UNL     1     -33.853   7.764   3.903  1.00 20.00     0.108 C 
HETATM    3  C3  UNL     1     -33.041   4.938   3.830  1.00 20.00     0.131 C 
HETATM    4  C4  UNL     1     -34.258   6.793   5.019  1.00 20.00    -0.001 C 
HETATM    5  C5  UNL     1     -34.376   5.342   4.471  1.00 20.00    -0.028 C 
HETATM    6  C6  UNL     1     -33.293   6.947   6.207  1.00 20.00     0.011 C 
HETATM    7  C7  UNL     1     -35.504   5.250   3.418  1.00 20.00     0.016 C 
HETATM    8  C8  UNL     1     -34.720   4.339   5.591  1.00 20.00     0.016 C 
HETATM    9  N9  UNL     1     -32.470   5.951   2.960  1.00 20.00    -0.360 N 
HETATM   10  O10 UNL     1     -32.061   8.118   2.364  1.00 20.00    -0.274 OA
HETATM   11  H25 UNL     1     -31.839   5.628   2.227  1.00 20.00     0.162 HD
ENDROOT
TORSDOF 0
