REMARK  0 active torsions:
REMARK  status: ('A' for Active; 'I' for Inactive)
ROOT
HETATM    1  C1  UNL     1     -33.367   6.592   4.104  1.00 20.00     0.105 C 
HETATM    2  C2  UNL     1     -34.035   6.273   2.980  1.00 20.00     0.056 C 
HETATM    3  C3  UNL     1     -33.975   6.270   5.419  1.00 20.00     0.196 C 
HETATM    4  C4  UNL     1     -35.871   5.339   4.036  1.00 20.00     0.035 C 
HETATM    5  C5  UNL     1     -35.252   5.483   5.399  1.00 20.00     0.205 C 
HETATM    6  C6  UNL     1     -33.498   6.543   1.594  1.00 20.00     0.072 C 
HETATM    7  C7  UNL     1     -37.253   4.739   3.939  1.00 20.00     0.068 C 
HETATM    8  N8  UNL     1     -35.284   5.691   2.936  1.00 20.00    -0.259 NA
HETATM    9  O9  UNL     1     -33.440   6.602   6.476  1.00 20.00    -0.289 OA
HETATM   10 CL10 UNL     1     -31.822   7.352   4.145  1.00 20.00    -0.078 Cl
HETATM   11 CL11 UNL     1     -34.872   3.858   6.007  1.00 20.00    -0.110 Cl
ENDROOT
TORSDOF 0
