REMARK  1 active torsions:
REMARK  status: ('A' for Active; 'I' for Inactive)
REMARK    1  A    between atoms: C4_4  and  C8_8 
ROOT
HETATM    1  C1  UNL     1     -33.665   6.288   5.475  1.00 20.00     0.030 A 
HETATM    2  C2  UNL     1     -34.936   5.422   3.627  1.00 20.00     0.055 A 
HETATM    3  C3  UNL     1     -34.657   5.806   6.314  1.00 20.00     0.119 A 
HETATM    4  C4  UNL     1     -33.815   6.089   4.108  1.00 20.00    -0.010 A 
HETATM    5  C5  UNL     1     -35.871   4.978   4.548  1.00 20.00     0.126 A 
HETATM    6  N9  UNL     1     -35.760   5.153   5.884  1.00 20.00    -0.249 NA
HETATM    7 CL12 UNL     1     -37.285   4.146   4.045  1.00 20.00    -0.062 Cl
ENDROOT
BRANCH   4   8
HETATM    8  C8  UNL     1     -32.736   6.608   3.123  1.00 20.00     0.173 C 
HETATM    9  C6  UNL     1     -33.199   7.013   1.715  1.00 20.00     0.218 C 
HETATM   10  O10 UNL     1     -32.451   8.250   1.798  1.00 20.00    -0.384 OA
HETATM   11  C7  UNL     1     -32.332   8.087   3.231  1.00 20.00     0.218 C 
HETATM   12  F11 UNL     1     -31.708   5.733   3.156  1.00 20.00    -0.233 F 
ENDBRANCH   4   8
TORSDOF 1
