REMARK  2 active torsions:
REMARK  status: ('A' for Active; 'I' for Inactive)
REMARK    1  A    between atoms: C1_1  and  P9_9 
REMARK    2  A    between atoms: C2_2  and  P9_9 
ROOT
HETATM    1  P9  UNL     1     -33.238   5.718   4.503  1.00 20.00     0.209 P 
HETATM    2 CL10 UNL     1     -33.947   6.495   6.319  1.00 20.00    -0.077 Cl
ENDROOT
BRANCH   1   3
HETATM    3  C1  UNL     1     -34.722   5.185   3.720  1.00 20.00     0.429 C 
HETATM    4  F3  UNL     1     -34.404   4.957   2.444  1.00 20.00    -0.165 F 
HETATM    5  F4  UNL     1     -35.084   4.065   4.350  1.00 20.00    -0.165 F 
HETATM    6  F5  UNL     1     -35.628   6.154   3.851  1.00 20.00    -0.165 F 
ENDBRANCH   1   3
BRANCH   1   7
HETATM    7  C2  UNL     1     -32.782   7.175   3.625  1.00 20.00     0.429 C 
HETATM    8  F6  UNL     1     -31.656   7.610   4.193  1.00 20.00    -0.165 F 
HETATM    9  F7  UNL     1     -33.790   8.033   3.795  1.00 20.00    -0.165 F 
HETATM   10  F8  UNL     1     -32.610   6.846   2.345  1.00 20.00    -0.165 F 
ENDBRANCH   1   7
TORSDOF 2
