REMARK  0 active torsions:
REMARK  status: ('A' for Active; 'I' for Inactive)
ROOT
HETATM    1  C1  UNL     1     -33.372   6.271   3.751  1.00 20.00    -0.071 C 
HETATM    2  C2  UNL     1     -32.450   7.218   3.544  1.00 20.00    -0.027 C 
HETATM    3  C3  UNL     1     -35.496   5.886   2.553  1.00 20.00     0.009 C 
HETATM    4  C4  UNL     1     -36.128   5.316   3.836  1.00 20.00     0.006 C 
HETATM    5  C5  UNL     1     -34.162   4.098   3.382  1.00 20.00     0.014 C 
HETATM    6  C6  UNL     1     -34.029   5.440   2.665  1.00 20.00     0.015 C 
HETATM    7  C7  UNL     1     -34.918   4.701   4.577  1.00 20.00    -0.002 C 
HETATM    8  C8  UNL     1     -33.922   5.794   5.091  1.00 20.00    -0.021 C 
HETATM    9  C9  UNL     1     -31.930   7.596   2.198  1.00 20.00     0.036 C 
HETATM   10  C10 UNL     1     -34.606   6.917   5.885  1.00 20.00     0.020 C 
HETATM   11  C11 UNL     1     -32.826   5.168   5.973  1.00 20.00     0.020 C 
ENDROOT
TORSDOF 0
