REMARK  1 active torsions:
REMARK  status: ('A' for Active; 'I' for Inactive)
REMARK    1  A    between atoms: C2_2  and  C3_3 
ROOT
HETATM    1  C1  UNL     1     -35.751   5.809   3.857  1.00 20.00     0.051 C 
HETATM    2  C3  UNL     1     -34.555   5.461   4.741  1.00 20.00     0.122 C 
HETATM    3 CL5  UNL     1     -34.502   6.590   6.136  1.00 20.00    -0.101 Cl
HETATM    4 CL6  UNL     1     -34.805   3.802   5.398  1.00 20.00    -0.101 Cl
ENDROOT
BRANCH   2   5
HETATM    5  C2  UNL     1     -33.219   5.473   3.987  1.00 20.00     0.156 C 
HETATM    6 CL4  UNL     1     -32.830   7.051   3.249  1.00 20.00    -0.127 Cl
ENDBRANCH   2   5
TORSDOF 1
