REMARK  0 active torsions:
REMARK  status: ('A' for Active; 'I' for Inactive)
ROOT
HETATM    1  C1  UNL     1     -34.331   5.461   4.936  1.00 20.00     0.227 C 
HETATM    2 CL2  UNL     1     -35.960   5.372   4.239  1.00 20.00    -0.076 Cl
HETATM    3 CL3  UNL     1     -33.953   3.964   5.810  1.00 20.00    -0.076 Cl
HETATM    4 BR4  UNL     1     -33.041   5.684   3.489  1.00 20.00    -0.037 Br
HETATM    5 BR5  UNL     1     -34.264   6.954   6.189  1.00 20.00    -0.037 Br
ENDROOT
TORSDOF 0
