REMARK  0 active torsions:
REMARK  status: ('A' for Active; 'I' for Inactive)
ROOT
HETATM    1  C1  UNL     1     -33.685   6.765   3.894  1.00 20.00    -0.071 C 
HETATM    2  C2  UNL     1     -33.395   7.781   3.074  1.00 20.00    -0.027 C 
HETATM    3  C3  UNL     1     -34.295   6.827   6.286  1.00 20.00     0.009 C 
HETATM    4  C4  UNL     1     -35.159   5.564   6.109  1.00 20.00     0.006 C 
HETATM    5  C5  UNL     1     -32.980   5.076   5.354  1.00 20.00     0.014 C 
HETATM    6  C6  UNL     1     -33.139   6.594   5.299  1.00 20.00     0.015 C 
HETATM    7  C7  UNL     1     -34.443   4.811   4.964  1.00 20.00    -0.002 C 
HETATM    8  C8  UNL     1     -34.569   5.559   3.594  1.00 20.00    -0.021 C 
HETATM    9  C9  UNL     1     -32.481   8.905   3.430  1.00 20.00     0.036 C 
HETATM   10  C10 UNL     1     -34.002   4.702   2.447  1.00 20.00     0.020 C 
HETATM   11  C11 UNL     1     -36.011   5.952   3.244  1.00 20.00     0.020 C 
ENDROOT
TORSDOF 0
