REMARK  1 active torsions:
REMARK  status: ('A' for Active; 'I' for Inactive)
REMARK    1  A    between atoms: C1_1  and  C2_2 
ROOT
HETATM    1  C1  UNL     1     -34.589   6.202   4.204  1.00 20.00     0.314 C 
HETATM    2  F3  UNL     1     -35.238   5.519   3.224  1.00 20.00    -0.228 F 
HETATM    3 CL5  UNL     1     -32.844   6.148   3.876  1.00 20.00    -0.085 Cl
ENDROOT
BRANCH   1   4
HETATM    4  C2  UNL     1     -34.902   5.573   5.547  1.00 20.00     0.314 C 
HETATM    5  F4  UNL     1     -34.255   6.257   6.528  1.00 20.00    -0.228 F 
HETATM    6 CL6  UNL     1     -34.363   3.880   5.586  1.00 20.00    -0.085 Cl
ENDBRANCH   1   4
TORSDOF 1
