REMARK  1 active torsions:
REMARK  status: ('A' for Active; 'I' for Inactive)
REMARK    1  A    between atoms: C1_1  and  S3_3 
ROOT
HETATM    1  C1  UNL     1     -34.619   5.375   5.301  1.00 20.00     0.295 C 
HETATM    2  O2  UNL     1     -34.036   6.350   5.761  1.00 20.00    -0.266 OA
HETATM    3 CL4  UNL     1     -34.873   3.865   6.127  1.00 20.00    -0.031 Cl
ENDROOT
BRANCH   1   4
HETATM    4  S3  UNL     1     -35.305   5.378   3.666  1.00 20.00     0.036 SA
HETATM    5 CL5  UNL     1     -37.269   5.038   4.071  1.00 20.00    -0.034 Cl
ENDBRANCH   1   4
TORSDOF 1
