REMARK  2 active torsions:
REMARK  status: ('A' for Active; 'I' for Inactive)
REMARK    1  A    between atoms: C3_3  and  C9_9 
REMARK    2  A    between atoms: C3_3  and  C10_10 
ROOT
HETATM    1  C3  UNL     1     -32.534   7.055   2.686  1.00 20.00     0.135 C 
HETATM    2  O11 UNL     1     -31.921   5.993   2.599  1.00 20.00    -0.297 OA
ENDROOT
BRANCH   1   3
HETATM    3  C9  UNL     1     -32.022   8.337   2.019  1.00 20.00     0.063 C 
HETATM    4  C4  UNL     1     -32.011   8.374   0.465  1.00 20.00     0.045 C 
HETATM    5  C1  UNL     1     -32.483   9.799   0.635  1.00 20.00    -0.088 C 
HETATM    6  C2  UNL     1     -32.488  10.860  -0.173  1.00 20.00     0.014 C 
HETATM    7  C5  UNL     1     -32.956   9.578   2.053  1.00 20.00     0.045 C 
ENDBRANCH   1   3
BRANCH   1   8
HETATM    8  C10 UNL     1     -33.805   7.158   3.439  1.00 20.00     0.056 C 
HETATM    9  C7  UNL     1     -34.867   6.083   3.101  1.00 20.00     0.012 C 
HETATM   10  C6  UNL     1     -34.347   5.259   4.295  1.00 20.00     0.002 C 
HETATM   11  C8  UNL     1     -33.777   6.570   4.872  1.00 20.00     0.012 C 
ENDBRANCH   1   8
TORSDOF 2
