REMARK  2 active torsions:
REMARK  status: ('A' for Active; 'I' for Inactive)
REMARK    1  A    between atoms: C2_2  and  O6_6 
REMARK    2  A    between atoms: C5_5  and  O6_6 
ROOT
HETATM    1  C1  UNL     1     -34.563   5.980   6.231  1.00 20.00     0.099 A 
HETATM    2  C2  UNL     1     -33.425   5.689   5.293  1.00 20.00     0.181 A 
HETATM    3  C3  UNL     1     -34.683   4.865   5.230  1.00 20.00     0.207 A 
HETATM    4  F7  UNL     1     -34.585   3.578   5.747  1.00 20.00    -0.223 F 
HETATM    5 CL8  UNL     1     -35.800   5.057   3.892  1.00 20.00    -0.080 Cl
ENDROOT
BRANCH   2   6
HETATM    6  O6  UNL     1     -33.207   6.653   4.251  1.00 20.00    -0.382 OA
BRANCH   6   7
HETATM    7  C5  UNL     1     -32.114   6.275   3.433  1.00 20.00     0.164 C 
HETATM    8  C4  UNL     1     -31.924   7.318   2.352  1.00 20.00     0.033 C 
ENDBRANCH   6   7
ENDBRANCH   2   6
TORSDOF 2
