REMARK  0 active torsions:
REMARK  status: ('A' for Active; 'I' for Inactive)
ROOT
HETATM    1  C1  UNL     1     -34.868   3.639   5.860  1.00 20.00     0.023 C 
HETATM    2  C2  UNL     1     -35.036   3.128   4.635  1.00 20.00     0.047 C 
HETATM    3  C3  UNL     1     -34.084   4.939   5.928  1.00 20.00     0.040 C 
HETATM    4  C4  UNL     1     -35.724   1.865   4.269  1.00 20.00     0.076 C 
HETATM    5  C5  UNL     1     -32.726   4.659   6.583  1.00 20.00     0.029 C 
HETATM    6  C6  UNL     1     -34.834   5.996   6.737  1.00 20.00     0.029 C 
HETATM    7  O7  UNL     1     -34.495   3.876   3.599  1.00 20.00    -0.305 OA
HETATM    8  P8  UNL     1     -33.930   5.318   4.128  1.00 20.00     0.165 P 
HETATM    9  S9  UNL     1     -32.276   5.953   3.354  1.00 20.00    -0.049 SA
HETATM   10 CL10 UNL     1     -35.463   6.523   3.630  1.00 20.00    -0.054 Cl
ENDROOT
TORSDOF 0
