REMARK  1 active torsions:
REMARK  status: ('A' for Active; 'I' for Inactive)
REMARK    1  A    between atoms: C1_1  and  C2_2 
ROOT
HETATM    1  C1  UNL     1     -34.578   4.936   4.168  1.00 20.00     0.314 C 
HETATM    2  F3  UNL     1     -35.709   5.577   3.768  1.00 20.00    -0.228 F 
HETATM    3 CL5  UNL     1     -35.004   3.774   5.443  1.00 20.00    -0.085 Cl
ENDROOT
BRANCH   1   4
HETATM    4  C2  UNL     1     -33.578   5.953   4.682  1.00 20.00     0.314 C 
HETATM    5  F4  UNL     1     -33.276   6.831   3.688  1.00 20.00    -0.228 F 
HETATM    6 CL6  UNL     1     -34.254   6.861   6.052  1.00 20.00    -0.085 Cl
ENDBRANCH   1   4
TORSDOF 1
