REMARK  1 active torsions:
REMARK  status: ('A' for Active; 'I' for Inactive)
REMARK    1  A    between atoms: C2_2  and  C6_6 
ROOT
HETATM    1  C3  UNL     1     -32.002   5.694   2.739  1.00 20.00     0.006 C 
HETATM    2  C4  UNL     1     -33.394   5.062   2.865  1.00 20.00     0.006 C 
HETATM    3  C5  UNL     1     -32.885   6.141   4.893  1.00 20.00     0.010 C 
HETATM    4  C6  UNL     1     -32.902   7.997   3.424  1.00 20.00     0.025 C 
HETATM    5  C7  UNL     1     -32.012   6.795   3.818  1.00 20.00    -0.005 C 
HETATM    6  C8  UNL     1     -34.069   5.938   3.934  1.00 20.00    -0.006 C 
HETATM    7  C9  UNL     1     -34.339   7.389   3.406  1.00 20.00    -0.036 C 
HETATM    8  C11 UNL     1     -35.251   8.148   4.394  1.00 20.00     0.016 C 
HETATM    9  C12 UNL     1     -35.046   7.404   2.040  1.00 20.00     0.016 C 
ENDROOT
BRANCH   4  10
HETATM   10  C2  UNL     1     -32.435   8.720   2.202  1.00 20.00    -0.088 C 
HETATM   11  C1  UNL     1     -31.375   8.303   1.493  1.00 20.00     0.014 C 
HETATM   12  C10 UNL     1     -33.218   9.939   1.814  1.00 20.00     0.043 C 
ENDBRANCH   4  10
TORSDOF 1
