REMARK  2 active torsions:
REMARK  status: ('A' for Active; 'I' for Inactive)
REMARK    1  A    between atoms: C3_3  and  C4_4 
REMARK    2  A    between atoms: C5_5  and  C9_9 
ROOT
HETATM    1  C1  UNL     1     -34.106   6.146   5.795  1.00 20.00    -0.024 C 
HETATM    2  C2  UNL     1     -34.557   4.958   5.357  1.00 20.00    -0.087 C 
HETATM    3  C6  UNL     1     -33.438   7.160   4.913  1.00 20.00     0.036 C 
HETATM    4  C7  UNL     1     -34.394   4.524   3.923  1.00 20.00     0.034 C 
HETATM    5  C8  UNL     1     -33.407   5.385   3.128  1.00 20.00     0.013 C 
HETATM    6  C9  UNL     1     -33.617   6.877   3.412  1.00 20.00     0.018 C 
HETATM    7  C10 UNL     1     -35.254   3.990   6.266  1.00 20.00     0.043 C 
ENDROOT
BRANCH   6   8
HETATM    8  C5  UNL     1     -32.689   7.722   2.593  1.00 20.00    -0.076 C 
HETATM    9  C3  UNL     1     -33.040   8.638   1.674  1.00 20.00     0.044 C 
HETATM   10  C11 UNL     1     -31.229   7.471   2.875  1.00 20.00     0.044 C 
BRANCH   9  11
HETATM   11  C4  UNL     1     -32.100   9.458   0.881  1.00 20.00     0.259 C 
HETATM   12  O12 UNL     1     -32.381   9.847  -0.248  1.00 20.00    -0.302 OA
ENDBRANCH   9  11
ENDBRANCH   6   8
TORSDOF 2
