REMARK  2 active torsions:
REMARK  status: ('A' for Active; 'I' for Inactive)
REMARK    1  A    between atoms: C2_2  and  O6_6 
REMARK    2  A    between atoms: C5_5  and  O6_6 
ROOT
HETATM    1  C1  UNL     1     -34.174   6.600   5.372  1.00 20.00     0.099 A 
HETATM    2  C2  UNL     1     -33.122   5.864   4.593  1.00 20.00     0.181 A 
HETATM    3  C3  UNL     1     -34.458   5.222   4.846  1.00 20.00     0.207 A 
HETATM    4  F7  UNL     1     -35.327   5.154   3.762  1.00 20.00    -0.223 F 
HETATM    5 CL8  UNL     1     -34.551   3.889   5.980  1.00 20.00    -0.080 Cl
ENDROOT
BRANCH   2   6
HETATM    6  O6  UNL     1     -32.887   6.333   3.255  1.00 20.00    -0.382 OA
BRANCH   6   7
HETATM    7  C5  UNL     1     -32.059   7.481   3.259  1.00 20.00     0.164 C 
HETATM    8  C4  UNL     1     -31.841   7.937   1.832  1.00 20.00     0.033 C 
ENDBRANCH   6   7
ENDBRANCH   2   6
TORSDOF 2
