REMARK  2 active torsions:
REMARK  status: ('A' for Active; 'I' for Inactive)
REMARK    1  A    between atoms: C1_1  and  C4_4 
REMARK    2  A    between atoms: C4_4  and  C5_5 
ROOT
HETATM    1  C2  UNL     1     -34.872   4.699   3.246  1.00 20.00     0.027 A 
HETATM    2  C3  UNL     1     -35.278   6.132   3.408  1.00 20.00     0.027 A 
HETATM    3  C4  UNL     1     -33.986   5.644   4.032  1.00 20.00     0.110 A 
ENDROOT
BRANCH   3   4
HETATM    4  C1  UNL     1     -32.723   6.075   3.385  1.00 20.00     0.249 C 
HETATM    5  O6  UNL     1     -32.454   7.247   3.142  1.00 20.00    -0.306 OA
ENDBRANCH   3   4
BRANCH   3   6
HETATM    6  C5  UNL     1     -33.968   5.479   5.530  1.00 20.00     0.401 C 
HETATM    7  F7  UNL     1     -33.652   6.641   6.136  1.00 20.00    -0.170 F 
HETATM    8  F8  UNL     1     -35.175   5.085   5.984  1.00 20.00    -0.170 F 
HETATM    9  F9  UNL     1     -33.060   4.554   5.900  1.00 20.00    -0.170 F 
ENDBRANCH   3   6
TORSDOF 2
