REMARK  0 active torsions:
REMARK  status: ('A' for Active; 'I' for Inactive)
ROOT
HETATM    1  C1  UNL     1     -34.782   4.873   3.347  1.00 20.00     0.047 C 
HETATM    2  C2  UNL     1     -34.170   5.947   2.580  1.00 20.00     0.042 C 
HETATM    3  C3  UNL     1     -32.459   7.613   5.401  1.00 20.00     0.010 C 
HETATM    4  C4  UNL     1     -33.171   7.440   6.519  1.00 20.00     0.114 C 
HETATM    5  C5  UNL     1     -34.646   4.808   4.677  1.00 20.00     0.142 C 
HETATM    6  C6  UNL     1     -33.211   6.723   3.116  1.00 20.00     0.107 C 
HETATM    7  C7  UNL     1     -33.825   5.849   5.316  1.00 20.00     0.087 C 
HETATM    8  C8  UNL     1     -32.699   6.461   4.493  1.00 20.00     0.127 C 
HETATM    9  N9  UNL     1     -34.007   6.353   6.497  1.00 20.00    -0.262 NA
HETATM   10  F10 UNL     1     -35.287   3.930   5.462  1.00 20.00    -0.204 F 
HETATM   11  F11 UNL     1     -32.670   7.713   2.373  1.00 20.00    -0.210 F 
ENDROOT
TORSDOF 0
