REMARK  2 active torsions:
REMARK  status: ('A' for Active; 'I' for Inactive)
REMARK    1  A    between atoms: C7_7  and  O10_10 
REMARK    2  A    between atoms: C8_8  and  O10_10 
ROOT
HETATM    1  C1  UNL     1     -34.205   5.988   6.225  1.00 20.00     0.155 C 
HETATM    2  C2  UNL     1     -35.120   4.795   6.550  1.00 20.00     0.084 C 
HETATM    3  C3  UNL     1     -35.202   4.539   5.028  1.00 20.00     0.047 C 
HETATM    4  C7  UNL     1     -34.052   5.543   4.759  1.00 20.00     0.191 C 
HETATM    5  O9  UNL     1     -33.778   6.920   6.873  1.00 20.00    -0.295 OA
ENDROOT
BRANCH   4   6
HETATM    6  O10 UNL     1     -34.317   6.570   3.822  1.00 20.00    -0.373 OA
BRANCH   6   7
HETATM    7  C8  UNL     1     -33.236   6.703   2.885  1.00 20.00     0.122 C 
HETATM    8  C5  UNL     1     -33.294   7.939   1.957  1.00 20.00     0.032 C 
HETATM    9  C4  UNL     1     -31.766   8.052   2.116  1.00 20.00     0.005 C 
HETATM   10  C6  UNL     1     -31.917   7.287   3.445  1.00 20.00     0.032 C 
ENDBRANCH   6   7
ENDBRANCH   4   6
TORSDOF 2
