REMARK  0 active torsions:
REMARK  status: ('A' for Active; 'I' for Inactive)
ROOT
HETATM    1  C1  UNL     1     -34.232   6.264   6.590  1.00 20.00     0.032 A 
HETATM    2  C2  UNL     1     -33.063   6.924   4.427  1.00 20.00     0.037 A 
HETATM    3  C3  UNL     1     -33.773   5.702   2.433  1.00 20.00     0.003 A 
HETATM    4  C4  UNL     1     -35.182   5.324   6.728  1.00 20.00     0.118 A 
HETATM    5  C5  UNL     1     -33.910   6.250   5.203  1.00 20.00    -0.008 A 
HETATM    6  C6  UNL     1     -32.998   6.639   3.008  1.00 20.00     0.031 A 
HETATM    7  C7  UNL     1     -34.789   5.209   4.641  1.00 20.00     0.048 A 
HETATM    8  C8  UNL     1     -34.774   4.862   3.181  1.00 20.00     0.088 A 
HETATM    9  N9  UNL     1     -35.545   4.663   5.561  1.00 20.00    -0.264 NA
HETATM   10 CL10 UNL     1     -31.879   7.551   2.059  1.00 20.00    -0.085 Cl
ENDROOT
TORSDOF 0
