REMARK  1 active torsions:
REMARK  status: ('A' for Active; 'I' for Inactive)
REMARK    1  A    between atoms: C1_1  and  C4_4 
ROOT
HETATM    1  C2  UNL     1     -34.120   4.288   4.985  1.00 20.00     0.038 C 
HETATM    2  C3  UNL     1     -34.049   5.004   6.319  1.00 20.00     0.169 C 
HETATM    3  C4  UNL     1     -33.794   6.604   4.633  1.00 20.00     0.190 C 
HETATM    4  C5  UNL     1     -34.513   5.398   4.018  1.00 20.00    -0.013 C 
HETATM    5  C6  UNL     1     -36.037   5.628   4.060  1.00 20.00     0.018 C 
HETATM    6  C7  UNL     1     -34.112   5.082   2.575  1.00 20.00     0.018 C 
HETATM    7  O9  UNL     1     -33.714   6.373   6.048  1.00 20.00    -0.378 OA
ENDROOT
BRANCH   3   8
HETATM    8  C1  UNL     1     -32.368   6.774   4.207  1.00 20.00     0.263 C 
HETATM    9  O8  UNL     1     -32.016   7.531   3.309  1.00 20.00    -0.304 OA
ENDBRANCH   3   8
TORSDOF 1
