REMARK  0 active torsions:
REMARK  status: ('A' for Active; 'I' for Inactive)
ROOT
HETATM    1  C1  UNL     1     -33.451   5.710   2.586  1.00 20.00     0.006 A 
HETATM    2  C2  UNL     1     -34.103   5.518   3.729  1.00 20.00    -0.008 A 
HETATM    3  C3  UNL     1     -33.287   6.254   4.694  1.00 20.00     0.038 A 
HETATM    4  C4  UNL     1     -32.260   6.583   2.792  1.00 20.00     0.177 A 
HETATM    5  C5  UNL     1     -35.313   4.766   4.123  1.00 20.00     0.310 C 
HETATM    6  C6  UNL     1     -33.658   6.204   6.150  1.00 20.00     0.089 C 
HETATM    7  C7  UNL     1     -35.081   5.676   6.355  1.00 20.00     0.276 C 
HETATM    8  N8  UNL     1     -32.238   6.882   4.244  1.00 20.00    -0.290 NA
HETATM    9  N9  UNL     1     -35.345   4.467   5.563  1.00 20.00     0.087 N 
HETATM   10  H19 UNL     1     -36.265   4.100   5.804  1.00 20.00     0.316 HD
ENDROOT
TORSDOF 0
