REMARK  2 active torsions:
REMARK  status: ('A' for Active; 'I' for Inactive)
REMARK    1  A    between atoms: C8_8  and  O11_11 
REMARK    2  A    between atoms: C9_9  and  O11_11 
ROOT
HETATM    1  C1  UNL     1     -34.210   4.928   4.124  1.00 20.00     0.092 C 
HETATM    2  C2  UNL     1     -33.417   6.506   5.594  1.00 20.00     0.027 C 
HETATM    3  C3  UNL     1     -33.561   7.128   6.775  1.00 20.00     0.040 C 
HETATM    4  C4  UNL     1     -33.680   5.617   2.896  1.00 20.00     0.079 C 
HETATM    5  C5  UNL     1     -32.526   7.085   4.528  1.00 20.00     0.090 C 
HETATM    6  C8  UNL     1     -33.243   7.041   3.187  1.00 20.00     0.132 C 
HETATM    7  N10 UNL     1     -34.083   5.328   5.351  1.00 20.00    -0.270 NA
ENDROOT
BRANCH   6   8
HETATM    8  O11 UNL     1     -32.368   7.476   2.154  1.00 20.00    -0.380 OA
BRANCH   8   9
HETATM    9  C9  UNL     1     -32.473   8.876   1.944  1.00 20.00     0.122 A 
HETATM   10  C6  UNL     1     -32.115   9.368   0.571  1.00 20.00     0.034 A 
HETATM   11  C7  UNL     1     -33.552   9.322   1.000  1.00 20.00     0.034 A 
ENDBRANCH   8   9
ENDBRANCH   6   8
TORSDOF 2
