REMARK  1 active torsions:
REMARK  status: ('A' for Active; 'I' for Inactive)
REMARK    1  A    between atoms: C4_4  and  C6_6 
ROOT
HETATM    1  C1  UNL     1     -33.268   5.782   4.571  1.00 20.00     0.070 A 
HETATM    2  C2  UNL     1     -34.589   6.194   2.637  1.00 20.00     0.129 A 
HETATM    3  C3  UNL     1     -35.556   5.147   4.438  1.00 20.00     0.170 A 
HETATM    4  C4  UNL     1     -33.366   6.293   3.282  1.00 20.00     0.027 A 
HETATM    5  C5  UNL     1     -34.379   5.196   5.168  1.00 20.00     0.190 A 
HETATM    6  N7  UNL     1     -35.690   5.632   3.184  1.00 20.00    -0.268 NA
HETATM    7  O8  UNL     1     -34.316   4.718   6.353  1.00 20.00    -0.287 OA
ENDROOT
BRANCH   4   8
HETATM    8  C6  UNL     1     -32.197   6.925   2.616  1.00 20.00     0.388 C 
HETATM    9  F9  UNL     1     -31.383   7.526   3.525  1.00 20.00    -0.209 F 
HETATM   10  F10 UNL     1     -32.595   7.902   1.756  1.00 20.00    -0.209 F 
ENDBRANCH   4   8
TORSDOF 1
