REMARK  2 active torsions:
REMARK  status: ('A' for Active; 'I' for Inactive)
REMARK    1  A    between atoms: C1_1  and  O4_4 
REMARK    2  A    between atoms: C1_1  and  S5_5 
ROOT
HETATM    1  C1  UNL     1     -33.410   5.860   3.473  1.00 20.00     0.337 C 
HETATM    2  O3  UNL     1     -33.828   5.390   2.422  1.00 20.00    -0.251 OA
ENDROOT
BRANCH   1   3
HETATM    3  O4  UNL     1     -34.056   5.755   4.675  1.00 20.00    -0.317 OA
HETATM    4  C2  UNL     1     -35.297   5.042   4.656  1.00 20.00     0.214 C 
ENDBRANCH   1   3
BRANCH   1   5
HETATM    5  S5  UNL     1     -31.883   6.752   3.564  1.00 20.00     0.050 SA
HETATM    6 CL6  UNL     1     -32.255   8.286   2.281  1.00 20.00    -0.033 Cl
ENDBRANCH   1   5
TORSDOF 2
