REMARK  0 active torsions:
REMARK  status: ('A' for Active; 'I' for Inactive)
ROOT
HETATM    1  C1  UNL     1     -34.489   4.699   3.363  1.00 20.00     0.047 C 
HETATM    2  C2  UNL     1     -33.512   5.629   2.819  1.00 20.00     0.042 C 
HETATM    3  C3  UNL     1     -33.366   7.903   5.728  1.00 20.00     0.010 C 
HETATM    4  C4  UNL     1     -33.597   7.209   6.848  1.00 20.00     0.114 C 
HETATM    5  C5  UNL     1     -34.964   4.844   4.606  1.00 20.00     0.142 C 
HETATM    6  C6  UNL     1     -33.282   6.816   3.406  1.00 20.00     0.107 C 
HETATM    7  C7  UNL     1     -34.478   5.998   5.377  1.00 20.00     0.087 C 
HETATM    8  C8  UNL     1     -34.072   7.243   4.599  1.00 20.00     0.127 C 
HETATM    9  N9  UNL     1     -34.292   6.042   6.660  1.00 20.00    -0.262 NA
HETATM   10  F10 UNL     1     -35.760   3.955   5.220  1.00 20.00    -0.204 F 
HETATM   11  F11 UNL     1     -32.363   7.650   2.873  1.00 20.00    -0.210 F 
ENDROOT
TORSDOF 0
