REMARK  0 active torsions:
REMARK  status: ('A' for Active; 'I' for Inactive)
ROOT
HETATM    1  C1  UNL     1     -34.777   5.291   6.624  1.00 20.00     0.002 C 
HETATM    2  C2  UNL     1     -35.145   4.760   5.448  1.00 20.00     0.028 C 
HETATM    3  C3  UNL     1     -33.761   6.324   6.730  1.00 20.00    -0.003 C 
HETATM    4  C4  UNL     1     -33.366   7.025   5.653  1.00 20.00    -0.011 C 
HETATM    5  C5  UNL     1     -33.328   5.531   2.509  1.00 20.00     0.132 C 
HETATM    6  C6  UNL     1     -33.159   6.713   3.107  1.00 20.00     0.020 C 
HETATM    7  C7  UNL     1     -34.453   5.327   4.273  1.00 20.00     0.046 C 
HETATM    8  C8  UNL     1     -34.011   6.788   4.325  1.00 20.00     0.102 C 
HETATM    9  N9  UNL     1     -34.133   4.667   3.202  1.00 20.00    -0.263 NA
HETATM   10 BR10 UNL     1     -32.188   8.152   2.514  1.00 20.00    -0.053 Br
ENDROOT
TORSDOF 0
