REMARK  0 active torsions:
REMARK  status: ('A' for Active; 'I' for Inactive)
ROOT
HETATM    1  C1  UNL     1     -35.164   4.069   4.850  1.00 20.00     0.004 A 
HETATM    2  C2  UNL     1     -34.395   4.959   4.228  1.00 20.00    -0.036 A 
HETATM    3  C3  UNL     1     -33.861   5.753   5.338  1.00 20.00     0.035 A 
HETATM    4  C4  UNL     1     -35.162   4.293   6.323  1.00 20.00     0.177 A 
HETATM    5  C5  UNL     1     -34.055   5.191   2.809  1.00 20.00     0.040 C 
HETATM    6  C6  UNL     1     -32.856   6.839   5.071  1.00 20.00     0.059 C 
HETATM    7  C7  UNL     1     -32.778   6.024   2.673  1.00 20.00     0.005 C 
HETATM    8  C8  UNL     1     -32.810   7.244   3.599  1.00 20.00     0.006 C 
HETATM    9  N9  UNL     1     -34.250   5.440   6.542  1.00 20.00    -0.290 NA
ENDROOT
TORSDOF 0
