REMARK  2 active torsions:
REMARK  status: ('A' for Active; 'I' for Inactive)
REMARK    1  A    between atoms: C7_7  and  O10_10 
REMARK    2  A    between atoms: C9_9  and  O10_10 
ROOT
HETATM    1  C1  UNL     1     -34.939   5.528   6.578  1.00 20.00     0.000 C 
HETATM    2  C2  UNL     1     -35.144   4.133   6.265  1.00 20.00     0.022 C 
HETATM    3  C3  UNL     1     -34.153   6.301   5.814  1.00 20.00     0.008 C 
HETATM    4  C4  UNL     1     -34.788   3.643   5.069  1.00 20.00     0.048 C 
HETATM    5  C7  UNL     1     -33.464   5.753   4.591  1.00 20.00     0.184 C 
HETATM    6  C8  UNL     1     -34.159   4.505   4.010  1.00 20.00     0.247 C 
HETATM    7  F11 UNL     1     -35.136   4.915   3.146  1.00 20.00    -0.240 F 
HETATM    8 CL12 UNL     1     -35.050   1.989   4.665  1.00 20.00    -0.086 Cl
ENDROOT
BRANCH   5   9
HETATM    9  O10 UNL     1     -33.395   6.750   3.576  1.00 20.00    -0.373 OA
BRANCH   9  10
HETATM   10  C9  UNL     1     -32.239   6.586   2.770  1.00 20.00     0.122 A 
HETATM   11  C5  UNL     1     -32.481   6.264   1.323  1.00 20.00     0.034 A 
HETATM   12  C6  UNL     1     -32.014   7.635   1.718  1.00 20.00     0.034 A 
ENDBRANCH   9  10
ENDBRANCH   5   9
TORSDOF 2
