REMARK  0 active torsions:
REMARK  status: ('A' for Active; 'I' for Inactive)
ROOT
HETATM    1  C1  UNL     1     -32.580   5.707   3.326  1.00 20.00     0.029 C 
HETATM    2  C2  UNL     1     -34.255   7.011   3.737  1.00 20.00     0.029 C 
HETATM    3  C3  UNL     1     -33.938   5.088   5.448  1.00 20.00     0.179 A 
HETATM    4  C4  UNL     1     -34.847   4.476   3.682  1.00 20.00     0.179 A 
HETATM    5  C5  UNL     1     -32.728   7.244   3.532  1.00 20.00     0.059 C 
HETATM    6  C6  UNL     1     -33.904   5.577   4.032  1.00 20.00     0.005 A 
HETATM    7  O7  UNL     1     -34.866   4.029   5.069  1.00 20.00    -0.389 OA
HETATM    8 BR8  UNL     1     -32.238   8.347   2.025  1.00 20.00    -0.091 Br
ENDROOT
TORSDOF 0
