REMARK  1 active torsions:
REMARK  status: ('A' for Active; 'I' for Inactive)
REMARK    1  A    between atoms: C3_3  and  C6_6 
ROOT
HETATM    1  C1  UNL     1     -33.590   5.403   3.810  1.00 20.00     0.055 A 
HETATM    2  C2  UNL     1     -34.831   5.244   5.832  1.00 20.00     0.160 A 
HETATM    3  C3  UNL     1     -32.852   6.436   4.379  1.00 20.00    -0.001 A 
HETATM    4  C4  UNL     1     -34.600   4.791   4.544  1.00 20.00     0.134 A 
HETATM    5  C5  UNL     1     -33.162   6.815   5.675  1.00 20.00     0.133 A 
HETATM    6  N7  UNL     1     -34.136   6.244   6.419  1.00 20.00    -0.245 NA
HETATM    7  F8  UNL     1     -35.326   3.797   4.021  1.00 20.00    -0.205 F 
HETATM    8 CL9  UNL     1     -32.323   8.078   6.488  1.00 20.00    -0.062 Cl
ENDROOT
BRANCH   3   9
HETATM    9  C6  UNL     1     -31.770   7.087   3.588  1.00 20.00     0.156 C 
HETATM   10 CL10 UNL     1     -32.456   8.175   2.359  1.00 20.00    -0.125 Cl
ENDBRANCH   3   9
TORSDOF 1
