REMARK  0 active torsions:
REMARK  status: ('A' for Active; 'I' for Inactive)
ROOT
HETATM    1  C1  UNL     1     -32.072   8.330   1.906  1.00 20.00     0.012 C 
HETATM    2  C2  UNL     1     -32.519   7.411   2.535  1.00 20.00    -0.110 C 
HETATM    3  C3  UNL     1     -33.898   5.348   2.463  1.00 20.00     0.045 C 
HETATM    4  C4  UNL     1     -34.755   4.672   3.510  1.00 20.00     0.169 C 
HETATM    5  C5  UNL     1     -34.064   6.727   4.360  1.00 20.00     0.184 C 
HETATM    6  C6  UNL     1     -33.065   6.291   3.303  1.00 20.00     0.090 C 
HETATM    7  O7  UNL     1     -34.994   5.647   4.533  1.00 20.00    -0.390 OA
ENDROOT
TORSDOF 0
