REMARK  2 active torsions:
REMARK  status: ('A' for Active; 'I' for Inactive)
REMARK    1  A    between atoms: C4_4  and  C6_6 
REMARK    2  A    between atoms: C6_6  and  O7_7 
ROOT
HETATM    1  C1  UNL     1     -33.433   6.843   5.772  1.00 20.00     0.013 C 
HETATM    2  C2  UNL     1     -32.853   7.662   4.615  1.00 20.00     0.079 C 
HETATM    3  C3  UNL     1     -33.985   5.788   3.655  1.00 20.00     0.085 C 
HETATM    4  C4  UNL     1     -33.932   5.523   5.160  1.00 20.00     0.015 C 
HETATM    5  C5  UNL     1     -32.793   6.696   3.451  1.00 20.00     0.244 C 
HETATM    6  F8  UNL     1     -32.831   7.328   2.265  1.00 20.00    -0.206 F 
HETATM    7  F9  UNL     1     -31.647   5.978   3.500  1.00 20.00    -0.206 F 
ENDROOT
BRANCH   4   8
HETATM    8  C6  UNL     1     -35.265   5.064   5.729  1.00 20.00     0.168 C 
BRANCH   8   9
HETATM    9  O7  UNL     1     -35.639   3.853   5.094  1.00 20.00    -0.400 OA
HETATM   10  H19 UNL     1     -36.492   3.584   5.477  1.00 20.00     0.209 HD
ENDBRANCH   8   9
ENDBRANCH   4   8
TORSDOF 2
