REMARK  0 active torsions:
REMARK  status: ('A' for Active; 'I' for Inactive)
ROOT
HETATM    1  C1  UNL     1     -34.290   5.029   3.276  1.00 20.00     0.050 C 
HETATM    2  C2  UNL     1     -34.864   4.202   4.409  1.00 20.00     0.171 C 
HETATM    3  C3  UNL     1     -33.471   6.043   4.041  1.00 20.00     0.128 C 
HETATM    4  C4  UNL     1     -34.377   6.329   5.226  1.00 20.00     0.235 C 
HETATM    5  O5  UNL     1     -35.067   5.101   5.511  1.00 20.00    -0.369 OA
HETATM    6 CL6  UNL     1     -33.106   7.484   3.084  1.00 20.00    -0.121 Cl
HETATM    7 CL7  UNL     1     -33.469   6.863   6.649  1.00 20.00    -0.094 Cl
ENDROOT
TORSDOF 0
