REMARK  2 active torsions:
REMARK  status: ('A' for Active; 'I' for Inactive)
REMARK    1  A    between atoms: C7_7  and  O10_10 
REMARK    2  A    between atoms: C8_8  and  O10_10 
ROOT
HETATM    1  C1  UNL     1     -34.764   4.668   4.410  1.00 20.00     0.153 C 
HETATM    2  C2  UNL     1     -33.566   5.563   2.697  1.00 20.00     0.121 C 
HETATM    3  C3  UNL     1     -34.228   5.446   5.357  1.00 20.00     0.114 C 
HETATM    4  C4  UNL     1     -33.255   6.524   5.024  1.00 20.00     0.109 C 
HETATM    5  C7  UNL     1     -32.676   6.363   3.622  1.00 20.00     0.168 C 
HETATM    6  N9  UNL     1     -34.521   4.766   3.067  1.00 20.00    -0.272 NA
HETATM    7  F11 UNL     1     -34.572   5.244   6.647  1.00 20.00    -0.209 F 
ENDROOT
BRANCH   5   8
HETATM    8  O10 UNL     1     -32.510   7.646   3.040  1.00 20.00    -0.375 OA
BRANCH   8   9
HETATM    9  C8  UNL     1     -31.964   7.557   1.731  1.00 20.00     0.122 A 
HETATM   10  C5  UNL     1     -32.431   8.591   0.747  1.00 20.00     0.034 A 
HETATM   11  C6  UNL     1     -31.047   8.674   1.321  1.00 20.00     0.034 A 
ENDBRANCH   8   9
ENDBRANCH   5   8
TORSDOF 2
