REMARK  1 active torsions:
REMARK  status: ('A' for Active; 'I' for Inactive)
REMARK    1  A    between atoms: C3_3  and  C6_6 
ROOT
HETATM    1  C1  UNL     1     -33.490   6.251   2.812  1.00 20.00     0.068 A 
HETATM    2  C2  UNL     1     -31.904   7.302   4.239  1.00 20.00     0.126 A 
HETATM    3  C3  UNL     1     -32.362   7.051   2.955  1.00 20.00    -0.023 A 
HETATM    4  C4  UNL     1     -34.118   5.735   3.940  1.00 20.00     0.212 A 
HETATM    5  C5  UNL     1     -33.581   6.045   5.179  1.00 20.00     0.175 A 
HETATM    6  N7  UNL     1     -32.487   6.818   5.359  1.00 20.00    -0.244 NA
HETATM    7  O8  UNL     1     -35.158   4.998   3.803  1.00 20.00    -0.285 OA
HETATM    8 CL9  UNL     1     -34.236   5.485   6.679  1.00 20.00    -0.058 Cl
ENDROOT
BRANCH   3   9
HETATM    9  C6  UNL     1     -31.668   7.619   1.769  1.00 20.00     0.154 C 
HETATM   10 CL10 UNL     1     -32.591   8.979   1.087  1.00 20.00    -0.126 Cl
ENDBRANCH   3   9
TORSDOF 1
