REMARK  0 active torsions:
REMARK  status: ('A' for Active; 'I' for Inactive)
ROOT
HETATM    1  C1  UNL     1     -34.325   5.622   6.571  1.00 20.00     0.116 A 
HETATM    2  C2  UNL     1     -34.269   5.150   4.187  1.00 20.00     0.084 A 
HETATM    3  C3  UNL     1     -34.537   4.780   5.552  1.00 20.00     0.124 A 
HETATM    4  C4  UNL     1     -33.792   6.374   3.937  1.00 20.00     0.109 A 
HETATM    5  C5  UNL     1     -33.793   6.989   6.286  1.00 20.00     0.249 A 
HETATM    6  N6  UNL     1     -33.559   7.271   4.948  1.00 20.00    -0.314 N 
HETATM    7  O7  UNL     1     -33.590   7.780   7.204  1.00 20.00    -0.268 OA
HETATM    8  F8  UNL     1     -35.018   3.542   5.786  1.00 20.00    -0.206 F 
HETATM    9 CL9  UNL     1     -33.426   6.953   2.372  1.00 20.00    -0.064 Cl
HETATM   10  H12 UNL     1     -33.197   8.184   4.691  1.00 20.00     0.170 HD
ENDROOT
TORSDOF 0
