REMARK  1 active torsions:
REMARK  status: ('A' for Active; 'I' for Inactive)
REMARK    1  A    between atoms: C4_4  and  C9_9 
ROOT
HETATM    1  C1  UNL     1     -33.750   6.700   4.898  1.00 20.00     0.065 A 
HETATM    2  C2  UNL     1     -33.715   5.801   2.682  1.00 20.00     0.095 A 
HETATM    3  C3  UNL     1     -35.039   4.769   4.323  1.00 20.00     0.142 A 
HETATM    4  C4  UNL     1     -33.280   6.756   3.590  1.00 20.00    -0.031 A 
HETATM    5  C5  UNL     1     -34.638   5.697   5.274  1.00 20.00     0.187 A 
HETATM    6  N10 UNL     1     -34.571   4.846   3.070  1.00 20.00    -0.371 N 
HETATM    7  O11 UNL     1     -35.080   5.629   6.473  1.00 20.00    -0.287 OA
HETATM    8  H24 UNL     1     -34.877   4.154   2.387  1.00 20.00     0.164 HD
ENDROOT
BRANCH   4   9
HETATM    9  C9  UNL     1     -32.298   7.856   3.154  1.00 20.00    -0.023 C 
HETATM   10  C6  UNL     1     -31.006   7.762   3.995  1.00 20.00     0.019 C 
HETATM   11  C7  UNL     1     -32.942   9.243   3.366  1.00 20.00     0.019 C 
HETATM   12  C8  UNL     1     -31.881   7.769   1.668  1.00 20.00     0.019 C 
ENDBRANCH   4   9
TORSDOF 1
