REMARK  1 active torsions:
REMARK  status: ('A' for Active; 'I' for Inactive)
REMARK    1  A    between atoms: C5_5  and  C7_7 
ROOT
HETATM    1  C1  UNL     1     -32.646   7.514   4.592  1.00 20.00     0.071 A 
HETATM    2  C2  UNL     1     -34.138   5.469   3.573  1.00 20.00     0.126 A 
HETATM    3  C3  UNL     1     -34.284   5.782   4.915  1.00 20.00    -0.006 A 
HETATM    4  C4  UNL     1     -33.520   6.825   5.426  1.00 20.00     0.125 A 
HETATM    5  C5  UNL     1     -32.574   7.123   3.265  1.00 20.00     0.051 A 
HETATM    6  C6  UNL     1     -35.228   5.024   5.778  1.00 20.00     0.053 C 
HETATM    7  N8  UNL     1     -33.300   6.115   2.732  1.00 20.00    -0.264 NA
HETATM    8  F9  UNL     1     -33.619   7.173   6.717  1.00 20.00    -0.205 F 
ENDROOT
BRANCH   5   9
HETATM    9  C7  UNL     1     -31.645   7.840   2.342  1.00 20.00     0.173 C 
HETATM   10 CL10 UNL     1     -32.549   8.929   1.265  1.00 20.00    -0.124 Cl
ENDBRANCH   5   9
TORSDOF 1
