REMARK  1 active torsions:
REMARK  status: ('A' for Active; 'I' for Inactive)
REMARK    1  A    between atoms: C2_2  and  C7_7 
ROOT
HETATM    1  C1  UNL     1     -33.591   5.192   2.783  1.00 20.00     0.149 A 
HETATM    2  C2  UNL     1     -32.983   6.237   3.536  1.00 20.00    -0.001 A 
HETATM    3  C3  UNL     1     -33.589   6.140   4.756  1.00 20.00     0.039 A 
HETATM    4  C4  UNL     1     -33.630   6.733   6.104  1.00 20.00     0.061 C 
HETATM    5  C5  UNL     1     -34.936   6.115   6.681  1.00 20.00     0.028 C 
HETATM    6  C6  UNL     1     -35.218   4.841   5.860  1.00 20.00     0.151 C 
HETATM    7  N8  UNL     1     -34.506   4.495   3.480  1.00 20.00    -0.184 NA
HETATM    8  N9  UNL     1     -34.462   5.110   4.656  1.00 20.00    -0.274 N 
ENDROOT
BRANCH   2   9
HETATM    9  C7  UNL     1     -31.951   7.188   3.099  1.00 20.00     0.156 C 
HETATM   10 CL10 UNL     1     -32.635   8.446   2.033  1.00 20.00    -0.125 Cl
ENDBRANCH   2   9
TORSDOF 1
