REMARK  1 active torsions:
REMARK  status: ('A' for Active; 'I' for Inactive)
REMARK    1  A    between atoms: C1_1  and  C4_4 
ROOT
HETATM    1  C2  UNL     1     -34.168   5.177   2.717  1.00 20.00     0.038 C 
HETATM    2  C3  UNL     1     -32.776   5.684   3.040  1.00 20.00     0.169 C 
HETATM    3  C4  UNL     1     -34.287   6.708   4.483  1.00 20.00     0.190 C 
HETATM    4  C5  UNL     1     -34.922   5.388   4.027  1.00 20.00    -0.013 C 
HETATM    5  C6  UNL     1     -34.652   4.213   4.985  1.00 20.00     0.018 C 
HETATM    6  C7  UNL     1     -36.430   5.520   3.808  1.00 20.00     0.018 C 
HETATM    7  O9  UNL     1     -32.919   6.679   4.064  1.00 20.00    -0.378 OA
ENDROOT
BRANCH   3   8
HETATM    8  C1  UNL     1     -34.305   6.943   5.959  1.00 20.00     0.263 C 
HETATM    9  O8  UNL     1     -33.291   7.018   6.644  1.00 20.00    -0.304 OA
ENDBRANCH   3   8
TORSDOF 1
