REMARK  1 active torsions:
REMARK  status: ('A' for Active; 'I' for Inactive)
REMARK    1  A    between atoms: C1_1  and  C4_4 
ROOT
HETATM    1  C2  UNL     1     -33.187   5.775   3.501  1.00 20.00     0.026 C 
HETATM    2  C3  UNL     1     -32.261   7.612   4.830  1.00 20.00     0.026 C 
HETATM    3  C4  UNL     1     -33.531   6.779   4.610  1.00 20.00     0.088 C 
HETATM    4  C5  UNL     1     -32.065   6.404   2.728  1.00 20.00     0.069 A 
HETATM    5  C6  UNL     1     -31.499   7.527   3.541  1.00 20.00     0.069 A 
HETATM    6  C7  UNL     1     -32.138   7.803   2.224  1.00 20.00     0.252 A 
HETATM    7  F10 UNL     1     -33.338   8.470   2.137  1.00 20.00    -0.205 F 
HETATM    8  F11 UNL     1     -31.372   8.194   1.149  1.00 20.00    -0.205 F 
ENDROOT
BRANCH   3   9
HETATM    9  C1  UNL     1     -33.938   6.064   5.882  1.00 20.00     0.177 C 
HETATM   10  O8  UNL     1     -33.652   6.667   6.954  1.00 20.00    -0.648 OA
HETATM   11  O9  UNL     1     -34.515   4.955   5.705  1.00 20.00    -0.648 OA
ENDBRANCH   3   9
TORSDOF 1
