REMARK  0 active torsions:
REMARK  status: ('A' for Active; 'I' for Inactive)
ROOT
HETATM    1  C1  UNL     1     -32.477   8.867   2.047  1.00 20.00     0.013 C 
HETATM    2  C2  UNL     1     -32.725   7.864   2.658  1.00 20.00    -0.107 C 
HETATM    3  C3  UNL     1     -34.194   5.886   2.720  1.00 20.00     0.048 C 
HETATM    4  C4  UNL     1     -33.454   7.000   4.848  1.00 20.00     0.048 C 
HETATM    5  C5  UNL     1     -34.773   4.774   3.589  1.00 20.00     0.169 C 
HETATM    6  C6  UNL     1     -34.076   5.823   5.594  1.00 20.00     0.169 C 
HETATM    7  C7  UNL     1     -33.031   6.627   3.412  1.00 20.00     0.023 C 
HETATM    8  C8  UNL     1     -31.763   5.753   3.428  1.00 20.00     0.029 C 
HETATM    9  O9  UNL     1     -35.172   5.280   4.861  1.00 20.00    -0.391 OA
ENDROOT
TORSDOF 0
