REMARK  0 active torsions:
REMARK  status: ('A' for Active; 'I' for Inactive)
ROOT
HETATM    1  C1  UNL     1     -33.196   5.966   2.629  1.00 20.00     0.057 A 
HETATM    2  C2  UNL     1     -34.403   4.681   4.487  1.00 20.00     0.008 A 
HETATM    3  C3  UNL     1     -33.426   6.700   6.214  1.00 20.00     0.143 A 
HETATM    4  C4  UNL     1     -33.669   5.636   3.929  1.00 20.00    -0.005 A 
HETATM    5  C5  UNL     1     -32.491   7.098   2.809  1.00 20.00     0.127 A 
HETATM    6  C6  UNL     1     -33.143   6.697   4.773  1.00 20.00     0.085 A 
HETATM    7  C7  UNL     1     -34.698   4.677   5.961  1.00 20.00     0.176 A 
HETATM    8  N8  UNL     1     -34.134   5.781   6.761  1.00 20.00    -0.296 NA
HETATM    9  N9  UNL     1     -32.439   7.575   4.117  1.00 20.00    -0.235 NA
HETATM   10 CL10 UNL     1     -31.694   7.933   1.550  1.00 20.00    -0.062 Cl
ENDROOT
TORSDOF 0
