REMARK  2 active torsions:
REMARK  status: ('A' for Active; 'I' for Inactive)
REMARK    1  A    between atoms: C4_4  and  O9_9 
REMARK    2  A    between atoms: C7_7  and  O9_9 
ROOT
HETATM    1  C1  UNL     1     -34.877   5.325   5.022  1.00 20.00     0.155 C 
HETATM    2  C2  UNL     1     -34.994   5.672   6.516  1.00 20.00     0.084 C 
HETATM    3  C3  UNL     1     -33.890   6.728   6.281  1.00 20.00     0.047 C 
HETATM    4  C4  UNL     1     -33.586   6.153   4.874  1.00 20.00     0.191 C 
HETATM    5  O8  UNL     1     -35.546   4.663   4.258  1.00 20.00    -0.295 OA
ENDROOT
BRANCH   4   6
HETATM    6  O9  UNL     1     -33.621   7.085   3.782  1.00 20.00    -0.374 OA
BRANCH   6   7
HETATM    7  C7  UNL     1     -32.487   6.931   2.948  1.00 20.00     0.114 C 
HETATM    8  C5  UNL     1     -32.791   5.894   1.877  1.00 20.00     0.039 C 
HETATM    9  C6  UNL     1     -32.123   8.279   2.344  1.00 20.00     0.039 C 
ENDBRANCH   6   7
ENDBRANCH   4   6
TORSDOF 2
