REMARK  1 active torsions:
REMARK  status: ('A' for Active; 'I' for Inactive)
REMARK    1  A    between atoms: C6_6  and  C8_8 
ROOT
HETATM    1  C1  UNL     1     -32.254   6.496   2.502  1.00 20.00     0.099 C 
HETATM    2  C2  UNL     1     -33.405   6.422   4.658  1.00 20.00     0.031 A 
HETATM    3  C3  UNL     1     -33.254   4.418   3.317  1.00 20.00     0.046 A 
HETATM    4  C4  UNL     1     -34.386   4.361   5.451  1.00 20.00     0.032 A 
HETATM    5  C5  UNL     1     -32.977   5.773   3.500  1.00 20.00     0.046 A 
HETATM    6  C6  UNL     1     -34.109   5.716   5.634  1.00 20.00    -0.041 A 
HETATM    7  C7  UNL     1     -33.958   3.712   4.292  1.00 20.00     0.036 A 
HETATM    8  N9  UNL     1     -31.667   7.083   1.691  1.00 20.00    -0.191 NA
HETATM    9 CL10 UNL     1     -34.297   2.039   4.069  1.00 20.00    -0.084 Cl
ENDROOT
BRANCH   6  10
HETATM   10  C8  UNL     1     -34.565   6.409   6.873  1.00 20.00     0.153 C 
HETATM   11 CL11 UNL     1     -33.738   7.972   7.059  1.00 20.00    -0.126 Cl
ENDBRANCH   6  10
TORSDOF 1
