REMARK  0 active torsions:
REMARK  status: ('A' for Active; 'I' for Inactive)
ROOT
HETATM    1  C1  UNL     1     -32.835   6.964   3.792  1.00 20.00     0.124 C 
HETATM    2  C2  UNL     1     -34.398   5.409   3.682  1.00 20.00     0.044 C 
HETATM    3  C3  UNL     1     -35.363   4.464   4.286  1.00 20.00     0.057 C 
HETATM    4  C4  UNL     1     -35.291   4.939   5.749  1.00 20.00     0.007 C 
HETATM    5  C5  UNL     1     -34.075   5.887   5.849  1.00 20.00     0.016 C 
HETATM    6  C6  UNL     1     -34.077   6.589   4.511  1.00 20.00     0.077 C 
HETATM    7  N7  UNL     1     -32.650   6.287   2.702  1.00 20.00    -0.166 NA
HETATM    8  N8  UNL     1     -33.667   5.271   2.626  1.00 20.00    -0.159 NA
ENDROOT
TORSDOF 0
