REMARK  2 active torsions:
REMARK  status: ('A' for Active; 'I' for Inactive)
REMARK    1  A    between atoms: C7_7  and  P9_9 
REMARK    2  A    between atoms: C8_8  and  P9_9 
ROOT
HETATM    1  P9  UNL     1     -34.392   6.921   4.154  1.00 20.00    -0.001 P 
HETATM    2 CL10 UNL     1     -33.239   7.630   5.751  1.00 20.00    -0.094 Cl
ENDROOT
BRANCH   1   3
HETATM    3  C7  UNL     1     -34.650   5.151   4.744  1.00 20.00    -0.014 C 
HETATM    4  C1  UNL     1     -33.329   4.381   4.603  1.00 20.00     0.021 C 
HETATM    5  C2  UNL     1     -35.084   5.175   6.216  1.00 20.00     0.021 C 
HETATM    6  C3  UNL     1     -35.737   4.480   3.892  1.00 20.00     0.021 C 
ENDBRANCH   1   3
BRANCH   1   7
HETATM    7  C8  UNL     1     -33.090   6.591   2.914  1.00 20.00    -0.014 C 
HETATM    8  C4  UNL     1     -33.644   5.629   1.853  1.00 20.00     0.021 C 
HETATM    9  C5  UNL     1     -32.685   7.917   2.252  1.00 20.00     0.021 C 
HETATM   10  C6  UNL     1     -31.872   5.961   3.604  1.00 20.00     0.021 C 
ENDBRANCH   1   7
TORSDOF 2
