REMARK  0 active torsions:
REMARK  status: ('A' for Active; 'I' for Inactive)
ROOT
HETATM    1  C1  UNL     1     -34.879   3.694   5.827  1.00 20.00     0.011 A 
HETATM    2  C2  UNL     1     -34.549   5.071   6.410  1.00 20.00     0.011 A 
HETATM    3  C3  UNL     1     -35.582   5.495   3.940  1.00 20.00     0.027 A 
HETATM    4  C4  UNL     1     -34.086   5.210   3.730  1.00 20.00     0.067 A 
HETATM    5  C5  UNL     1     -34.763   4.878   4.979  1.00 20.00    -0.026 A 
HETATM    6 BR6  UNL     1     -32.903   6.704   3.678  1.00 20.00    -0.090 Br
ENDROOT
TORSDOF 0
