REMARK  0 active torsions:
REMARK  status: ('A' for Active; 'I' for Inactive)
ROOT
HETATM    1  C1  UNL     1     -33.806   6.356   5.259  1.00 20.00     0.031 C 
HETATM    2  C2  UNL     1     -34.366   5.149   5.995  1.00 20.00     0.075 C 
HETATM    3  C3  UNL     1     -34.459   5.045   3.309  1.00 20.00     0.094 C 
HETATM    4  C4  UNL     1     -33.311   5.837   3.915  1.00 20.00     0.092 C 
HETATM    5  S5  UNL     1     -35.193   4.160   4.716  1.00 20.00    -0.168 SA
HETATM    6 CL6  UNL     1     -32.822   7.172   2.851  1.00 20.00    -0.124 Cl
ENDROOT
TORSDOF 0
