REMARK  0 active torsions:
REMARK  status: ('A' for Active; 'I' for Inactive)
ROOT
HETATM    1  C1  UNL     1     -35.740   5.249   4.385  1.00 20.00    -0.025 C 
HETATM    2  C2  UNL     1     -35.710   5.574   3.078  1.00 20.00    -0.025 C 
HETATM    3  C3  UNL     1     -32.833   7.049   5.512  1.00 20.00    -0.024 C 
HETATM    4  C4  UNL     1     -32.158   7.838   4.644  1.00 20.00    -0.025 C 
HETATM    5  C5  UNL     1     -33.980   4.150   3.390  1.00 20.00     0.018 C 
HETATM    6  C6  UNL     1     -34.360   4.769   4.773  1.00 20.00     0.016 C 
HETATM    7  C7  UNL     1     -34.263   5.442   2.606  1.00 20.00     0.014 C 
HETATM    8  C8  UNL     1     -33.265   5.847   4.758  1.00 20.00     0.021 C 
HETATM    9  C9  UNL     1     -32.258   7.313   3.201  1.00 20.00     0.009 C 
HETATM   10  C10 UNL     1     -33.553   6.552   3.406  1.00 20.00     0.009 C 
HETATM   11  C11 UNL     1     -32.377   8.411   2.157  1.00 20.00     0.014 C 
ENDROOT
TORSDOF 0
