REMARK  0 active torsions:
REMARK  status: ('A' for Active; 'I' for Inactive)
ROOT
HETATM    1  C1  UNL     1     -34.768   5.649   6.194  1.00 20.00     0.002 C 
HETATM    2  C2  UNL     1     -33.677   6.421   6.078  1.00 20.00     0.028 C 
HETATM    3  C3  UNL     1     -35.450   5.080   5.043  1.00 20.00    -0.003 C 
HETATM    4  C4  UNL     1     -34.858   5.029   3.837  1.00 20.00    -0.012 C 
HETATM    5  C5  UNL     1     -33.128   6.332   2.475  1.00 20.00     0.032 C 
HETATM    6  C6  UNL     1     -32.630   7.506   2.877  1.00 20.00     0.123 C 
HETATM    7  C7  UNL     1     -33.213   6.625   4.691  1.00 20.00     0.047 C 
HETATM    8  C8  UNL     1     -33.457   5.516   3.675  1.00 20.00     0.086 C 
HETATM    9  N9  UNL     1     -32.656   7.704   4.232  1.00 20.00    -0.241 NA
HETATM   10 CL10 UNL     1     -32.065   8.722   1.822  1.00 20.00    -0.063 Cl
ENDROOT
TORSDOF 0
