REMARK  2 active torsions:
REMARK  status: ('A' for Active; 'I' for Inactive)
REMARK    1  A    between atoms: C6_6  and  C7_7 
REMARK    2  A    between atoms: C7_7  and  N8_8 
ROOT
HETATM    1  C1  UNL     1     -32.152   7.370   2.515  1.00 20.00     0.332 C 
HETATM    2  N8  UNL     1     -32.413   6.562   3.327  1.00 20.00    -0.247 NA
HETATM    3  O9  UNL     1     -31.890   8.180   1.702  1.00 20.00    -0.260 OA
ENDROOT
BRANCH   2   4
HETATM    4  C7  UNL     1     -33.688   5.881   3.116  1.00 20.00     0.161 C 
BRANCH   4   5
HETATM    5  C6  UNL     1     -34.581   6.123   4.326  1.00 20.00     0.028 C 
HETATM    6  C3  UNL     1     -33.807   6.064   5.607  1.00 20.00    -0.024 C 
HETATM    7  C2  UNL     1     -34.077   4.958   6.306  1.00 20.00    -0.030 C 
HETATM    8  C4  UNL     1     -35.071   4.091   5.611  1.00 20.00     0.027 C 
HETATM    9  C5  UNL     1     -35.624   5.013   4.523  1.00 20.00     0.014 C 
ENDBRANCH   4   5
ENDBRANCH   2   4
TORSDOF 2
