REMARK  0 active torsions:
REMARK  status: ('A' for Active; 'I' for Inactive)
ROOT
HETATM    1  C1  UNL     1     -33.832   6.756   6.534  1.00 20.00     0.032 A 
HETATM    2  C2  UNL     1     -32.964   7.577   4.206  1.00 20.00     0.040 A 
HETATM    3  C3  UNL     1     -33.317   5.865   2.571  1.00 20.00     0.142 A 
HETATM    4  C4  UNL     1     -34.414   5.556   6.880  1.00 20.00     0.093 A 
HETATM    5  C5  UNL     1     -33.541   6.707   5.145  1.00 20.00     0.013 A 
HETATM    6  C6  UNL     1     -32.855   7.135   2.889  1.00 20.00     0.052 A 
HETATM    7  C7  UNL     1     -33.962   5.461   4.689  1.00 20.00     0.139 A 
HETATM    8  C8  UNL     1     -35.039   3.442   5.709  1.00 20.00     0.157 C 
HETATM    9  N9  UNL     1     -33.880   4.985   3.432  1.00 20.00    -0.241 NA
HETATM   10  N10 UNL     1     -34.488   4.778   5.754  1.00 20.00    -0.345 N 
HETATM   11 CL11 UNL     1     -32.162   8.143   1.685  1.00 20.00    -0.083 Cl
ENDROOT
TORSDOF 0
