REMARK  0 active torsions:
REMARK  status: ('A' for Active; 'I' for Inactive)
ROOT
HETATM    1  C1  UNL     1     -35.136   4.014   4.942  1.00 20.00     0.147 A 
HETATM    2  C2  UNL     1     -34.454   4.842   4.033  1.00 20.00    -0.015 A 
HETATM    3  C3  UNL     1     -33.789   5.746   4.829  1.00 20.00     0.036 A 
HETATM    4  C4  UNL     1     -34.395   4.871   2.553  1.00 20.00     0.043 C 
HETATM    5  C5  UNL     1     -32.893   6.841   4.382  1.00 20.00     0.068 C 
HETATM    6  C6  UNL     1     -33.223   5.755   2.072  1.00 20.00     0.014 C 
HETATM    7  C7  UNL     1     -33.073   7.102   2.852  1.00 20.00    -0.042 C 
HETATM    8  C8  UNL     1     -31.831   7.844   2.326  1.00 20.00     0.015 C 
HETATM    9  C9  UNL     1     -34.304   7.999   2.609  1.00 20.00     0.015 C 
HETATM   10  N10 UNL     1     -34.917   4.360   6.216  1.00 20.00    -0.186 NA
HETATM   11  N11 UNL     1     -34.091   5.419   6.115  1.00 20.00    -0.282 N 
HETATM   12  H25 UNL     1     -33.778   5.868   6.967  1.00 20.00     0.189 HD
ENDROOT
TORSDOF 0
