REMARK  0 active torsions:
REMARK  status: ('A' for Active; 'I' for Inactive)
ROOT
HETATM    1  C1  UNL     1     -35.009   5.214   3.115  1.00 20.00     0.032 C 
HETATM    2  C2  UNL     1     -34.187   5.999   2.410  1.00 20.00     0.028 C 
HETATM    3  C3  UNL     1     -33.746   5.722   6.478  1.00 20.00     0.026 C 
HETATM    4  C4  UNL     1     -34.296   4.504   6.505  1.00 20.00     0.115 C 
HETATM    5  C5  UNL     1     -34.695   5.144   4.546  1.00 20.00     0.062 C 
HETATM    6  C6  UNL     1     -33.008   6.602   3.108  1.00 20.00     0.026 C 
HETATM    7  C7  UNL     1     -34.048   6.357   5.169  1.00 20.00     0.184 C 
HETATM    8  C8  UNL     1     -31.874   7.050   2.222  1.00 20.00     0.070 C 
HETATM    9  N9  UNL     1     -34.899   4.133   5.332  1.00 20.00    -0.263 NA
HETATM   10  N10 UNL     1     -32.882   6.743   4.389  1.00 20.00    -0.279 NA
ENDROOT
TORSDOF 0
