REMARK  0 active torsions:
REMARK  status: ('A' for Active; 'I' for Inactive)
ROOT
HETATM    1  C1  UNL     1     -32.295   6.528   1.339  1.00 20.00    -0.025 C 
HETATM    2  C2  UNL     1     -31.920   7.543   2.133  1.00 20.00    -0.025 C 
HETATM    3  C3  UNL     1     -34.664   4.844   3.841  1.00 20.00    -0.024 C 
HETATM    4  C4  UNL     1     -34.722   5.317   5.089  1.00 20.00    -0.025 C 
HETATM    5  C5  UNL     1     -31.750   5.622   3.387  1.00 20.00     0.018 C 
HETATM    6  C6  UNL     1     -32.746   5.402   2.241  1.00 20.00     0.016 C 
HETATM    7  C7  UNL     1     -32.129   7.095   3.566  1.00 20.00     0.014 C 
HETATM    8  C8  UNL     1     -34.090   5.834   2.881  1.00 20.00     0.021 C 
HETATM    9  C9  UNL     1     -34.208   6.720   5.206  1.00 20.00     0.009 C 
HETATM   10  C10 UNL     1     -33.667   7.043   3.795  1.00 20.00     0.009 C 
HETATM   11  C11 UNL     1     -33.220   6.898   6.350  1.00 20.00     0.014 C 
ENDROOT
TORSDOF 0
