REMARK  0 active torsions:
REMARK  status: ('A' for Active; 'I' for Inactive)
ROOT
HETATM    1  C1  UNL     1     -34.980   4.900   4.152  1.00 20.00     0.008 C 
HETATM    2  C2  UNL     1     -34.660   5.169   2.877  1.00 20.00     0.028 C 
HETATM    3  C3  UNL     1     -33.165   6.207   5.117  1.00 20.00    -0.005 C 
HETATM    4  C4  UNL     1     -31.925   7.529   3.313  1.00 20.00     0.015 C 
HETATM    5  C5  UNL     1     -34.328   5.547   5.289  1.00 20.00    -0.065 C 
HETATM    6  C6  UNL     1     -32.482   7.868   2.142  1.00 20.00     0.028 C 
HETATM    7  C7  UNL     1     -33.582   6.161   2.710  1.00 20.00     0.046 C 
HETATM    8  C8  UNL     1     -32.505   6.241   3.779  1.00 20.00     0.085 C 
HETATM    9  C9  UNL     1     -35.005   5.424   6.619  1.00 20.00     0.048 C 
HETATM   10  C10 UNL     1     -32.142   9.052   1.311  1.00 20.00     0.070 C 
HETATM   11  N11 UNL     1     -33.495   7.026   1.747  1.00 20.00    -0.258 NA
ENDROOT
TORSDOF 0
