REMARK  1 active torsions:
REMARK  status: ('A' for Active; 'I' for Inactive)
REMARK    1  A    between atoms: C3_3  and  C7_7 
ROOT
HETATM    1  C1  UNL     1     -33.520   6.807   2.847  1.00 20.00     0.024 A 
HETATM    2  C2  UNL     1     -32.119   7.776   4.507  1.00 20.00     0.131 A 
HETATM    3  C3  UNL     1     -32.551   7.744   3.191  1.00 20.00     0.024 A 
HETATM    4  C4  UNL     1     -34.020   5.944   3.816  1.00 20.00    -0.021 A 
HETATM    5  C5  UNL     1     -33.522   6.057   5.104  1.00 20.00     0.131 A 
HETATM    6  C6  UNL     1     -35.058   4.942   3.441  1.00 20.00     0.051 C 
HETATM    7  N8  UNL     1     -32.582   6.954   5.476  1.00 20.00    -0.248 NA
HETATM    8 CL11 UNL     1     -34.060   5.046   6.387  1.00 20.00    -0.062 Cl
ENDROOT
BRANCH   3   9
HETATM    9  C7  UNL     1     -31.996   8.680   2.178  1.00 20.00     0.388 C 
HETATM   10  F9  UNL     1     -32.979   9.441   1.626  1.00 20.00    -0.209 F 
HETATM   11  F10 UNL     1     -31.418   8.000   1.151  1.00 20.00    -0.209 F 
ENDBRANCH   3   9
TORSDOF 1
