REMARK  0 active torsions:
REMARK  status: ('A' for Active; 'I' for Inactive)
ROOT
HETATM    1  C1  UNL     1     -34.621   4.555   6.596  1.00 20.00     0.002 C 
HETATM    2  C2  UNL     1     -34.221   5.826   6.436  1.00 20.00     0.028 C 
HETATM    3  C3  UNL     1     -34.883   3.671   5.473  1.00 20.00    -0.003 C 
HETATM    4  C4  UNL     1     -35.048   4.154   4.229  1.00 20.00    -0.012 C 
HETATM    5  C5  UNL     1     -34.274   6.134   2.806  1.00 20.00     0.027 C 
HETATM    6  C6  UNL     1     -33.335   6.997   3.213  1.00 20.00     0.100 C 
HETATM    7  C7  UNL     1     -34.095   6.258   5.030  1.00 20.00     0.047 C 
HETATM    8  C8  UNL     1     -35.014   5.628   3.994  1.00 20.00     0.085 C 
HETATM    9  N9  UNL     1     -33.219   7.101   4.576  1.00 20.00    -0.245 NA
HETATM   10 BR10 UNL     1     -32.197   7.951   2.118  1.00 20.00    -0.029 Br
ENDROOT
TORSDOF 0
