REMARK  1 active torsions:
REMARK  status: ('A' for Active; 'I' for Inactive)
REMARK    1  A    between atoms: C4_4  and  C11_11 
ROOT
HETATM    1  C1  UNL     1     -33.833   6.998   6.829  1.00 20.00     0.003 A 
HETATM    2  C2  UNL     1     -32.887   7.351   5.853  1.00 20.00     0.008 A 
HETATM    3  C3  UNL     1     -34.898   6.149   6.516  1.00 20.00     0.029 A 
HETATM    4  C4  UNL     1     -32.997   6.865   4.549  1.00 20.00    -0.045 A 
HETATM    5  C5  UNL     1     -34.051   6.019   4.258  1.00 20.00    -0.024 A 
HETATM    6  C6  UNL     1     -34.984   5.648   5.229  1.00 20.00     0.035 A 
HETATM    7  C7  UNL     1     -34.434   5.410   2.948  1.00 20.00     0.061 C 
HETATM    8  C10 UNL     1     -35.545   4.428   3.379  1.00 20.00     0.124 C 
HETATM    9  N12 UNL     1     -35.991   4.840   4.705  1.00 20.00    -0.389 N 
HETATM   10  H25 UNL     1     -36.579   4.267   5.293  1.00 20.00     0.159 HD
ENDROOT
BRANCH   4  11
HETATM   11  C11 UNL     1     -32.007   7.262   3.511  1.00 20.00     0.019 A 
HETATM   12  C8  UNL     1     -31.776   8.727   3.238  1.00 20.00     0.010 A 
HETATM   13  C9  UNL     1     -32.497   7.888   2.229  1.00 20.00     0.010 A 
ENDBRANCH   4  11
TORSDOF 1
