REMARK  0 active torsions:
REMARK  status: ('A' for Active; 'I' for Inactive)
ROOT
HETATM    1  C1  UNL     1     -33.576   4.621   3.115  1.00 20.00     0.108 C 
HETATM    2  C2  UNL     1     -32.533   5.627   3.636  1.00 20.00     0.241 C 
HETATM    3  C3  UNL     1     -33.677   6.306   4.428  1.00 20.00     0.321 C 
HETATM    4  C4  UNL     1     -34.434   4.935   4.373  1.00 20.00     0.249 C 
HETATM    5  O5  UNL     1     -31.989   6.436   2.631  1.00 20.00    -0.229 OA
HETATM    6  F6  UNL     1     -34.328   7.323   3.813  1.00 20.00    -0.198 F 
HETATM    7  F7  UNL     1     -33.349   6.751   5.662  1.00 20.00    -0.198 F 
HETATM    8  F8  UNL     1     -35.762   5.053   4.121  1.00 20.00    -0.219 F 
HETATM    9 CL9  UNL     1     -34.204   3.846   5.775  1.00 20.00    -0.076 Cl
ENDROOT
TORSDOF 0
