REMARK  0 active torsions:
REMARK  status: ('A' for Active; 'I' for Inactive)
ROOT
HETATM    1  C1  UNL     1     -33.958   5.536   2.443  1.00 20.00    -0.026 C 
HETATM    2  C2  UNL     1     -35.037   5.162   3.143  1.00 20.00    -0.025 C 
HETATM    3  C3  UNL     1     -33.130   6.850   4.432  1.00 20.00     0.012 C 
HETATM    4  C4  UNL     1     -32.793   6.271   3.047  1.00 20.00     0.004 C 
HETATM    5  C5  UNL     1     -35.200   5.395   4.626  1.00 20.00     0.007 C 
HETATM    6  C6  UNL     1     -33.871   5.823   5.305  1.00 20.00    -0.011 C 
HETATM    7  C7  UNL     1     -32.310   7.386   2.118  1.00 20.00     0.014 C 
HETATM    8  C8  UNL     1     -35.778   4.136   5.281  1.00 20.00     0.014 C 
HETATM    9  C9  UNL     1     -34.103   6.402   6.703  1.00 20.00     0.010 C 
ENDROOT
TORSDOF 0
