REMARK  0 active torsions:
REMARK  status: ('A' for Active; 'I' for Inactive)
ROOT
HETATM    1  C1  UNL     1     -35.081   3.788   4.946  1.00 20.00    -0.025 C 
HETATM    2  C2  UNL     1     -33.867   3.611   5.501  1.00 20.00    -0.025 C 
HETATM    3  C3  UNL     1     -34.437   6.786   3.037  1.00 20.00    -0.024 C 
HETATM    4  C4  UNL     1     -33.180   7.285   2.991  1.00 20.00    -0.025 C 
HETATM    5  C5  UNL     1     -34.751   5.416   6.536  1.00 20.00     0.018 C 
HETATM    6  C6  UNL     1     -35.487   5.226   5.171  1.00 20.00     0.016 C 
HETATM    7  C7  UNL     1     -33.383   4.976   5.989  1.00 20.00     0.014 C 
HETATM    8  C8  UNL     1     -34.655   6.271   4.410  1.00 20.00     0.021 C 
HETATM    9  C9  UNL     1     -32.364   6.939   4.247  1.00 20.00     0.009 C 
HETATM   10  C10 UNL     1     -33.214   5.756   4.670  1.00 20.00     0.009 C 
HETATM   11  C11 UNL     1     -32.236   8.069   5.254  1.00 20.00     0.014 C 
ENDROOT
TORSDOF 0
