REMARK  0 active torsions:
REMARK  status: ('A' for Active; 'I' for Inactive)
ROOT
HETATM    1  C1  UNL     1     -34.871   5.529   6.294  1.00 20.00     0.002 C 
HETATM    2  C2  UNL     1     -33.871   6.415   6.167  1.00 20.00     0.030 C 
HETATM    3  C3  UNL     1     -35.465   4.848   5.154  1.00 20.00    -0.001 C 
HETATM    4  C4  UNL     1     -34.854   4.832   3.957  1.00 20.00     0.006 C 
HETATM    5  C5  UNL     1     -33.413   6.614   4.784  1.00 20.00     0.066 C 
HETATM    6  C6  UNL     1     -32.921   7.382   2.906  1.00 20.00     0.219 C 
HETATM    7  C7  UNL     1     -33.521   5.482   3.794  1.00 20.00     0.186 C 
HETATM    8  N8  UNL     1     -32.950   7.686   4.244  1.00 20.00    -0.221 NA
HETATM    9  N9  UNL     1     -33.307   6.199   2.525  1.00 20.00    -0.245 NA
HETATM   10 CL10 UNL     1     -32.458   8.573   1.789  1.00 20.00    -0.041 Cl
ENDROOT
TORSDOF 0
