REMARK  1 active torsions:
REMARK  status: ('A' for Active; 'I' for Inactive)
REMARK    1  A    between atoms: C4_4  and  C8_8 
ROOT
HETATM    1  C1  UNL     1     -34.935   4.784   3.804  1.00 20.00     0.079 A 
HETATM    2  C2  UNL     1     -33.197   6.443   4.541  1.00 20.00     0.088 A 
HETATM    3  C3  UNL     1     -34.758   5.284   2.580  1.00 20.00     0.146 A 
HETATM    4  C4  UNL     1     -33.107   6.861   3.266  1.00 20.00     0.064 A 
HETATM    5  C5  UNL     1     -34.134   5.356   4.902  1.00 20.00     0.176 A 
HETATM    6  O10 UNL     1     -34.238   4.952   6.054  1.00 20.00    -0.288 OA
HETATM    7  O11 UNL     1     -33.886   6.294   2.257  1.00 20.00    -0.326 OA
ENDROOT
BRANCH   4   8
HETATM    8  C8  UNL     1     -32.188   7.945   2.850  1.00 20.00     0.006 A 
HETATM    9  C6  UNL     1     -32.820   9.164   2.222  1.00 20.00     0.017 A 
HETATM   10  C7  UNL     1     -32.063   8.194   1.367  1.00 20.00     0.017 A 
HETATM   11  C9  UNL     1     -30.973   8.134   3.709  1.00 20.00     0.022 C 
ENDBRANCH   4   8
TORSDOF 1
