REMARK  0 active torsions:
REMARK  status: ('A' for Active; 'I' for Inactive)
ROOT
HETATM    1  C1  UNL     1     -35.220   4.791   5.938  1.00 20.00     0.002 C 
HETATM    2  C2  UNL     1     -35.361   4.797   4.603  1.00 20.00     0.028 C 
HETATM    3  C3  UNL     1     -34.122   5.463   6.612  1.00 20.00    -0.003 C 
HETATM    4  C4  UNL     1     -33.375   6.383   5.977  1.00 20.00    -0.012 C 
HETATM    5  C5  UNL     1     -32.578   6.926   3.607  1.00 20.00     0.007 C 
HETATM    6  C6  UNL     1     -32.774   6.104   2.571  1.00 20.00     0.114 C 
HETATM    7  C7  UNL     1     -34.327   5.562   3.879  1.00 20.00     0.045 C 
HETATM    8  C8  UNL     1     -33.700   6.765   4.572  1.00 20.00     0.084 C 
HETATM    9  N9  UNL     1     -33.851   5.268   2.708  1.00 20.00    -0.265 NA
ENDROOT
TORSDOF 0
