REMARK  1 active torsions:
REMARK  status: ('A' for Active; 'I' for Inactive)
REMARK    1  A    between atoms: C3_3  and  C6_6 
ROOT
HETATM    1  C1  UNL     1     -34.404   4.877   6.742  1.00 20.00    -0.025 C 
HETATM    2  C2  UNL     1     -35.488   4.427   6.093  1.00 20.00    -0.026 C 
HETATM    3  C4  UNL     1     -33.312   5.701   6.103  1.00 20.00     0.015 C 
HETATM    4  C5  UNL     1     -35.769   4.710   4.637  1.00 20.00     0.008 C 
HETATM    5  C6  UNL     1     -33.488   5.780   4.567  1.00 20.00     0.066 C 
HETATM    6  C7  UNL     1     -34.957   5.924   4.101  1.00 20.00     0.000 C 
HETATM    7  C9  UNL     1     -33.192   7.049   6.823  1.00 20.00     0.015 C 
HETATM    8  C10 UNL     1     -37.274   4.839   4.387  1.00 20.00     0.014 C 
HETATM    9  C11 UNL     1     -35.589   7.276   4.463  1.00 20.00     0.011 C 
ENDROOT
BRANCH   5  10
HETATM   10  C3  UNL     1     -32.575   6.781   3.916  1.00 20.00     0.128 C 
HETATM   11  C8  UNL     1     -32.582   6.825   2.412  1.00 20.00     0.091 C 
HETATM   12  O12 UNL     1     -31.860   7.530   4.580  1.00 20.00    -0.298 OA
ENDBRANCH   5  10
TORSDOF 1
