REMARK  0 active torsions:
REMARK  status: ('A' for Active; 'I' for Inactive)
ROOT
HETATM    1  C1  UNL     1     -32.820   7.223   3.507  1.00 20.00     0.104 C 
HETATM    2  C2  UNL     1     -35.055   4.537   4.781  1.00 20.00     0.107 A 
HETATM    3  C3  UNL     1     -33.308   6.393   5.755  1.00 20.00     0.145 A 
HETATM    4  C4  UNL     1     -33.508   6.335   4.385  1.00 20.00     0.100 A 
HETATM    5  C5  UNL     1     -34.400   5.387   3.897  1.00 20.00     0.142 A 
HETATM    6  C6  UNL     1     -34.785   4.675   6.133  1.00 20.00     0.212 A 
HETATM    7  N7  UNL     1     -32.260   7.946   2.792  1.00 20.00    -0.191 NA
HETATM    8  N8  UNL     1     -33.926   5.584   6.645  1.00 20.00    -0.231 NA
HETATM    9  F9  UNL     1     -34.636   5.280   2.582  1.00 20.00    -0.204 F 
HETATM   10  F10 UNL     1     -35.411   3.861   6.998  1.00 20.00    -0.184 F 
ENDROOT
TORSDOF 0
