REMARK  2 active torsions:
REMARK  status: ('A' for Active; 'I' for Inactive)
REMARK    1  A    between atoms: C5_5  and  C6_6 
REMARK    2  A    between atoms: C7_7  and  O8_8 
ROOT
HETATM    1  C3  UNL     1     -33.817   6.710   5.709  1.00 20.00     0.010 C 
HETATM    2  C4  UNL     1     -35.079   5.925   6.112  1.00 20.00     0.032 C 
HETATM    3  C6  UNL     1     -33.463   5.537   4.759  1.00 20.00     0.018 C 
HETATM    4  C7  UNL     1     -34.985   5.200   4.750  1.00 20.00     0.122 C 
ENDROOT
BRANCH   3   5
HETATM    5  C5  UNL     1     -32.768   5.831   3.449  1.00 20.00    -0.008 A 
HETATM    6  C1  UNL     1     -32.985   7.098   2.670  1.00 20.00     0.005 A 
HETATM    7  C2  UNL     1     -31.655   6.832   3.317  1.00 20.00     0.005 A 
ENDBRANCH   3   5
BRANCH   4   8
HETATM    8  O8  UNL     1     -35.330   3.803   4.738  1.00 20.00    -0.395 OA
HETATM    9  H20 UNL     1     -36.248   3.756   5.038  1.00 20.00     0.210 HD
ENDBRANCH   4   8
TORSDOF 2
