REMARK  0 active torsions:
REMARK  status: ('A' for Active; 'I' for Inactive)
ROOT
HETATM    1  C1  UNL     1     -31.635   7.856   1.889  1.00 20.00     0.003 A 
HETATM    2  C2  UNL     1     -32.499   6.986   1.346  1.00 20.00     0.034 A 
HETATM    3  C3  UNL     1     -31.774   7.954   3.323  1.00 20.00     0.018 A 
HETATM    4  C4  UNL     1     -35.410   5.086   6.122  1.00 20.00     0.014 A 
HETATM    5  C5  UNL     1     -35.328   4.953   4.791  1.00 20.00     0.118 A 
HETATM    6  C6  UNL     1     -32.739   7.140   3.723  1.00 20.00     0.042 A 
HETATM    7  C7  UNL     1     -33.243   6.491   2.499  1.00 20.00     0.091 A 
HETATM    8  C8  UNL     1     -33.561   6.557   4.776  1.00 20.00     0.158 A 
HETATM    9  C9  UNL     1     -34.492   6.036   6.864  1.00 20.00     0.180 A 
HETATM   10  N10 UNL     1     -34.207   5.646   2.703  1.00 20.00    -0.166 NA
HETATM   11  N11 UNL     1     -33.513   6.797   6.037  1.00 20.00    -0.267 NA
HETATM   12  N12 UNL     1     -34.407   5.681   4.092  1.00 20.00    -0.226 N 
ENDROOT
TORSDOF 0
