REMARK  0 active torsions:
REMARK  status: ('A' for Active; 'I' for Inactive)
ROOT
HETATM    1  C1  UNL     1     -31.936   7.216   2.877  1.00 20.00     0.013 C 
HETATM    2  C2  UNL     1     -32.925   6.875   3.465  1.00 20.00    -0.103 C 
HETATM    3  C3  UNL     1     -35.197   4.554   6.112  1.00 20.00    -0.004 C 
HETATM    4  C4  UNL     1     -35.003   4.164   4.739  1.00 20.00     0.004 C 
HETATM    5  C5  UNL     1     -34.668   5.686   6.592  1.00 20.00    -0.025 C 
HETATM    6  C6  UNL     1     -34.521   5.014   3.811  1.00 20.00    -0.063 C 
HETATM    7  C7  UNL     1     -33.864   6.606   5.720  1.00 20.00     0.054 C 
HETATM    8  C8  UNL     1     -34.145   6.453   4.190  1.00 20.00     0.045 C 
HETATM    9  C9  UNL     1     -34.396   4.573   2.375  1.00 20.00     0.045 C 
HETATM   10  C10 UNL     1     -35.305   7.388   3.790  1.00 20.00     0.034 C 
ENDROOT
TORSDOF 0
