REMARK  1 active torsions:
REMARK  status: ('A' for Active; 'I' for Inactive)
REMARK    1  A    between atoms: C1_1  and  C6_6 
ROOT
HETATM    1  C1  UNL     1     -32.926   7.182   3.065  1.00 20.00    -0.029 A 
HETATM    2  C2  UNL     1     -32.701   5.902   3.410  1.00 20.00     0.168 A 
HETATM    3  C3  UNL     1     -34.331   7.195   3.610  1.00 20.00     0.124 A 
HETATM    4  C7  UNL     1     -34.092   5.716   4.005  1.00 20.00     0.300 A 
HETATM    5  F8  UNL     1     -31.649   5.083   3.278  1.00 20.00    -0.204 F 
HETATM    6  F9  UNL     1     -34.922   4.830   3.404  1.00 20.00    -0.198 F 
HETATM    7  F10 UNL     1     -34.181   5.466   5.334  1.00 20.00    -0.198 F 
ENDROOT
BRANCH   1   8
HETATM    8  C6  UNL     1     -32.037   8.222   2.372  1.00 20.00     0.018 A 
HETATM    9  C4  UNL     1     -31.872   8.329   0.855  1.00 20.00     0.010 A 
HETATM   10  C5  UNL     1     -32.574   9.426   1.597  1.00 20.00     0.010 A 
ENDBRANCH   1   8
TORSDOF 1
