REMARK  2 active torsions:
REMARK  status: ('A' for Active; 'I' for Inactive)
REMARK    1  A    between atoms: C8_8  and  C10_10 
REMARK    2  A    between atoms: C10_10  and  C11_11 
ROOT
HETATM    1  C1  UNL     1     -33.581   3.247   6.355  1.00 20.00     0.012 C 
HETATM    2  C2  UNL     1     -34.151   4.262   6.061  1.00 20.00    -0.113 C 
HETATM    3  C3  UNL     1     -33.904   6.714   5.780  1.00 20.00     0.017 C 
HETATM    4  C4  UNL     1     -35.491   5.398   4.311  1.00 20.00     0.017 C 
HETATM    5  C5  UNL     1     -32.884   6.752   4.640  1.00 20.00     0.006 C 
HETATM    6  C6  UNL     1     -34.467   5.439   3.174  1.00 20.00     0.006 C 
HETATM    7  C7  UNL     1     -34.850   5.510   5.700  1.00 20.00     0.064 C 
HETATM    8  C8  UNL     1     -33.563   6.674   3.268  1.00 20.00    -0.014 C 
ENDROOT
BRANCH   8   9
HETATM    9  C10 UNL     1     -32.521   6.665   2.150  1.00 20.00     0.004 C 
BRANCH   9  10
HETATM   10  C11 UNL     1     -31.693   7.945   2.158  1.00 20.00    -0.004 C 
HETATM   11  C9  UNL     1     -32.568   9.168   1.934  1.00 20.00     0.005 C 
ENDBRANCH   9  10
ENDBRANCH   8   9
TORSDOF 2
