REMARK  0 active torsions:
REMARK  status: ('A' for Active; 'I' for Inactive)
ROOT
HETATM    1  C1  UNL     1     -34.928   3.745   4.963  1.00 20.00     0.001 C 
HETATM    2  C2  UNL     1     -31.899   6.244   3.158  1.00 20.00     0.001 C 
HETATM    3  C3  UNL     1     -35.264   4.616   3.746  1.00 20.00     0.005 C 
HETATM    4  C4  UNL     1     -32.852   5.074   2.969  1.00 20.00     0.005 C 
HETATM    5  C5  UNL     1     -34.314   4.475   6.155  1.00 20.00     0.005 C 
HETATM    6  C6  UNL     1     -32.431   6.910   4.418  1.00 20.00     0.005 C 
HETATM    7  C7  UNL     1     -34.238   6.979   6.894  1.00 20.00     0.010 A 
HETATM    8  C8  UNL     1     -34.231   5.659   3.306  1.00 20.00    -0.010 C 
HETATM    9  C9  UNL     1     -35.000   5.772   6.422  1.00 20.00    -0.010 A 
HETATM   10  C10 UNL     1     -33.954   6.862   4.247  1.00 20.00    -0.006 C 
HETATM   11  C11 UNL     1     -34.797   6.945   5.490  1.00 20.00    -0.006 A 
ENDROOT
TORSDOF 0
