REMARK  1 active torsions:
REMARK  status: ('A' for Active; 'I' for Inactive)
REMARK    1  A    between atoms: C4_4  and  C7_7 
ROOT
HETATM    1  C1  UNL     1     -32.577   9.153   0.909  1.00 20.00     0.014 C 
HETATM    2  C2  UNL     1     -32.404   8.388   1.817  1.00 20.00    -0.091 C 
HETATM    3  C3  UNL     1     -32.238   5.992   2.610  1.00 20.00     0.046 A 
HETATM    4  C4  UNL     1     -33.372   6.632   3.362  1.00 20.00     0.024 A 
HETATM    5  C5  UNL     1     -32.199   7.474   2.903  1.00 20.00     0.103 A 
HETATM    6 CL8  UNL     1     -31.007   8.036   4.079  1.00 20.00    -0.105 Cl
ENDROOT
BRANCH   4   7
HETATM    7  C7  UNL     1     -33.608   6.282   4.792  1.00 20.00     0.003 C 
HETATM    8  C6  UNL     1     -34.373   4.995   4.964  1.00 20.00     0.005 C 
ENDBRANCH   4   7
TORSDOF 1
