REMARK  1 active torsions:
REMARK  status: ('A' for Active; 'I' for Inactive)
REMARK    1  A    between atoms: C2_2  and  C6_6 
ROOT
HETATM    1  C3  UNL     1     -33.142   5.254   2.456  1.00 20.00     0.006 C 
HETATM    2  C4  UNL     1     -34.134   6.417   2.287  1.00 20.00     0.006 C 
HETATM    3  C5  UNL     1     -31.511   6.780   3.527  1.00 20.00     0.014 C 
HETATM    4  C6  UNL     1     -32.488   7.975   3.405  1.00 20.00     0.012 C 
HETATM    5  C7  UNL     1     -32.457   5.582   3.802  1.00 20.00    -0.006 C 
HETATM    6  C8  UNL     1     -33.872   7.276   3.550  1.00 20.00     0.001 C 
HETATM    7  C9  UNL     1     -33.600   6.203   4.642  1.00 20.00    -0.040 C 
HETATM    8  C10 UNL     1     -33.160   6.756   6.011  1.00 20.00     0.015 C 
HETATM    9  C11 UNL     1     -34.783   5.256   4.923  1.00 20.00     0.015 C 
ENDROOT
BRANCH   4  10
HETATM   10  C2  UNL     1     -32.298   8.793   2.170  1.00 20.00    -0.032 C 
HETATM   11  C1  UNL     1     -31.839   8.306   1.013  1.00 20.00     0.007 C 
ENDBRANCH   4  10
TORSDOF 1
