REMARK  1 active torsions:
REMARK  status: ('A' for Active; 'I' for Inactive)
REMARK    1  A    between atoms: C3_3  and  C8_8 
ROOT
HETATM    1  C1  UNL     1     -34.960   6.014   6.280  1.00 20.00    -0.025 C 
HETATM    2  C2  UNL     1     -33.720   5.519   6.404  1.00 20.00    -0.024 C 
HETATM    3  C4  UNL     1     -34.864   4.105   4.998  1.00 20.00     0.018 C 
HETATM    4  C5  UNL     1     -35.523   5.487   4.981  1.00 20.00     0.013 C 
HETATM    5  C6  UNL     1     -33.449   4.670   5.179  1.00 20.00     0.024 C 
HETATM    6  C7  UNL     1     -34.774   6.200   3.814  1.00 20.00     0.004 C 
HETATM    7  C8  UNL     1     -33.319   5.589   3.922  1.00 20.00     0.020 C 
HETATM    8  C9  UNL     1     -35.488   5.993   2.481  1.00 20.00     0.012 C 
HETATM    9  C10 UNL     1     -32.835   4.798   2.701  1.00 20.00     0.024 C 
ENDROOT
BRANCH   7  10
HETATM   10  C3  UNL     1     -32.300   6.679   4.142  1.00 20.00     0.241 C 
HETATM   11  O11 UNL     1     -32.568   7.875   4.091  1.00 20.00    -0.306 OA
ENDBRANCH   7  10
TORSDOF 1
