REMARK  0 active torsions:
REMARK  status: ('A' for Active; 'I' for Inactive)
ROOT
HETATM    1  C1  UNL     1     -31.262   7.378   3.885  1.00 20.00     0.017 A 
HETATM    2  C2  UNL     1     -31.160   8.346   2.965  1.00 20.00     0.054 A 
HETATM    3  C3  UNL     1     -33.088   7.343   1.701  1.00 20.00     0.060 A 
HETATM    4  C4  UNL     1     -33.202   6.366   2.618  1.00 20.00    -0.044 A 
HETATM    5  C5  UNL     1     -32.289   6.285   3.819  1.00 20.00     0.221 A 
HETATM    6  C6  UNL     1     -32.062   8.436   1.771  1.00 20.00     0.280 A 
HETATM    7  C7  UNL     1     -34.243   5.292   2.506  1.00 20.00     0.046 C 
HETATM    8  F8  UNL     1     -33.034   6.305   4.963  1.00 20.00    -0.240 F 
HETATM    9  F9  UNL     1     -32.691   9.646   1.772  1.00 20.00    -0.197 F 
HETATM   10  F10 UNL     1     -31.309   8.422   0.634  1.00 20.00    -0.197 F 
ENDROOT
TORSDOF 0
