REMARK  0 active torsions:
REMARK  status: ('A' for Active; 'I' for Inactive)
ROOT
HETATM    1  C1  UNL     1     -33.846   6.281   5.852  1.00 20.00    -0.064 A 
HETATM    2  C2  UNL     1     -33.527   6.984   6.922  1.00 20.00     0.016 C 
HETATM    3  C3  UNL     1     -34.918   4.226   6.372  1.00 20.00     0.017 A 
HETATM    4  C4  UNL     1     -35.254   4.115   4.949  1.00 20.00     0.017 A 
HETATM    5  C5  UNL     1     -34.160   6.375   4.509  1.00 20.00     0.099 A 
HETATM    6  C6  UNL     1     -34.050   4.965   5.348  1.00 20.00     0.000 A 
HETATM    7 BR7  UNL     1     -32.746   6.689   3.274  1.00 20.00    -0.085 Br
ENDROOT
TORSDOF 0
