REMARK  2 active torsions:
REMARK  status: ('A' for Active; 'I' for Inactive)
REMARK    1  A    between atoms: C7_7  and  C9_9 
REMARK    2  A    between atoms: C8_8  and  C10_10 
ROOT
HETATM    1  C1  UNL     1     -31.666   7.631   1.803  1.00 20.00     0.012 C 
HETATM    2  C2  UNL     1     -32.576   7.066   2.346  1.00 20.00    -0.112 C 
HETATM    3  C6  UNL     1     -33.663   6.391   2.995  1.00 20.00     0.074 A 
HETATM    4  C9  UNL     1     -33.337   5.444   4.129  1.00 20.00     0.011 A 
HETATM    5  C10 UNL     1     -33.981   6.764   4.426  1.00 20.00     0.011 A 
ENDROOT
BRANCH   4   6
HETATM    6  C7  UNL     1     -34.312   4.422   4.712  1.00 20.00    -0.008 C 
HETATM    7  C3  UNL     1     -34.201   4.516   6.253  1.00 20.00     0.005 C 
HETATM    8  C4  UNL     1     -34.867   5.881   6.560  1.00 20.00     0.005 C 
HETATM    9  C8  UNL     1     -35.269   6.387   5.154  1.00 20.00    -0.008 C 
HETATM   10  C5  UNL     1     -35.692   5.063   4.500  1.00 20.00     0.010 C 
ENDBRANCH   4   6
TORSDOF 2
