REMARK  2 active torsions:
REMARK  status: ('A' for Active; 'I' for Inactive)
REMARK    1  A    between atoms: C1_1  and  C6_6 
REMARK    2  A    between atoms: C2_2  and  C8_8 
ROOT
HETATM    1  C1  UNL     1     -33.603   6.121   3.373  1.00 20.00    -0.100 C 
HETATM    2  C2  UNL     1     -32.897   7.042   3.066  1.00 20.00    -0.088 C 
ENDROOT
BRANCH   1   3
HETATM    3  C6  UNL     1     -34.446   5.021   3.739  1.00 20.00     0.069 A 
HETATM    4  C5  UNL     1     -35.666   5.293   4.582  1.00 20.00     0.023 A 
HETATM    5  C7  UNL     1     -34.508   4.536   5.169  1.00 20.00    -0.002 A 
HETATM    6  C9  UNL     1     -33.696   5.145   6.262  1.00 20.00     0.011 C 
ENDBRANCH   1   3
BRANCH   2   7
HETATM    7  C8  UNL     1     -32.036   8.163   2.693  1.00 20.00     0.055 A 
HETATM    8  C3  UNL     1     -32.582   9.423   2.216  1.00 20.00    -0.003 A 
HETATM    9  C4  UNL     1     -31.964   8.652   1.324  1.00 20.00    -0.003 A 
HETATM   10  C10 UNL     1     -30.775   8.224   3.514  1.00 20.00     0.038 C 
ENDBRANCH   2   7
TORSDOF 2
