REMARK  2 active torsions:
REMARK  status: ('A' for Active; 'I' for Inactive)
REMARK    1  A    between atoms: C4_4  and  C10_10 
REMARK    2  A    between atoms: C5_5  and  C11_11 
ROOT
HETATM    1  C1  UNL     1     -32.422   7.079   4.572  1.00 20.00     0.004 A 
HETATM    2  C2  UNL     1     -31.535   7.486   3.653  1.00 20.00    -0.017 A 
HETATM    3  C3  UNL     1     -33.231   6.258   2.611  1.00 20.00    -0.011 A 
HETATM    4  C4  UNL     1     -33.470   6.320   3.930  1.00 20.00    -0.058 A 
HETATM    5  C5  UNL     1     -31.958   7.001   2.290  1.00 20.00     0.034 A 
ENDROOT
BRANCH   4   6
HETATM    6  C10 UNL     1     -34.602   5.731   4.686  1.00 20.00     0.010 C 
HETATM    7  C6  UNL     1     -35.573   5.017   3.742  1.00 20.00     0.015 C 
HETATM    8  C7  UNL     1     -34.107   4.766   5.768  1.00 20.00     0.015 C 
ENDBRANCH   4   6
BRANCH   5   9
HETATM    9  C11 UNL     1     -32.191   8.148   1.316  1.00 20.00    -0.012 C 
HETATM   10  C8  UNL     1     -33.311   9.061   1.813  1.00 20.00     0.010 C 
HETATM   11  C9  UNL     1     -30.905   8.948   1.105  1.00 20.00     0.010 C 
ENDBRANCH   5   9
TORSDOF 2
