REMARK  0 active torsions:
REMARK  status: ('A' for Active; 'I' for Inactive)
ROOT
HETATM    1  C1  UNL     1     -32.537   7.006   3.064  1.00 20.00     0.014 C 
HETATM    2  C2  UNL     1     -33.343   6.292   3.595  1.00 20.00    -0.091 C 
HETATM    3  C3  UNL     1     -34.699   3.389   5.508  1.00 20.00     0.003 C 
HETATM    4  C4  UNL     1     -35.205   4.573   6.334  1.00 20.00     0.003 C 
HETATM    5  C5  UNL     1     -33.828   3.985   4.402  1.00 20.00     0.039 C 
HETATM    6  C6  UNL     1     -34.611   5.824   5.688  1.00 20.00     0.039 C 
HETATM    7  C7  UNL     1     -34.324   5.421   4.243  1.00 20.00     0.099 C 
HETATM    8 CL8  UNL     1     -35.823   5.465   3.266  1.00 20.00    -0.105 Cl
ENDROOT
TORSDOF 0
