REMARK  0 active torsions:
REMARK  status: ('A' for Active; 'I' for Inactive)
ROOT
HETATM    1  C1  UNL     1     -34.489   6.249   7.115  1.00 20.00     0.021 A 
HETATM    2  C2  UNL     1     -33.551   6.730   6.096  1.00 20.00     0.029 A 
HETATM    3  C3  UNL     1     -32.291   5.786   2.897  1.00 20.00     0.025 A 
HETATM    4  C4  UNL     1     -35.500   5.432   6.747  1.00 20.00     0.107 A 
HETATM    5  C5  UNL     1     -34.744   5.244   3.115  1.00 20.00     0.101 C 
HETATM    6  C6  UNL     1     -33.064   6.596   3.593  1.00 20.00     0.038 A 
HETATM    7  C7  UNL     1     -33.666   5.777   2.486  1.00 20.00     0.028 A 
HETATM    8  C8  UNL     1     -33.733   6.292   4.839  1.00 20.00     0.044 A 
HETATM    9  N9  UNL     1     -35.663   5.029   5.435  1.00 20.00    -0.306 N 
HETATM   10  N10 UNL     1     -34.770   5.423   4.490  1.00 20.00    -0.274 N 
HETATM   11  H16 UNL     1     -36.396   4.369   5.205  1.00 20.00     0.186 HD
ENDROOT
TORSDOF 0
