REMARK  4 active torsions:
REMARK  status: ('A' for Active; 'I' for Inactive)
REMARK    1  A    between atoms: C1_1  and  C7_7 
REMARK    2  A    between atoms: C2_2  and  C9_9 
REMARK    3  A    between atoms: C9_9  and  C11_11 
REMARK    4  A    between atoms: C10_10  and  C11_11 
ROOT
HETATM    1  C1  UNL     1     -33.969   6.444   3.597  1.00 20.00    -0.098 C 
HETATM    2  C2  UNL     1     -33.057   6.898   2.961  1.00 20.00    -0.106 C 
ENDROOT
BRANCH   1   3
HETATM    3  C7  UNL     1     -35.083   5.889   4.373  1.00 20.00     0.087 C 
HETATM    4  C4  UNL     1     -35.270   4.442   4.044  1.00 20.00    -0.014 C 
HETATM    5  C3  UNL     1     -34.859   3.643   5.034  1.00 20.00    -0.029 C 
HETATM    6  C5  UNL     1     -34.318   4.422   6.186  1.00 20.00     0.028 C 
HETATM    7  C6  UNL     1     -34.781   5.849   5.877  1.00 20.00     0.025 C 
ENDBRANCH   1   3
BRANCH   2   8
HETATM    8  C9  UNL     1     -31.939   7.452   2.185  1.00 20.00     0.094 C 
BRANCH   8   9
HETATM    9  C11 UNL     1     -32.338   7.673   0.725  1.00 20.00     0.012 C 
BRANCH   9  10
HETATM   10  C10 UNL     1     -33.486   8.675   0.607  1.00 20.00    -0.004 C 
HETATM   11  C8  UNL     1     -33.119  10.017   1.221  1.00 20.00     0.005 C 
ENDBRANCH   9  10
ENDBRANCH   8   9
ENDBRANCH   2   8
TORSDOF 4
