REMARK  0 active torsions:
REMARK  status: ('A' for Active; 'I' for Inactive)
ROOT
HETATM    1  C1  UNL     1     -34.280   5.530   3.300  1.00 20.00    -0.011 A 
HETATM    2  C2  UNL     1     -33.541   6.177   4.214  1.00 20.00    -0.011 A 
HETATM    3  C3  UNL     1     -35.438   4.850   3.989  1.00 20.00     0.033 A 
HETATM    4  C4  UNL     1     -34.112   4.728   6.273  1.00 20.00     0.016 A 
HETATM    5  C5  UNL     1     -34.047   6.065   5.590  1.00 20.00     0.030 A 
HETATM    6  C6  UNL     1     -35.287   5.199   5.458  1.00 20.00    -0.002 A 
HETATM    7 BR7  UNL     1     -32.004   7.142   3.906  1.00 20.00    -0.056 Br
ENDROOT
TORSDOF 0
