REMARK  0 active torsions:
REMARK  status: ('A' for Active; 'I' for Inactive)
ROOT
HETATM    1  C1  UNL     1     -32.016   7.779   1.686  1.00 20.00     0.012 C 
HETATM    2  C2  UNL     1     -32.389   7.004   2.524  1.00 20.00    -0.112 C 
HETATM    3  C3  UNL     1     -35.722   5.920   3.345  1.00 20.00    -0.026 C 
HETATM    4  C4  UNL     1     -35.134   7.006   3.871  1.00 20.00    -0.024 C 
HETATM    5  C5  UNL     1     -34.764   4.441   5.070  1.00 20.00     0.009 C 
HETATM    6  C6  UNL     1     -34.106   5.701   5.682  1.00 20.00     0.010 C 
HETATM    7  C7  UNL     1     -33.557   4.826   2.910  1.00 20.00     0.026 C 
HETATM    8  C8  UNL     1     -32.848   6.052   3.552  1.00 20.00     0.072 C 
HETATM    9  C9  UNL     1     -34.953   4.632   3.548  1.00 20.00     0.009 C 
HETATM   10  C10 UNL     1     -33.812   6.732   4.566  1.00 20.00     0.023 C 
ENDROOT
TORSDOF 0
