REMARK  1 active torsions:
REMARK  status: ('A' for Active; 'I' for Inactive)
REMARK    1  A    between atoms: C1_1  and  C5_5 
ROOT
HETATM    1  C1  UNL     1     -32.287   8.012   1.922  1.00 20.00    -0.097 C 
HETATM    2  C2  UNL     1     -32.315   8.826   1.041  1.00 20.00    -0.110 C 
HETATM    3  C7  UNL     1     -32.348   9.818  -0.033  1.00 20.00     0.112 C 
ENDROOT
BRANCH   1   4
HETATM    4  C5  UNL     1     -32.254   7.020   2.995  1.00 20.00     0.027 C 
HETATM    5  C3  UNL     1     -31.980   5.574   2.474  1.00 20.00     0.024 C 
HETATM    6  C4  UNL     1     -33.501   5.329   2.435  1.00 20.00     0.012 C 
HETATM    7  C6  UNL     1     -33.680   6.481   3.470  1.00 20.00    -0.029 C 
HETATM    8  C9  UNL     1     -33.761   5.952   4.909  1.00 20.00     0.016 C 
HETATM    9  C10 UNL     1     -34.893   7.371   3.181  1.00 20.00     0.016 C 
HETATM   10  C8  UNL     1     -31.279   7.479   4.077  1.00 20.00     0.030 C 
ENDBRANCH   1   4
TORSDOF 1
