REMARK  1 active torsions:
REMARK  status: ('A' for Active; 'I' for Inactive)
REMARK    1  A    between atoms: C4_4  and  C6_6 
ROOT
HETATM    1  C1  UNL     1     -32.671   5.345   3.559  1.00 20.00     0.062 C 
HETATM    2  C2  UNL     1     -34.424   6.546   3.686  1.00 20.00     0.062 C 
HETATM    3  C3  UNL     1     -32.717   7.025   4.864  1.00 20.00     0.062 C 
HETATM    4  C4  UNL     1     -33.616   5.724   4.773  1.00 20.00     0.067 C 
HETATM    5  C5  UNL     1     -32.945   6.854   3.341  1.00 20.00     0.106 C 
HETATM    6  F7  UNL     1     -32.488   7.624   2.367  1.00 20.00    -0.243 F 
ENDROOT
BRANCH   4   7
HETATM    7  C6  UNL     1     -34.127   4.864   5.861  1.00 20.00     0.395 C 
HETATM    8  F8  UNL     1     -33.121   4.320   6.595  1.00 20.00    -0.170 F 
HETATM    9  F9  UNL     1     -34.918   5.553   6.725  1.00 20.00    -0.170 F 
HETATM   10  F10 UNL     1     -34.870   3.830   5.386  1.00 20.00    -0.170 F 
ENDBRANCH   4   7
TORSDOF 1
