REMARK  0 active torsions:
REMARK  status: ('A' for Active; 'I' for Inactive)
ROOT
HETATM    1  C1  UNL     1     -33.666   6.667   5.561  1.00 20.00    -0.059 A 
HETATM    2  C2  UNL     1     -34.317   5.518   5.286  1.00 20.00    -0.055 A 
HETATM    3  C3  UNL     1     -33.779   7.191   4.140  1.00 20.00     0.138 A 
HETATM    4  C4  UNL     1     -34.427   5.813   3.783  1.00 20.00     0.077 A 
HETATM    5  C5  UNL     1     -33.083   7.269   6.855  1.00 20.00     0.045 C 
HETATM    6  C6  UNL     1     -34.737   4.309   6.148  1.00 20.00     0.046 C 
HETATM    7  C7  UNL     1     -33.595   4.855   2.924  1.00 20.00     0.039 C 
HETATM    8 CL8  UNL     1     -32.263   7.734   3.306  1.00 20.00    -0.118 Cl
HETATM    9 CL9  UNL     1     -36.118   5.913   3.134  1.00 20.00    -0.113 Cl
ENDROOT
TORSDOF 0
