REMARK  0 active torsions:
REMARK  status: ('A' for Active; 'I' for Inactive)
ROOT
HETATM    1  C1  UNL     1     -32.101   7.975   2.754  1.00 20.00     0.013 C 
HETATM    2  C2  UNL     1     -32.972   7.197   3.036  1.00 20.00    -0.104 C 
HETATM    3  C3  UNL     1     -35.308   6.842   3.911  1.00 20.00     0.069 A 
HETATM    4  C4  UNL     1     -34.018   6.262   3.374  1.00 20.00     0.057 A 
HETATM    5  C5  UNL     1     -34.394   6.090   4.843  1.00 20.00     0.133 A 
HETATM    6  C6  UNL     1     -34.122   5.098   2.420  1.00 20.00     0.032 C 
HETATM    7 CL7  UNL     1     -34.942   4.523   5.443  1.00 20.00    -0.100 Cl
HETATM    8 CL8  UNL     1     -33.565   7.028   6.092  1.00 20.00    -0.100 Cl
ENDROOT
TORSDOF 0
