REMARK  1 active torsions:
REMARK  status: ('A' for Active; 'I' for Inactive)
REMARK    1  A    between atoms: C5_5  and  C6_6 
ROOT
HETATM    1  C1  UNL     1     -35.657   5.290   3.575  1.00 20.00     0.024 A 
HETATM    2  C2  UNL     1     -34.692   3.380   5.089  1.00 20.00     0.275 C 
HETATM    3  C3  UNL     1     -35.263   5.428   6.155  1.00 20.00     0.285 C 
HETATM    4  C4  UNL     1     -34.500   4.473   4.090  1.00 20.00     0.030 A 
HETATM    5  C5  UNL     1     -34.830   5.758   4.754  1.00 20.00     0.051 A 
HETATM    6  N7  UNL     1     -35.503   3.969   6.174  1.00 20.00     0.084 N 
HETATM    7  H18 UNL     1     -36.487   3.811   5.949  1.00 20.00     0.315 HD
ENDROOT
BRANCH   5   8
HETATM    8  C6  UNL     1     -33.942   6.950   4.581  1.00 20.00     0.363 C 
HETATM    9  F8  UNL     1     -33.490   7.010   3.300  1.00 20.00    -0.214 F 
HETATM   10  F9  UNL     1     -32.843   6.828   5.371  1.00 20.00    -0.214 F 
ENDBRANCH   5   8
TORSDOF 1
