REMARK  0 active torsions:
REMARK  status: ('A' for Active; 'I' for Inactive)
ROOT
HETATM    1  C1  UNL     1     -33.609   6.472   5.482  1.00 20.00    -0.007 A 
HETATM    2  C2  UNL     1     -33.671   6.316   4.152  1.00 20.00    -0.014 A 
HETATM    3  C3  UNL     1     -34.619   5.199   3.799  1.00 20.00     0.051 A 
HETATM    4  C4  UNL     1     -34.236   4.055   6.151  1.00 20.00     0.014 A 
HETATM    5  C5  UNL     1     -34.476   5.537   6.218  1.00 20.00     0.014 A 
HETATM    6  C6  UNL     1     -35.140   4.702   5.136  1.00 20.00    -0.002 A 
HETATM    7 BR7  UNL     1     -32.778   7.243   2.847  1.00 20.00    -0.056 Br
ENDROOT
TORSDOF 0
