REMARK  1 active torsions:
REMARK  status: ('A' for Active; 'I' for Inactive)
REMARK    1  A    between atoms: C1_1  and  C5_5 
ROOT
HETATM    1  C1  UNL     1     -33.506   7.058   3.616  1.00 20.00    -0.097 C 
HETATM    2  C2  UNL     1     -32.919   7.681   2.773  1.00 20.00    -0.110 C 
HETATM    3  C7  UNL     1     -32.205   8.439   1.747  1.00 20.00     0.112 C 
ENDROOT
BRANCH   1   4
HETATM    4  C5  UNL     1     -34.219   6.301   4.641  1.00 20.00     0.027 C 
HETATM    5  C3  UNL     1     -35.771   6.422   4.512  1.00 20.00     0.024 C 
HETATM    6  C4  UNL     1     -35.777   5.117   3.691  1.00 20.00     0.012 C 
HETATM    7  C6  UNL     1     -34.406   4.745   4.333  1.00 20.00    -0.029 C 
HETATM    8  C9  UNL     1     -33.428   4.108   3.342  1.00 20.00     0.016 C 
HETATM    9  C10 UNL     1     -34.574   3.827   5.553  1.00 20.00     0.016 C 
HETATM   10  C8  UNL     1     -33.684   6.686   6.018  1.00 20.00     0.030 C 
ENDBRANCH   1   4
TORSDOF 1
