REMARK  0 active torsions:
REMARK  status: ('A' for Active; 'I' for Inactive)
ROOT
HETATM    1  C1  UNL     1     -34.442   5.069   4.541  1.00 20.00    -0.087 C 
HETATM    2  C2  UNL     1     -35.191   4.268   5.299  1.00 20.00     0.014 C 
HETATM    3  C3  UNL     1     -33.396   6.115   4.860  1.00 20.00     0.049 C 
HETATM    4  C4  UNL     1     -34.317   5.262   3.046  1.00 20.00     0.049 C 
HETATM    5  C5  UNL     1     -33.702   6.632   3.431  1.00 20.00     0.065 C 
HETATM    6 BR6  UNL     1     -32.157   7.173   2.392  1.00 20.00    -0.091 Br
ENDROOT
TORSDOF 0
