REMARK  0 active torsions:
REMARK  status: ('A' for Active; 'I' for Inactive)
ROOT
HETATM    1  C1  UNL     1     -34.141   6.890   6.551  1.00 20.00     0.013 C 
HETATM    2  C2  UNL     1     -34.450   6.053   5.748  1.00 20.00    -0.106 C 
HETATM    3  C3  UNL     1     -35.755   5.478   3.674  1.00 20.00     0.041 A 
HETATM    4  C4  UNL     1     -34.323   5.148   3.356  1.00 20.00     0.079 A 
HETATM    5  C5  UNL     1     -34.821   5.048   4.784  1.00 20.00     0.033 A 
HETATM    6  C6  UNL     1     -35.006   3.670   5.360  1.00 20.00     0.030 C 
HETATM    7 BR7  UNL     1     -33.180   6.575   2.796  1.00 20.00    -0.089 Br
ENDROOT
TORSDOF 0
