REMARK  1 active torsions:
REMARK  status: ('A' for Active; 'I' for Inactive)
REMARK    1  A    between atoms: C3_3  and  C6_6 
ROOT
HETATM    1  C1  UNL     1     -34.417   6.553   6.669  1.00 20.00     0.013 C 
HETATM    2  C2  UNL     1     -33.948   6.314   5.590  1.00 20.00    -0.107 C 
HETATM    3  C5  UNL     1     -34.351   5.773   3.159  1.00 20.00     0.033 A 
HETATM    4  C6  UNL     1     -33.601   7.077   3.214  1.00 20.00     0.030 A 
HETATM    5  C7  UNL     1     -33.384   6.026   4.294  1.00 20.00     0.027 A 
HETATM    6  C10 UNL     1     -32.118   5.210   4.330  1.00 20.00     0.030 C 
ENDROOT
BRANCH   4   7
HETATM    7  C3  UNL     1     -32.577   7.346   2.215  1.00 20.00    -0.018 C 
HETATM    8  C4  UNL     1     -32.299   8.519   1.615  1.00 20.00    -0.091 C 
HETATM    9  C8  UNL     1     -31.200   8.630   0.595  1.00 20.00     0.042 C 
HETATM   10  C9  UNL     1     -33.037   9.797   1.897  1.00 20.00     0.042 C 
ENDBRANCH   4   7
TORSDOF 1
