REMARK  0 active torsions:
REMARK  status: ('A' for Active; 'I' for Inactive)
ROOT
HETATM    1  C1  UNL     1     -32.679   7.419   2.475  1.00 20.00     0.013 C 
HETATM    2  C2  UNL     1     -33.388   6.911   3.300  1.00 20.00    -0.106 C 
HETATM    3  C3  UNL     1     -35.637   5.912   3.859  1.00 20.00     0.041 A 
HETATM    4  C4  UNL     1     -34.600   4.842   4.053  1.00 20.00     0.079 A 
HETATM    5  C5  UNL     1     -34.240   6.300   4.291  1.00 20.00     0.033 A 
HETATM    6  C6  UNL     1     -34.065   6.847   5.683  1.00 20.00     0.030 C 
HETATM    7 BR7  UNL     1     -34.818   3.622   5.506  1.00 20.00    -0.089 Br
ENDROOT
TORSDOF 0
