REMARK  1 active torsions:
REMARK  status: ('A' for Active; 'I' for Inactive)
REMARK    1  A    between atoms: C6_6  and  C10_10 
ROOT
HETATM    1  C1  UNL     1     -33.561   6.540   5.212  1.00 20.00     0.142 A 
HETATM    2  C2  UNL     1     -33.996   5.365   2.249  1.00 20.00     0.006 C 
HETATM    3  C3  UNL     1     -35.011   5.434   3.396  1.00 20.00     0.019 C 
HETATM    4  C4  UNL     1     -32.760   5.799   4.265  1.00 20.00     0.076 A 
HETATM    5  C5  UNL     1     -32.726   6.057   2.779  1.00 20.00    -0.006 C 
HETATM    6  C6  UNL     1     -34.159   5.343   4.644  1.00 20.00     0.034 A 
HETATM    7  C7  UNL     1     -32.691   7.545   2.449  1.00 20.00     0.011 C 
HETATM    8  O11 UNL     1     -33.361   6.907   6.352  1.00 20.00    -0.297 OA
ENDROOT
BRANCH   6   9
HETATM    9  C10 UNL     1     -34.317   4.090   5.455  1.00 20.00    -0.006 C 
HETATM   10  C8  UNL     1     -33.194   3.947   6.494  1.00 20.00     0.011 C 
HETATM   11  C9  UNL     1     -35.681   4.044   6.160  1.00 20.00     0.011 C 
ENDBRANCH   6   9
TORSDOF 1
