REMARK  0 active torsions:
REMARK  status: ('A' for Active; 'I' for Inactive)
ROOT
HETATM    1  C1  UNL     1     -34.388   5.006   3.360  1.00 20.00     0.019 A 
HETATM    2  C2  UNL     1     -33.384   5.612   2.711  1.00 20.00     0.054 A 
HETATM    3  C3  UNL     1     -32.912   7.012   4.745  1.00 20.00     0.096 A 
HETATM    4  C4  UNL     1     -33.916   6.406   5.393  1.00 20.00     0.133 A 
HETATM    5  C5  UNL     1     -34.767   5.337   4.775  1.00 20.00     0.254 A 
HETATM    6  C6  UNL     1     -32.534   6.683   3.330  1.00 20.00     0.282 A 
HETATM    7  F7  UNL     1     -34.175   6.776   6.667  1.00 20.00    -0.207 F 
HETATM    8  F8  UNL     1     -34.699   4.208   5.537  1.00 20.00    -0.238 F 
HETATM    9  F9  UNL     1     -31.225   6.300   3.290  1.00 20.00    -0.197 F 
HETATM   10  F10 UNL     1     -32.604   7.812   2.569  1.00 20.00    -0.197 F 
ENDROOT
TORSDOF 0
