REMARK  0 active torsions:
REMARK  status: ('A' for Active; 'I' for Inactive)
ROOT
HETATM    1  C1  UNL     1     -33.317   6.385   3.002  1.00 20.00     0.041 A 
HETATM    2  C2  UNL     1     -33.648   6.160   4.287  1.00 20.00     0.101 A 
HETATM    3  C3  UNL     1     -34.204   5.281   2.477  1.00 20.00     0.138 A 
HETATM    4  C4  UNL     1     -34.591   5.013   3.951  1.00 20.00     0.287 A 
HETATM    5  F5  UNL     1     -34.269   3.776   4.403  1.00 20.00    -0.199 F 
HETATM    6  F6  UNL     1     -35.908   5.176   4.227  1.00 20.00    -0.199 F 
HETATM    7 CL7  UNL     1     -32.246   7.540   2.213  1.00 20.00    -0.087 Cl
HETATM    8 CL8  UNL     1     -33.172   6.908   5.811  1.00 20.00    -0.081 Cl
ENDROOT
TORSDOF 0
