REMARK  1 active torsions:
REMARK  status: ('A' for Active; 'I' for Inactive)
REMARK    1  A    between atoms: C8_8  and  C11_11 
ROOT
HETATM    1  C1  UNL     1     -33.644   5.784   2.529  1.00 20.00    -0.081 C 
HETATM    2  C2  UNL     1     -34.041   4.912   1.603  1.00 20.00     0.015 C 
HETATM    3  C3  UNL     1     -32.292   7.648   2.764  1.00 20.00     0.010 C 
HETATM    4  C4  UNL     1     -31.718   6.480   3.593  1.00 20.00     0.010 C 
HETATM    5  C5  UNL     1     -34.505   7.416   3.927  1.00 20.00     0.014 C 
HETATM    6  C6  UNL     1     -33.771   7.273   2.584  1.00 20.00     0.014 C 
HETATM    7  C7  UNL     1     -32.934   5.570   3.830  1.00 20.00     0.018 C 
HETATM    8  C8  UNL     1     -33.909   6.277   4.797  1.00 20.00    -0.002 C 
ENDROOT
BRANCH   8   9
HETATM    9  C11 UNL     1     -34.992   5.343   5.331  1.00 20.00    -0.018 C 
HETATM   10  C9  UNL     1     -35.440   4.365   4.246  1.00 20.00     0.010 C 
HETATM   11  C10 UNL     1     -34.493   4.588   6.561  1.00 20.00     0.010 C 
ENDBRANCH   8   9
TORSDOF 1
