REMARK  1 active torsions:
REMARK  status: ('A' for Active; 'I' for Inactive)
REMARK    1  A    between atoms: C7_7  and  C11_11 
ROOT
HETATM    1  C1  UNL     1     -33.894   6.160   5.113  1.00 20.00    -0.084 C 
HETATM    2  C2  UNL     1     -34.285   5.941   6.373  1.00 20.00     0.014 C 
HETATM    3  C3  UNL     1     -32.965   7.272   4.680  1.00 20.00     0.044 C 
HETATM    4  C4  UNL     1     -31.797   5.667   2.983  1.00 20.00     0.016 A 
HETATM    5  C5  UNL     1     -34.222   5.279   3.918  1.00 20.00     0.014 C 
HETATM    6  C6  UNL     1     -33.293   5.732   2.809  1.00 20.00     0.003 A 
HETATM    7  C7  UNL     1     -32.544   6.953   3.258  1.00 20.00    -0.029 A 
HETATM    8  C8  UNL     1     -35.683   5.425   3.499  1.00 20.00     0.015 C 
ENDROOT
BRANCH   7   9
HETATM    9  C11 UNL     1     -32.364   8.108   2.326  1.00 20.00    -0.014 C 
HETATM   10  C9  UNL     1     -31.904   7.647   0.932  1.00 20.00     0.010 C 
HETATM   11  C10 UNL     1     -33.653   8.936   2.190  1.00 20.00     0.010 C 
ENDBRANCH   7   9
TORSDOF 1
