REMARK  0 active torsions:
REMARK  status: ('A' for Active; 'I' for Inactive)
ROOT
HETATM    1  C1  UNL     1     -34.364   5.361   6.657  1.00 20.00    -0.027 A 
HETATM    2  C2  UNL     1     -34.348   6.451   5.869  1.00 20.00    -0.010 A 
HETATM    3  C3  UNL     1     -34.307   4.392   5.497  1.00 20.00     0.051 A 
HETATM    4  C4  UNL     1     -34.302   5.648   4.579  1.00 20.00     0.035 A 
HETATM    5  C5  UNL     1     -35.511   5.801   3.667  1.00 20.00     0.032 C 
HETATM    6 BR6  UNL     1     -32.624   5.943   3.617  1.00 20.00    -0.081 Br
ENDROOT
TORSDOF 0
