REMARK  0 active torsions:
REMARK  status: ('A' for Active; 'I' for Inactive)
ROOT
HETATM    1  C1  UNL     1     -34.128   5.158   5.614  1.00 20.00     0.129 C 
HETATM    2  C2  UNL     1     -33.452   6.286   5.355  1.00 20.00     0.136 C 
HETATM    3  C3  UNL     1     -34.631   4.231   4.552  1.00 20.00     0.073 C 
HETATM    4  C4  UNL     1     -34.604   4.847   3.154  1.00 20.00     0.008 C 
HETATM    5  C5  UNL     1     -33.305   5.619   2.918  1.00 20.00     0.016 C 
HETATM    6  C6  UNL     1     -33.090   6.748   3.958  1.00 20.00     0.009 C 
HETATM    7  C7  UNL     1     -33.961   7.969   3.611  1.00 20.00     0.022 C 
HETATM    8  C8  UNL     1     -31.611   7.172   3.925  1.00 20.00     0.022 C 
HETATM    9  F9  UNL     1     -34.387   4.849   6.905  1.00 20.00    -0.208 F 
HETATM   10  F10 UNL     1     -33.072   7.050   6.405  1.00 20.00    -0.207 F 
ENDROOT
TORSDOF 0
