REMARK  1 active torsions:
REMARK  status: ('A' for Active; 'I' for Inactive)
REMARK    1  A    between atoms: C8_8  and  C9_9 
ROOT
HETATM    1  C1  UNL     1     -32.966   7.409   6.264  1.00 20.00     0.014 C 
HETATM    2  C2  UNL     1     -35.181   3.599   6.387  1.00 20.00     0.014 C 
HETATM    3  C3  UNL     1     -33.585   6.587   5.645  1.00 20.00    -0.094 C 
HETATM    4  C4  UNL     1     -34.792   4.512   5.713  1.00 20.00    -0.094 C 
HETATM    5  C7  UNL     1     -35.208   6.083   3.779  1.00 20.00     0.043 A 
HETATM    6  C9  UNL     1     -33.950   5.315   3.462  1.00 20.00     0.025 A 
HETATM    7  C10 UNL     1     -34.325   5.605   4.906  1.00 20.00     0.089 A 
ENDROOT
BRANCH   6   8
HETATM    8  C8  UNL     1     -32.770   5.949   2.737  1.00 20.00    -0.008 A 
HETATM    9  C5  UNL     1     -32.319   7.359   2.999  1.00 20.00     0.005 A 
HETATM   10  C6  UNL     1     -31.448   6.204   3.407  1.00 20.00     0.005 A 
ENDBRANCH   6   8
TORSDOF 1
