REMARK  0 active torsions:
REMARK  status: ('A' for Active; 'I' for Inactive)
ROOT
HETATM    1  C1  UNL     1     -33.862   8.617   2.157  1.00 20.00     0.022 A 
HETATM    2  C2  UNL     1     -31.542   7.657   2.324  1.00 20.00     0.022 A 
HETATM    3  C3  UNL     1     -34.332   7.602   2.897  1.00 20.00     0.054 A 
HETATM    4  C4  UNL     1     -32.016   6.644   3.063  1.00 20.00     0.054 A 
HETATM    5  C5  UNL     1     -32.412   8.755   1.765  1.00 20.00     0.135 A 
HETATM    6  C6  UNL     1     -33.466   6.495   3.418  1.00 20.00     0.280 A 
HETATM    7  C7  UNL     1     -32.288   8.789   0.242  1.00 20.00     0.061 C 
HETATM    8  F8  UNL     1     -31.949   9.956   2.228  1.00 20.00    -0.234 F 
HETATM    9  F9  UNL     1     -33.926   5.300   2.948  1.00 20.00    -0.197 F 
HETATM   10  F10 UNL     1     -33.593   6.423   4.774  1.00 20.00    -0.197 F 
ENDROOT
TORSDOF 0
