REMARK  0 active torsions:
REMARK  status: ('A' for Active; 'I' for Inactive)
ROOT
HETATM    1  C1  UNL     1     -32.388   5.664   3.082  1.00 20.00    -0.025 C 
HETATM    2  C2  UNL     1     -33.407   4.796   2.933  1.00 20.00    -0.025 C 
HETATM    3  C3  UNL     1     -33.761   7.078   6.405  1.00 20.00    -0.022 C 
HETATM    4  C4  UNL     1     -34.642   6.241   6.999  1.00 20.00     0.007 C 
HETATM    5  C5  UNL     1     -34.242   6.937   2.827  1.00 20.00     0.018 C 
HETATM    6  C6  UNL     1     -32.964   6.947   3.681  1.00 20.00     0.017 C 
HETATM    7  C7  UNL     1     -34.682   5.517   3.299  1.00 20.00     0.016 C 
HETATM    8  C8  UNL     1     -33.394   6.481   5.094  1.00 20.00     0.023 C 
HETATM    9  C9  UNL     1     -35.106   5.140   6.046  1.00 20.00     0.198 C 
HETATM   10  C10 UNL     1     -34.796   5.890   4.778  1.00 20.00     0.039 C 
HETATM   11  F11 UNL     1     -34.349   4.025   6.163  1.00 20.00    -0.245 F 
ENDROOT
TORSDOF 0
