REMARK  1 active torsions:
REMARK  status: ('A' for Active; 'I' for Inactive)
REMARK    1  A    between atoms: C8_8  and  N9_9 
ROOT
HETATM    1  C1  UNL     1     -33.778   6.630   5.347  1.00 20.00     0.050 C 
HETATM    2  C2  UNL     1     -34.283   6.197   6.507  1.00 20.00     0.136 C 
HETATM    3  C3  UNL     1     -34.040   5.811   4.143  1.00 20.00     0.033 C 
HETATM    4  C4  UNL     1     -34.733   4.489   4.356  1.00 20.00     0.085 C 
HETATM    5  C7  UNL     1     -35.723   4.644   5.497  1.00 20.00     0.180 C 
HETATM    6  N9  UNL     1     -33.669   6.153   2.954  1.00 20.00    -0.289 NA
HETATM    7  O10 UNL     1     -35.098   5.111   6.698  1.00 20.00    -0.363 OA
ENDROOT
BRANCH   6   8
HETATM    8  C8  UNL     1     -32.960   7.422   2.889  1.00 20.00     0.108 A 
HETATM    9  C5  UNL     1     -31.478   7.411   3.135  1.00 20.00     0.029 A 
HETATM   10  C6  UNL     1     -32.006   7.632   1.747  1.00 20.00     0.029 A 
ENDBRANCH   6   8
TORSDOF 1
