REMARK  0 active torsions:
REMARK  status: ('A' for Active; 'I' for Inactive)
ROOT
HETATM    1  C1  UNL     1     -32.627   7.466   3.246  1.00 20.00     0.179 C 
HETATM    2  C2  UNL     1     -34.203   6.987   6.577  1.00 20.00    -0.010 C 
HETATM    3  C3  UNL     1     -34.972   5.931   6.278  1.00 20.00    -0.023 C 
HETATM    4  C4  UNL     1     -33.099   7.483   5.694  1.00 20.00     0.161 C 
HETATM    5  C5  UNL     1     -33.400   5.392   4.392  1.00 20.00     0.143 C 
HETATM    6  C6  UNL     1     -34.767   5.111   5.032  1.00 20.00     0.022 C 
HETATM    7  C7  UNL     1     -34.909   3.619   5.332  1.00 20.00     0.016 C 
HETATM    8  N8  UNL     1     -32.159   7.978   2.316  1.00 20.00    -0.172 NA
HETATM    9  N9  UNL     1     -33.171   6.869   4.327  1.00 20.00    -0.316 N 
ENDROOT
TORSDOF 0
