REMARK  0 active torsions:
REMARK  status: ('A' for Active; 'I' for Inactive)
ROOT
HETATM    1  C1  UNL     1     -34.295   4.536   5.442  1.00 20.00     0.005 C 
HETATM    2  C2  UNL     1     -36.055   5.332   3.855  1.00 20.00     0.005 C 
HETATM    3  C3  UNL     1     -33.867   5.990   5.693  1.00 20.00     0.011 C 
HETATM    4  C4  UNL     1     -35.624   6.785   4.107  1.00 20.00     0.011 C 
HETATM    5  C5  UNL     1     -33.763   4.788   3.009  1.00 20.00     0.084 C 
HETATM    6  C6  UNL     1     -34.855   4.381   4.017  1.00 20.00    -0.009 C 
HETATM    7  C7  UNL     1     -34.123   6.841   4.438  1.00 20.00     0.058 C 
HETATM    8  C8  UNL     1     -33.342   6.234   3.268  1.00 20.00     0.247 C 
HETATM    9  F9  UNL     1     -32.011   6.284   3.528  1.00 20.00    -0.206 F 
HETATM   10  F10 UNL     1     -33.538   6.975   2.149  1.00 20.00    -0.206 F 
ENDROOT
TORSDOF 0
