REMARK  1 active torsions:
REMARK  status: ('A' for Active; 'I' for Inactive)
REMARK    1  A    between atoms: C9_9  and  C10_10 
ROOT
HETATM    1  C1  UNL     1     -34.917   4.139   4.887  1.00 20.00     0.001 A 
HETATM    2  C2  UNL     1     -34.944   5.068   6.023  1.00 20.00     0.001 A 
HETATM    3  C3  UNL     1     -34.181   4.379   3.782  1.00 20.00     0.012 A 
HETATM    4  C4  UNL     1     -34.236   6.216   6.030  1.00 20.00     0.012 A 
HETATM    5  C5  UNL     1     -32.599   6.079   2.782  1.00 20.00     0.009 A 
HETATM    6  C6  UNL     1     -32.644   7.572   4.609  1.00 20.00     0.009 A 
HETATM    7  C7  UNL     1     -33.403   5.595   3.740  1.00 20.00    -0.028 A 
HETATM    8  C8  UNL     1     -33.430   6.519   4.870  1.00 20.00    -0.028 A 
HETATM    9  C10 UNL     1     -32.015   7.392   3.247  1.00 20.00     0.082 A 
HETATM   10  C11 UNL     1     -30.496   7.389   3.287  1.00 20.00     0.035 C 
ENDROOT
BRANCH   9  11
HETATM   11  C9  UNL     1     -32.527   8.488   2.339  1.00 20.00     0.189 C 
HETATM   12  O12 UNL     1     -31.814   8.725   1.324  1.00 20.00    -0.647 OA
HETATM   13  O13 UNL     1     -33.606   9.026   2.714  1.00 20.00    -0.647 OA
ENDBRANCH   9  11
TORSDOF 1
