REMARK  1 active torsions:
REMARK  status: ('A' for Active; 'I' for Inactive)
REMARK    1  A    between atoms: C2_2  and  C12_12 
ROOT
HETATM    1  C1  UNL     1     -32.924   5.136   3.631  1.00 20.00    -0.023 C 
HETATM    2  C2  UNL     1     -33.442   6.145   4.360  1.00 20.00    -0.075 C 
HETATM    3  C3  UNL     1     -31.825   5.395   2.621  1.00 20.00     0.033 C 
HETATM    4  C4  UNL     1     -31.266   7.390   4.095  1.00 20.00     0.015 C 
HETATM    5  C5  UNL     1     -32.834   7.503   4.120  1.00 20.00     0.023 C 
HETATM    6  C6  UNL     1     -31.472   6.898   2.624  1.00 20.00    -0.002 C 
HETATM    7  C7  UNL     1     -32.714   7.894   2.579  1.00 20.00    -0.036 C 
HETATM    8  C8  UNL     1     -33.877   7.528   1.648  1.00 20.00     0.016 C 
HETATM    9  C9  UNL     1     -32.359   9.370   2.312  1.00 20.00     0.016 C 
ENDROOT
BRANCH   2  10
HETATM   10  C12 UNL     1     -34.536   6.005   5.363  1.00 20.00     0.006 C 
HETATM   11  C10 UNL     1     -35.020   4.557   5.430  1.00 20.00     0.014 C 
HETATM   12  C11 UNL     1     -34.082   6.484   6.742  1.00 20.00     0.014 C 
ENDBRANCH   2  10
TORSDOF 1
