REMARK  0 active torsions:
REMARK  status: ('A' for Active; 'I' for Inactive)
ROOT
HETATM    1  C1  UNL     1     -33.347   6.887   6.157  1.00 20.00     0.017 A 
HETATM    2  C2  UNL     1     -32.636   7.316   5.107  1.00 20.00     0.054 A 
HETATM    3  C3  UNL     1     -33.555   5.432   3.719  1.00 20.00     0.060 A 
HETATM    4  C4  UNL     1     -34.274   4.990   4.766  1.00 20.00    -0.044 A 
HETATM    5  C5  UNL     1     -34.241   5.682   6.109  1.00 20.00     0.221 A 
HETATM    6  C6  UNL     1     -32.660   6.636   3.772  1.00 20.00     0.280 A 
HETATM    7  C7  UNL     1     -35.158   3.782   4.667  1.00 20.00     0.046 C 
HETATM    8  F8  UNL     1     -33.848   4.797   7.070  1.00 20.00    -0.240 F 
HETATM    9  F9  UNL     1     -33.050   7.529   2.817  1.00 20.00    -0.197 F 
HETATM   10  F10 UNL     1     -31.392   6.270   3.428  1.00 20.00    -0.197 F 
ENDROOT
TORSDOF 0
