REMARK  0 active torsions:
REMARK  status: ('A' for Active; 'I' for Inactive)
ROOT
HETATM    1  C1  UNL     1     -34.724   5.139   2.924  1.00 20.00     0.019 A 
HETATM    2  C2  UNL     1     -33.652   5.764   2.414  1.00 20.00     0.054 A 
HETATM    3  C3  UNL     1     -33.079   6.644   4.699  1.00 20.00     0.096 A 
HETATM    4  C4  UNL     1     -34.151   6.020   5.206  1.00 20.00     0.133 A 
HETATM    5  C5  UNL     1     -35.092   5.198   4.378  1.00 20.00     0.254 A 
HETATM    6  C6  UNL     1     -32.710   6.585   3.245  1.00 20.00     0.282 A 
HETATM    7  F7  UNL     1     -34.396   6.136   6.530  1.00 20.00    -0.207 F 
HETATM    8  F8  UNL     1     -36.357   5.692   4.505  1.00 20.00    -0.238 F 
HETATM    9  F9  UNL     1     -31.446   6.087   3.120  1.00 20.00    -0.197 F 
HETATM   10  F10 UNL     1     -32.651   7.852   2.742  1.00 20.00    -0.197 F 
ENDROOT
TORSDOF 0
