REMARK  0 active torsions:
REMARK  status: ('A' for Active; 'I' for Inactive)
ROOT
HETATM    1  C1  UNL     1     -34.013   6.927   6.884  1.00 20.00     0.001 C 
HETATM    2  C2  UNL     1     -32.319   5.893   2.353  1.00 20.00     0.001 C 
HETATM    3  C3  UNL     1     -33.705   7.480   5.486  1.00 20.00     0.005 C 
HETATM    4  C4  UNL     1     -32.627   7.111   3.210  1.00 20.00     0.005 C 
HETATM    5  C5  UNL     1     -35.016   5.772   6.899  1.00 20.00     0.005 C 
HETATM    6  C6  UNL     1     -33.358   4.853   2.765  1.00 20.00     0.005 C 
HETATM    7  C7  UNL     1     -35.077   3.499   5.618  1.00 20.00     0.010 A 
HETATM    8  C8  UNL     1     -33.007   6.489   4.552  1.00 20.00    -0.010 C 
HETATM    9  C9  UNL     1     -34.380   4.461   6.545  1.00 20.00    -0.010 A 
HETATM   10  C10 UNL     1     -33.889   5.298   4.139  1.00 20.00    -0.006 C 
HETATM   11  C11 UNL     1     -33.828   4.208   5.165  1.00 20.00    -0.006 A 
ENDROOT
TORSDOF 0
