REMARK  0 active torsions:
REMARK  status: ('A' for Active; 'I' for Inactive)
ROOT
HETATM    1  C1  UNL     1     -34.376   5.615   5.895  1.00 20.00    -0.075 C 
HETATM    2  C2  UNL     1     -34.130   6.603   6.757  1.00 20.00     0.015 C 
HETATM    3  C3  UNL     1     -34.521   4.119   6.064  1.00 20.00     0.036 C 
HETATM    4  C4  UNL     1     -35.187   4.170   4.674  1.00 20.00     0.024 C 
HETATM    5  C5  UNL     1     -34.621   5.583   4.400  1.00 20.00     0.086 C 
HETATM    6 BR6  UNL     1     -32.990   5.655   3.361  1.00 20.00    -0.086 Br
ENDROOT
TORSDOF 0
