REMARK  1 active torsions:
REMARK  status: ('A' for Active; 'I' for Inactive)
REMARK    1  A    between atoms: C1_1  and  C5_5 
ROOT
HETATM    1  C2  UNL     1     -34.212   6.556   5.724  1.00 20.00     0.006 C 
HETATM    2  C3  UNL     1     -34.007   5.048   5.539  1.00 20.00     0.006 C 
HETATM    3  C4  UNL     1     -35.662   5.759   4.027  1.00 20.00     0.011 C 
HETATM    4  C5  UNL     1     -33.807   6.993   3.228  1.00 20.00     0.084 C 
HETATM    5  C6  UNL     1     -34.834   6.997   4.384  1.00 20.00    -0.001 C 
HETATM    6  C7  UNL     1     -34.446   4.820   4.082  1.00 20.00    -0.006 C 
HETATM    7  C8  UNL     1     -33.451   5.482   3.068  1.00 20.00    -0.032 C 
HETATM    8  C9  UNL     1     -33.769   5.012   1.633  1.00 20.00     0.016 C 
HETATM    9  C10 UNL     1     -31.983   5.125   3.348  1.00 20.00     0.016 C 
ENDROOT
BRANCH   4  10
HETATM   10  C1  UNL     1     -32.667   7.938   3.459  1.00 20.00     0.224 C 
HETATM   11  O11 UNL     1     -31.899   7.802   4.407  1.00 20.00    -0.279 OA
HETATM   12 CL12 UNL     1     -32.596   9.185   2.251  1.00 20.00    -0.043 Cl
ENDBRANCH   4  10
TORSDOF 1
