REMARK  1 active torsions:
REMARK  status: ('A' for Active; 'I' for Inactive)
REMARK    1  A    between atoms: C5_5  and  C7_7 
ROOT
HETATM    1  C1  UNL     1     -34.784   6.043   6.969  1.00 20.00     0.001 C 
HETATM    2  C2  UNL     1     -35.252   4.664   6.502  1.00 20.00     0.001 C 
HETATM    3  C3  UNL     1     -33.999   6.643   5.805  1.00 20.00     0.018 C 
HETATM    4  C4  UNL     1     -34.728   4.498   5.077  1.00 20.00     0.018 C 
HETATM    5  C5  UNL     1     -34.529   5.927   4.555  1.00 20.00     0.054 C 
HETATM    6  C6  UNL     1     -35.858   6.540   4.083  1.00 20.00     0.024 C 
ENDROOT
BRANCH   5   7
HETATM    7  C7  UNL     1     -33.517   5.972   3.408  1.00 20.00     0.395 C 
HETATM    8  F8  UNL     1     -32.382   5.373   3.786  1.00 20.00    -0.170 F 
HETATM    9  F9  UNL     1     -34.018   5.339   2.341  1.00 20.00    -0.170 F 
HETATM   10  F10 UNL     1     -33.259   7.246   3.087  1.00 20.00    -0.170 F 
ENDBRANCH   5   7
TORSDOF 1
