REMARK  1 active torsions:
REMARK  status: ('A' for Active; 'I' for Inactive)
REMARK    1  A    between atoms: C6_6  and  C10_10 
ROOT
HETATM    1  C1  UNL     1     -32.144   8.845   1.581  1.00 20.00     0.017 C 
HETATM    2  C2  UNL     1     -32.705   8.054   2.287  1.00 20.00    -0.083 C 
HETATM    3  C3  UNL     1     -33.936   7.542   4.270  1.00 20.00    -0.002 C 
HETATM    4  C4  UNL     1     -33.371   7.113   3.127  1.00 20.00    -0.009 C 
HETATM    5  C7  UNL     1     -33.444   5.672   2.692  1.00 20.00     0.048 C 
HETATM    6  C8  UNL     1     -34.505   4.866   3.445  1.00 20.00     0.006 C 
HETATM    7  C9  UNL     1     -34.437   5.147   4.943  1.00 20.00     0.012 C 
HETATM    8  C10 UNL     1     -34.662   6.639   5.237  1.00 20.00     0.031 C 
ENDROOT
BRANCH   8   9
HETATM    9  C6  UNL     1     -34.283   6.935   6.657  1.00 20.00    -0.028 C 
HETATM   10  C5  UNL     1     -33.078   7.377   7.032  1.00 20.00     0.007 C 
ENDBRANCH   8   9
TORSDOF 1
