REMARK  0 active torsions:
REMARK  status: ('A' for Active; 'I' for Inactive)
ROOT
HETATM    1  C1  UNL     1     -32.091   5.995   2.871  1.00 20.00     0.014 C 
HETATM    2  C2  UNL     1     -32.821   6.074   3.821  1.00 20.00    -0.090 C 
HETATM    3  C3  UNL     1     -35.128   4.229   6.210  1.00 20.00     0.013 A 
HETATM    4  C4  UNL     1     -34.970   3.774   4.757  1.00 20.00     0.013 A 
HETATM    5  C5  UNL     1     -35.183   6.470   4.697  1.00 20.00     0.052 A 
HETATM    6  C6  UNL     1     -33.692   6.168   4.953  1.00 20.00     0.107 A 
HETATM    7  C7  UNL     1     -34.730   5.159   5.156  1.00 20.00    -0.005 A 
HETATM    8 CL8  UNL     1     -32.961   6.917   6.372  1.00 20.00    -0.104 Cl
ENDROOT
TORSDOF 0
