REMARK  1 active torsions:
REMARK  status: ('A' for Active; 'I' for Inactive)
REMARK    1  A    between atoms: C8_8  and  C11_11 
ROOT
HETATM    1  C1  UNL     1     -32.533   6.155   3.944  1.00 20.00    -0.084 C 
HETATM    2  C2  UNL     1     -31.247   6.192   4.304  1.00 20.00     0.014 C 
HETATM    3  C3  UNL     1     -33.719   6.218   4.875  1.00 20.00     0.038 C 
HETATM    4  C4  UNL     1     -34.293   5.102   2.848  1.00 20.00     0.014 C 
HETATM    5  C5  UNL     1     -34.966   7.390   3.022  1.00 20.00     0.010 C 
HETATM    6  C6  UNL     1     -33.071   5.975   2.541  1.00 20.00     0.018 C 
HETATM    7  C7  UNL     1     -34.873   6.095   3.860  1.00 20.00    -0.010 C 
HETATM    8  C8  UNL     1     -33.755   7.277   2.066  1.00 20.00    -0.003 C 
ENDROOT
BRANCH   8   9
HETATM    9  C11 UNL     1     -32.870   8.515   2.056  1.00 20.00    -0.018 C 
HETATM   10  C9  UNL     1     -31.677   8.322   1.120  1.00 20.00     0.010 C 
HETATM   11  C10 UNL     1     -33.672   9.751   1.649  1.00 20.00     0.010 C 
ENDBRANCH   8   9
TORSDOF 1
