REMARK  1 active torsions:
REMARK  status: ('A' for Active; 'I' for Inactive)
REMARK    1  A    between atoms: C6_6  and  C10_10 
ROOT
HETATM    1  C1  UNL     1     -34.786   5.486   3.458  1.00 20.00     0.142 A 
HETATM    2  C2  UNL     1     -31.575   5.687   3.364  1.00 20.00     0.006 C 
HETATM    3  C3  UNL     1     -32.432   4.535   3.904  1.00 20.00     0.019 C 
HETATM    4  C4  UNL     1     -33.803   6.531   3.634  1.00 20.00     0.076 A 
HETATM    5  C5  UNL     1     -32.588   6.670   2.749  1.00 20.00    -0.006 C 
HETATM    6  C6  UNL     1     -33.697   5.215   4.384  1.00 20.00     0.034 A 
HETATM    7  C7  UNL     1     -32.050   8.090   2.695  1.00 20.00     0.011 C 
HETATM    8  O11 UNL     1     -35.995   5.464   3.570  1.00 20.00    -0.297 OA
ENDROOT
BRANCH   6   9
HETATM    9  C10 UNL     1     -33.921   5.209   5.868  1.00 20.00    -0.006 C 
HETATM   10  C8  UNL     1     -35.025   6.197   6.276  1.00 20.00     0.011 C 
HETATM   11  C9  UNL     1     -34.274   3.804   6.379  1.00 20.00     0.011 C 
ENDBRANCH   6   9
TORSDOF 1
