REMARK  1 active torsions:
REMARK  status: ('A' for Active; 'I' for Inactive)
REMARK    1  A    between atoms: C4_4  and  C6_6 
ROOT
HETATM    1  C1  UNL     1     -32.436   8.891   1.874  1.00 20.00     0.012 C 
HETATM    2  C2  UNL     1     -32.285   7.774   2.286  1.00 20.00    -0.109 C 
HETATM    3  C3  UNL     1     -32.602   6.339   4.209  1.00 20.00    -0.003 C 
HETATM    4  C4  UNL     1     -33.698   5.657   4.585  1.00 20.00    -0.061 C 
HETATM    5  C7  UNL     1     -34.560   4.910   3.600  1.00 20.00     0.038 C 
HETATM    6  C8  UNL     1     -34.283   5.284   2.141  1.00 20.00     0.006 C 
HETATM    7  C9  UNL     1     -32.783   5.380   1.870  1.00 20.00     0.021 C 
HETATM    8  C10 UNL     1     -32.099   6.402   2.791  1.00 20.00     0.087 C 
ENDROOT
BRANCH   4   9
HETATM    9  C6  UNL     1     -34.112   5.605   5.967  1.00 20.00    -0.004 C 
HETATM   10  C5  UNL     1     -35.213   4.912   6.302  1.00 20.00     0.012 C 
ENDBRANCH   4   9
TORSDOF 1
