REMARK  0 active torsions:
REMARK  status: ('A' for Active; 'I' for Inactive)
ROOT
HETATM    1  C1  UNL     1     -32.500   9.128   2.097  1.00 20.00     0.012 C 
HETATM    2  C2  UNL     1     -33.935   3.985   6.198  1.00 20.00     0.012 C 
HETATM    3  C3  UNL     1     -32.307   8.159   2.780  1.00 20.00    -0.113 C 
HETATM    4  C4  UNL     1     -34.033   5.070   5.693  1.00 20.00    -0.113 C 
HETATM    5  C5  UNL     1     -33.996   5.583   2.654  1.00 20.00     0.002 C 
HETATM    6  C6  UNL     1     -32.485   5.695   2.876  1.00 20.00     0.017 C 
HETATM    7  C7  UNL     1     -34.838   6.306   3.710  1.00 20.00     0.017 C 
HETATM    8  C8  UNL     1     -32.779   7.099   4.981  1.00 20.00     0.034 C 
HETATM    9  C9  UNL     1     -32.070   6.967   3.619  1.00 20.00     0.065 C 
HETATM   10  C10 UNL     1     -34.152   6.405   5.073  1.00 20.00     0.065 C 
ENDROOT
TORSDOF 0
