REMARK  0 active torsions:
REMARK  status: ('A' for Active; 'I' for Inactive)
ROOT
HETATM    1  C1  UNL     1     -33.356   6.095   6.713  1.00 20.00    -0.012 C 
HETATM    2  C2  UNL     1     -33.293   4.770   6.949  1.00 20.00    -0.016 C 
HETATM    3  C3  UNL     1     -33.973   6.472   4.417  1.00 20.00    -0.010 C 
HETATM    4  C4  UNL     1     -34.311   5.460   3.342  1.00 20.00     0.014 C 
HETATM    5  C5  UNL     1     -34.394   6.219   5.699  1.00 20.00     0.051 C 
HETATM    6  C6  UNL     1     -34.352   4.095   6.183  1.00 20.00     0.034 C 
HETATM    7  C7  UNL     1     -35.305   5.016   5.850  1.00 20.00     0.224 C 
HETATM    8  C8  UNL     1     -34.911   4.312   3.804  1.00 20.00     0.216 C 
HETATM    9  C9  UNL     1     -34.056   3.421   4.821  1.00 20.00     0.066 C 
HETATM   10  N10 UNL     1     -35.975   4.658   4.674  1.00 20.00     0.115 N 
HETATM   11  H17 UNL     1     -36.688   3.942   4.786  1.00 20.00     0.318 HD
ENDROOT
TORSDOF 0
