REMARK  1 active torsions:
REMARK  status: ('A' for Active; 'I' for Inactive)
REMARK    1  A    between atoms: C3_3  and  C6_6 
ROOT
HETATM    1  C1  UNL     1     -32.369   9.432   1.900  1.00 20.00     0.013 C 
HETATM    2  C2  UNL     1     -32.238   8.430   2.547  1.00 20.00    -0.107 C 
HETATM    3  C5  UNL     1     -31.909   5.929   2.567  1.00 20.00     0.033 A 
HETATM    4  C6  UNL     1     -33.219   6.217   3.248  1.00 20.00     0.030 A 
HETATM    5  C7  UNL     1     -32.081   7.225   3.325  1.00 20.00     0.027 A 
HETATM    6  C10 UNL     1     -31.295   7.401   4.598  1.00 20.00     0.030 C 
ENDROOT
BRANCH   4   7
HETATM    7  C3  UNL     1     -33.601   5.428   4.411  1.00 20.00    -0.018 C 
HETATM    8  C4  UNL     1     -34.829   4.985   4.738  1.00 20.00    -0.091 C 
HETATM    9  C8  UNL     1     -35.058   4.174   5.984  1.00 20.00     0.042 C 
HETATM   10  C9  UNL     1     -36.059   5.247   3.915  1.00 20.00     0.042 C 
ENDBRANCH   4   7
TORSDOF 1
