REMARK  0 active torsions:
REMARK  status: ('A' for Active; 'I' for Inactive)
ROOT
HETATM    1  C1  UNL     1     -34.841   3.928   5.298  1.00 20.00    -0.004 C 
HETATM    2  C2  UNL     1     -34.275   4.639   6.417  1.00 20.00    -0.003 C 
HETATM    3  C3  UNL     1     -35.188   4.567   4.172  1.00 20.00    -0.025 C 
HETATM    4  C4  UNL     1     -33.887   5.918   6.304  1.00 20.00    -0.011 C 
HETATM    5  C5  UNL     1     -34.999   6.051   3.999  1.00 20.00     0.047 C 
HETATM    6  C6  UNL     1     -34.041   6.686   5.024  1.00 20.00     0.084 C 
HETATM    7 BR7  UNL     1     -32.244   6.819   4.240  1.00 20.00    -0.087 Br
ENDROOT
TORSDOF 0
