REMARK  0 active torsions:
REMARK  status: ('A' for Active; 'I' for Inactive)
ROOT
HETATM    1  C1  UNL     1     -32.652   8.264   2.579  1.00 20.00     0.012 C 
HETATM    2  C2  UNL     1     -32.725   7.326   3.324  1.00 20.00    -0.112 C 
HETATM    3  C3  UNL     1     -34.121   4.192   5.815  1.00 20.00    -0.026 C 
HETATM    4  C4  UNL     1     -33.585   3.871   4.626  1.00 20.00    -0.024 C 
HETATM    5  C5  UNL     1     -35.704   5.779   4.790  1.00 20.00     0.009 C 
HETATM    6  C6  UNL     1     -35.090   5.395   3.423  1.00 20.00     0.010 C 
HETATM    7  C7  UNL     1     -33.474   6.570   5.589  1.00 20.00     0.026 C 
HETATM    8  C8  UNL     1     -32.814   6.175   4.238  1.00 20.00     0.072 C 
HETATM    9  C9  UNL     1     -34.648   5.610   5.904  1.00 20.00     0.009 C 
HETATM   10  C10 UNL     1     -33.605   4.994   3.606  1.00 20.00     0.023 C 
ENDROOT
TORSDOF 0
