REMARK  0 active torsions:
REMARK  status: ('A' for Active; 'I' for Inactive)
ROOT
HETATM    1  C1  UNL     1     -35.138   3.650   5.946  1.00 20.00     0.001 C 
HETATM    2  C2  UNL     1     -32.890   5.851   2.095  1.00 20.00     0.001 C 
HETATM    3  C3  UNL     1     -35.240   4.130   4.491  1.00 20.00     0.005 C 
HETATM    4  C4  UNL     1     -34.131   5.032   2.398  1.00 20.00     0.005 C 
HETATM    5  C5  UNL     1     -34.417   4.587   6.916  1.00 20.00     0.005 C 
HETATM    6  C6  UNL     1     -32.725   6.716   3.336  1.00 20.00     0.005 C 
HETATM    7  C7  UNL     1     -33.689   7.100   6.768  1.00 20.00     0.010 A 
HETATM    8  C8  UNL     1     -33.935   4.632   3.864  1.00 20.00    -0.010 C 
HETATM    9  C9  UNL     1     -34.734   6.024   6.647  1.00 20.00    -0.010 A 
HETATM   10  C10 UNL     1     -33.254   5.867   4.508  1.00 20.00    -0.006 C 
HETATM   11  C11 UNL     1     -34.164   6.666   5.405  1.00 20.00    -0.006 A 
ENDROOT
TORSDOF 0
