REMARK  0 active torsions:
REMARK  status: ('A' for Active; 'I' for Inactive)
ROOT
HETATM    1  C1  UNL     1     -32.956   7.578   5.086  1.00 20.00     0.009 A 
HETATM    2  C2  UNL     1     -32.526   8.221   3.923  1.00 20.00     0.019 A 
HETATM    3  C3  UNL     1     -33.362   6.392   2.577  1.00 20.00     0.032 A 
HETATM    4  C4  UNL     1     -33.798   5.767   3.742  1.00 20.00    -0.011 A 
HETATM    5  C5  UNL     1     -33.605   6.345   4.999  1.00 20.00    -0.045 A 
HETATM    6  C6  UNL     1     -32.729   7.630   2.673  1.00 20.00     0.011 A 
HETATM    7  C7  UNL     1     -34.446   4.452   3.692  1.00 20.00     0.122 C 
HETATM    8  C8  UNL     1     -34.033   5.575   6.212  1.00 20.00     0.061 C 
HETATM    9  C9  UNL     1     -35.262   4.731   5.885  1.00 20.00     0.153 C 
HETATM   10  N10 UNL     1     -35.090   3.917   4.673  1.00 20.00    -0.300 NA
HETATM   11 BR11 UNL     1     -32.133   8.508   1.108  1.00 20.00    -0.051 Br
ENDROOT
TORSDOF 0
