REMARK  0 active torsions:
REMARK  status: ('A' for Active; 'I' for Inactive)
ROOT
HETATM    1  C1  UNL     1     -31.655   7.279   2.275  1.00 20.00     0.001 C 
HETATM    2  C2  UNL     1     -32.837   6.420   1.797  1.00 20.00     0.005 C 
HETATM    3  C3  UNL     1     -31.799   7.415   3.799  1.00 20.00     0.005 C 
HETATM    4  C4  UNL     1     -34.789   5.264   3.061  1.00 20.00     0.011 C 
HETATM    5  C5  UNL     1     -35.556   5.344   4.387  1.00 20.00     0.079 C 
HETATM    6  C6  UNL     1     -33.554   6.506   5.483  1.00 20.00     0.084 C 
HETATM    7  C7  UNL     1     -33.782   6.403   2.989  1.00 20.00    -0.010 C 
HETATM    8  C8  UNL     1     -32.811   6.340   4.166  1.00 20.00    -0.005 C 
HETATM    9  C9  UNL     1     -34.627   5.425   5.597  1.00 20.00     0.244 C 
HETATM   10  F10 UNL     1     -34.020   4.219   5.763  1.00 20.00    -0.206 F 
HETATM   11  F11 UNL     1     -35.363   5.638   6.717  1.00 20.00    -0.206 F 
ENDROOT
TORSDOF 0
