REMARK  1 active torsions:
REMARK  status: ('A' for Active; 'I' for Inactive)
REMARK    1  A    between atoms: C1_1  and  C4_4 
ROOT
HETATM    1  C2  UNL     1     -34.093   4.163   5.834  1.00 20.00     0.054 A 
HETATM    2  C3  UNL     1     -35.420   4.853   5.948  1.00 20.00     0.054 A 
HETATM    3  C4  UNL     1     -34.232   5.597   5.403  1.00 20.00     0.156 A 
HETATM    4  F6  UNL     1     -33.670   6.536   6.262  1.00 20.00    -0.235 F 
ENDROOT
BRANCH   3   5
HETATM    5  C1  UNL     1     -34.177   5.939   3.979  1.00 20.00     0.274 C 
HETATM    6  O5  UNL     1     -33.137   6.215   3.391  1.00 20.00    -0.303 OA
ENDBRANCH   3   5
TORSDOF 1
