REMARK  1 active torsions:
REMARK  status: ('A' for Active; 'I' for Inactive)
REMARK    1  A    between atoms: C2_2  and  C4_4 
ROOT
HETATM    1  C1  UNL     1     -32.474   7.180   2.473  1.00 20.00     0.107 C 
HETATM    2  C2  UNL     1     -33.621   6.446   4.495  1.00 20.00     0.118 C 
HETATM    3  C3  UNL     1     -33.388   6.349   3.176  1.00 20.00     0.095 C 
HETATM    4  N5  UNL     1     -31.729   7.854   1.891  1.00 20.00    -0.191 NA
HETATM    5 BR9  UNL     1     -34.269   5.075   2.123  1.00 20.00    -0.039 Br
ENDROOT
BRANCH   2   6
HETATM    6  C4  UNL     1     -34.551   5.636   5.337  1.00 20.00     0.409 C 
HETATM    7  F6  UNL     1     -34.507   6.036   6.634  1.00 20.00    -0.167 F 
HETATM    8  F7  UNL     1     -35.851   5.695   4.957  1.00 20.00    -0.167 F 
HETATM    9  F8  UNL     1     -34.201   4.324   5.324  1.00 20.00    -0.167 F 
ENDBRANCH   2   6
TORSDOF 1
