REMARK  0 active torsions:
REMARK  status: ('A' for Active; 'I' for Inactive)
ROOT
HETATM    1  C1  UNL     1     -34.863   4.167   5.788  1.00 20.00     0.029 C 
HETATM    2  C2  UNL     1     -35.043   4.935   4.502  1.00 20.00     0.042 C 
HETATM    3  C3  UNL     1     -32.580   4.950   3.768  1.00 20.00     0.070 C 
HETATM    4  C4  UNL     1     -31.907   5.962   2.841  1.00 20.00     0.275 C 
HETATM    5  C5  UNL     1     -33.839   7.010   3.613  1.00 20.00     0.309 C 
HETATM    6  C6  UNL     1     -34.147   5.180   6.656  1.00 20.00     0.169 C 
HETATM    7  C7  UNL     1     -33.743   5.718   4.414  1.00 20.00     0.089 C 
HETATM    8  C8  UNL     1     -32.281   8.286   2.255  1.00 20.00     0.310 C 
HETATM    9  N9  UNL     1     -32.435   7.256   3.271  1.00 20.00     0.087 N 
HETATM   10  O10 UNL     1     -33.383   6.020   5.779  1.00 20.00    -0.378 OA
ENDROOT
TORSDOF 0
