REMARK  2 active torsions:
REMARK  status: ('A' for Active; 'I' for Inactive)
REMARK    1  A    between atoms: C1_1  and  C4_4 
REMARK    2  A    between atoms: C1_1  and  C5_5 
ROOT
HETATM    1  C1  UNL     1     -33.607   5.808   3.589  1.00 20.00     0.159 C 
HETATM    2  O6  UNL     1     -34.135   5.314   2.600  1.00 20.00    -0.295 OA
ENDROOT
BRANCH   1   3
HETATM    3  C4  UNL     1     -34.363   5.975   4.834  1.00 20.00     0.058 A 
HETATM    4  C2  UNL     1     -35.536   5.073   5.112  1.00 20.00     0.013 A 
HETATM    5  C3  UNL     1     -34.271   4.917   5.900  1.00 20.00     0.013 A 
ENDBRANCH   1   3
BRANCH   1   6
HETATM    6  C5  UNL     1     -32.182   6.277   3.621  1.00 20.00     0.300 C 
HETATM    7  F7  UNL     1     -32.086   7.578   3.238  1.00 20.00    -0.248 F 
ENDBRANCH   1   6
TORSDOF 2
