REMARK  1 active torsions:
REMARK  status: ('A' for Active; 'I' for Inactive)
REMARK    1  A    between atoms: C3_3  and  C6_6 
ROOT
HETATM    1  C1  UNL     1     -32.477   7.364   3.054  1.00 20.00     0.013 C 
HETATM    2  C2  UNL     1     -33.407   6.843   3.608  1.00 20.00    -0.099 C 
HETATM    3  C4  UNL     1     -34.850   4.865   3.577  1.00 20.00     0.038 C 
HETATM    4  C5  UNL     1     -35.770   7.136   4.176  1.00 20.00     0.038 C 
HETATM    5  C6  UNL     1     -34.560   6.197   4.287  1.00 20.00     0.091 C 
ENDROOT
BRANCH   5   6
HETATM    6  C3  UNL     1     -34.204   5.949   5.769  1.00 20.00     0.238 C 
HETATM    7  O7  UNL     1     -33.913   6.867   6.534  1.00 20.00    -0.278 OA
HETATM    8 CL8  UNL     1     -34.255   4.268   6.248  1.00 20.00    -0.042 Cl
ENDBRANCH   5   6
TORSDOF 1
