REMARK  2 active torsions:
REMARK  status: ('A' for Active; 'I' for Inactive)
REMARK    1  A    between atoms: C1_1  and  C2_2 
REMARK    2  A    between atoms: C2_2  and  C3_3 
ROOT
HETATM    1  C2  UNL     1     -33.847   5.598   4.980  1.00 20.00     0.218 C 
HETATM    2 CL8  UNL     1     -34.135   6.710   6.351  1.00 20.00    -0.113 Cl
ENDROOT
BRANCH   1   3
HETATM    3  C1  UNL     1     -34.979   4.584   4.900  1.00 20.00     0.251 C 
HETATM    4  F4  UNL     1     -35.070   3.897   6.070  1.00 20.00    -0.254 F 
ENDBRANCH   1   3
BRANCH   1   5
HETATM    5  C3  UNL     1     -33.702   6.400   3.701  1.00 20.00     0.406 C 
HETATM    6  F5  UNL     1     -33.409   5.589   2.659  1.00 20.00    -0.169 F 
HETATM    7  F6  UNL     1     -32.721   7.323   3.789  1.00 20.00    -0.169 F 
HETATM    8  F7  UNL     1     -34.851   7.044   3.395  1.00 20.00    -0.169 F 
ENDBRANCH   1   5
TORSDOF 2
