REMARK  2 active torsions:
REMARK  status: ('A' for Active; 'I' for Inactive)
REMARK    1  A    between atoms: C1_1  and  C2_2 
REMARK    2  A    between atoms: C1_1  and  C3_3 
ROOT
HETATM    1  C1  UNL     1     -33.947   6.553   4.126  1.00 20.00     0.346 C 
HETATM    2  F4  UNL     1     -33.239   6.724   5.284  1.00 20.00    -0.234 F 
ENDROOT
BRANCH   1   3
HETATM    3  C2  UNL     1     -32.948   6.319   3.000  1.00 20.00     0.357 C 
HETATM    4  F5  UNL     1     -33.510   5.594   2.003  1.00 20.00    -0.184 F 
HETATM    5  F6  UNL     1     -31.891   5.604   3.460  1.00 20.00    -0.184 F 
HETATM    6 CL9  UNL     1     -32.363   7.855   2.330  1.00 20.00    -0.045 Cl
ENDBRANCH   1   3
BRANCH   1   7
HETATM    7  C3  UNL     1     -34.918   5.407   4.376  1.00 20.00     0.357 C 
HETATM    8  F7  UNL     1     -34.351   4.254   3.932  1.00 20.00    -0.184 F 
HETATM    9  F8  UNL     1     -36.044   5.589   3.641  1.00 20.00    -0.184 F 
HETATM   10 CL10 UNL     1     -35.347   5.206   6.082  1.00 20.00    -0.045 Cl
ENDBRANCH   1   7
TORSDOF 2
