REMARK  2 active torsions:
REMARK  status: ('A' for Active; 'I' for Inactive)
REMARK    1  A    between atoms: C7_7  and  C9_9 
REMARK    2  A    between atoms: C8_8  and  C10_10 
ROOT
HETATM    1  C1  UNL     1     -34.263   7.180   3.886  1.00 20.00     0.005 C 
HETATM    2  C2  UNL     1     -35.324   6.220   3.332  1.00 20.00     0.005 C 
HETATM    3  C3  UNL     1     -32.459   5.647   3.097  1.00 20.00     0.005 C 
HETATM    4  C4  UNL     1     -33.526   4.681   2.542  1.00 20.00     0.005 C 
HETATM    5  C7  UNL     1     -33.010   6.405   4.323  1.00 20.00    -0.010 C 
HETATM    6  C8  UNL     1     -34.818   4.770   3.381  1.00 20.00    -0.010 C 
ENDROOT
BRANCH   5   7
HETATM    7  C9  UNL     1     -33.368   5.341   5.377  1.00 20.00    -0.006 A 
HETATM    8  C5  UNL     1     -34.284   5.657   6.578  1.00 20.00     0.006 A 
HETATM    9  C6  UNL     1     -35.350   4.700   6.023  1.00 20.00     0.006 A 
HETATM   10  C10 UNL     1     -34.439   4.374   4.821  1.00 20.00    -0.006 A 
ENDBRANCH   5   7
TORSDOF 2
