REMARK  0 active torsions:
REMARK  status: ('A' for Active; 'I' for Inactive)
ROOT
HETATM    1  C1  UNL     1     -33.994   4.323   5.848  1.00 20.00     0.001 C 
HETATM    2  C2  UNL     1     -35.338   4.575   5.136  1.00 20.00     0.005 C 
HETATM    3  C3  UNL     1     -34.454   5.033   2.753  1.00 20.00     0.005 C 
HETATM    4  C4  UNL     1     -33.115   5.756   2.490  1.00 20.00     0.006 C 
HETATM    5  C5  UNL     1     -33.212   5.615   6.143  1.00 20.00     0.010 C 
HETATM    6  C6  UNL     1     -34.616   6.875   4.497  1.00 20.00     0.014 C 
HETATM    7  C7  UNL     1     -32.037   7.270   4.408  1.00 20.00     0.015 A 
HETATM    8  C8  UNL     1     -35.257   5.588   3.965  1.00 20.00    -0.014 C 
HETATM    9  C9  UNL     1     -32.365   5.943   3.774  1.00 20.00    -0.005 A 
HETATM   10  C10 UNL     1     -33.217   6.479   4.908  1.00 20.00    -0.036 A 
ENDROOT
TORSDOF 0
