REMARK  0 active torsions:
REMARK  status: ('A' for Active; 'I' for Inactive)
ROOT
HETATM    1  C1  UNL     1     -34.041   6.332   5.509  1.00 20.00     0.062 A 
HETATM    2  C2  UNL     1     -33.850   4.845   5.436  1.00 20.00     0.119 A 
HETATM    3  C3  UNL     1     -34.068   5.633   4.172  1.00 20.00     0.112 A 
HETATM    4 CL4  UNL     1     -35.073   3.796   6.104  1.00 20.00    -0.122 Cl
HETATM    5 CL5  UNL     1     -35.610   5.562   3.323  1.00 20.00    -0.105 Cl
HETATM    6 BR6  UNL     1     -32.556   5.875   3.015  1.00 20.00    -0.066 Br
ENDROOT
TORSDOF 0
