REMARK  0 active torsions:
REMARK  status: ('A' for Active; 'I' for Inactive)
ROOT
HETATM    1  C1  UNL     1     -34.751   4.061   5.758  1.00 20.00     0.083 C 
HETATM    2  C2  UNL     1     -32.596   5.582   3.313  1.00 20.00    -0.003 A 
HETATM    3  C3  UNL     1     -32.389   6.944   3.053  1.00 20.00    -0.011 A 
HETATM    4  C4  UNL     1     -32.623   6.645   4.364  1.00 20.00    -0.006 A 
HETATM    5  C5  UNL     1     -33.832   5.562   2.734  1.00 20.00    -0.016 C 
HETATM    6  C6  UNL     1     -35.416   4.433   4.471  1.00 20.00     0.052 C 
HETATM    7  C7  UNL     1     -33.326   6.779   1.828  1.00 20.00     0.023 C 
HETATM    8  C8  UNL     1     -34.174   6.273   6.362  1.00 20.00     0.153 C 
HETATM    9  C9  UNL     1     -34.104   6.642   4.902  1.00 20.00     0.022 C 
HETATM   10  C10 UNL     1     -34.979   5.790   3.923  1.00 20.00     0.007 C 
HETATM   11  N11 UNL     1     -34.202   4.848   6.604  1.00 20.00    -0.305 NA
ENDROOT
TORSDOF 0
