REMARK  0 active torsions:
REMARK  status: ('A' for Active; 'I' for Inactive)
ROOT
HETATM    1  C1  UNL     1     -32.986   6.714   4.452  1.00 20.00     0.043 C 
HETATM    2  C2  UNL     1     -34.849   4.149   4.885  1.00 20.00     0.019 C 
HETATM    3  C3  UNL     1     -34.253   4.516   6.027  1.00 20.00     0.114 C 
HETATM    4  C4  UNL     1     -33.417   6.202   3.289  1.00 20.00     0.136 C 
HETATM    5  C5  UNL     1     -33.633   6.716   5.794  1.00 20.00     0.118 C 
HETATM    6  C6  UNL     1     -35.462   5.136   3.945  1.00 20.00     0.203 C 
HETATM    7  N7  UNL     1     -34.174   5.788   6.516  1.00 20.00    -0.273 NA
HETATM    8  O8  UNL     1     -34.527   5.492   2.934  1.00 20.00    -0.359 OA
ENDROOT
TORSDOF 0
