REMARK  2 active torsions:
REMARK  status: ('A' for Active; 'I' for Inactive)
REMARK    1  A    between atoms: C5_5  and  C6_6 
REMARK    2  A    between atoms: C5_5  and  O8_8 
ROOT
HETATM    1  C1  UNL     1     -33.222   6.174   3.522  1.00 20.00     0.228 C 
HETATM    2  N7  UNL     1     -32.152   5.937   3.139  1.00 20.00    -0.164 NA
HETATM    3  O8  UNL     1     -34.449   6.455   3.957  1.00 20.00    -0.283 OA
ENDROOT
BRANCH   3   4
HETATM    4  C5  UNL     1     -35.021   5.323   4.599  1.00 20.00     0.198 C 
BRANCH   4   5
HETATM    5  C6  UNL     1     -34.467   5.160   6.029  1.00 20.00    -0.029 C 
HETATM    6  C2  UNL     1     -35.519   4.501   6.936  1.00 20.00     0.016 C 
HETATM    7  C3  UNL     1     -34.112   6.546   6.589  1.00 20.00     0.016 C 
HETATM    8  C4  UNL     1     -33.204   4.282   6.014  1.00 20.00     0.016 C 
ENDBRANCH   4   5
ENDBRANCH   3   4
TORSDOF 2
