REMARK  0 active torsions:
REMARK  status: ('A' for Active; 'I' for Inactive)
ROOT
HETATM    1  C1  UNL     1     -34.053   4.921   6.816  1.00 20.00    -0.028 C 
HETATM    2  C2  UNL     1     -33.770   6.221   6.661  1.00 20.00    -0.014 C 
HETATM    3  C3  UNL     1     -34.726   4.357   5.604  1.00 20.00     0.043 C 
HETATM    4  C4  UNL     1     -33.338   6.811   2.641  1.00 20.00     0.084 C 
HETATM    5  C5  UNL     1     -34.037   5.490   2.380  1.00 20.00     0.084 C 
HETATM    6  C6  UNL     1     -34.184   6.727   5.304  1.00 20.00     0.083 C 
HETATM    7  C7  UNL     1     -35.205   5.642   4.917  1.00 20.00     0.068 C 
HETATM    8  S8  UNL     1     -32.657   6.885   4.316  1.00 20.00    -0.158 SA
HETATM    9  S9  UNL     1     -35.662   5.424   3.175  1.00 20.00    -0.162 SA
ENDROOT
TORSDOF 0
