REMARK  0 active torsions:
REMARK  status: ('A' for Active; 'I' for Inactive)
ROOT
HETATM    1  C1  UNL     1     -34.778   5.649   4.044  1.00 20.00    -0.081 C 
HETATM    2  C2  UNL     1     -35.710   5.902   3.109  1.00 20.00     0.015 C 
HETATM    3  C3  UNL     1     -34.896   4.372   4.854  1.00 20.00     0.034 C 
HETATM    4  C4  UNL     1     -35.036   4.687   6.341  1.00 20.00     0.004 C 
HETATM    5  C5  UNL     1     -33.932   5.615   6.839  1.00 20.00     0.001 C 
HETATM    6  C6  UNL     1     -31.796   7.215   2.124  1.00 20.00     0.000 C 
HETATM    7  C7  UNL     1     -33.126   7.937   2.276  1.00 20.00     0.001 C 
HETATM    8  C8  UNL     1     -31.841   5.833   2.760  1.00 20.00     0.001 C 
HETATM    9  C9  UNL     1     -33.822   6.876   5.977  1.00 20.00     0.014 C 
HETATM   10  C10 UNL     1     -33.606   7.974   3.732  1.00 20.00     0.014 C 
HETATM   11  C11 UNL     1     -32.238   5.923   4.232  1.00 20.00     0.014 C 
HETATM   12  C12 UNL     1     -33.627   6.591   4.456  1.00 20.00    -0.018 C 
ENDROOT
TORSDOF 0
