REMARK  1 active torsions:
REMARK  status: ('A' for Active; 'I' for Inactive)
REMARK    1  A    between atoms: C9_9  and  O10_10 
ROOT
HETATM    1  C1  UNL     1     -32.095   6.679   3.743  1.00 20.00     0.053 A 
HETATM    2  C2  UNL     1     -34.784   6.846   2.884  1.00 20.00     0.055 A 
HETATM    3  C3  UNL     1     -33.096   5.975   4.390  1.00 20.00    -0.046 A 
HETATM    4  C4  UNL     1     -34.429   6.057   3.966  1.00 20.00    -0.020 A 
HETATM    5  C5  UNL     1     -32.444   7.466   2.644  1.00 20.00     0.155 A 
HETATM    6  C6  UNL     1     -33.778   7.549   2.217  1.00 20.00     0.155 A 
HETATM    7  C7  UNL     1     -32.972   5.103   5.601  1.00 20.00     0.042 C 
HETATM    8  C8  UNL     1     -34.290   4.319   5.534  1.00 20.00     0.041 C 
HETATM    9  C9  UNL     1     -35.316   5.247   4.862  1.00 20.00     0.152 C 
HETATM   10  F11 UNL     1     -31.497   8.156   1.993  1.00 20.00    -0.203 F 
HETATM   11  F12 UNL     1     -34.091   8.318   1.165  1.00 20.00    -0.203 F 
ENDROOT
BRANCH   9  12
HETATM   12  O10 UNL     1     -36.271   4.502   4.134  1.00 20.00    -0.391 OA
HETATM   13  H20 UNL     1     -36.804   4.007   4.780  1.00 20.00     0.210 HD
ENDBRANCH   9  12
TORSDOF 1
