REMARK  0 active torsions:
REMARK  status: ('A' for Active; 'I' for Inactive)
ROOT
HETATM    1  C1  UNL     1     -32.689   7.078   3.480  1.00 20.00     0.128 A 
HETATM    2  C2  UNL     1     -32.564   5.577   3.829  1.00 20.00     0.089 A 
HETATM    3  C3  UNL     1     -34.117   7.162   4.065  1.00 20.00     0.089 A 
HETATM    4  C4  UNL     1     -35.027   4.735   3.882  1.00 20.00     0.085 C 
HETATM    5  C5  UNL     1     -34.133   5.311   5.888  1.00 20.00     0.085 C 
HETATM    6  C6  UNL     1     -33.970   5.690   4.422  1.00 20.00    -0.011 A 
HETATM    7  O7  UNL     1     -31.950   7.881   2.951  1.00 20.00    -0.298 OA
HETATM    8  S8  UNL     1     -34.790   3.682   5.364  1.00 20.00    -0.167 SA
ENDROOT
TORSDOF 0
