REMARK  1 active torsions:
REMARK  status: ('A' for Active; 'I' for Inactive)
REMARK    1  A    between atoms: C2_2  and  C6_6 
ROOT
HETATM    1  C3  UNL     1     -34.131   6.980   5.358  1.00 20.00     0.181 C 
HETATM    2  C4  UNL     1     -35.123   5.816   3.369  1.00 20.00     0.181 C 
HETATM    3  C5  UNL     1     -34.834   4.738   5.438  1.00 20.00     0.337 C 
HETATM    4  C6  UNL     1     -34.179   6.933   3.827  1.00 20.00     0.061 C 
HETATM    5  O8  UNL     1     -33.874   5.684   5.902  1.00 20.00    -0.366 OA
HETATM    6  O9  UNL     1     -34.812   4.583   4.021  1.00 20.00    -0.366 OA
ENDROOT
BRANCH   4   7
HETATM    7  C2  UNL     1     -32.802   6.736   3.256  1.00 20.00    -0.085 C 
HETATM    8  C1  UNL     1     -32.070   5.646   3.529  1.00 20.00     0.014 C 
HETATM    9  C7  UNL     1     -32.294   7.829   2.362  1.00 20.00     0.043 C 
ENDBRANCH   4   7
TORSDOF 1
