REMARK  0 active torsions:
REMARK  status: ('A' for Active; 'I' for Inactive)
ROOT
HETATM    1  C1  UNL     1     -33.555   6.048   4.222  1.00 20.00    -0.064 A 
HETATM    2  C2  UNL     1     -32.467   6.538   3.669  1.00 20.00    -0.084 C 
HETATM    3  C3  UNL     1     -34.783   3.769   6.019  1.00 20.00     0.002 C 
HETATM    4  C4  UNL     1     -34.176   5.096   6.497  1.00 20.00     0.010 C 
HETATM    5  C5  UNL     1     -34.549   3.734   4.500  1.00 20.00     0.014 C 
HETATM    6  C6  UNL     1     -34.394   6.038   5.351  1.00 20.00     0.028 A 
HETATM    7  C7  UNL     1     -34.662   5.179   4.076  1.00 20.00    -0.013 A 
HETATM    8  C8  UNL     1     -32.004   6.144   2.282  1.00 20.00     0.043 C 
HETATM    9  C9  UNL     1     -31.573   7.541   4.367  1.00 20.00     0.043 C 
HETATM   10  C10 UNL     1     -35.791   5.545   3.168  1.00 20.00     0.021 C 
ENDROOT
TORSDOF 0
