REMARK  3 active torsions:
REMARK  status: ('A' for Active; 'I' for Inactive)
REMARK    1  A    between atoms: C1_1  and  C3_3 
REMARK    2  A    between atoms: C2_2  and  C4_4 
REMARK    3  A    between atoms: C5_5  and  C6_6 
ROOT
HETATM    1  C3  UNL     1     -32.820   6.029   4.422  1.00 20.00     0.010 C 
HETATM    2  C5  UNL     1     -34.108   5.648   4.484  1.00 20.00    -0.017 C 
HETATM    3  C7  UNL     1     -35.169   5.829   3.444  1.00 20.00     0.052 C 
ENDROOT
BRANCH   1   4
HETATM    4  C1  UNL     1     -32.195   6.746   3.329  1.00 20.00     0.004 C 
HETATM    5  C2  UNL     1     -32.811   7.741   2.677  1.00 20.00     0.041 C 
BRANCH   5   6
HETATM    6  C4  UNL     1     -32.106   8.417   1.570  1.00 20.00     0.258 C 
HETATM    7  O9  UNL     1     -32.620   9.332   0.938  1.00 20.00    -0.302 OA
ENDBRANCH   5   6
ENDBRANCH   1   4
BRANCH   2   8
HETATM    8  C6  UNL     1     -34.505   4.923   5.731  1.00 20.00     0.151 C 
HETATM    9  C8  UNL     1     -35.006   5.751   6.886  1.00 20.00     0.096 C 
HETATM   10  O10 UNL     1     -34.441   3.697   5.803  1.00 20.00    -0.293 OA
ENDBRANCH   2   8
TORSDOF 3
