REMARK  1 active torsions:
REMARK  status: ('A' for Active; 'I' for Inactive)
REMARK    1  A    between atoms: C4_4  and  C9_9 
ROOT
HETATM    1  C1  UNL     1     -36.042   5.032   4.162  1.00 20.00    -0.089 C 
HETATM    2  C2  UNL     1     -37.293   4.864   3.711  1.00 20.00     0.014 C 
HETATM    3  C5  UNL     1     -35.697   4.977   5.627  1.00 20.00     0.033 C 
HETATM    4  C6  UNL     1     -34.881   5.311   3.242  1.00 20.00     0.042 C 
HETATM    5  C7  UNL     1     -34.951   6.241   6.054  1.00 20.00     0.005 C 
HETATM    6  C8  UNL     1     -33.740   6.519   5.160  1.00 20.00     0.009 C 
HETATM    7  C9  UNL     1     -34.138   6.586   3.676  1.00 20.00     0.017 C 
ENDROOT
BRANCH   7   8
HETATM    8  C4  UNL     1     -32.929   6.819   2.822  1.00 20.00    -0.089 C 
HETATM    9  C3  UNL     1     -31.917   5.940   2.770  1.00 20.00     0.014 C 
HETATM   10  C10 UNL     1     -32.916   8.092   2.028  1.00 20.00     0.043 C 
ENDBRANCH   7   8
TORSDOF 1
