REMARK  0 active torsions:
REMARK  status: ('A' for Active; 'I' for Inactive)
ROOT
HETATM    1  C1  UNL     1     -34.376   4.951   6.269  1.00 20.00     0.128 C 
HETATM    2  C2  UNL     1     -34.913   3.654   5.767  1.00 20.00     0.234 C 
HETATM    3  N3  UNL     1     -34.313   5.952   5.461  1.00 20.00    -0.203 NA
HETATM    4  O4  UNL     1     -35.079   3.846   4.373  1.00 20.00    -0.295 OA
HETATM    5  S5  UNL     1     -34.903   5.455   3.973  1.00 20.00     0.137 SA
ENDROOT
TORSDOF 0
