REMARK  1 active torsions:
REMARK  status: ('A' for Active; 'I' for Inactive)
REMARK    1  A    between atoms: C1_1  and  C8_8 
ROOT
HETATM    1  C1  UNL     1     -32.648   7.901   2.494  1.00 20.00     0.069 C 
HETATM    2  C2  UNL     1     -32.088   6.173   3.845  1.00 20.00     0.169 C 
HETATM    3  C3  UNL     1     -33.553   6.356   4.267  1.00 20.00     0.025 C 
HETATM    4  C4  UNL     1     -33.730   6.253   5.779  1.00 20.00     0.029 C 
HETATM    5  C5  UNL     1     -34.478   5.373   3.543  1.00 20.00     0.029 C 
HETATM    6  N9  UNL     1     -31.813   6.921   2.598  1.00 20.00    -0.285 NA
HETATM    7  S10 UNL     1     -33.903   8.048   3.694  1.00 20.00    -0.104 SA
ENDROOT
BRANCH   1   8
HETATM    8  C8  UNL     1     -32.620   8.891   1.380  1.00 20.00     0.036 C 
HETATM    9  C6  UNL     1     -32.446  10.308   1.924  1.00 20.00     0.016 C 
HETATM   10  C7  UNL     1     -31.513   8.559   0.378  1.00 20.00     0.016 C 
ENDBRANCH   1   8
TORSDOF 1
