REMARK  0 active torsions:
REMARK  status: ('A' for Active; 'I' for Inactive)
ROOT
HETATM    1  C1  UNL     1     -32.811   6.852   3.684  1.00 20.00     0.005 C 
HETATM    2  C2  UNL     1     -33.842   6.514   5.930  1.00 20.00     0.005 C 
HETATM    3  C3  UNL     1     -32.351   5.399   3.459  1.00 20.00     0.005 C 
HETATM    4  C4  UNL     1     -33.544   5.008   6.057  1.00 20.00     0.005 C 
HETATM    5  C5  UNL     1     -34.661   5.146   2.685  1.00 20.00     0.010 C 
HETATM    6  C6  UNL     1     -35.612   4.834   4.756  1.00 20.00     0.010 C 
HETATM    7  C7  UNL     1     -34.144   6.916   4.466  1.00 20.00    -0.010 C 
HETATM    8  C8  UNL     1     -33.554   4.439   3.485  1.00 20.00    -0.010 C 
HETATM    9  C9  UNL     1     -34.209   4.225   4.912  1.00 20.00    -0.010 C 
HETATM   10  C10 UNL     1     -35.259   5.990   3.816  1.00 20.00    -0.010 C 
ENDROOT
TORSDOF 0
