REMARK  0 active torsions:
REMARK  status: ('A' for Active; 'I' for Inactive)
ROOT
HETATM    1  C1  UNL     1     -35.423   5.489   4.174  1.00 20.00     0.177 A 
HETATM    2  C2  UNL     1     -33.991   5.402   3.787  1.00 20.00     0.218 A 
HETATM    3  O3  UNL     1     -34.257   6.511   6.266  1.00 20.00    -0.226 OA
HETATM    4  O4  UNL     1     -34.449   3.935   6.026  1.00 20.00    -0.226 OA
HETATM    5  S5  UNL     1     -34.184   5.267   5.542  1.00 20.00     0.165 S 
HETATM    6 CL6  UNL     1     -33.183   6.811   3.149  1.00 20.00    -0.107 Cl
ENDROOT
TORSDOF 0
