REMARK  2 active torsions:
REMARK  status: ('A' for Active; 'I' for Inactive)
REMARK    1  A    between atoms: C1_1  and  C2_2 
REMARK    2  A    between atoms: C1_1  and  C3_3 
ROOT
HETATM    1  C1  UNL     1     -33.479   5.626   3.666  1.00 20.00     0.348 C 
HETATM    2  F4  UNL     1     -33.982   5.254   2.450  1.00 20.00    -0.234 F 
ENDROOT
BRANCH   1   3
HETATM    3  C2  UNL     1     -33.067   7.079   3.536  1.00 20.00     0.423 C 
HETATM    4  F5  UNL     1     -32.208   7.276   2.516  1.00 20.00    -0.168 F 
HETATM    5  F6  UNL     1     -34.136   7.880   3.342  1.00 20.00    -0.168 F 
HETATM    6  F7  UNL     1     -32.447   7.490   4.666  1.00 20.00    -0.168 F 
ENDBRANCH   1   3
BRANCH   1   7
HETATM    7  C3  UNL     1     -34.553   5.350   4.719  1.00 20.00     0.294 C 
HETATM    8  F8  UNL     1     -35.636   6.133   4.460  1.00 20.00    -0.204 F 
HETATM    9 CL9  UNL     1     -33.941   5.771   6.344  1.00 20.00    -0.062 Cl
HETATM   10 CL10 UNL     1     -35.069   3.646   4.727  1.00 20.00    -0.062 Cl
ENDBRANCH   1   7
TORSDOF 2
