REMARK  2 active torsions:
REMARK  status: ('A' for Active; 'I' for Inactive)
REMARK    1  A    between atoms: C6_6  and  C8_8 
REMARK    2  A    between atoms: C7_7  and  C9_9 
ROOT
HETATM    1  C1  UNL     1     -32.406   5.715   3.635  1.00 20.00     0.005 C 
HETATM    2  C2  UNL     1     -32.575   6.874   4.647  1.00 20.00     0.005 C 
HETATM    3  C5  UNL     1     -34.560   6.757   3.428  1.00 20.00     0.010 C 
HETATM    4  C6  UNL     1     -33.849   5.405   3.204  1.00 20.00    -0.010 C 
HETATM    5  C7  UNL     1     -34.106   6.860   4.888  1.00 20.00    -0.010 C 
ENDROOT
BRANCH   4   6
HETATM    6  C8  UNL     1     -34.631   4.610   4.245  1.00 20.00    -0.006 C 
HETATM    7  C3  UNL     1     -34.714   3.434   5.253  1.00 20.00     0.006 C 
HETATM    8  C4  UNL     1     -35.433   4.525   6.166  1.00 20.00     0.006 C 
HETATM    9  C9  UNL     1     -34.381   5.487   5.536  1.00 20.00    -0.006 C 
ENDBRANCH   4   6
TORSDOF 2
