REMARK  2 active torsions:
REMARK  status: ('A' for Active; 'I' for Inactive)
REMARK    1  A    between atoms: C1_1  and  C2_2 
REMARK    2  A    between atoms: C1_1  and  C3_3 
ROOT
HETATM    1  C2  UNL     1     -33.644   6.841   3.391  1.00 20.00     0.043 A 
HETATM    2  C4  UNL     1     -33.275   5.443   3.360  1.00 20.00     0.013 A 
HETATM    3  C5  UNL     1     -33.009   6.304   4.589  1.00 20.00    -0.023 A 
HETATM    4  C8  UNL     1     -32.185   4.893   2.505  1.00 20.00     0.012 C 
HETATM    5  C9  UNL     1     -33.901   6.089   5.789  1.00 20.00     0.017 C 
HETATM    6  C10 UNL     1     -31.596   6.688   4.957  1.00 20.00     0.017 C 
ENDROOT
BRANCH   1   7
HETATM    7  C1  UNL     1     -33.143   7.760   2.629  1.00 20.00    -0.159 C 
BRANCH   7   8
HETATM    8  C3  UNL     1     -32.637   8.686   1.861  1.00 20.00     0.022 C 
HETATM    9  C6  UNL     1     -31.584   8.389   0.832  1.00 20.00     0.029 C 
HETATM   10  C7  UNL     1     -33.071  10.122   1.943  1.00 20.00     0.029 C 
ENDBRANCH   7   8
ENDBRANCH   1   7
TORSDOF 2
