REMARK  0 active torsions:
REMARK  status: ('A' for Active; 'I' for Inactive)
ROOT
HETATM    1  C1  UNL     1     -31.342   7.634   1.715  1.00 20.00     0.012 C 
HETATM    2  C2  UNL     1     -31.923   6.915   2.481  1.00 20.00    -0.113 C 
HETATM    3  C3  UNL     1     -33.056   6.813   4.673  1.00 20.00     0.020 C 
HETATM    4  C4  UNL     1     -33.643   5.879   5.733  1.00 20.00     0.041 C 
HETATM    5  C5  UNL     1     -33.859   5.409   2.738  1.00 20.00     0.052 C 
HETATM    6  C6  UNL     1     -32.635   6.033   3.421  1.00 20.00     0.067 C 
HETATM    7  C7  UNL     1     -34.737   4.672   3.701  1.00 20.00     0.158 A 
HETATM    8  C8  UNL     1     -34.666   4.922   5.191  1.00 20.00     0.084 A 
HETATM    9  C9  UNL     1     -35.193   3.888   6.134  1.00 20.00     0.049 C 
HETATM   10  O10 UNL     1     -35.680   5.523   4.380  1.00 20.00    -0.370 OA
ENDROOT
TORSDOF 0
