REMARK  0 active torsions:
REMARK  status: ('A' for Active; 'I' for Inactive)
ROOT
HETATM    1  C1  UNL     1     -35.113   3.815   5.150  1.00 20.00     0.027 C 
HETATM    2  C2  UNL     1     -34.325   4.354   6.353  1.00 20.00     0.012 C 
HETATM    3  C3  UNL     1     -34.855   4.531   3.829  1.00 20.00     0.167 C 
HETATM    4  C4  UNL     1     -34.223   6.837   3.704  1.00 20.00     0.177 C 
HETATM    5  C5  UNL     1     -34.730   5.764   6.793  1.00 20.00     0.074 C 
HETATM    6  C6  UNL     1     -33.069   6.756   4.699  1.00 20.00     0.100 C 
HETATM    7  O7  UNL     1     -35.260   5.891   3.930  1.00 20.00    -0.390 OA
HETATM    8  S8  UNL     1     -33.539   7.101   6.426  1.00 20.00    -0.167 SA
ENDROOT
TORSDOF 0
