REMARK  0 active torsions:
REMARK  status: ('A' for Active; 'I' for Inactive)
ROOT
HETATM    1  C1  UNL     1     -33.025   6.724   3.093  1.00 20.00     0.411 C 
HETATM    2  C2  UNL     1     -34.361   6.835   4.887  1.00 20.00     0.368 C 
HETATM    3  C3  UNL     1     -34.629   5.548   4.155  1.00 20.00     0.199 C 
HETATM    4  C4  UNL     1     -35.885   5.594   3.288  1.00 20.00     0.070 C 
HETATM    5  O5  UNL     1     -32.174   7.027   2.271  1.00 20.00    -0.229 OA
HETATM    6  O6  UNL     1     -33.657   7.608   3.926  1.00 20.00    -0.257 OA
HETATM    7  O7  UNL     1     -33.485   5.451   3.307  1.00 20.00    -0.265 OA
HETATM    8  F8  UNL     1     -33.512   6.645   5.929  1.00 20.00    -0.214 F 
HETATM    9 CL9  UNL     1     -34.690   4.149   5.245  1.00 20.00    -0.082 Cl
ENDROOT
TORSDOF 0
