REMARK  0 active torsions:
REMARK  status: ('A' for Active; 'I' for Inactive)
ROOT
HETATM    1  C1  UNL     1     -32.718   7.504   2.742  1.00 20.00     0.010 A 
HETATM    2  C2  UNL     1     -32.264   6.070   2.779  1.00 20.00     0.010 A 
HETATM    3  C3  UNL     1     -33.941   4.302   5.767  1.00 20.00     0.010 A 
HETATM    4  C4  UNL     1     -34.820   5.287   6.488  1.00 20.00     0.010 A 
HETATM    5  C5  UNL     1     -32.958   6.714   5.258  1.00 20.00     0.019 C 
HETATM    6  C6  UNL     1     -34.622   6.153   3.993  1.00 20.00     0.019 C 
HETATM    7  C7  UNL     1     -33.221   6.587   3.809  1.00 20.00    -0.038 A 
HETATM    8  C8  UNL     1     -34.048   5.715   5.282  1.00 20.00    -0.038 A 
ENDROOT
TORSDOF 0
