REMARK  2 active torsions:
REMARK  status: ('A' for Active; 'I' for Inactive)
REMARK    1  A    between atoms: C2_2  and  C5_5 
REMARK    2  A    between atoms: C5_5  and  C6_6 
ROOT
HETATM    1  C5  UNL     1     -32.646   6.750   3.929  1.00 20.00     0.042 C 
ENDROOT
BRANCH   1   2
HETATM    2  C2  UNL     1     -32.554   7.796   2.852  1.00 20.00    -0.030 C 
HETATM    3  C1  UNL     1     -31.757   7.694   1.778  1.00 20.00    -0.035 C 
HETATM    4  C3  UNL     1     -31.662   8.735   0.712  1.00 20.00     0.036 C 
ENDBRANCH   1   2
BRANCH   1   5
HETATM    5  C6  UNL     1     -34.057   6.175   4.080  1.00 20.00     0.057 C 
HETATM    6  C4  UNL     1     -34.504   5.443   2.823  1.00 20.00     0.022 C 
HETATM    7 BR7  UNL     1     -34.101   4.898   5.572  1.00 20.00    -0.091 Br
ENDBRANCH   1   5
TORSDOF 2
