REMARK  4 active torsions:
REMARK  status: ('A' for Active; 'I' for Inactive)
REMARK    1  A    between atoms: C2_2  and  C9_9 
REMARK    2  A    between atoms: C7_7  and  C8_8 
REMARK    3  A    between atoms: C8_8  and  C9_9 
REMARK    4  A    between atoms: C9_9  and  O11_11 
ROOT
HETATM    1  C3  UNL     1     -33.652   5.974   5.274  1.00 20.00     0.031 C 
HETATM    2  C4  UNL     1     -34.974   4.643   3.609  1.00 20.00     0.031 C 
HETATM    3  C5  UNL     1     -34.691   5.574   6.314  1.00 20.00     0.168 C 
HETATM    4  C6  UNL     1     -35.940   4.317   4.742  1.00 20.00     0.168 C 
HETATM    5  C7  UNL     1     -34.264   5.976   3.869  1.00 20.00    -0.008 C 
HETATM    6  O10 UNL     1     -35.261   4.304   5.997  1.00 20.00    -0.391 OA
ENDROOT
BRANCH   5   7
HETATM    7  C8  UNL     1     -33.204   6.252   2.806  1.00 20.00     0.040 C 
BRANCH   7   8
HETATM    8  C9  UNL     1     -32.568   7.639   2.930  1.00 20.00     0.140 C 
BRANCH   8   9
HETATM    9  C2  UNL     1     -31.971   8.125   1.641  1.00 20.00    -0.006 C 
HETATM   10  C1  UNL     1     -32.305   9.279   1.052  1.00 20.00     0.009 C 
ENDBRANCH   8   9
BRANCH   8  11
HETATM   11  O11 UNL     1     -31.511   7.567   3.887  1.00 20.00    -0.392 OA
HETATM   12  H27 UNL     1     -31.154   8.465   3.968  1.00 20.00     0.210 HD
ENDBRANCH   8  11
ENDBRANCH   7   8
ENDBRANCH   5   7
TORSDOF 4
