REMARK  3 active torsions:
REMARK  status: ('A' for Active; 'I' for Inactive)
REMARK    1  A    between atoms: C1_1  and  C7_7 
REMARK    2  A    between atoms: C2_2  and  C8_8 
REMARK    3  A    between atoms: C8_8  and  C9_9 
ROOT
HETATM    1  C1  UNL     1     -31.990   7.426   2.952  1.00 20.00     0.157 A 
HETATM    2  C2  UNL     1     -32.652   6.348   3.775  1.00 20.00     0.185 A 
HETATM    3  O10 UNL     1     -32.031   6.061   2.514  1.00 20.00    -0.372 OA
ENDROOT
BRANCH   2   4
HETATM    4  C8  UNL     1     -34.133   6.134   3.807  1.00 20.00     0.204 C 
HETATM    5  F11 UNL     1     -34.446   5.169   2.899  1.00 20.00    -0.246 F 
BRANCH   4   6
HETATM    6  C9  UNL     1     -34.676   5.728   5.186  1.00 20.00     0.014 C 
HETATM    7  C5  UNL     1     -34.005   6.493   6.330  1.00 20.00     0.012 C 
HETATM    8  C6  UNL     1     -34.482   4.224   5.400  1.00 20.00     0.012 C 
ENDBRANCH   4   6
ENDBRANCH   2   4
BRANCH   1   9
HETATM    9  C7  UNL     1     -32.747   8.378   2.096  1.00 20.00     0.009 C 
HETATM   10  C3  UNL     1     -33.296   9.570   2.905  1.00 20.00     0.012 C 
HETATM   11  C4  UNL     1     -31.891   8.913   0.931  1.00 20.00     0.012 C 
ENDBRANCH   1   9
TORSDOF 3
