REMARK  1 active torsions:
REMARK  status: ('A' for Active; 'I' for Inactive)
REMARK    1  A    between atoms: C1_1  and  C5_5 
ROOT
HETATM    1  C3  UNL     1     -34.425   5.150   2.883  1.00 20.00     0.207 C 
HETATM    2  C4  UNL     1     -35.577   6.284   4.659  1.00 20.00     0.208 C 
HETATM    3  C5  UNL     1     -33.200   5.864   3.462  1.00 20.00     0.267 C 
HETATM    4  C6  UNL     1     -34.467   5.766   5.589  1.00 20.00     0.172 C 
HETATM    5  C8  UNL     1     -34.361   6.690   6.812  1.00 20.00     0.051 C 
HETATM    6  C9  UNL     1     -34.789   4.341   6.078  1.00 20.00     0.051 C 
HETATM    7  N10 UNL     1     -33.153   5.781   4.924  1.00 20.00     0.104 N 
HETATM    8  O11 UNL     1     -35.675   5.544   3.447  1.00 20.00    -0.386 OA
HETATM    9  H28 UNL     1     -32.620   4.948   5.204  1.00 20.00     0.318 HD
ENDROOT
BRANCH   3  10
HETATM   10  C1  UNL     1     -33.088   7.283   2.983  1.00 20.00     0.006 C 
HETATM   11  C2  UNL     1     -32.472   7.641   1.847  1.00 20.00    -0.033 C 
HETATM   12  C7  UNL     1     -32.361   9.052   1.371  1.00 20.00     0.036 C 
ENDBRANCH   3  10
TORSDOF 1
