REMARK  5 active torsions:
REMARK  status: ('A' for Active; 'I' for Inactive)
REMARK    1  A    between atoms: C1_1  and  C5_5 
REMARK    2  A    between atoms: C1_1  and  S10_10 
REMARK    3  A    between atoms: C5_5  and  C8_8 
REMARK    4  A    between atoms: C6_6  and  C7_7 
REMARK    5  A    between atoms: C7_7  and  S10_10 
ROOT
HETATM    1  C1  UNL     1     -33.242   6.586   3.644  1.00 20.00     0.186 C 
HETATM    2  O9  UNL     1     -32.046   6.476   3.884  1.00 20.00    -0.286 OA
ENDROOT
BRANCH   1   3
HETATM    3  C5  UNL     1     -34.319   5.706   4.252  1.00 20.00     0.094 C 
BRANCH   3   4
HETATM    4  C8  UNL     1     -33.951   5.177   5.648  1.00 20.00    -0.015 C 
HETATM    5  C3  UNL     1     -33.725   6.347   6.609  1.00 20.00     0.010 C 
HETATM    6  C4  UNL     1     -35.042   4.257   6.203  1.00 20.00     0.010 C 
ENDBRANCH   3   4
ENDBRANCH   1   3
BRANCH   1   7
HETATM    7  S10 UNL     1     -33.886   7.843   2.581  1.00 20.00    -0.093 SA
BRANCH   7   8
HETATM    8  C7  UNL     1     -32.357   8.656   2.068  1.00 20.00     0.082 C 
BRANCH   8   9
HETATM    9  C6  UNL     1     -32.660   9.833   1.147  1.00 20.00     0.006 C 
HETATM   10  C2  UNL     1     -33.536  10.863   1.845  1.00 20.00     0.006 C 
ENDBRANCH   8   9
ENDBRANCH   7   8
ENDBRANCH   1   7
TORSDOF 5
