REMARK  0 active torsions:
REMARK  status: ('A' for Active; 'I' for Inactive)
ROOT
HETATM    1  C1  UNL     1     -34.315   4.387   3.006  1.00 20.00     0.011 A 
HETATM    2  C2  UNL     1     -33.519   5.296   2.306  1.00 20.00     0.024 A 
HETATM    3  C3  UNL     1     -33.579   6.857   4.172  1.00 20.00     0.031 A 
HETATM    4  C4  UNL     1     -34.728   4.723   4.285  1.00 20.00    -0.033 A 
HETATM    5  C5  UNL     1     -34.358   5.945   4.864  1.00 20.00    -0.049 A 
HETATM    6  C6  UNL     1     -33.154   6.522   2.884  1.00 20.00     0.034 A 
HETATM    7  C7  UNL     1     -34.952   6.091   6.230  1.00 20.00     0.041 C 
HETATM    8  C8  UNL     1     -35.302   4.629   6.555  1.00 20.00     0.030 C 
HETATM    9  C9  UNL     1     -35.599   3.935   5.214  1.00 20.00     0.116 C 
HETATM   10 CL10 UNL     1     -32.178   7.627   1.993  1.00 20.00    -0.084 Cl
HETATM   11 CL11 UNL     1     -37.306   4.114   4.755  1.00 20.00    -0.120 Cl
ENDROOT
TORSDOF 0
