REMARK  0 active torsions:
REMARK  status: ('A' for Active; 'I' for Inactive)
ROOT
HETATM    1  C1  UNL     1     -34.525   4.712   3.704  1.00 20.00     0.141 C 
HETATM    2  C2  UNL     1     -35.352   3.797   4.585  1.00 20.00     0.079 C 
HETATM    3  C3  UNL     1     -35.128   4.104   6.060  1.00 20.00     0.008 C 
HETATM    4  C4  UNL     1     -33.640   4.173   6.422  1.00 20.00     0.017 C 
HETATM    5  C5  UNL     1     -32.598   7.462   3.360  1.00 20.00     0.085 C 
HETATM    6  C6  UNL     1     -32.262   7.775   4.806  1.00 20.00     0.084 C 
HETATM    7  C7  UNL     1     -33.045   4.784   4.058  1.00 20.00     0.130 C 
HETATM    8  C8  UNL     1     -32.840   5.148   5.535  1.00 20.00     0.068 C 
HETATM    9  O9  UNL     1     -35.030   5.268   2.730  1.00 20.00    -0.297 OA
HETATM   10  S10 UNL     1     -32.093   5.787   2.875  1.00 20.00    -0.155 SA
HETATM   11  S11 UNL     1     -33.322   6.867   5.962  1.00 20.00    -0.162 SA
ENDROOT
TORSDOF 0
