REMARK  1 active torsions:
REMARK  status: ('A' for Active; 'I' for Inactive)
REMARK    1  A    between atoms: C7_7  and  O10_10 
ROOT
HETATM    1  C1  UNL     1     -32.964   6.596   2.598  1.00 20.00     0.013 C 
HETATM    2  C2  UNL     1     -33.699   6.120   3.419  1.00 20.00    -0.102 C 
HETATM    3  C3  UNL     1     -34.333   5.648   5.868  1.00 20.00    -0.040 C 
HETATM    4  C4  UNL     1     -34.290   6.770   6.598  1.00 20.00     0.019 C 
HETATM    5  C5  UNL     1     -35.031   3.372   5.491  1.00 20.00     0.043 C 
HETATM    6  C6  UNL     1     -36.001   5.255   3.962  1.00 20.00     0.034 A 
HETATM    7  C7  UNL     1     -34.237   4.262   6.462  1.00 20.00     0.148 C 
HETATM    8  C8  UNL     1     -35.044   4.118   4.182  1.00 20.00     0.015 A 
HETATM    9  C9  UNL     1     -34.582   5.548   4.404  1.00 20.00     0.052 A 
ENDROOT
BRANCH   7  10
HETATM   10  O10 UNL     1     -32.869   3.867   6.466  1.00 20.00    -0.391 OA
HETATM   11  H20 UNL     1     -32.838   2.977   6.852  1.00 20.00     0.210 HD
ENDBRANCH   7  10
TORSDOF 1
