REMARK  2 active torsions:
REMARK  status: ('A' for Active; 'I' for Inactive)
REMARK    1  A    between atoms: C1_1  and  C2_2 
REMARK    2  A    between atoms: C1_1  and  C3_3 
ROOT
HETATM    1  C2  UNL     1     -33.121   6.481   3.262  1.00 20.00     0.043 A 
HETATM    2  C4  UNL     1     -34.119   6.560   4.306  1.00 20.00     0.013 A 
HETATM    3  C5  UNL     1     -34.307   5.644   3.104  1.00 20.00    -0.023 A 
HETATM    4  C8  UNL     1     -33.818   6.045   5.671  1.00 20.00     0.012 C 
HETATM    5  C9  UNL     1     -34.108   4.155   3.247  1.00 20.00     0.017 C 
HETATM    6  C10 UNL     1     -35.392   6.014   2.121  1.00 20.00     0.017 C 
ENDROOT
BRANCH   1   7
HETATM    7  C1  UNL     1     -32.826   7.488   2.502  1.00 20.00    -0.159 C 
BRANCH   7   8
HETATM    8  C3  UNL     1     -32.528   8.502   1.737  1.00 20.00     0.022 C 
HETATM    9  C6  UNL     1     -33.199   9.839   1.878  1.00 20.00     0.029 C 
HETATM   10  C7  UNL     1     -31.487   8.414   0.657  1.00 20.00     0.029 C 
ENDBRANCH   7   8
ENDBRANCH   1   7
TORSDOF 2
