REMARK  2 active torsions:
REMARK  status: ('A' for Active; 'I' for Inactive)
REMARK    1  A    between atoms: C4_4  and  C8_8 
REMARK    2  A    between atoms: C9_9  and  O11_11 
ROOT
HETATM    1  C1  UNL     1     -33.574   6.630   5.678  1.00 20.00    -0.079 C 
HETATM    2  C2  UNL     1     -33.409   7.870   6.167  1.00 20.00     0.015 C 
HETATM    3  C5  UNL     1     -34.129   5.533   6.557  1.00 20.00     0.065 C 
HETATM    4  C6  UNL     1     -34.550   5.573   3.634  1.00 20.00     0.016 C 
HETATM    5  C7  UNL     1     -35.131   4.456   4.501  1.00 20.00     0.033 C 
HETATM    6  C8  UNL     1     -33.276   6.179   4.254  1.00 20.00     0.041 C 
HETATM    7  C9  UNL     1     -35.386   4.924   5.935  1.00 20.00     0.122 C 
ENDROOT
BRANCH   6   8
HETATM    8  C4  UNL     1     -32.708   7.235   3.351  1.00 20.00    -0.085 C 
HETATM    9  C3  UNL     1     -33.491   8.014   2.590  1.00 20.00     0.014 C 
HETATM   10  C10 UNL     1     -31.214   7.369   3.349  1.00 20.00     0.043 C 
ENDBRANCH   6   8
BRANCH   7  11
HETATM   11  O11 UNL     1     -35.795   3.816   6.731  1.00 20.00    -0.395 OA
HETATM   12  H27 UNL     1     -36.591   3.452   6.312  1.00 20.00     0.210 HD
ENDBRANCH   7  11
TORSDOF 2
