REMARK  0 active torsions:
REMARK  status: ('A' for Active; 'I' for Inactive)
ROOT
HETATM    1  C1  UNL     1     -35.542   4.520   4.008  1.00 20.00     0.004 A 
HETATM    2  C2  UNL     1     -35.567   5.009   5.326  1.00 20.00     0.034 A 
HETATM    3  C3  UNL     1     -34.522   4.871   3.115  1.00 20.00     0.021 A 
HETATM    4  C4  UNL     1     -33.171   7.162   6.768  1.00 20.00     0.210 A 
HETATM    5  C5  UNL     1     -34.532   5.864   5.736  1.00 20.00     0.086 A 
HETATM    6  C6  UNL     1     -33.542   6.185   4.822  1.00 20.00     0.081 A 
HETATM    7  C7  UNL     1     -33.493   5.731   3.507  1.00 20.00     0.029 A 
HETATM    8  C8  UNL     1     -31.487   7.553   4.911  1.00 20.00     0.140 C 
HETATM    9  C9  UNL     1     -31.633   7.763   3.399  1.00 20.00     0.100 C 
HETATM   10  N10 UNL     1     -34.288   6.484   6.943  1.00 20.00    -0.242 NA
HETATM   11  N11 UNL     1     -32.689   7.006   5.506  1.00 20.00    -0.338 N 
HETATM   12  S12 UNL     1     -32.143   6.243   2.489  1.00 20.00    -0.126 SA
ENDROOT
TORSDOF 0
