REMARK  0 active torsions:
REMARK  status: ('A' for Active; 'I' for Inactive)
ROOT
HETATM    1  C1  UNL     1     -33.756   7.104   5.138  1.00 20.00     0.175 C 
HETATM    2  C2  UNL     1     -35.256   5.376   3.541  1.00 20.00     0.175 C 
HETATM    3  C3  UNL     1     -33.741   4.361   5.653  1.00 20.00     0.175 C 
HETATM    4  C4  UNL     1     -32.470   5.361   3.379  1.00 20.00     0.175 C 
HETATM    5  S5  UNL     1     -35.328   7.048   4.237  1.00 20.00    -0.117 SA
HETATM    6  S6  UNL     1     -33.681   5.946   6.531  1.00 20.00    -0.117 SA
HETATM    7  S7  UNL     1     -35.311   4.068   4.796  1.00 20.00    -0.117 SA
HETATM    8  S8  UNL     1     -32.301   7.033   4.060  1.00 20.00    -0.117 SA
HETATM    9  S9  UNL     1     -33.930   5.155   2.325  1.00 20.00    -0.117 SA
HETATM   10  S10 UNL     1     -32.284   4.053   4.620  1.00 20.00    -0.117 SA
ENDROOT
TORSDOF 0
