REMARK  1 active torsions:
REMARK  status: ('A' for Active; 'I' for Inactive)
REMARK    1  A    between atoms: C4_4  and  O11_11 
ROOT
HETATM    1  C1  UNL     1     -34.038   4.505   6.422  1.00 20.00    -0.021 C 
HETATM    2  C2  UNL     1     -34.282   3.428   5.656  1.00 20.00    -0.025 C 
HETATM    3  C3  UNL     1     -33.406   5.821   4.452  1.00 20.00    -0.043 C 
HETATM    4  C4  UNL     1     -32.511   6.790   4.245  1.00 20.00     0.045 C 
HETATM    5  C5  UNL     1     -33.662   4.618   3.551  1.00 20.00     0.046 C 
HETATM    6  C6  UNL     1     -35.593   5.151   4.839  1.00 20.00     0.022 C 
HETATM    7  C7  UNL     1     -34.393   5.725   5.602  1.00 20.00     0.040 C 
HETATM    8  C8  UNL     1     -34.813   3.933   4.328  1.00 20.00     0.013 C 
HETATM    9  C9  UNL     1     -32.310   7.947   5.172  1.00 20.00     0.076 C 
ENDROOT
BRANCH   4  10
HETATM   10  O11 UNL     1     -31.705   6.765   3.122  1.00 20.00    -0.360 OA
HETATM   11  C10 UNL     1     -32.282   7.437   2.030  1.00 20.00     0.209 C 
ENDBRANCH   4  10
TORSDOF 1
