REMARK  2 active torsions:
REMARK  status: ('A' for Active; 'I' for Inactive)
REMARK    1  A    between atoms: C7_7  and  C9_9 
REMARK    2  A    between atoms: C8_8  and  C10_10 
ROOT
HETATM    1  C1  UNL     1     -35.908   5.538   4.132  1.00 20.00     0.005 C 
HETATM    2  C2  UNL     1     -35.512   6.891   4.786  1.00 20.00     0.005 C 
HETATM    3  C3  UNL     1     -34.253   4.221   5.435  1.00 20.00     0.005 C 
HETATM    4  C4  UNL     1     -34.270   5.450   6.385  1.00 20.00     0.005 C 
HETATM    5  C7  UNL     1     -34.637   4.650   4.003  1.00 20.00    -0.010 C 
HETATM    6  C8  UNL     1     -34.168   6.747   5.532  1.00 20.00    -0.010 C 
ENDROOT
BRANCH   5   7
HETATM    7  C9  UNL     1     -33.594   5.595   3.391  1.00 20.00    -0.006 C 
HETATM    8  C5  UNL     1     -32.139   5.637   2.846  1.00 20.00     0.006 C 
HETATM    9  C6  UNL     1     -32.143   7.108   3.453  1.00 20.00     0.006 C 
HETATM   10  C10 UNL     1     -33.009   6.459   4.568  1.00 20.00    -0.006 C 
ENDBRANCH   5   7
TORSDOF 2
