REMARK  0 active torsions:
REMARK  status: ('A' for Active; 'I' for Inactive)
ROOT
HETATM    1  C1  UNL     1     -33.582   6.314   6.161  1.00 20.00     0.023 C 
HETATM    2  C2  UNL     1     -32.009   6.704   2.907  1.00 20.00     0.017 A 
HETATM    3  C3  UNL     1     -34.215   5.491   2.738  1.00 20.00     0.012 C 
HETATM    4  C4  UNL     1     -34.447   5.323   6.838  1.00 20.00     0.110 C 
HETATM    5  C5  UNL     1     -32.894   6.963   3.846  1.00 20.00     0.010 A 
HETATM    6  C6  UNL     1     -33.351   6.492   2.481  1.00 20.00    -0.008 A 
HETATM    7  C7  UNL     1     -33.459   6.090   4.853  1.00 20.00    -0.061 C 
HETATM    8  C8  UNL     1     -35.502   4.729   4.827  1.00 20.00     0.158 C 
HETATM    9  C9  UNL     1     -34.157   4.972   4.144  1.00 20.00     0.040 C 
HETATM   10  N10 UNL     1     -35.334   4.564   6.286  1.00 20.00    -0.301 NA
ENDROOT
TORSDOF 0
