REMARK  0 active torsions:
REMARK  status: ('A' for Active; 'I' for Inactive)
ROOT
HETATM    1  C1  UNL     1     -35.027   5.983   3.541  1.00 20.00     0.036 A 
HETATM    2  C2  UNL     1     -34.211   5.732   4.790  1.00 20.00    -0.025 A 
HETATM    3  C3  UNL     1     -33.520   5.939   3.434  1.00 20.00     0.041 A 
HETATM    4  C4  UNL     1     -34.247   4.349   5.395  1.00 20.00     0.016 C 
HETATM    5  C5  UNL     1     -34.173   6.826   5.831  1.00 20.00     0.016 C 
HETATM    6  C6  UNL     1     -32.883   4.790   2.703  1.00 20.00     0.033 C 
HETATM    7 CL7  UNL     1     -32.694   7.491   3.130  1.00 20.00    -0.119 Cl
ENDROOT
TORSDOF 0
