REMARK  2 active torsions:
REMARK  status: ('A' for Active; 'I' for Inactive)
REMARK    1  A    between atoms: C7_7  and  C9_9 
REMARK    2  A    between atoms: C8_8  and  C10_10 
ROOT
HETATM    1  C1  UNL     1     -31.671   8.021   1.865  1.00 20.00     0.012 C 
HETATM    2  C2  UNL     1     -32.181   7.216   2.595  1.00 20.00    -0.112 C 
HETATM    3  C6  UNL     1     -32.790   6.254   3.468  1.00 20.00     0.074 A 
HETATM    4  C9  UNL     1     -34.080   5.603   3.019  1.00 20.00     0.015 A 
HETATM    5  C10 UNL     1     -34.092   6.629   4.142  1.00 20.00     0.015 A 
ENDROOT
BRANCH   4   6
HETATM    6  C7  UNL     1     -34.727   4.366   3.659  1.00 20.00     0.014 C 
HETATM    7  C3  UNL     1     -33.895   3.797   4.792  1.00 20.00    -0.025 C 
HETATM    8  C4  UNL     1     -33.906   4.704   5.784  1.00 20.00    -0.025 C 
HETATM    9  C8  UNL     1     -34.745   5.874   5.309  1.00 20.00     0.014 C 
HETATM   10  C5  UNL     1     -35.799   5.053   4.534  1.00 20.00     0.018 C 
ENDBRANCH   4   6
TORSDOF 2
