REMARK  0 active torsions:
REMARK  status: ('A' for Active; 'I' for Inactive)
ROOT
HETATM    1  C1  UNL     1     -35.162   4.389   5.995  1.00 20.00     0.080 A 
HETATM    2  C2  UNL     1     -34.967   5.855   6.220  1.00 20.00     0.207 A 
HETATM    3  C3  UNL     1     -35.428   5.368   4.877  1.00 20.00     0.128 A 
HETATM    4  F4  UNL     1     -33.665   6.308   6.347  1.00 20.00    -0.246 F 
HETATM    5 CL5  UNL     1     -34.293   5.412   3.533  1.00 20.00    -0.103 Cl
HETATM    6 BR6  UNL     1     -37.250   5.692   4.389  1.00 20.00    -0.065 Br
ENDROOT
TORSDOF 0
