REMARK  4 active torsions:
REMARK  status: ('A' for Active; 'I' for Inactive)
REMARK    1  A    between atoms: C1_1  and  O8_8 
REMARK    2  A    between atoms: C5_5  and  C6_6 
REMARK    3  A    between atoms: C6_6  and  C7_7 
REMARK    4  A    between atoms: C7_7  and  O8_8 
ROOT
HETATM    1  C4  UNL     1     -32.763   5.589   2.816  1.00 20.00     0.040 C 
HETATM    2  C7  UNL     1     -33.012   6.956   3.439  1.00 20.00     0.125 C 
ENDROOT
BRANCH   2   3
HETATM    3  C6  UNL     1     -33.356   8.004   2.375  1.00 20.00     0.032 C 
BRANCH   3   4
HETATM    4  C5  UNL     1     -32.112   8.505   1.637  1.00 20.00    -0.002 C 
HETATM    5  C3  UNL     1     -32.475   9.512   0.557  1.00 20.00     0.005 C 
ENDBRANCH   3   4
ENDBRANCH   2   3
BRANCH   2   6
HETATM    6  O8  UNL     1     -34.079   6.844   4.378  1.00 20.00    -0.340 OA
BRANCH   6   7
HETATM    7  C1  UNL     1     -33.876   6.316   5.606  1.00 20.00     0.109 C 
HETATM    8  C2  UNL     1     -33.484   7.213   6.736  1.00 20.00     0.089 C 
HETATM    9  S9  UNL     1     -34.083   4.670   5.764  1.00 20.00    -0.058 SA
ENDBRANCH   6   7
ENDBRANCH   2   6
TORSDOF 4
