REMARK  0 active torsions:
REMARK  status: ('A' for Active; 'I' for Inactive)
ROOT
HETATM    1  C1  UNL     1     -33.290   6.883   3.224  1.00 20.00     0.141 C 
HETATM    2  C2  UNL     1     -31.953   7.310   3.779  1.00 20.00     0.079 C 
HETATM    3  C3  UNL     1     -32.114   7.873   5.183  1.00 20.00     0.008 C 
HETATM    4  C4  UNL     1     -33.128   7.119   6.051  1.00 20.00     0.017 C 
HETATM    5  C5  UNL     1     -34.579   3.170   4.481  1.00 20.00     0.085 C 
HETATM    6  C6  UNL     1     -35.509   3.763   5.525  1.00 20.00     0.084 C 
HETATM    7  C7  UNL     1     -34.109   5.911   4.065  1.00 20.00     0.130 C 
HETATM    8  C8  UNL     1     -33.512   5.752   5.469  1.00 20.00     0.068 C 
HETATM    9  O9  UNL     1     -33.672   7.269   2.118  1.00 20.00    -0.297 OA
HETATM   10  S10 UNL     1     -34.160   4.332   3.143  1.00 20.00    -0.155 SA
HETATM   11  S11 UNL     1     -34.688   4.955   6.631  1.00 20.00    -0.162 SA
ENDROOT
TORSDOF 0
