REMARK  4 active torsions:
REMARK  status: ('A' for Active; 'I' for Inactive)
REMARK    1  A    between atoms: C3_3  and  C5_5 
REMARK    2  A    between atoms: C5_5  and  N8_8 
REMARK    3  A    between atoms: C6_6  and  C7_7 
REMARK    4  A    between atoms: C6_6  and  N8_8 
ROOT
HETATM    1  N8  UNL     1     -32.638   6.814   4.045  1.00 20.00     0.089 N 
HETATM    2  H23 UNL     1     -32.107   6.572   4.889  1.00 20.00     0.316 HD
ENDROOT
BRANCH   1   3
HETATM    3  C5  UNL     1     -31.749   6.963   2.925  1.00 20.00     0.274 C 
BRANCH   3   4
HETATM    4  C3  UNL     1     -32.383   7.758   1.837  1.00 20.00     0.018 A 
HETATM    5  C1  UNL     1     -32.433   9.261   1.927  1.00 20.00     0.011 A 
HETATM    6  C2  UNL     1     -31.532   8.597   0.919  1.00 20.00    -0.013 A 
HETATM    7  C4  UNL     1     -31.850   8.673  -0.534  1.00 20.00     0.010 C 
ENDBRANCH   3   4
ENDBRANCH   1   3
BRANCH   1   8
HETATM    8  C6  UNL     1     -33.631   5.765   3.810  1.00 20.00     0.340 C 
BRANCH   8   9
HETATM    9  C7  UNL     1     -34.562   5.638   4.997  1.00 20.00     0.381 C 
HETATM   10  F9  UNL     1     -33.861   5.272   6.099  1.00 20.00    -0.213 F 
HETATM   11  F10 UNL     1     -35.453   4.641   4.759  1.00 20.00    -0.213 F 
ENDBRANCH   8   9
ENDBRANCH   1   8
TORSDOF 4
