REMARK  2 active torsions:
REMARK  status: ('A' for Active; 'I' for Inactive)
REMARK    1  A    between atoms: C5_5  and  C7_7 
REMARK    2  A    between atoms: C6_6  and  C7_7 
ROOT
HETATM    1  C1  UNL     1     -34.816   4.890   3.298  1.00 20.00     0.033 C 
HETATM    2  C2  UNL     1     -35.471   4.730   4.655  1.00 20.00     0.168 C 
HETATM    3  C3  UNL     1     -33.472   5.894   4.937  1.00 20.00     0.172 C 
HETATM    4  C5  UNL     1     -33.957   6.116   3.515  1.00 20.00     0.014 C 
HETATM    5  O8  UNL     1     -34.535   5.218   5.627  1.00 20.00    -0.391 OA
ENDROOT
BRANCH   4   6
HETATM    6  C7  UNL     1     -32.836   6.276   2.506  1.00 20.00     0.041 C 
BRANCH   6   7
HETATM    7  C6  UNL     1     -32.036   7.519   2.746  1.00 20.00     0.145 A 
HETATM    8  C4  UNL     1     -32.494   8.852   2.222  1.00 20.00     0.200 A 
HETATM    9  O9  UNL     1     -31.464   8.095   1.567  1.00 20.00    -0.381 OA
ENDBRANCH   6   7
ENDBRANCH   4   6
TORSDOF 2
