REMARK  1 active torsions:
REMARK  status: ('A' for Active; 'I' for Inactive)
REMARK    1  A    between atoms: C4_4  and  C8_8 
ROOT
HETATM    1  C1  UNL     1     -34.536   5.080   5.258  1.00 20.00     0.137 C 
HETATM    2  C2  UNL     1     -33.534   6.204   5.176  1.00 20.00     0.095 C 
HETATM    3  C3  UNL     1     -35.023   4.560   3.931  1.00 20.00     0.152 C 
HETATM    4  C4  UNL     1     -32.815   6.050   3.842  1.00 20.00     0.062 C 
HETATM    5  O9  UNL     1     -34.964   4.653   6.327  1.00 20.00    -0.297 OA
HETATM    6  S10 UNL     1     -34.107   5.505   2.690  1.00 20.00    -0.156 SA
ENDROOT
BRANCH   4   7
HETATM    7  C8  UNL     1     -32.164   7.340   3.375  1.00 20.00    -0.038 C 
HETATM    8  C5  UNL     1     -31.508   7.115   2.005  1.00 20.00     0.015 C 
HETATM    9  C6  UNL     1     -31.094   7.771   4.389  1.00 20.00     0.015 C 
HETATM   10  C7  UNL     1     -33.230   8.439   3.258  1.00 20.00     0.015 C 
ENDBRANCH   4   7
TORSDOF 1
