REMARK  1 active torsions:
REMARK  status: ('A' for Active; 'I' for Inactive)
REMARK    1  A    between atoms: C2_2  and  C6_6 
ROOT
HETATM    1  C1  UNL     1     -33.553   8.401   2.396  1.00 20.00     0.011 C 
HETATM    2  C2  UNL     1     -32.594   7.461   2.434  1.00 20.00     0.026 C 
HETATM    3  C3  UNL     1     -33.420   9.646   1.571  1.00 20.00     0.195 C 
HETATM    4  C4  UNL     1     -31.348   7.616   1.603  1.00 20.00     0.069 C 
HETATM    5  C5  UNL     1     -31.520   8.690   0.531  1.00 20.00     0.172 C 
HETATM    6  O7  UNL     1     -32.081   9.865   1.113  1.00 20.00    -0.387 OA
ENDROOT
BRANCH   2   7
HETATM    7  C6  UNL     1     -32.697   6.232   3.283  1.00 20.00     0.413 C 
HETATM    8  F8  UNL     1     -31.604   5.454   3.141  1.00 20.00    -0.166 F 
HETATM    9  F9  UNL     1     -32.809   6.552   4.588  1.00 20.00    -0.166 F 
HETATM   10  F10 UNL     1     -33.775   5.495   2.945  1.00 20.00    -0.166 F 
ENDBRANCH   2   7
TORSDOF 1
