REMARK  1 active torsions:
REMARK  status: ('A' for Active; 'I' for Inactive)
REMARK    1  A    between atoms: C2_2  and  C4_4 
ROOT
HETATM    1  C1  UNL     1     -35.853   5.236   4.259  1.00 20.00     0.092 A 
HETATM    2  C2  UNL     1     -34.558   4.624   4.745  1.00 20.00     0.092 A 
HETATM    3  C3  UNL     1     -34.554   5.635   3.655  1.00 20.00     0.250 A 
HETATM    4  F5  UNL     1     -34.246   5.270   2.364  1.00 20.00    -0.206 F 
HETATM    5  F6  UNL     1     -34.052   6.900   3.856  1.00 20.00    -0.206 F 
ENDROOT
BRANCH   2   6
HETATM    6  C4  UNL     1     -34.026   4.968   6.092  1.00 20.00     0.232 C 
HETATM    7  F7  UNL     1     -34.192   6.304   6.324  1.00 20.00    -0.255 F 
ENDBRANCH   2   6
TORSDOF 1
