REMARK  0 active torsions:
REMARK  status: ('A' for Active; 'I' for Inactive)
ROOT
HETATM    1  C1  UNL     1     -34.369   4.681   5.016  1.00 20.00     0.221 C 
HETATM    2  C2  UNL     1     -34.242   7.075   3.983  1.00 20.00     0.020 C 
HETATM    3  C3  UNL     1     -33.855   5.529   2.601  1.00 20.00     0.020 C 
HETATM    4  C4  UNL     1     -36.255   5.496   3.576  1.00 20.00     0.127 C 
HETATM    5  C5  UNL     1     -33.554   5.679   4.128  1.00 20.00     0.078 C 
HETATM    6  C6  UNL     1     -35.142   6.338   2.946  1.00 20.00     0.005 C 
HETATM    7  N7  UNL     1     -35.710   4.670   4.653  1.00 20.00    -0.360 N 
HETATM    8  O8  UNL     1     -33.912   3.985   5.923  1.00 20.00    -0.273 OA
HETATM    9  H17 UNL     1     -36.343   4.059   5.160  1.00 20.00     0.162 HD
ENDROOT
TORSDOF 0
