REMARK  0 active torsions:
REMARK  status: ('A' for Active; 'I' for Inactive)
ROOT
HETATM    1  C1  UNL     1     -34.796   4.491   4.483  1.00 20.00     0.102 C 
HETATM    2  C2  UNL     1     -33.346   5.682   2.917  1.00 20.00     0.050 A 
HETATM    3  C3  UNL     1     -32.050   7.585   3.652  1.00 20.00     0.069 A 
HETATM    4  C4  UNL     1     -33.866   5.540   4.204  1.00 20.00     0.087 A 
HETATM    5  C5  UNL     1     -32.570   7.442   4.938  1.00 20.00     0.158 A 
HETATM    6  C6  UNL     1     -33.478   6.420   5.214  1.00 20.00     0.175 A 
HETATM    7  C7  UNL     1     -32.438   6.705   2.641  1.00 20.00     0.038 A 
HETATM    8  N8  UNL     1     -35.551   3.639   4.709  1.00 20.00    -0.191 NA
HETATM    9  F9  UNL     1     -32.197   8.287   5.908  1.00 20.00    -0.203 F 
HETATM   10  F10 UNL     1     -33.969   6.295   6.456  1.00 20.00    -0.201 F 
HETATM   11 CL11 UNL     1     -31.797   6.881   1.054  1.00 20.00    -0.084 Cl
ENDROOT
TORSDOF 0
