REMARK  1 active torsions:
REMARK  status: ('A' for Active; 'I' for Inactive)
REMARK    1  A    between atoms: C2_2  and  C6_6 
ROOT
HETATM    1  C1  UNL     1     -33.851   6.019   4.511  1.00 20.00     0.139 C 
HETATM    2  C4  UNL     1     -34.942   5.206   3.801  1.00 20.00     0.081 C 
HETATM    3  C5  UNL     1     -34.203   5.475   2.473  1.00 20.00     0.028 C 
HETATM    4  C6  UNL     1     -33.005   6.149   3.217  1.00 20.00     0.035 C 
HETATM    5  C8  UNL     1     -31.716   5.340   3.233  1.00 20.00     0.027 C 
HETATM    6  O9  UNL     1     -33.711   6.399   5.656  1.00 20.00    -0.297 OA
ENDROOT
BRANCH   4   7
HETATM    7  C2  UNL     1     -32.799   7.576   2.868  1.00 20.00    -0.014 C 
HETATM    8  C3  UNL     1     -32.650   8.023   1.613  1.00 20.00    -0.034 C 
HETATM    9  C7  UNL     1     -32.444   9.460   1.263  1.00 20.00     0.036 C 
ENDBRANCH   4   7
TORSDOF 1
