REMARK  2 active torsions:
REMARK  status: ('A' for Active; 'I' for Inactive)
REMARK    1  A    between atoms: C1_1  and  C3_3 
REMARK    2  A    between atoms: C2_2  and  C4_4 
ROOT
HETATM    1  C4  UNL     1     -33.471   6.274   4.273  1.00 20.00     0.097 C 
HETATM    2  C5  UNL     1     -34.143   6.498   5.655  1.00 20.00     0.074 C 
HETATM    3  C6  UNL     1     -34.526   5.162   4.024  1.00 20.00     0.315 C 
HETATM    4  C7  UNL     1     -34.644   5.031   5.569  1.00 20.00     0.312 C 
HETATM    5  C8  UNL     1     -33.217   6.826   6.810  1.00 20.00     0.017 C 
HETATM    6  F10 UNL     1     -35.664   5.544   3.399  1.00 20.00    -0.199 F 
HETATM    7  F11 UNL     1     -34.076   4.063   3.380  1.00 20.00    -0.199 F 
HETATM    8  F12 UNL     1     -35.889   4.809   6.042  1.00 20.00    -0.199 F 
HETATM    9  F13 UNL     1     -33.839   4.096   6.126  1.00 20.00    -0.199 F 
ENDROOT
BRANCH   1  10
HETATM   10  C2  UNL     1     -33.520   7.418   3.345  1.00 20.00    -0.012 C 
HETATM   11  C1  UNL     1     -32.450   7.878   2.686  1.00 20.00     0.038 C 
BRANCH  11  12
HETATM   12  C3  UNL     1     -32.604   9.032   1.779  1.00 20.00     0.258 C 
HETATM   13  O9  UNL     1     -33.686   9.582   1.609  1.00 20.00    -0.302 OA
ENDBRANCH  11  12
ENDBRANCH   1  10
TORSDOF 2
