REMARK  1 active torsions:
REMARK  status: ('A' for Active; 'I' for Inactive)
REMARK    1  A    between atoms: C5_5  and  C6_6 
ROOT
HETATM    1  C1  UNL     1     -35.120   5.009   4.523  1.00 20.00     0.078 C 
HETATM    2  C2  UNL     1     -34.855   5.112   3.217  1.00 20.00    -0.018 C 
HETATM    3  C3  UNL     1     -34.160   5.510   5.523  1.00 20.00     0.283 C 
HETATM    4  C4  UNL     1     -33.635   5.806   2.715  1.00 20.00     0.061 C 
HETATM    5  C5  UNL     1     -33.203   6.847   3.740  1.00 20.00     0.149 C 
HETATM    6  O7  UNL     1     -34.284   5.227   6.710  1.00 20.00    -0.260 OA
HETATM    7  O8  UNL     1     -33.124   6.259   5.057  1.00 20.00    -0.311 OA
ENDROOT
BRANCH   5   8
HETATM    8  C6  UNL     1     -31.837   7.427   3.404  1.00 20.00     0.147 C 
HETATM    9 CL9  UNL     1     -31.873   8.198   1.807  1.00 20.00    -0.128 Cl
ENDBRANCH   5   8
TORSDOF 1
