REMARK  1 active torsions:
REMARK  status: ('A' for Active; 'I' for Inactive)
REMARK    1  A    between atoms: C7_7  and  C8_8 
ROOT
HETATM    1  C4  UNL     1     -33.668   6.771   5.949  1.00 20.00     0.038 C 
HETATM    2  C5  UNL     1     -34.752   6.101   6.786  1.00 20.00     0.270 C 
HETATM    3  C6  UNL     1     -34.173   4.131   5.430  1.00 20.00     0.307 C 
HETATM    4  C8  UNL     1     -33.845   6.458   4.456  1.00 20.00     0.027 C 
HETATM    5  C9  UNL     1     -34.407   5.048   4.234  1.00 20.00     0.202 C 
HETATM    6  N10 UNL     1     -34.764   4.643   6.668  1.00 20.00     0.086 N 
HETATM    7  F11 UNL     1     -35.756   5.152   4.041  1.00 20.00    -0.247 F 
HETATM    8  H27 UNL     1     -34.248   4.244   7.468  1.00 20.00     0.315 HD
ENDROOT
BRANCH   4   9
HETATM    9  C7  UNL     1     -32.503   6.618   3.739  1.00 20.00    -0.008 C 
HETATM   10  C2  UNL     1     -31.837   8.013   3.847  1.00 20.00     0.005 C 
HETATM   11  C1  UNL     1     -32.478   8.365   2.491  1.00 20.00     0.001 C 
HETATM   12  C3  UNL     1     -32.573   6.853   2.210  1.00 20.00     0.005 C 
ENDBRANCH   4   9
TORSDOF 1
