REMARK  5 active torsions:
REMARK  status: ('A' for Active; 'I' for Inactive)
REMARK    1  A    between atoms: C3_3  and  C7_7 
REMARK    2  A    between atoms: C4_4  and  C8_8 
REMARK    3  A    between atoms: C7_7  and  C9_9 
REMARK    4  A    between atoms: C8_8  and  C10_10 
REMARK    5  A    between atoms: C9_9  and  C10_10 
ROOT
HETATM    1  C9  UNL     1     -31.859   5.899   3.404  1.00 20.00     0.004 C 
ENDROOT
BRANCH   1   2
HETATM    2  C7  UNL     1     -31.551   7.394   3.296  1.00 20.00     0.026 C 
BRANCH   2   3
HETATM    3  C3  UNL     1     -31.699   7.879   1.884  1.00 20.00    -0.031 C 
HETATM    4  C1  UNL     1     -32.547   8.850   1.513  1.00 20.00    -0.035 C 
HETATM    5  C5  UNL     1     -32.698   9.329   0.108  1.00 20.00     0.035 C 
ENDBRANCH   2   3
ENDBRANCH   1   2
BRANCH   1   6
HETATM    6  C10 UNL     1     -33.279   5.588   2.925  1.00 20.00     0.004 C 
BRANCH   6   7
HETATM    7  C8  UNL     1     -34.323   6.305   3.783  1.00 20.00     0.026 C 
BRANCH   7   8
HETATM    8  C4  UNL     1     -34.206   5.912   5.227  1.00 20.00    -0.031 C 
HETATM    9  C2  UNL     1     -34.829   4.854   5.764  1.00 20.00    -0.035 C 
HETATM   10  C6  UNL     1     -35.718   3.933   4.995  1.00 20.00     0.035 C 
ENDBRANCH   7   8
ENDBRANCH   6   7
ENDBRANCH   1   6
TORSDOF 5
