REMARK  0 active torsions:
REMARK  status: ('A' for Active; 'I' for Inactive)
ROOT
HETATM    1  C1  UNL     1     -32.704   6.942   3.918  1.00 20.00     0.088 C 
HETATM    2  C2  UNL     1     -35.106   5.414   6.394  1.00 20.00     0.001 C 
HETATM    3  C3  UNL     1     -33.969   6.461   6.248  1.00 20.00     0.010 C 
HETATM    4  C4  UNL     1     -35.328   4.806   4.985  1.00 20.00     0.007 C 
HETATM    5  C5  UNL     1     -33.821   5.366   2.817  1.00 20.00     0.153 C 
HETATM    6  C6  UNL     1     -33.896   6.638   4.757  1.00 20.00     0.031 C 
HETATM    7  C7  UNL     1     -34.051   5.203   4.295  1.00 20.00     0.014 C 
HETATM    8  N8  UNL     1     -32.649   6.301   2.784  1.00 20.00    -0.305 NA
ENDROOT
TORSDOF 0
