REMARK  1 active torsions:
REMARK  status: ('A' for Active; 'I' for Inactive)
REMARK    1  A    between atoms: N9_9  and  O10_10 
ROOT
HETATM    1  C1  UNL     1     -34.070   5.780   5.195  1.00 20.00     0.044 C 
HETATM    2  C2  UNL     1     -33.083   6.598   6.006  1.00 20.00     0.058 C 
HETATM    3  C3  UNL     1     -32.312   7.356   4.901  1.00 20.00     0.011 C 
HETATM    4  C4  UNL     1     -33.055   5.684   1.556  1.00 20.00     0.001 C 
HETATM    5  C5  UNL     1     -34.012   5.069   2.608  1.00 20.00     0.011 C 
HETATM    6  C6  UNL     1     -32.236   6.778   2.284  1.00 20.00     0.005 C 
HETATM    7  C7  UNL     1     -33.942   6.065   3.735  1.00 20.00     0.040 C 
HETATM    8  C8  UNL     1     -32.451   6.407   3.729  1.00 20.00    -0.004 C 
HETATM    9  N9  UNL     1     -34.925   4.973   5.721  1.00 20.00    -0.145 NA
ENDROOT
BRANCH   9  10
HETATM   10  O10 UNL     1     -35.671   4.388   4.695  1.00 20.00    -0.266 OA
HETATM   11  H23 UNL     1     -36.273   3.810   5.194  1.00 20.00     0.247 HD
ENDBRANCH   9  10
TORSDOF 1
