REMARK  0 active torsions:
REMARK  status: ('A' for Active; 'I' for Inactive)
ROOT
HETATM    1  C1  UNL     1     -33.413   6.635   5.284  1.00 20.00     0.135 C 
HETATM    2  C2  UNL     1     -32.372   7.042   4.263  1.00 20.00     0.110 C 
HETATM    3  C3  UNL     1     -34.160   5.127   3.487  1.00 20.00     0.179 C 
HETATM    4  C4  UNL     1     -34.619   5.884   4.735  1.00 20.00     0.075 C 
HETATM    5  C5  UNL     1     -33.060   7.202   2.909  1.00 20.00     0.124 C 
HETATM    6  C6  UNL     1     -35.201   4.932   5.771  1.00 20.00     0.020 C 
HETATM    7  C7  UNL     1     -32.076   7.654   1.840  1.00 20.00     0.040 C 
HETATM    8  O8  UNL     1     -33.277   6.900   6.476  1.00 20.00    -0.297 OA
HETATM    9  O9  UNL     1     -33.660   5.982   2.456  1.00 20.00    -0.385 OA
ENDROOT
TORSDOF 0
