REMARK  2 active torsions:
REMARK  status: ('A' for Active; 'I' for Inactive)
REMARK    1  A    between atoms: C1_1  and  C7_7 
REMARK    2  A    between atoms: C4_4  and  C7_7 
ROOT
HETATM    1  C2  UNL     1     -35.018   4.406   6.291  1.00 20.00     0.197 C 
HETATM    2  C3  UNL     1     -34.319   5.620   6.840  1.00 20.00     0.197 C 
HETATM    3  C4  UNL     1     -34.302   5.703   4.574  1.00 20.00     0.169 C 
HETATM    4  C5  UNL     1     -35.388   6.169   3.613  1.00 20.00     0.080 C 
HETATM    5  O9  UNL     1     -34.549   4.337   4.944  1.00 20.00    -0.353 OA
HETATM    6  O10 UNL     1     -34.338   6.535   5.745  1.00 20.00    -0.353 OA
ENDROOT
BRANCH   3   7
HETATM    7  C7  UNL     1     -32.922   5.792   3.935  1.00 20.00     0.105 C 
HETATM    8  C6  UNL     1     -32.839   4.926   2.684  1.00 20.00     0.023 C 
BRANCH   7   9
HETATM    9  C1  UNL     1     -32.607   7.245   3.634  1.00 20.00     0.240 C 
HETATM   10  O8  UNL     1     -32.337   7.684   2.521  1.00 20.00    -0.306 OA
ENDBRANCH   7   9
ENDBRANCH   3   7
TORSDOF 2
