REMARK  1 active torsions:
REMARK  status: ('A' for Active; 'I' for Inactive)
REMARK    1  A    between atoms: C2_2  and  O6_6 
ROOT
HETATM    1  C1  UNL     1     -35.394   5.322   3.333  1.00 20.00     0.106 A 
HETATM    2  C2  UNL     1     -34.726   4.924   4.622  1.00 20.00     0.111 A 
HETATM    3  C3  UNL     1     -33.891   5.315   3.428  1.00 20.00     0.212 A 
HETATM    4  C4  UNL     1     -34.771   3.503   5.074  1.00 20.00     0.051 C 
HETATM    5  F7  UNL     1     -33.251   4.280   2.754  1.00 20.00    -0.222 F 
HETATM    6 CL8  UNL     1     -33.047   6.853   3.412  1.00 20.00    -0.079 Cl
ENDROOT
BRANCH   2   7
HETATM    7  O6  UNL     1     -34.833   5.873   5.699  1.00 20.00    -0.381 OA
HETATM    8  C5  UNL     1     -33.831   5.646   6.672  1.00 20.00     0.202 C 
ENDBRANCH   2   7
TORSDOF 1
