REMARK  0 active torsions:
REMARK  status: ('A' for Active; 'I' for Inactive)
ROOT
HETATM    1  C1  UNL     1     -32.533   7.429   2.432  1.00 20.00     0.064 C 
HETATM    2  C2  UNL     1     -34.464   4.335   3.524  1.00 20.00     0.012 C 
HETATM    3  C3  UNL     1     -34.486   4.490   4.855  1.00 20.00     0.090 C 
HETATM    4  C4  UNL     1     -33.799   5.310   2.597  1.00 20.00     0.049 C 
HETATM    5  C5  UNL     1     -33.877   5.666   5.555  1.00 20.00     0.071 C 
HETATM    6  C6  UNL     1     -33.544   6.821   4.606  1.00 20.00     0.026 C 
HETATM    7  C7  UNL     1     -32.880   6.308   3.322  1.00 20.00     0.096 C 
HETATM    8  N8  UNL     1     -32.260   8.312   1.731  1.00 20.00    -0.197 NA
HETATM    9  F9  UNL     1     -35.111   3.552   5.601  1.00 20.00    -0.211 F 
ENDROOT
TORSDOF 0
