REMARK  2 active torsions:
REMARK  status: ('A' for Active; 'I' for Inactive)
REMARK    1  A    between atoms: C4_4  and  C8_8 
REMARK    2  A    between atoms: C5_5  and  C9_9 
ROOT
HETATM    1  C1  UNL     1     -34.929   4.910   5.437  1.00 20.00     0.139 C 
HETATM    2  C6  UNL     1     -35.698   4.804   4.141  1.00 20.00     0.080 C 
HETATM    3  C7  UNL     1     -35.117   5.951   3.320  1.00 20.00     0.017 C 
HETATM    4  C8  UNL     1     -33.668   6.056   3.806  1.00 20.00     0.027 C 
HETATM    5  C9  UNL     1     -33.771   5.901   5.346  1.00 20.00     0.041 C 
HETATM    6  C10 UNL     1     -32.494   5.331   5.957  1.00 20.00     0.028 C 
HETATM    7  O11 UNL     1     -35.219   4.268   6.440  1.00 20.00    -0.297 OA
ENDROOT
BRANCH   5   8
HETATM    8  C5  UNL     1     -34.216   7.128   6.091  1.00 20.00    -0.019 C 
HETATM    9  C3  UNL     1     -33.583   7.625   7.159  1.00 20.00     0.008 C 
ENDBRANCH   5   8
BRANCH   4  10
HETATM   10  C4  UNL     1     -32.968   7.282   3.317  1.00 20.00    -0.031 C 
HETATM   11  C2  UNL     1     -31.886   7.263   2.532  1.00 20.00     0.007 C 
ENDBRANCH   4  10
TORSDOF 2
