REMARK  2 active torsions:
REMARK  status: ('A' for Active; 'I' for Inactive)
REMARK    1  A    between atoms: C2_2  and  C6_6 
REMARK    2  A    between atoms: C3_3  and  C6_6 
ROOT
HETATM    1  C1  UNL     1     -32.481   7.140   2.619  1.00 20.00    -0.110 C 
HETATM    2  C2  UNL     1     -33.053   6.363   3.335  1.00 20.00    -0.092 C 
HETATM    3  C4  UNL     1     -31.786   8.086   1.749  1.00 20.00     0.112 C 
ENDROOT
BRANCH   2   4
HETATM    4  C6  UNL     1     -33.752   5.407   4.214  1.00 20.00     0.162 C 
HETATM    5  C5  UNL     1     -34.978   4.839   3.508  1.00 20.00     0.035 C 
BRANCH   4   6
HETATM    6  C3  UNL     1     -34.087   6.091   5.553  1.00 20.00     0.188 C 
HETATM    7  O7  UNL     1     -35.109   5.625   6.137  1.00 20.00    -0.647 OA
HETATM    8  O8  UNL     1     -33.319   7.025   5.915  1.00 20.00    -0.647 OA
ENDBRANCH   4   6
ENDBRANCH   2   4
TORSDOF 2
