REMARK  1 active torsions:
REMARK  status: ('A' for Active; 'I' for Inactive)
REMARK    1  A    between atoms: C5_5  and  P6_6 
ROOT
HETATM    1  C1  UNL     1     -34.109   5.115   2.064  1.00 20.00     0.021 C 
HETATM    2  C2  UNL     1     -33.608   7.507   2.648  1.00 20.00     0.021 C 
HETATM    3  C3  UNL     1     -32.138   5.667   3.521  1.00 20.00     0.021 C 
HETATM    4  C5  UNL     1     -33.576   6.058   3.153  1.00 20.00    -0.015 C 
ENDROOT
BRANCH   4   5
HETATM    5  P6  UNL     1     -34.675   5.916   4.676  1.00 20.00    -0.013 P 
HETATM    6  C4  UNL     1     -34.429   4.135   5.007  1.00 20.00     0.062 C 
HETATM    7 CL7  UNL     1     -33.382   6.759   6.089  1.00 20.00    -0.096 Cl
ENDBRANCH   4   5
TORSDOF 1
