REMARK  1 active torsions:
REMARK  status: ('A' for Active; 'I' for Inactive)
REMARK    1  A    between atoms: C1_1  and  C7_7 
ROOT
HETATM    1  C2  UNL     1     -34.015   7.399   5.371  1.00 20.00     0.007 C 
HETATM    2  C3  UNL     1     -33.695   8.161   4.084  1.00 20.00     0.020 C 
HETATM    3  C4  UNL     1     -33.099   6.069   2.815  1.00 20.00     0.026 C 
HETATM    4  C5  UNL     1     -33.933   5.904   5.278  1.00 20.00    -0.002 A 
HETATM    5  C6  UNL     1     -33.455   5.235   4.010  1.00 20.00    -0.000 A 
HETATM    6  C7  UNL     1     -32.639   7.473   3.217  1.00 20.00     0.045 C 
HETATM    7  C8  UNL     1     -34.888   5.021   4.491  1.00 20.00    -0.040 A 
HETATM    8  C9  UNL     1     -31.250   7.485   3.848  1.00 20.00     0.027 C 
HETATM    9  C10 UNL     1     -35.205   3.667   5.084  1.00 20.00     0.015 C 
HETATM   10  C11 UNL     1     -36.062   5.621   3.764  1.00 20.00     0.015 C 
ENDROOT
BRANCH   6  11
HETATM   11  C1  UNL     1     -32.558   8.291   1.931  1.00 20.00     0.181 C 
HETATM   12  O12 UNL     1     -31.728   7.872   1.077  1.00 20.00    -0.647 OA
HETATM   13  O13 UNL     1     -33.335   9.286   1.886  1.00 20.00    -0.647 OA
ENDBRANCH   6  11
TORSDOF 1
