REMARK  3 active torsions:
REMARK  status: ('A' for Active; 'I' for Inactive)
REMARK    1  A    between atoms: C3_3  and  C4_4 
REMARK    2  A    between atoms: C4_4  and  C5_5 
REMARK    3  A    between atoms: C7_7  and  O10_10 
ROOT
HETATM    1  C1  UNL     1     -35.619   4.615   4.126  1.00 20.00     0.006 C 
HETATM    2  C2  UNL     1     -35.737   4.116   5.358  1.00 20.00    -0.023 C 
HETATM    3  C3  UNL     1     -34.469   5.475   4.030  1.00 20.00    -0.027 C 
HETATM    4  C6  UNL     1     -34.635   4.577   6.260  1.00 20.00     0.064 C 
HETATM    5  C7  UNL     1     -33.859   5.587   5.401  1.00 20.00     0.157 C 
ENDROOT
BRANCH   3   6
HETATM    6  C4  UNL     1     -34.022   6.055   2.912  1.00 20.00     0.051 C 
BRANCH   6   7
HETATM    7  C5  UNL     1     -32.822   6.907   3.014  1.00 20.00     0.259 C 
HETATM    8  O9  UNL     1     -32.342   7.478   2.042  1.00 20.00    -0.302 OA
ENDBRANCH   6   7
ENDBRANCH   3   6
BRANCH   5   9
HETATM    9  O10 UNL     1     -34.065   6.905   5.897  1.00 20.00    -0.386 OA
HETATM   10  C8  UNL     1     -33.154   7.216   6.941  1.00 20.00     0.202 C 
ENDBRANCH   5   9
TORSDOF 3
