REMARK  1 active torsions:
REMARK  status: ('A' for Active; 'I' for Inactive)
REMARK    1  A    between atoms: C1_1  and  C3_3 
ROOT
HETATM    1  C1  UNL     1     -34.213   5.160   3.672  1.00 20.00     0.181 A 
HETATM    2  C2  UNL     1     -34.633   5.287   5.107  1.00 20.00     0.247 A 
HETATM    3  O4  UNL     1     -35.579   5.397   4.036  1.00 20.00    -0.358 OA
HETATM    4 CL5  UNL     1     -34.678   3.876   6.128  1.00 20.00    -0.092 Cl
ENDROOT
BRANCH   1   5
HETATM    5  C3  UNL     1     -33.560   6.291   2.962  1.00 20.00     0.150 C 
HETATM    6 CL6  UNL     1     -31.826   6.405   3.377  1.00 20.00    -0.128 Cl
ENDBRANCH   1   5
TORSDOF 1
