REMARK  0 active torsions:
REMARK  status: ('A' for Active; 'I' for Inactive)
ROOT
HETATM    1  C1  UNL     1     -32.298   7.803   2.354  1.00 20.00     0.200 C 
HETATM    2  C2  UNL     1     -31.653   8.221   1.271  1.00 20.00     0.113 C 
HETATM    3  F3  UNL     1     -31.640   7.310   3.419  1.00 20.00    -0.219 F 
HETATM    4 CL4  UNL     1     -32.454   8.852  -0.104  1.00 20.00    -0.095 Cl
ENDROOT
TORSDOF 0
