REMARK  0 active torsions:
REMARK  status: ('A' for Active; 'I' for Inactive)
ROOT
HETATM    1  C1  UNL     1     -32.627   7.450   4.254  1.00 20.00     0.099 A 
HETATM    2  C2  UNL     1     -33.781   5.736   2.985  1.00 20.00     0.063 A 
HETATM    3  C3  UNL     1     -35.169   4.088   6.141  1.00 20.00     0.167 A 
HETATM    4  C4  UNL     1     -33.918   5.761   5.431  1.00 20.00     0.124 A 
HETATM    5  C5  UNL     1     -33.095   6.907   5.454  1.00 20.00     0.204 A 
HETATM    6  C6  UNL     1     -32.968   6.871   3.036  1.00 20.00     0.121 A 
HETATM    7  C7  UNL     1     -34.247   5.196   4.194  1.00 20.00     0.042 A 
HETATM    8  N8  UNL     1     -34.454   5.115   6.536  1.00 20.00    -0.249 NA
HETATM    9  O9  UNL     1     -32.835   7.370   6.613  1.00 20.00    -0.286 OA
HETATM   10  F10 UNL     1     -32.510   7.406   1.896  1.00 20.00    -0.206 F 
HETATM   11  S11 UNL     1     -35.254   3.821   4.453  1.00 20.00    -0.080 SA
ENDROOT
TORSDOF 0
