REMARK  0 active torsions:
REMARK  status: ('A' for Active; 'I' for Inactive)
ROOT
HETATM    1  C1  UNL     1     -31.742   7.948   1.532  1.00 20.00     0.012 C 
HETATM    2  C2  UNL     1     -32.562   7.470   2.268  1.00 20.00    -0.113 C 
HETATM    3  C3  UNL     1     -34.569   4.810   4.949  1.00 20.00     0.127 C 
HETATM    4  C4  UNL     1     -33.987   6.077   5.533  1.00 20.00     0.079 C 
HETATM    5  C5  UNL     1     -35.094   4.898   3.534  1.00 20.00     0.079 C 
HETATM    6  C6  UNL     1     -32.979   6.697   4.574  1.00 20.00     0.024 C 
HETATM    7  C7  UNL     1     -34.062   5.542   2.617  1.00 20.00     0.024 C 
HETATM    8  C8  UNL     1     -33.568   6.885   3.170  1.00 20.00     0.065 C 
HETATM    9  O9  UNL     1     -34.704   3.791   5.625  1.00 20.00    -0.298 OA
ENDROOT
TORSDOF 0
