REMARK  1 active torsions:
REMARK  status: ('A' for Active; 'I' for Inactive)
REMARK    1  A    between atoms: C5_5  and  C10_10 
ROOT
HETATM    1  C1  UNL     1     -33.292   6.102   4.844  1.00 20.00     0.027 A 
HETATM    2  C2  UNL     1     -34.377   5.042   2.978  1.00 20.00     0.027 A 
HETATM    3  C3  UNL     1     -34.291   5.582   5.651  1.00 20.00     0.116 A 
HETATM    4  C4  UNL     1     -35.327   4.569   3.869  1.00 20.00     0.116 A 
HETATM    5  C5  UNL     1     -33.344   5.823   3.483  1.00 20.00    -0.051 A 
HETATM    6  N11 UNL     1     -35.310   4.819   5.197  1.00 20.00    -0.273 NA
ENDROOT
BRANCH   5   7
HETATM    7  C10 UNL     1     -32.213   6.399   2.498  1.00 20.00     0.026 C 
HETATM    8  C8  UNL     1     -32.629   6.851   1.061  1.00 20.00     0.043 C 
HETATM    9  C6  UNL     1     -32.457   8.252   1.589  1.00 20.00    -0.088 C 
HETATM   10  C7  UNL     1     -32.877   9.443   1.158  1.00 20.00     0.014 C 
HETATM   11  C9  UNL     1     -31.633   7.823   2.776  1.00 20.00     0.043 C 
ENDBRANCH   5   7
TORSDOF 1
