REMARK  2 active torsions:
REMARK  status: ('A' for Active; 'I' for Inactive)
REMARK    1  A    between atoms: C1_1  and  C5_5 
REMARK    2  A    between atoms: C4_4  and  C5_5 
ROOT
HETATM    1  C2  UNL     1     -35.592   6.738   4.290  1.00 20.00     0.032 C 
HETATM    2  C3  UNL     1     -34.777   4.470   3.627  1.00 20.00     0.032 C 
HETATM    3  C5  UNL     1     -34.414   5.761   4.368  1.00 20.00     0.100 C 
ENDROOT
BRANCH   3   4
HETATM    4  C1  UNL     1     -33.129   6.398   3.763  1.00 20.00     0.186 C 
HETATM    5  O6  UNL     1     -32.961   6.224   2.521  1.00 20.00    -0.647 OA
HETATM    6  O7  UNL     1     -32.398   7.038   4.573  1.00 20.00    -0.647 OA
ENDBRANCH   3   4
BRANCH   3   7
HETATM    7  C4  UNL     1     -34.087   5.452   5.831  1.00 20.00     0.371 C 
HETATM    8  F8  UNL     1     -35.161   4.908   6.457  1.00 20.00    -0.213 F 
HETATM    9  F9  UNL     1     -33.778   6.589   6.504  1.00 20.00    -0.213 F 
ENDBRANCH   3   7
TORSDOF 2
