REMARK  0 active torsions:
REMARK  status: ('A' for Active; 'I' for Inactive)
ROOT
HETATM    1  C1  UNL     1     -33.766   5.066   2.704  1.00 20.00    -0.024 C 
HETATM    2  C2  UNL     1     -33.148   6.266   2.600  1.00 20.00    -0.024 C 
HETATM    3  C3  UNL     1     -35.207   4.834   6.124  1.00 20.00     0.272 C 
HETATM    4  C4  UNL     1     -33.922   6.685   6.532  1.00 20.00     0.272 C 
HETATM    5  C5  UNL     1     -34.972   5.658   3.393  1.00 20.00     0.031 C 
HETATM    6  C6  UNL     1     -34.033   6.909   3.659  1.00 20.00     0.031 C 
HETATM    7  C7  UNL     1     -35.193   5.696   4.879  1.00 20.00     0.108 C 
HETATM    8  C8  UNL     1     -33.772   6.336   5.054  1.00 20.00     0.108 C 
HETATM    9  O9  UNL     1     -35.673   3.720   6.312  1.00 20.00    -0.264 OA
HETATM   10  O10 UNL     1     -33.514   7.653   7.157  1.00 20.00    -0.264 OA
HETATM   11  O11 UNL     1     -34.601   5.608   7.122  1.00 20.00    -0.244 OA
ENDROOT
TORSDOF 0
