REMARK  1 active torsions:
REMARK  status: ('A' for Active; 'I' for Inactive)
REMARK    1  A    between atoms: N3_3  and  P4_4 
ROOT
HETATM    1  C1  UNL     1     -34.981   4.905   5.649  1.00 20.00     0.117 C 
HETATM    2  C2  UNL     1     -33.551   6.688   6.353  1.00 20.00     0.117 C 
HETATM    3  N3  UNL     1     -34.198   6.060   5.197  1.00 20.00    -0.274 NA
ENDROOT
BRANCH   3   4
HETATM    4  P4  UNL     1     -33.159   5.750   3.869  1.00 20.00     0.158 P 
HETATM    5 CL5  UNL     1     -34.256   5.105   2.196  1.00 20.00    -0.059 Cl
HETATM    6 CL6  UNL     1     -32.434   7.546   3.051  1.00 20.00    -0.059 Cl
ENDBRANCH   3   4
TORSDOF 1
