REMARK  1 active torsions:
REMARK  status: ('A' for Active; 'I' for Inactive)
REMARK    1  A    between atoms: C1_1  and  C3_3 
ROOT
HETATM    1  C1  UNL     1     -33.479   6.490   4.826  1.00 20.00     0.064 C 
HETATM    2  C2  UNL     1     -34.164   5.857   5.786  1.00 20.00     0.184 C 
HETATM    3  F4  UNL     1     -34.602   6.540   6.866  1.00 20.00    -0.193 F 
HETATM    4 CL5  UNL     1     -34.503   4.171   5.677  1.00 20.00    -0.052 Cl
ENDROOT
BRANCH   1   5
HETATM    5  C3  UNL     1     -32.955   5.818   3.597  1.00 20.00     0.205 C 
HETATM    6 CL6  UNL     1     -34.302   5.099   2.684  1.00 20.00    -0.104 Cl
HETATM    7 CL7  UNL     1     -32.096   7.001   2.584  1.00 20.00    -0.104 Cl
ENDBRANCH   1   5
TORSDOF 1
