REMARK  2 active torsions:
REMARK  status: ('A' for Active; 'I' for Inactive)
REMARK    1  A    between atoms: C3_3  and  C4_4 
REMARK    2  A    between atoms: C4_4  and  S7_7 
ROOT
HETATM    1  C4  UNL     1     -32.960   5.661   3.810  1.00 20.00     0.162 C 
ENDROOT
BRANCH   1   2
HETATM    2  C3  UNL     1     -33.187   6.762   2.832  1.00 20.00     0.001 A 
HETATM    3  C1  UNL     1     -32.862   8.182   3.202  1.00 20.00     0.006 A 
HETATM    4  C2  UNL     1     -32.018   7.458   2.191  1.00 20.00     0.006 A 
ENDBRANCH   1   2
BRANCH   1   5
HETATM    5  S7  UNL     1     -34.252   5.561   5.018  1.00 20.00     0.230 S 
HETATM    6  O5  UNL     1     -35.505   5.319   4.334  1.00 20.00    -0.211 OA
HETATM    7  O6  UNL     1     -34.089   6.649   5.959  1.00 20.00    -0.211 OA
HETATM    8 CL8  UNL     1     -33.899   3.861   6.102  1.00 20.00     0.018 Cl
ENDBRANCH   1   5
TORSDOF 2
