REMARK  2 active torsions:
REMARK  status: ('A' for Active; 'I' for Inactive)
REMARK    1  A    between atoms: C6_6  and  C7_7 
REMARK    2  A    between atoms: C7_7  and  S8_8 
ROOT
HETATM    1  C1  UNL     1     -34.653   5.256   6.115  1.00 20.00     0.000 A 
HETATM    2  C2  UNL     1     -34.522   4.188   5.228  1.00 20.00     0.001 A 
HETATM    3  C3  UNL     1     -34.265   6.538   5.725  1.00 20.00     0.001 A 
HETATM    4  C4  UNL     1     -34.002   4.401   3.951  1.00 20.00     0.008 A 
HETATM    5  C5  UNL     1     -33.745   6.751   4.449  1.00 20.00     0.008 A 
HETATM    6  C6  UNL     1     -33.613   5.683   3.562  1.00 20.00    -0.049 A 
ENDROOT
BRANCH   6   7
HETATM    7  C7  UNL     1     -33.057   5.912   2.197  1.00 20.00     0.109 C 
BRANCH   7   8
HETATM    8  S8  UNL     1     -32.261   7.539   2.033  1.00 20.00    -0.178 SA
HETATM    9  H16 UNL     1     -31.904   7.390   0.750  1.00 20.00     0.101 HD
ENDBRANCH   7   8
ENDBRANCH   6   7
TORSDOF 2
