REMARK  1 active torsions:
REMARK  status: ('A' for Active; 'I' for Inactive)
REMARK    1  A    between atoms: C6_6  and  C9_9 
ROOT
HETATM    1  C1  UNL     1     -33.999   4.310   3.701  1.00 20.00     0.001 A 
HETATM    2  C2  UNL     1     -34.333   4.894   4.923  1.00 20.00     0.007 A 
HETATM    3  C3  UNL     1     -33.294   5.043   2.747  1.00 20.00     0.007 A 
HETATM    4  C4  UNL     1     -33.256   6.945   4.237  1.00 20.00     0.013 A 
HETATM    5  C5  UNL     1     -33.961   6.211   5.191  1.00 20.00    -0.061 A 
HETATM    6  C6  UNL     1     -32.923   6.361   3.015  1.00 20.00    -0.058 A 
HETATM    7  C7  UNL     1     -34.317   6.834   6.498  1.00 20.00     0.048 C 
ENDROOT
BRANCH   6   8
HETATM    8  C9  UNL     1     -32.169   7.146   1.994  1.00 20.00     0.034 C 
HETATM    9  C8  UNL     1     -33.094   7.906   1.047  1.00 20.00     0.010 C 
ENDBRANCH   6   8
TORSDOF 1
