REMARK  0 active torsions:
REMARK  status: ('A' for Active; 'I' for Inactive)
ROOT
HETATM    1  C1  UNL     1     -35.030   5.506   5.911  1.00 20.00     0.000 A 
HETATM    2  C2  UNL     1     -34.191   6.567   6.250  1.00 20.00     0.001 A 
HETATM    3  C3  UNL     1     -35.094   5.060   4.591  1.00 20.00     0.001 A 
HETATM    4  C4  UNL     1     -33.415   7.183   5.268  1.00 20.00     0.019 A 
HETATM    5  C5  UNL     1     -34.318   5.676   3.609  1.00 20.00     0.019 A 
HETATM    6  C6  UNL     1     -33.478   6.738   3.947  1.00 20.00     0.011 A 
HETATM    7  S7  UNL     1     -32.477   7.531   2.679  1.00 20.00    -0.053 SA
ENDROOT
TORSDOF 0
