REMARK  1 active torsions:
REMARK  status: ('A' for Active; 'I' for Inactive)
REMARK    1  A    between atoms: C6_6  and  N8_8 
ROOT
HETATM    1  C1  UNL     1     -35.055   5.376   5.385  1.00 20.00     0.000 A 
HETATM    2  C2  UNL     1     -34.406   6.511   5.870  1.00 20.00     0.002 A 
HETATM    3  C3  UNL     1     -34.781   4.913   4.098  1.00 20.00     0.002 A 
HETATM    4  C4  UNL     1     -33.483   7.183   5.069  1.00 20.00     0.029 A 
HETATM    5  C5  UNL     1     -33.858   5.585   3.296  1.00 20.00     0.029 A 
HETATM    6  C6  UNL     1     -33.209   6.720   3.782  1.00 20.00     0.027 A 
ENDROOT
BRANCH   6   7
HETATM    7  N8  UNL     1     -32.276   7.399   2.971  1.00 20.00    -0.394 N 
HETATM    8  C7  UNL     1     -32.364   7.429   1.544  1.00 20.00     0.146 C 
HETATM    9  H17 UNL     1     -31.527   7.873   3.440  1.00 20.00     0.159 HD
ENDBRANCH   6   7
TORSDOF 1
