REMARK  3 active torsions:
REMARK  status: ('A' for Active; 'I' for Inactive)
REMARK    1  A    between atoms: C2_2  and  C4_4 
REMARK    2  A    between atoms: C4_4  and  S8_8 
REMARK    3  A    between atoms: C5_5  and  S8_8 
ROOT
HETATM    1  O6  UNL     1     -33.612   4.388   3.366  1.00 20.00    -0.228 OA
HETATM    2  O7  UNL     1     -35.418   6.099   2.941  1.00 20.00    -0.228 OA
HETATM    3  S8  UNL     1     -34.388   5.538   3.800  1.00 20.00     0.147 S 
ENDROOT
BRANCH   3   4
HETATM    4  C4  UNL     1     -33.271   6.828   4.240  1.00 20.00     0.166 C 
BRANCH   4   5
HETATM    5  C2  UNL     1     -32.250   6.919   3.159  1.00 20.00    -0.022 C 
HETATM    6  C1  UNL     1     -32.546   7.143   1.874  1.00 20.00     0.008 C 
ENDBRANCH   4   5
ENDBRANCH   3   4
BRANCH   3   7
HETATM    7  C5  UNL     1     -35.157   5.111   5.347  1.00 20.00     0.136 C 
HETATM    8  C3  UNL     1     -34.138   4.641   6.361  1.00 20.00     0.021 C 
ENDBRANCH   3   7
TORSDOF 3
