REMARK  0 active torsions:
REMARK  status: ('A' for Active; 'I' for Inactive)
ROOT
HETATM    1  C1  UNL     1     -32.983   6.263   1.789  1.00 20.00     0.091 A 
HETATM    2  C2  UNL     1     -32.834   7.483   2.448  1.00 20.00     0.161 A 
HETATM    3  C3  UNL     1     -33.480   5.155   2.476  1.00 20.00     0.161 A 
HETATM    4  C4  UNL     1     -33.182   7.596   3.794  1.00 20.00     0.196 A 
HETATM    5  C5  UNL     1     -33.827   5.268   3.822  1.00 20.00     0.196 A 
HETATM    6  C6  UNL     1     -33.679   6.488   4.481  1.00 20.00     0.199 A 
HETATM    7  F7  UNL     1     -32.358   8.547   1.788  1.00 20.00    -0.203 F 
HETATM    8  F8  UNL     1     -33.623   3.983   1.843  1.00 20.00    -0.203 F 
HETATM    9  F9  UNL     1     -33.039   8.767   4.427  1.00 20.00    -0.199 F 
HETATM   10  F10 UNL     1     -34.304   4.204   4.481  1.00 20.00    -0.199 F 
HETATM   11  F11 UNL     1     -34.012   6.597   5.773  1.00 20.00    -0.199 F 
ENDROOT
TORSDOF 0
