REMARK  1 active torsions:
REMARK  status: ('A' for Active; 'I' for Inactive)
REMARK    1  A    between atoms: C6_6  and  S8_8 
ROOT
HETATM    1  C1  UNL     1     -34.848   5.279   6.019  1.00 20.00     0.001 A 
HETATM    2  C2  UNL     1     -34.320   6.540   6.297  1.00 20.00     0.001 A 
HETATM    3  C3  UNL     1     -34.569   4.659   4.801  1.00 20.00     0.021 A 
HETATM    4  C4  UNL     1     -33.512   7.181   5.357  1.00 20.00     0.019 A 
HETATM    5  C5  UNL     1     -33.761   5.300   3.861  1.00 20.00     0.028 A 
HETATM    6  C6  UNL     1     -33.233   6.560   4.139  1.00 20.00     0.015 A 
HETATM    7  S7  UNL     1     -33.458   4.409   2.308  1.00 20.00    -0.051 SA
ENDROOT
BRANCH   6   8
HETATM    8  S8  UNL     1     -32.181   7.490   3.016  1.00 20.00    -0.142 SA
HETATM    9  H13 UNL     1     -32.013   8.557   3.808  1.00 20.00     0.107 HD
ENDBRANCH   6   8
TORSDOF 1
