REMARK  0 active torsions:
REMARK  status: ('A' for Active; 'I' for Inactive)
ROOT
HETATM    1  C1  UNL     1     -34.138   6.849   6.553  1.00 20.00     0.001 A 
HETATM    2  C2  UNL     1     -34.940   5.748   6.240  1.00 20.00     0.003 A 
HETATM    3  C3  UNL     1     -33.245   7.383   5.614  1.00 20.00     0.014 A 
HETATM    4  C4  UNL     1     -34.880   5.142   4.982  1.00 20.00     0.038 A 
HETATM    5  C5  UNL     1     -32.423   7.019   3.156  1.00 20.00     0.039 A 
HETATM    6  C6  UNL     1     -32.827   6.064   2.252  1.00 20.00     0.143 A 
HETATM    7  C7  UNL     1     -33.169   6.789   4.342  1.00 20.00    -0.001 A 
HETATM    8  C8  UNL     1     -33.984   5.695   4.070  1.00 20.00     0.085 A 
HETATM    9  O9  UNL     1     -33.774   5.256   2.797  1.00 20.00    -0.322 OA
ENDROOT
TORSDOF 0
