REMARK  0 active torsions:
REMARK  status: ('A' for Active; 'I' for Inactive)
ROOT
HETATM    1  C1  UNL     1     -34.701   6.543   6.529  1.00 20.00     0.001 A 
HETATM    2  C2  UNL     1     -34.991   5.183   6.455  1.00 20.00     0.001 A 
HETATM    3  C3  UNL     1     -32.803   6.383   2.052  1.00 20.00     0.001 A 
HETATM    4  C4  UNL     1     -33.092   5.023   1.978  1.00 20.00     0.001 A 
HETATM    5  C5  UNL     1     -34.085   7.185   5.455  1.00 20.00     0.012 A 
HETATM    6  C6  UNL     1     -34.665   4.462   5.307  1.00 20.00     0.012 A 
HETATM    7  C7  UNL     1     -33.129   7.105   3.201  1.00 20.00     0.012 A 
HETATM    8  C8  UNL     1     -33.708   4.381   3.052  1.00 20.00     0.012 A 
HETATM    9  C9  UNL     1     -33.750   6.474   4.291  1.00 20.00    -0.026 A 
HETATM   10  C10 UNL     1     -34.044   5.092   4.216  1.00 20.00    -0.026 A 
ENDROOT
TORSDOF 0
