REMARK  0 active torsions:
REMARK  status: ('A' for Active; 'I' for Inactive)
ROOT
HETATM    1  C1  UNL     1     -35.095   5.526   6.309  1.00 20.00     0.001 A 
HETATM    2  C2  UNL     1     -34.532   6.786   6.539  1.00 20.00     0.003 A 
HETATM    3  C3  UNL     1     -34.830   4.819   5.127  1.00 20.00     0.016 A 
HETATM    4  C4  UNL     1     -33.686   7.386   5.601  1.00 20.00     0.040 A 
HETATM    5  C5  UNL     1     -33.463   5.085   2.910  1.00 20.00     0.161 A 
HETATM    6  C6  UNL     1     -33.983   5.409   4.178  1.00 20.00     0.019 A 
HETATM    7  C7  UNL     1     -33.445   6.657   4.441  1.00 20.00     0.113 A 
HETATM    8  N8  UNL     1     -32.670   6.045   2.424  1.00 20.00    -0.140 NA
HETATM    9  O9  UNL     1     -32.661   7.039   3.395  1.00 20.00    -0.213 OA
ENDROOT
TORSDOF 0
