REMARK  2 active torsions:
REMARK  status: ('A' for Active; 'I' for Inactive)
REMARK    1  A    between atoms: C6_6  and  C10_10 
REMARK    2  A    between atoms: C9_9  and  C10_10 
ROOT
HETATM    1  C1  UNL     1     -34.501   5.242   6.174  1.00 20.00     0.000 A 
HETATM    2  C2  UNL     1     -34.273   6.591   5.902  1.00 20.00     0.001 A 
HETATM    3  C3  UNL     1     -34.460   4.306   5.141  1.00 20.00     0.001 A 
HETATM    4  C4  UNL     1     -34.003   7.003   4.597  1.00 20.00     0.007 A 
HETATM    5  C5  UNL     1     -34.191   4.718   3.836  1.00 20.00     0.007 A 
HETATM    6  C6  UNL     1     -33.962   6.067   3.564  1.00 20.00    -0.054 A 
ENDROOT
BRANCH   6   7
HETATM    7  C10 UNL     1     -33.669   6.516   2.143  1.00 20.00     0.014 C 
HETATM    8  C8  UNL     1     -32.960   5.403   1.362  1.00 20.00     0.015 C 
BRANCH   7   9
HETATM    9  C9  UNL     1     -32.843   7.816   2.072  1.00 20.00     0.004 C 
HETATM   10  C7  UNL     1     -32.551   8.263   0.644  1.00 20.00     0.006 C 
ENDBRANCH   7   9
ENDBRANCH   6   7
TORSDOF 2
