REMARK  0 active torsions:
REMARK  status: ('A' for Active; 'I' for Inactive)
ROOT
HETATM    1  C1  UNL     1     -35.135   5.174   5.849  1.00 20.00     0.000 A 
HETATM    2  C2  UNL     1     -34.457   6.305   6.306  1.00 20.00     0.003 A 
HETATM    3  C3  UNL     1     -34.926   4.713   4.550  1.00 20.00     0.003 A 
HETATM    4  C4  UNL     1     -33.570   6.974   5.462  1.00 20.00     0.042 A 
HETATM    5  C5  UNL     1     -34.040   5.382   3.706  1.00 20.00     0.042 A 
HETATM    6  C6  UNL     1     -33.362   6.512   4.162  1.00 20.00     0.116 A 
HETATM    7  F7  UNL     1     -32.510   7.155   3.352  1.00 20.00    -0.206 F 
ENDROOT
TORSDOF 0
