REMARK  0 active torsions:
REMARK  status: ('A' for Active; 'I' for Inactive)
ROOT
HETATM    1  C1  UNL     1     -33.231   6.927   3.140  1.00 20.00     0.199 A 
HETATM    2  C2  UNL     1     -33.526   5.605   2.806  1.00 20.00     0.198 A 
HETATM    3  C3  UNL     1     -33.487   7.393   4.430  1.00 20.00     0.198 A 
HETATM    4  C4  UNL     1     -34.077   4.750   3.761  1.00 20.00     0.182 A 
HETATM    5  C5  UNL     1     -34.038   6.539   5.384  1.00 20.00     0.182 A 
HETATM    6  C6  UNL     1     -34.333   5.217   5.050  1.00 20.00     0.117 A 
HETATM    7  F7  UNL     1     -32.704   7.747   2.223  1.00 20.00    -0.199 F 
HETATM    8  F8  UNL     1     -33.281   5.157   1.568  1.00 20.00    -0.199 F 
HETATM    9  F9  UNL     1     -33.205   8.663   4.750  1.00 20.00    -0.199 F 
HETATM   10  F10 UNL     1     -34.354   3.482   3.424  1.00 20.00    -0.201 F 
HETATM   11  F11 UNL     1     -34.278   7.002   6.619  1.00 20.00    -0.201 F 
HETATM   12 CL12 UNL     1     -35.012   4.161   6.229  1.00 20.00    -0.077 Cl
ENDROOT
TORSDOF 0
