REMARK  1 active torsions:
REMARK  status: ('A' for Active; 'I' for Inactive)
REMARK    1  A    between atoms: C2_2  and  C8_8 
ROOT
HETATM    1  C1  UNL     1     -33.645   6.162   4.476  1.00 20.00    -0.081 C 
HETATM    2  C2  UNL     1     -33.059   6.142   3.269  1.00 20.00    -0.078 C 
HETATM    3  C3  UNL     1     -34.423   4.905   4.727  1.00 20.00     0.034 C 
HETATM    4  C4  UNL     1     -33.360   4.869   2.535  1.00 20.00     0.034 C 
HETATM    5  C5  UNL     1     -33.934   3.970   3.625  1.00 20.00     0.009 C 
HETATM    6  C6  UNL     1     -33.635   7.233   5.510  1.00 20.00     0.043 C 
ENDROOT
BRANCH   2   7
HETATM    7  C8  UNL     1     -32.227   7.186   2.609  1.00 20.00     0.030 C 
HETATM    8  C7  UNL     1     -33.095   8.127   1.796  1.00 20.00     0.010 C 
ENDBRANCH   2   7
TORSDOF 1
