REMARK  0 active torsions:
REMARK  status: ('A' for Active; 'I' for Inactive)
ROOT
HETATM    1  C1  UNL     1     -34.508   6.283   6.019  1.00 20.00     0.001 A 
HETATM    2  C2  UNL     1     -34.742   4.975   5.562  1.00 20.00     0.001 A 
HETATM    3  C3  UNL     1     -33.786   7.194   5.243  1.00 20.00     0.012 A 
HETATM    4  C4  UNL     1     -34.258   4.554   4.321  1.00 20.00     0.008 A 
HETATM    5  C5  UNL     1     -33.311   6.769   4.015  1.00 20.00    -0.030 A 
HETATM    6  C6  UNL     1     -33.545   5.463   3.560  1.00 20.00    -0.044 A 
HETATM    7  C7  UNL     1     -32.542   7.487   3.013  1.00 20.00     0.008 A 
HETATM    8  C8  UNL     1     -32.318   6.648   1.989  1.00 20.00    -0.021 A 
HETATM    9  C9  UNL     1     -32.921   5.282   2.212  1.00 20.00     0.066 A 
ENDROOT
TORSDOF 0
