REMARK  1 active torsions:
REMARK  status: ('A' for Active; 'I' for Inactive)
REMARK    1  A    between atoms: C6_6  and  N8_8 
ROOT
HETATM    1  N7  UNL     1     -32.532   8.144   0.903  1.00 20.00     0.068 N 
HETATM    2  N8  UNL     1     -32.578   7.651   3.243  1.00 20.00    -0.073 NA
HETATM    3  N9  UNL     1     -32.556   7.905   2.019  1.00 20.00    -0.162 NA
ENDROOT
BRANCH   2   4
HETATM    4  C6  UNL     1     -33.190   6.426   3.532  1.00 20.00     0.093 A 
HETATM    5  C4  UNL     1     -33.133   5.383   2.607  1.00 20.00     0.034 A 
HETATM    6  C2  UNL     1     -33.743   4.162   2.895  1.00 20.00     0.002 A 
HETATM    7  C1  UNL     1     -34.409   3.984   4.108  1.00 20.00     0.000 A 
HETATM    8  C3  UNL     1     -34.466   5.028   5.032  1.00 20.00     0.002 A 
HETATM    9  C5  UNL     1     -33.856   6.249   4.744  1.00 20.00     0.034 A 
ENDBRANCH   2   4
TORSDOF 1
