REMARK  1 active torsions:
REMARK  status: ('A' for Active; 'I' for Inactive)
REMARK    1  A    between atoms: C6_6  and  C9_9 
ROOT
HETATM    1  C1  UNL     1     -34.016   6.777   4.537  1.00 20.00     0.007 A 
HETATM    2  C2  UNL     1     -33.546   4.937   3.044  1.00 20.00     0.007 A 
HETATM    3  C3  UNL     1     -33.276   7.630   3.719  1.00 20.00     0.007 A 
HETATM    4  C4  UNL     1     -32.806   5.790   2.225  1.00 20.00     0.007 A 
HETATM    5  C5  UNL     1     -34.151   5.430   4.200  1.00 20.00    -0.062 A 
HETATM    6  C6  UNL     1     -32.671   7.137   2.563  1.00 20.00    -0.059 A 
HETATM    7  C7  UNL     1     -34.942   4.517   5.074  1.00 20.00     0.048 C 
ENDROOT
BRANCH   6   8
HETATM    8  C9  UNL     1     -31.881   8.051   1.688  1.00 20.00     0.034 C 
HETATM    9  C8  UNL     1     -32.740   8.708   0.610  1.00 20.00     0.010 C 
ENDBRANCH   6   8
TORSDOF 1
