REMARK  4 active torsions:
REMARK  status: ('A' for Active; 'I' for Inactive)
REMARK    1  A    between atoms: C6_6  and  C7_7 
REMARK    2  A    between atoms: C7_7  and  C8_8 
REMARK    3  A    between atoms: C8_8  and  C9_9 
REMARK    4  A    between atoms: C9_9  and  S10_10 
ROOT
HETATM    1  C1  UNL     1     -34.823   5.464   6.052  1.00 20.00     0.000 A 
HETATM    2  C2  UNL     1     -34.158   6.688   6.119  1.00 20.00     0.001 A 
HETATM    3  C3  UNL     1     -34.712   4.672   4.909  1.00 20.00     0.001 A 
HETATM    4  C4  UNL     1     -33.383   7.120   5.043  1.00 20.00     0.007 A 
HETATM    5  C5  UNL     1     -33.937   5.104   3.833  1.00 20.00     0.007 A 
HETATM    6  C6  UNL     1     -33.272   6.328   3.901  1.00 20.00    -0.058 A 
ENDROOT
BRANCH   6   7
HETATM    7  C7  UNL     1     -32.443   6.790   2.750  1.00 20.00     0.039 C 
BRANCH   7   8
HETATM    8  C8  UNL     1     -33.210   7.627   1.707  1.00 20.00     0.014 C 
BRANCH   8   9
HETATM    9  C9  UNL     1     -32.324   8.056   0.538  1.00 20.00     0.071 C 
BRANCH   9  10
HETATM   10  S10 UNL     1     -33.278   9.028  -0.664  1.00 20.00    -0.182 SA
HETATM   11  H22 UNL     1     -32.264   9.235  -1.514  1.00 20.00     0.101 HD
ENDBRANCH   9  10
ENDBRANCH   8   9
ENDBRANCH   7   8
ENDBRANCH   6   7
TORSDOF 4
