REMARK  0 active torsions:
REMARK  status: ('A' for Active; 'I' for Inactive)
ROOT
HETATM    1  C1  UNL     1     -34.456   6.205   6.344  1.00 20.00     0.001 A 
HETATM    2  C2  UNL     1     -34.833   4.931   5.925  1.00 20.00     0.002 A 
HETATM    3  C3  UNL     1     -33.857   7.104   5.454  1.00 20.00     0.014 A 
HETATM    4  C4  UNL     1     -34.626   4.515   4.607  1.00 20.00     0.030 A 
HETATM    5  C5  UNL     1     -33.073   7.340   2.977  1.00 20.00     0.030 A 
HETATM    6  C6  UNL     1     -33.127   6.445   1.933  1.00 20.00     0.089 A 
HETATM    7  C7  UNL     1     -33.638   6.707   4.120  1.00 20.00    -0.008 A 
HETATM    8  C8  UNL     1     -34.027   5.424   3.728  1.00 20.00     0.042 A 
HETATM    9  N9  UNL     1     -33.705   5.293   2.396  1.00 20.00    -0.365 N 
HETATM   10  H16 UNL     1     -33.871   4.465   1.840  1.00 20.00     0.165 HD
ENDROOT
TORSDOF 0
