REMARK  2 active torsions:
REMARK  status: ('A' for Active; 'I' for Inactive)
REMARK    1  A    between atoms: C6_6  and  C8_8 
REMARK    2  A    between atoms: C8_8  and  N10_10 
ROOT
HETATM    1  N9  UNL     1     -33.958   8.278  -0.702  1.00 20.00     0.068 N 
HETATM    2  N10 UNL     1     -32.688   8.636   1.283  1.00 20.00    -0.111 NA
HETATM    3  N11 UNL     1     -33.348   8.444   0.248  1.00 20.00    -0.167 NA
ENDROOT
BRANCH   2   4
HETATM    4  C8  UNL     1     -31.948   7.473   1.789  1.00 20.00     0.227 C 
BRANCH   4   5
HETATM    5  C6  UNL     1     -32.777   6.624   2.693  1.00 20.00    -0.035 A 
HETATM    6  C3  UNL     1     -33.314   5.425   2.224  1.00 20.00     0.009 A 
HETATM    7  C1  UNL     1     -34.090   4.632   3.069  1.00 20.00     0.001 A 
HETATM    8  C2  UNL     1     -34.329   5.037   4.382  1.00 20.00     0.007 A 
HETATM    9  C5  UNL     1     -33.792   6.236   4.850  1.00 20.00    -0.061 A 
HETATM   10  C4  UNL     1     -33.016   7.030   4.006  1.00 20.00     0.015 A 
HETATM   11  C7  UNL     1     -34.047   6.668   6.255  1.00 20.00     0.048 C 
ENDBRANCH   4   5
ENDBRANCH   2   4
TORSDOF 2
