REMARK  0 active torsions:
REMARK  status: ('A' for Active; 'I' for Inactive)
ROOT
HETATM    1  C1  UNL     1     -34.879   5.013   5.758  1.00 20.00     0.002 A 
HETATM    2  C2  UNL     1     -34.539   6.329   6.071  1.00 20.00     0.002 A 
HETATM    3  C3  UNL     1     -34.534   4.480   4.516  1.00 20.00     0.025 A 
HETATM    4  C4  UNL     1     -33.854   7.112   5.142  1.00 20.00     0.025 A 
HETATM    5  C5  UNL     1     -33.849   5.263   3.587  1.00 20.00     0.055 A 
HETATM    6  C6  UNL     1     -33.509   6.579   3.900  1.00 20.00     0.055 A 
HETATM    7 CL7  UNL     1     -33.448   4.547   2.065  1.00 20.00    -0.083 Cl
HETATM    8 CL8  UNL     1     -32.661   7.600   2.792  1.00 20.00    -0.083 Cl
ENDROOT
TORSDOF 0
