REMARK  0 active torsions:
REMARK  status: ('A' for Active; 'I' for Inactive)
ROOT
HETATM    1  C1  UNL     1     -34.288   6.564   5.802  1.00 20.00     0.019 A 
HETATM    2  C2  UNL     1     -34.722   5.234   6.026  1.00 20.00     0.019 A 
HETATM    3  C3  UNL     1     -33.856   6.641   4.496  1.00 20.00     0.090 A 
HETATM    4  C4  UNL     1     -34.541   4.539   4.851  1.00 20.00     0.090 A 
HETATM    5  C5  UNL     1     -33.675   5.064   2.565  1.00 20.00     0.154 C 
HETATM    6  N6  UNL     1     -34.014   5.404   3.928  1.00 20.00    -0.371 N 
ENDROOT
TORSDOF 0
