REMARK  4 active torsions:
REMARK  status: ('A' for Active; 'I' for Inactive)
REMARK    1  A    between atoms: C6_6  and  C7_7 
REMARK    2  A    between atoms: C7_7  and  C8_8 
REMARK    3  A    between atoms: C8_8  and  C9_9 
REMARK    4  A    between atoms: C9_9  and  O10_10 
ROOT
HETATM    1  C1  UNL     1     -34.751   4.234   4.804  1.00 20.00     0.000 C 
HETATM    2  C2  UNL     1     -34.230   5.500   5.476  1.00 20.00     0.000 C 
HETATM    3  C3  UNL     1     -33.998   3.934   3.511  1.00 20.00     0.000 C 
HETATM    4  C4  UNL     1     -34.255   6.694   4.525  1.00 20.00     0.004 C 
HETATM    5  C5  UNL     1     -34.023   5.126   2.557  1.00 20.00     0.004 C 
HETATM    6  C6  UNL     1     -33.491   6.400   3.227  1.00 20.00    -0.014 C 
ENDROOT
BRANCH   6   7
HETATM    7  C7  UNL     1     -33.576   7.588   2.270  1.00 20.00     0.007 C 
BRANCH   7   8
HETATM    8  C8  UNL     1     -32.443   7.559   1.252  1.00 20.00     0.026 C 
BRANCH   8   9
HETATM    9  C9  UNL     1     -32.547   8.718   0.271  1.00 20.00     0.164 C 
BRANCH   9  10
HETATM   10  O10 UNL     1     -33.792   8.634  -0.408  1.00 20.00    -0.401 OA
HETATM   11  H28 UNL     1     -33.827   9.384  -1.024  1.00 20.00     0.209 HD
ENDBRANCH   9  10
ENDBRANCH   8   9
ENDBRANCH   7   8
ENDBRANCH   6   7
TORSDOF 4
