@<TRIPOS>MOLECULE
iodobenzene-1-2.pdb
   12    12     0     0     0
SMALL
NO_CHARGES

@<TRIPOS>ATOM
      1 C1         33.7150   -5.7610    3.4090 C.ar      1 MOL         0.0000
      2 C2         34.5400   -4.9470    4.0140 C.ar      1 MOL         0.0000
      3 C3         35.0550   -5.3220    5.3990 C.ar      1 MOL         0.0000
      4 C4         34.6710   -6.4370    5.9720 C.ar      1 MOL         0.0000
      5 C5         33.7030   -7.3830    5.2650 C.ar      1 MOL         0.0000
      6 C6         33.2750   -7.0620    4.0670 C.ar      1 MOL         0.0000
      7 I1         31.9440   -8.3090    3.0160 I         1 MOL         0.0000
      8 H1         33.3401   -5.5071    2.4285 H         1 MOL         0.0000
      9 H2         34.8507   -4.0267    3.5417 H         1 MOL         0.0000
     10 H3         35.7412   -4.6644    5.9119 H         1 MOL         0.0000
     11 H4         35.0431   -6.6890    6.9541 H         1 MOL         0.0000
     12 H5         33.3778   -8.2964    5.7407 H         1 MOL         0.0000
@<TRIPOS>BOND
     1    1    2 ar
     2    1    6 ar
     3    2    3 ar
     4    3    4 ar
     5    4    5 ar
     6    5    6 ar
     7    6    7 1
     8    1    8 1
     9    2    9 1
    10    3   10 1
    11    4   11 1
    12    5   12 1
