REMARK  2 active torsions:
REMARK  status: ('A' for Active; 'I' for Inactive)
REMARK    1  A    between atoms: C6_6  and  C9_9 
REMARK    2  A    between atoms: C9_9  and  C10_10 
ROOT
HETATM    1  C1  UNL     1     -34.120   5.664   6.779  1.00 20.00     0.000 A 
HETATM    2  C2  UNL     1     -34.806   5.235   5.642  1.00 20.00     0.001 A 
HETATM    3  C3  UNL     1     -33.182   6.691   6.680  1.00 20.00     0.001 A 
HETATM    4  C4  UNL     1     -34.554   5.833   4.408  1.00 20.00     0.007 A 
HETATM    5  C5  UNL     1     -32.929   7.289   5.446  1.00 20.00     0.007 A 
HETATM    6  C6  UNL     1     -33.615   6.860   4.310  1.00 20.00    -0.058 A 
ENDROOT
BRANCH   6   7
HETATM    7  C9  UNL     1     -33.341   7.508   2.974  1.00 20.00     0.042 C 
BRANCH   7   8
HETATM    8  C10 UNL     1     -32.216   6.826   2.170  1.00 20.00    -0.019 C 
HETATM    9  C7  UNL     1     -32.536   5.361   1.865  1.00 20.00     0.010 C 
HETATM   10  C8  UNL     1     -31.981   7.585   0.862  1.00 20.00     0.010 C 
ENDBRANCH   7   8
ENDBRANCH   6   7
TORSDOF 2
