REMARK  2 active torsions:
REMARK  status: ('A' for Active; 'I' for Inactive)
REMARK    1  A    between atoms: C6_6  and  C8_8 
REMARK    2  A    between atoms: C8_8  and  C9_9 
ROOT
HETATM    1  C1  UNL     1     -34.446   5.149   5.271  1.00 20.00     0.000 A 
HETATM    2  C2  UNL     1     -33.913   6.406   5.552  1.00 20.00     0.001 A 
HETATM    3  C3  UNL     1     -34.255   4.575   4.014  1.00 20.00     0.001 A 
HETATM    4  C4  UNL     1     -33.188   7.090   4.577  1.00 20.00     0.007 A 
HETATM    5  C5  UNL     1     -33.530   5.259   3.038  1.00 20.00     0.007 A 
HETATM    6  C6  UNL     1     -32.996   6.517   3.320  1.00 20.00    -0.058 A 
ENDROOT
BRANCH   6   7
HETATM    7  C8  UNL     1     -32.221   7.248   2.276  1.00 20.00     0.038 C 
BRANCH   7   8
HETATM    8  C9  UNL     1     -33.120   8.144   1.410  1.00 20.00     0.000 C 
HETATM    9  C7  UNL     1     -32.324   8.914   0.369  1.00 20.00     0.005 C 
ENDBRANCH   7   8
ENDBRANCH   6   7
TORSDOF 2
