REMARK  0 active torsions:
REMARK  status: ('A' for Active; 'I' for Inactive)
ROOT
HETATM    1  C1  UNL     1     -33.692   5.661   3.261  1.00 20.00     0.007 A 
HETATM    2  C2  UNL     1     -34.392   5.290   4.409  1.00 20.00     0.007 A 
HETATM    3  C3  UNL     1     -32.860   7.621   4.402  1.00 20.00     0.007 A 
HETATM    4  C4  UNL     1     -33.560   7.250   5.550  1.00 20.00     0.007 A 
HETATM    5  C5  UNL     1     -32.926   6.827   3.257  1.00 20.00    -0.062 A 
HETATM    6  C6  UNL     1     -34.326   6.085   5.554  1.00 20.00    -0.062 A 
HETATM    7  C7  UNL     1     -32.177   7.224   2.030  1.00 20.00     0.048 C 
HETATM    8  C8  UNL     1     -35.076   5.688   6.780  1.00 20.00     0.048 C 
ENDROOT
TORSDOF 0
