REMARK  1 active torsions:
REMARK  status: ('A' for Active; 'I' for Inactive)
REMARK    1  A    between atoms: C6_6  and  C8_8 
ROOT
HETATM    1  C1  UNL     1     -34.980   5.960   5.989  1.00 20.00     0.000 A 
HETATM    2  C2  UNL     1     -34.152   7.022   6.353  1.00 20.00     0.001 A 
HETATM    3  C3  UNL     1     -34.835   5.359   4.739  1.00 20.00     0.001 A 
HETATM    4  C4  UNL     1     -33.179   7.484   5.467  1.00 20.00     0.011 A 
HETATM    5  C5  UNL     1     -33.862   5.821   3.852  1.00 20.00     0.011 A 
HETATM    6  C6  UNL     1     -33.034   6.883   4.216  1.00 20.00    -0.037 A 
ENDROOT
BRANCH   6   7
HETATM    7  C8  UNL     1     -32.020   7.364   3.291  1.00 20.00     0.001 C 
HETATM    8  C7  UNL     1     -32.154   7.336   1.972  1.00 20.00     0.012 C 
ENDBRANCH   6   7
TORSDOF 1
