REMARK  1 active torsions:
REMARK  status: ('A' for Active; 'I' for Inactive)
REMARK    1  A    between atoms: C6_6  and  O8_8 
ROOT
HETATM    1  C1  UNL     1     -35.020   5.630   6.052  1.00 20.00     0.000 A 
HETATM    2  C2  UNL     1     -34.728   5.117   4.788  1.00 20.00     0.003 A 
HETATM    3  C3  UNL     1     -34.447   6.832   6.466  1.00 20.00     0.003 A 
HETATM    4  C4  UNL     1     -33.864   5.807   3.938  1.00 20.00     0.037 A 
HETATM    5  C5  UNL     1     -33.583   7.522   5.616  1.00 20.00     0.037 A 
HETATM    6  C6  UNL     1     -33.291   7.009   4.352  1.00 20.00     0.068 A 
ENDROOT
BRANCH   6   7
HETATM    7  O8  UNL     1     -32.446   7.682   3.524  1.00 20.00    -0.356 OA
HETATM    8  C7  UNL     1     -32.189   7.101   2.247  1.00 20.00     0.210 C 
ENDBRANCH   6   7
TORSDOF 1
