REMARK  3 active torsions:
REMARK  status: ('A' for Active; 'I' for Inactive)
REMARK    1  A    between atoms: C6_6  and  C8_8 
REMARK    2  A    between atoms: C8_8  and  C10_10 
REMARK    3  A    between atoms: C9_9  and  C10_10 
ROOT
HETATM    1  C1  UNL     1     -35.304   6.064   5.467  1.00 20.00     0.000 A 
HETATM    2  C2  UNL     1     -34.408   7.112   5.677  1.00 20.00     0.001 A 
HETATM    3  C3  UNL     1     -35.094   5.167   4.419  1.00 20.00     0.001 A 
HETATM    4  C4  UNL     1     -33.302   7.264   4.840  1.00 20.00     0.007 A 
HETATM    5  C5  UNL     1     -33.988   5.318   3.582  1.00 20.00     0.007 A 
HETATM    6  C6  UNL     1     -33.092   6.367   3.793  1.00 20.00    -0.058 A 
ENDROOT
BRANCH   6   7
HETATM    7  C8  UNL     1     -31.897   6.530   2.887  1.00 20.00     0.038 C 
BRANCH   7   8
HETATM    8  C10 UNL     1     -32.221   7.422   1.685  1.00 20.00     0.004 C 
BRANCH   8   9
HETATM    9  C9  UNL     1     -32.619   8.829   2.130  1.00 20.00    -0.004 C 
HETATM   10  C7  UNL     1     -32.903   9.730   0.939  1.00 20.00     0.005 C 
ENDBRANCH   8   9
ENDBRANCH   7   8
ENDBRANCH   6   7
TORSDOF 3
