REMARK  0 active torsions:
REMARK  status: ('A' for Active; 'I' for Inactive)
ROOT
HETATM    1  C1  UNL     1     -34.504   5.230   6.583  1.00 20.00     0.001 A 
HETATM    2  C2  UNL     1     -34.327   6.580   6.898  1.00 20.00     0.003 A 
HETATM    3  C3  UNL     1     -34.140   4.728   5.326  1.00 20.00     0.014 A 
HETATM    4  C4  UNL     1     -33.781   7.475   5.974  1.00 20.00     0.038 A 
HETATM    5  C5  UNL     1     -33.111   5.503   3.048  1.00 20.00     0.046 A 
HETATM    6  C6  UNL     1     -33.590   5.611   4.380  1.00 20.00     0.000 A 
HETATM    7  C7  UNL     1     -33.430   6.947   4.733  1.00 20.00     0.086 A 
HETATM    8  C8  UNL     1     -32.696   6.763   2.682  1.00 20.00     0.050 A 
HETATM    9  C9  UNL     1     -32.111   7.307   1.449  1.00 20.00     0.077 C 
HETATM   10  O10 UNL     1     -32.886   7.646   3.697  1.00 20.00    -0.315 OA
ENDROOT
TORSDOF 0
