REMARK  2 active torsions:
REMARK  status: ('A' for Active; 'I' for Inactive)
REMARK    1  A    between atoms: C5_5  and  N8_8 
REMARK    2  A    between atoms: C6_6  and  S11_11 
ROOT
HETATM    1  C1  UNL     1     -33.641   5.426   3.454  1.00 20.00     0.037 A 
HETATM    2  C2  UNL     1     -32.805   7.549   4.249  1.00 20.00     0.037 A 
HETATM    3  C3  UNL     1     -33.151   5.710   2.180  1.00 20.00     0.021 A 
HETATM    4  C4  UNL     1     -32.314   7.833   2.975  1.00 20.00     0.021 A 
HETATM    5  C5  UNL     1     -33.469   6.346   4.489  1.00 20.00     0.102 A 
HETATM    6  C6  UNL     1     -32.487   6.914   1.940  1.00 20.00    -0.000 A 
ENDROOT
BRANCH   5   7
HETATM    7  N8  UNL     1     -33.968   6.056   5.786  1.00 20.00    -0.116 N 
HETATM    8  O9  UNL     1     -34.561   4.968   5.981  1.00 20.00    -0.532 OA
HETATM    9  O10 UNL     1     -33.803   6.897   6.703  1.00 20.00    -0.532 OA
ENDBRANCH   5   7
BRANCH   6  10
HETATM   10  S11 UNL     1     -31.861   7.276   0.312  1.00 20.00    -0.134 SA
HETATM   11  C7  UNL     1     -31.995   9.078   0.331  1.00 20.00     0.095 C 
ENDBRANCH   6  10
TORSDOF 2
