REMARK  0 active torsions:
REMARK  status: ('A' for Active; 'I' for Inactive)
ROOT
HETATM    1  C1  UNL     1     -33.504   5.037   3.125  1.00 20.00     0.002 A 
HETATM    2  C2  UNL     1     -32.723   5.891   2.348  1.00 20.00     0.007 A 
HETATM    3  C3  UNL     1     -33.928   5.438   4.392  1.00 20.00     0.018 A 
HETATM    4  C4  UNL     1     -32.789   7.549   4.105  1.00 20.00     0.025 A 
HETATM    5  C5  UNL     1     -32.365   7.148   2.838  1.00 20.00    -0.061 A 
HETATM    6  C6  UNL     1     -33.570   6.694   4.882  1.00 20.00     0.006 A 
HETATM    7  C7  UNL     1     -31.529   8.061   2.006  1.00 20.00     0.048 C 
HETATM    8  I8  UNL     1     -34.203   7.292   6.769  1.00 20.00    -0.045 I 
ENDROOT
TORSDOF 0
