REMARK  0 active torsions:
REMARK  status: ('A' for Active; 'I' for Inactive)
ROOT
HETATM    1  C1  UNL     1     -34.232   5.663   6.933  1.00 20.00     0.000 A 
HETATM    2  C2  UNL     1     -34.905   5.071   5.864  1.00 20.00     0.000 A 
HETATM    3  C3  UNL     1     -33.531   6.854   6.743  1.00 20.00     0.000 A 
HETATM    4  C4  UNL     1     -34.877   5.670   4.605  1.00 20.00     0.000 A 
HETATM    5  C5  UNL     1     -33.503   7.453   5.483  1.00 20.00     0.000 A 
HETATM    6  C6  UNL     1     -34.176   6.861   4.415  1.00 20.00     0.000 A 
ENDROOT
TORSDOF 0
