REMARK  1 active torsions:
REMARK  status: ('A' for Active; 'I' for Inactive)
REMARK    1  A    between atoms: C4_4  and  C7_7 
ROOT
HETATM    1  C1  UNL     1     -35.032   5.244   4.989  1.00 20.00     0.006 A 
HETATM    2  C2  UNL     1     -34.306   4.586   3.996  1.00 20.00     0.043 A 
HETATM    3  C3  UNL     1     -34.706   6.555   5.339  1.00 20.00     0.043 A 
HETATM    4  C4  UNL     1     -32.929   6.549   3.701  1.00 20.00     0.029 A 
HETATM    5  C5  UNL     1     -33.255   5.239   3.352  1.00 20.00     0.126 A 
HETATM    6  C6  UNL     1     -33.654   7.207   4.695  1.00 20.00     0.126 A 
HETATM    7  F8  UNL     1     -32.563   4.598   2.399  1.00 20.00    -0.205 F 
HETATM    8  F9  UNL     1     -33.348   8.466   5.037  1.00 20.00    -0.205 F 
ENDROOT
BRANCH   4   9
HETATM    9  C7  UNL     1     -31.805   7.247   3.013  1.00 20.00     0.130 C 
HETATM   10 BR10 UNL     1     -32.351   7.740   1.212  1.00 20.00    -0.091 Br
ENDBRANCH   4   9
TORSDOF 1
