REMARK  4 active torsions:
REMARK  status: ('A' for Active; 'I' for Inactive)
REMARK    1  A    between atoms: C6_6  and  C7_7 
REMARK    2  A    between atoms: C7_7  and  C8_8 
REMARK    3  A    between atoms: C8_8  and  C9_9 
REMARK    4  A    between atoms: C9_9  and  O10_10 
ROOT
HETATM    1  C1  UNL     1     -34.144   4.902   6.351  1.00 20.00     0.000 C 
HETATM    2  C2  UNL     1     -34.585   4.772   4.897  1.00 20.00     0.000 C 
HETATM    3  C3  UNL     1     -34.006   6.363   6.768  1.00 20.00     0.000 C 
HETATM    4  C4  UNL     1     -33.656   5.537   3.956  1.00 20.00     0.004 C 
HETATM    5  C5  UNL     1     -33.076   7.130   5.830  1.00 20.00     0.004 C 
HETATM    6  C6  UNL     1     -33.521   7.010   4.367  1.00 20.00    -0.014 C 
ENDROOT
BRANCH   6   7
HETATM    7  C7  UNL     1     -32.547   7.740   3.444  1.00 20.00     0.007 C 
BRANCH   7   8
HETATM    8  C8  UNL     1     -33.205   8.096   2.117  1.00 20.00     0.026 C 
BRANCH   8   9
HETATM    9  C9  UNL     1     -32.250   8.860   1.211  1.00 20.00     0.164 C 
BRANCH   9  10
HETATM   10  O10 UNL     1     -32.922   9.177  -0.001  1.00 20.00    -0.401 OA
HETATM   11  H28 UNL     1     -32.288   9.661  -0.554  1.00 20.00     0.209 HD
ENDBRANCH   9  10
ENDBRANCH   8   9
ENDBRANCH   7   8
ENDBRANCH   6   7
TORSDOF 4
