REMARK  0 active torsions:
REMARK  status: ('A' for Active; 'I' for Inactive)
ROOT
HETATM    1  C1  UNL     1     -35.026   5.645   6.366  1.00 20.00     0.001 A 
HETATM    2  C2  UNL     1     -34.521   6.938   6.588  1.00 20.00     0.001 A 
HETATM    3  C3  UNL     1     -34.736   4.957   5.184  1.00 20.00     0.012 A 
HETATM    4  C4  UNL     1     -33.718   7.566   5.633  1.00 20.00     0.008 A 
HETATM    5  C5  UNL     1     -33.940   5.587   4.244  1.00 20.00    -0.030 A 
HETATM    6  C6  UNL     1     -33.438   6.877   4.467  1.00 20.00    -0.044 A 
HETATM    7  C7  UNL     1     -33.484   5.120   2.945  1.00 20.00     0.008 A 
HETATM    8  C8  UNL     1     -32.734   6.091   2.402  1.00 20.00    -0.021 A 
HETATM    9  C9  UNL     1     -32.616   7.306   3.291  1.00 20.00     0.066 A 
ENDROOT
TORSDOF 0
