REMARK  1 active torsions:
REMARK  status: ('A' for Active; 'I' for Inactive)
REMARK    1  A    between atoms: C6_6  and  C8_8 
ROOT
HETATM    1  C1  UNL     1     -32.244   6.461   2.400  1.00 20.00     0.000 A 
HETATM    2  C2  UNL     1     -32.170   7.410   3.420  1.00 20.00     0.001 A 
HETATM    3  C3  UNL     1     -33.211   5.457   2.450  1.00 20.00     0.001 A 
HETATM    4  C4  UNL     1     -33.063   7.354   4.490  1.00 20.00     0.007 A 
HETATM    5  C5  UNL     1     -34.104   5.402   3.520  1.00 20.00     0.007 A 
HETATM    6  C6  UNL     1     -34.030   6.350   4.541  1.00 20.00    -0.059 A 
ENDROOT
BRANCH   6   7
HETATM    7  C8  UNL     1     -34.985   6.290   5.685  1.00 20.00     0.034 C 
HETATM    8  C7  UNL     1     -34.458   5.437   6.836  1.00 20.00     0.010 C 
ENDBRANCH   6   7
TORSDOF 1
