REMARK  0 active torsions:
REMARK  status: ('A' for Active; 'I' for Inactive)
ROOT
HETATM    1  C1  UNL     1     -34.309   4.632   5.486  1.00 20.00     0.016 C 
HETATM    2  C2  UNL     1     -34.653   5.737   6.457  1.00 20.00     0.081 C 
HETATM    3 BR3  UNL     1     -33.488   7.265   6.159  1.00 20.00    -0.097 Br
ENDROOT
TORSDOF 0
