REMARK  0 active torsions:
REMARK  status: ('A' for Active; 'I' for Inactive)
ROOT
HETATM    1  C1  UNL     1     -33.983   7.131   6.419  1.00 20.00     0.019 A 
HETATM    2  C2  UNL     1     -34.416   5.801   6.643  1.00 20.00     0.019 A 
HETATM    3  C3  UNL     1     -33.550   7.209   5.113  1.00 20.00     0.090 A 
HETATM    4  C4  UNL     1     -34.235   5.106   5.468  1.00 20.00     0.090 A 
HETATM    5  C5  UNL     1     -33.369   5.632   3.182  1.00 20.00     0.154 C 
HETATM    6  N6  UNL     1     -33.708   5.972   4.545  1.00 20.00    -0.371 N 
ENDROOT
TORSDOF 0
