REMARK  5 active torsions:
REMARK  status: ('A' for Active; 'I' for Inactive)
REMARK    1  A    between atoms: C3_3  and  C5_5 
REMARK    2  A    between atoms: C4_4  and  C6_6 
REMARK    3  A    between atoms: C5_5  and  S7_7 
REMARK    4  A    between atoms: C6_6  and  S8_8 
REMARK    5  A    between atoms: S7_7  and  S8_8 
ROOT
HETATM    1  S7  UNL     1     -33.505   5.540   3.583  1.00 20.00    -0.098 SA
ENDROOT
BRANCH   1   2
HETATM    2  C5  UNL     1     -35.158   5.966   4.199  1.00 20.00     0.086 C 
BRANCH   2   3
HETATM    3  C3  UNL     1     -35.089   6.396   5.661  1.00 20.00     0.006 C 
HETATM    4  C1  UNL     1     -34.536   5.280   6.534  1.00 20.00     0.006 C 
ENDBRANCH   2   3
ENDBRANCH   1   2
BRANCH   1   5
HETATM    5  S8  UNL     1     -32.720   7.398   3.191  1.00 20.00    -0.098 SA
BRANCH   5   6
HETATM    6  C6  UNL     1     -33.215   7.652   1.469  1.00 20.00     0.086 C 
BRANCH   6   7
HETATM    7  C4  UNL     1     -32.723   9.004   0.965  1.00 20.00     0.006 C 
HETATM    8  C2  UNL     1     -33.129   9.229  -0.484  1.00 20.00     0.006 C 
ENDBRANCH   6   7
ENDBRANCH   5   6
ENDBRANCH   1   5
TORSDOF 5
