REMARK  1 active torsions:
REMARK  status: ('A' for Active; 'I' for Inactive)
REMARK    1  A    between atoms: C6_6  and  S8_8 
ROOT
HETATM    1  C1  UNL     1     -35.026   5.677   6.448  1.00 20.00     0.000 A 
HETATM    2  C2  UNL     1     -34.532   5.074   5.291  1.00 20.00     0.001 A 
HETATM    3  C3  UNL     1     -34.608   6.961   6.798  1.00 20.00     0.001 A 
HETATM    4  C4  UNL     1     -33.621   5.755   4.484  1.00 20.00     0.018 A 
HETATM    5  C5  UNL     1     -33.697   7.642   5.991  1.00 20.00     0.018 A 
HETATM    6  C6  UNL     1     -33.203   7.039   4.834  1.00 20.00    -0.000 A 
ENDROOT
BRANCH   6   7
HETATM    7  S8  UNL     1     -32.038   7.909   3.804  1.00 20.00    -0.134 SA
HETATM    8  C7  UNL     1     -32.465   7.199   2.200  1.00 20.00     0.095 C 
ENDBRANCH   6   7
TORSDOF 1
