REMARK  0 active torsions:
REMARK  status: ('A' for Active; 'I' for Inactive)
ROOT
HETATM    1  C1  UNL     1     -34.763   5.468   6.573  1.00 20.00     0.000 A 
HETATM    2  C2  UNL     1     -34.707   4.878   5.310  1.00 20.00     0.001 A 
HETATM    3  C3  UNL     1     -34.131   6.691   6.799  1.00 20.00     0.001 A 
HETATM    4  C4  UNL     1     -34.020   5.510   4.274  1.00 20.00     0.007 A 
HETATM    5  C5  UNL     1     -33.443   7.323   5.763  1.00 20.00     0.007 A 
HETATM    6  C6  UNL     1     -33.388   6.733   4.501  1.00 20.00    -0.062 A 
HETATM    7  C7  UNL     1     -32.652   7.409   3.394  1.00 20.00     0.048 C 
ENDROOT
TORSDOF 0
