REMARK  4 active torsions:
REMARK  status: ('A' for Active; 'I' for Inactive)
REMARK    1  A    between atoms: C6_6  and  C7_7 
REMARK    2  A    between atoms: C7_7  and  C8_8 
REMARK    3  A    between atoms: C8_8  and  C9_9 
REMARK    4  A    between atoms: C9_9  and  S10_10 
ROOT
HETATM    1  C1  UNL     1     -34.736   5.200   6.050  1.00 20.00     0.000 A 
HETATM    2  C2  UNL     1     -34.198   6.464   6.289  1.00 20.00     0.001 A 
HETATM    3  C3  UNL     1     -34.487   4.553   4.839  1.00 20.00     0.001 A 
HETATM    4  C4  UNL     1     -33.410   7.082   5.318  1.00 20.00     0.007 A 
HETATM    5  C5  UNL     1     -33.699   5.171   3.868  1.00 20.00     0.007 A 
HETATM    6  C6  UNL     1     -33.160   6.435   4.108  1.00 20.00    -0.058 A 
ENDROOT
BRANCH   6   7
HETATM    7  C7  UNL     1     -32.318   7.095   3.069  1.00 20.00     0.039 C 
BRANCH   7   8
HETATM    8  C8  UNL     1     -33.104   7.970   2.073  1.00 20.00     0.014 C 
BRANCH   8   9
HETATM    9  C9  UNL     1     -32.201   8.605   1.016  1.00 20.00     0.071 C 
BRANCH   9  10
HETATM   10  S10 UNL     1     -33.177   9.615  -0.137  1.00 20.00    -0.182 SA
HETATM   11  H22 UNL     1     -32.142  10.006  -0.892  1.00 20.00     0.101 HD
ENDBRANCH   9  10
ENDBRANCH   8   9
ENDBRANCH   7   8
ENDBRANCH   6   7
TORSDOF 4
