REMARK  3 active torsions:
REMARK  status: ('A' for Active; 'I' for Inactive)
REMARK    1  A    between atoms: C4_4  and  S10_10 
REMARK    2  A    between atoms: C5_5  and  C7_7 
REMARK    3  A    between atoms: C7_7  and  S10_10 
ROOT
HETATM    1  C1  UNL     1     -34.225   6.631   6.736  1.00 20.00     0.009 A 
HETATM    2  C2  UNL     1     -34.335   7.131   5.406  1.00 20.00     0.026 A 
HETATM    3  C3  UNL     1     -34.166   5.255   6.769  1.00 20.00     0.051 A 
HETATM    4  C4  UNL     1     -34.355   6.117   4.473  1.00 20.00     0.041 A 
HETATM    5  S9  UNL     1     -34.243   4.571   5.201  1.00 20.00    -0.095 SA
ENDROOT
BRANCH   4   6
HETATM    6  S10 UNL     1     -34.479   6.320   2.721  1.00 20.00    -0.115 SA
BRANCH   6   7
HETATM    7  C7  UNL     1     -32.728   6.429   2.290  1.00 20.00     0.157 C 
BRANCH   7   8
HETATM    8  C5  UNL     1     -32.234   7.855   2.322  1.00 20.00     0.132 C 
HETATM    9  C6  UNL     1     -32.367   8.592   1.029  1.00 20.00     0.091 C 
HETATM   10  O8  UNL     1     -31.754   8.425   3.293  1.00 20.00    -0.298 OA
ENDBRANCH   7   8
ENDBRANCH   6   7
ENDBRANCH   4   6
TORSDOF 3
