REMARK  0 active torsions:
REMARK  status: ('A' for Active; 'I' for Inactive)
ROOT
HETATM    1  C1  UNL     1     -34.565   6.545   6.522  1.00 20.00     0.001 A 
HETATM    2  C2  UNL     1     -34.883   5.262   6.077  1.00 20.00     0.001 A 
HETATM    3  C3  UNL     1     -33.819   7.400   5.711  1.00 20.00     0.008 A 
HETATM    4  C4  UNL     1     -34.455   4.834   4.820  1.00 20.00     0.019 A 
HETATM    5  C5  UNL     1     -33.391   6.972   4.455  1.00 20.00    -0.045 A 
HETATM    6  C6  UNL     1     -33.709   5.689   4.009  1.00 20.00     0.012 A 
HETATM    7  C7  UNL     1     -32.595   7.932   3.629  1.00 20.00     0.049 C 
HETATM    8  I8  UNL     1     -33.099   4.984   2.136  1.00 20.00    -0.044 I 
ENDROOT
TORSDOF 0
