REMARK  0 active torsions:
REMARK  status: ('A' for Active; 'I' for Inactive)
ROOT
HETATM    1  C1  UNL     1     -34.671   4.691   5.071  1.00 20.00    -0.030 C 
HETATM    2  C2  UNL     1     -34.336   5.529   4.079  1.00 20.00    -0.030 C 
HETATM    3  C3  UNL     1     -34.463   5.014   6.521  1.00 20.00     0.026 C 
HETATM    4  C4  UNL     1     -33.688   6.860   4.315  1.00 20.00     0.026 C 
HETATM    5  C5  UNL     1     -34.145   6.490   6.770  1.00 20.00     0.004 C 
HETATM    6  C6  UNL     1     -33.153   7.025   5.740  1.00 20.00     0.004 C 
ENDROOT
TORSDOF 0
