@<TRIPOS>MOLECULE
o-xylene.pdb
   18    18     0     0     0
SMALL
NO_CHARGES

@<TRIPOS>ATOM
      1 C1         33.7270   -7.5230    4.3400 C.ar      1 MOL         0.0000
      2 C2         33.2210   -8.9620    4.5130 C.3       1 MOL         0.0000
      3 C3         33.4500   -6.7860    3.1930 C.ar      1 MOL         0.0000
      4 C4         32.6150   -7.4130    2.0820 C.3       1 MOL         0.0000
      5 C5         33.9390   -5.4900    3.0430 C.ar      1 MOL         0.0000
      6 C6         34.6930   -4.9210    4.0650 C.ar      1 MOL         0.0000
      7 C7         34.9730   -5.6550    5.2040 C.ar      1 MOL         0.0000
      8 C8         34.4850   -6.9440    5.3450 C.ar      1 MOL         0.0000
      9 H1         33.7347   -4.9318    2.1413 H         1 MOL         0.0000
     10 H2         35.0586   -3.9093    3.9693 H         1 MOL         0.0000
     11 H3         35.5756   -5.2205    5.9879 H         1 MOL         0.0000
     12 H4         34.6971   -7.5018    6.2452 H         1 MOL         0.0000
     13 H5         32.4950   -6.6971    1.2689 H         1 MOL         0.0000
     14 H6         33.1182   -8.3051    1.7090 H         1 MOL         0.0000
     15 H7         31.6350   -7.6856    2.4737 H         1 MOL         0.0000
     16 H8         33.5534   -9.3513    5.4753 H         1 MOL         0.0000
     17 H9         33.6186   -9.5854    3.7122 H         1 MOL         0.0000
     18 H10        32.1317   -8.9713    4.4739 H         1 MOL         0.0000
@<TRIPOS>BOND
     1    1    2 1
     2    1    3 ar
     3    1    8 ar
     4    3    4 1
     5    3    5 ar
     6    5    6 ar
     7    6    7 ar
     8    7    8 ar
     9    5    9 1
    10    6   10 1
    11    7   11 1
    12    8   12 1
    13    4   13 1
    14    4   14 1
    15    4   15 1
    16    2   16 1
    17    2   17 1
    18    2   18 1
