MODEL 1
REMARK VINA RESULT:      -5.8      0.000      0.000
REMARK  0 active torsions:
REMARK  status: ('A' for Active; 'I' for Inactive)
ROOT
HETATM    1  C1  UNL     1     -32.975   7.134   4.775  1.00 20.00     0.091 A 
HETATM    2  C2  UNL     1     -33.672   6.659   5.886  1.00 20.00     0.161 A 
HETATM    3  C3  UNL     1     -33.168   6.542   3.527  1.00 20.00     0.161 A 
HETATM    4  C4  UNL     1     -34.560   5.592   5.749  1.00 20.00     0.196 A 
HETATM    5  C5  UNL     1     -34.056   5.476   3.390  1.00 20.00     0.196 A 
HETATM    6  C6  UNL     1     -34.753   5.000   4.501  1.00 20.00     0.199 A 
HETATM    7  F7  UNL     1     -33.488   7.227   7.085  1.00 20.00    -0.203 F 
HETATM    8  F8  UNL     1     -32.500   6.998   2.459  1.00 20.00    -0.203 F 
HETATM    9  F9  UNL     1     -35.228   5.136   6.816  1.00 20.00    -0.199 F 
HETATM   10  F10 UNL     1     -34.241   4.908   2.190  1.00 20.00    -0.199 F 
HETATM   11  F11 UNL     1     -35.605   3.977   4.370  1.00 20.00    -0.199 F 
ENDROOT
TORSDOF 0
ENDMDL
MODEL 2
REMARK VINA RESULT:      -5.8      0.001      3.206
REMARK  0 active torsions:
REMARK  status: ('A' for Active; 'I' for Inactive)
ROOT
HETATM    1  C1  UNL     1     -32.976   7.134   4.774  1.00 20.00     0.091 A 
HETATM    2  C2  UNL     1     -33.168   6.543   3.526  1.00 20.00     0.161 A 
HETATM    3  C3  UNL     1     -33.672   6.659   5.886  1.00 20.00     0.161 A 
HETATM    4  C4  UNL     1     -34.056   5.475   3.389  1.00 20.00     0.196 A 
HETATM    5  C5  UNL     1     -34.560   5.592   5.748  1.00 20.00     0.196 A 
HETATM    6  C6  UNL     1     -34.752   5.000   4.501  1.00 20.00     0.199 A 
HETATM    7  F7  UNL     1     -32.500   6.999   2.458  1.00 20.00    -0.203 F 
HETATM    8  F8  UNL     1     -33.488   7.227   7.085  1.00 20.00    -0.203 F 
HETATM    9  F9  UNL     1     -34.241   4.908   2.190  1.00 20.00    -0.199 F 
HETATM   10  F10 UNL     1     -35.228   5.135   6.817  1.00 20.00    -0.199 F 
HETATM   11  F11 UNL     1     -35.605   3.976   4.368  1.00 20.00    -0.199 F 
ENDROOT
TORSDOF 0
ENDMDL
MODEL 3
REMARK VINA RESULT:      -5.6      0.854      4.199
REMARK  0 active torsions:
REMARK  status: ('A' for Active; 'I' for Inactive)
ROOT
HETATM    1  C1  UNL     1     -35.009   4.947   4.169  1.00 20.00     0.091 A 
HETATM    2  C2  UNL     1     -34.217   5.395   3.112  1.00 20.00     0.161 A 
HETATM    3  C3  UNL     1     -34.777   5.415   5.462  1.00 20.00     0.161 A 
HETATM    4  C4  UNL     1     -33.192   6.311   3.348  1.00 20.00     0.196 A 
HETATM    5  C5  UNL     1     -33.752   6.331   5.698  1.00 20.00     0.196 A 
HETATM    6  C6  UNL     1     -32.959   6.780   4.642  1.00 20.00     0.199 A 
HETATM    7  F7  UNL     1     -34.440   4.946   1.870  1.00 20.00    -0.203 F 
HETATM    8  F8  UNL     1     -35.537   4.985   6.478  1.00 20.00    -0.203 F 
HETATM    9  F9  UNL     1     -32.431   6.741   2.334  1.00 20.00    -0.199 F 
HETATM   10  F10 UNL     1     -33.529   6.781   6.941  1.00 20.00    -0.199 F 
HETATM   11  F11 UNL     1     -31.975   7.659   4.868  1.00 20.00    -0.199 F 
ENDROOT
TORSDOF 0
ENDMDL
MODEL 4
REMARK VINA RESULT:      -5.6      0.855      2.716
REMARK  0 active torsions:
REMARK  status: ('A' for Active; 'I' for Inactive)
ROOT
HETATM    1  C1  UNL     1     -35.001   4.955   4.150  1.00 20.00     0.091 A 
HETATM    2  C2  UNL     1     -34.771   5.428   5.441  1.00 20.00     0.161 A 
HETATM    3  C3  UNL     1     -34.197   5.388   3.095  1.00 20.00     0.161 A 
HETATM    4  C4  UNL     1     -33.737   6.335   5.679  1.00 20.00     0.196 A 
HETATM    5  C5  UNL     1     -33.164   6.294   3.332  1.00 20.00     0.196 A 
HETATM    6  C6  UNL     1     -32.934   6.768   4.623  1.00 20.00     0.199 A 
HETATM    7  F7  UNL     1     -35.542   5.013   6.454  1.00 20.00    -0.203 F 
HETATM    8  F8  UNL     1     -34.417   4.933   1.854  1.00 20.00    -0.203 F 
HETATM    9  F9  UNL     1     -33.517   6.790   6.918  1.00 20.00    -0.199 F 
HETATM   10  F10 UNL     1     -32.392   6.709   2.319  1.00 20.00    -0.199 F 
HETATM   11  F11 UNL     1     -31.942   7.638   4.852  1.00 20.00    -0.199 F 
ENDROOT
TORSDOF 0
ENDMDL
MODEL 5
REMARK VINA RESULT:      -5.5      0.831      2.409
REMARK  0 active torsions:
REMARK  status: ('A' for Active; 'I' for Inactive)
ROOT
HETATM    1  C1  UNL     1     -32.983   6.317   3.177  1.00 20.00     0.091 A 
HETATM    2  C2  UNL     1     -32.554   6.946   4.344  1.00 20.00     0.161 A 
HETATM    3  C3  UNL     1     -34.093   5.472   3.208  1.00 20.00     0.161 A 
HETATM    4  C4  UNL     1     -33.233   6.732   5.544  1.00 20.00     0.196 A 
HETATM    5  C5  UNL     1     -34.773   5.258   4.407  1.00 20.00     0.196 A 
HETATM    6  C6  UNL     1     -34.343   5.887   5.575  1.00 20.00     0.199 A 
HETATM    7  F7  UNL     1     -31.488   7.758   4.315  1.00 20.00    -0.203 F 
HETATM    8  F8  UNL     1     -34.507   4.867   2.087  1.00 20.00    -0.203 F 
HETATM    9  F9  UNL     1     -32.820   7.336   6.665  1.00 20.00    -0.199 F 
HETATM   10  F10 UNL     1     -35.839   4.447   4.437  1.00 20.00    -0.199 F 
HETATM   11  F11 UNL     1     -34.995   5.681   6.727  1.00 20.00    -0.199 F 
ENDROOT
TORSDOF 0
ENDMDL
MODEL 6
REMARK VINA RESULT:      -5.5      0.835      3.079
REMARK  0 active torsions:
REMARK  status: ('A' for Active; 'I' for Inactive)
ROOT
HETATM    1  C1  UNL     1     -32.982   6.351   3.149  1.00 20.00     0.091 A 
HETATM    2  C2  UNL     1     -34.089   5.504   3.164  1.00 20.00     0.161 A 
HETATM    3  C3  UNL     1     -32.555   6.962   4.328  1.00 20.00     0.161 A 
HETATM    4  C4  UNL     1     -34.772   5.268   4.358  1.00 20.00     0.196 A 
HETATM    5  C5  UNL     1     -33.237   6.726   5.521  1.00 20.00     0.196 A 
HETATM    6  C6  UNL     1     -34.345   5.879   5.537  1.00 20.00     0.199 A 
HETATM    7  F7  UNL     1     -34.499   4.917   2.031  1.00 20.00    -0.203 F 
HETATM    8  F8  UNL     1     -31.491   7.775   4.314  1.00 20.00    -0.203 F 
HETATM    9  F9  UNL     1     -35.836   4.455   4.372  1.00 20.00    -0.199 F 
HETATM   10  F10 UNL     1     -32.826   7.312   6.654  1.00 20.00    -0.199 F 
HETATM   11  F11 UNL     1     -35.000   5.652   6.683  1.00 20.00    -0.199 F 
ENDROOT
TORSDOF 0
ENDMDL
MODEL 7
REMARK VINA RESULT:      -5.3      0.858      2.909
REMARK  0 active torsions:
REMARK  status: ('A' for Active; 'I' for Inactive)
ROOT
HETATM    1  C1  UNL     1     -34.438   5.841   5.783  1.00 20.00     0.091 A 
HETATM    2  C2  UNL     1     -33.379   6.744   5.868  1.00 20.00     0.161 A 
HETATM    3  C3  UNL     1     -34.759   5.257   4.557  1.00 20.00     0.161 A 
HETATM    4  C4  UNL     1     -32.641   7.065   4.727  1.00 20.00     0.196 A 
HETATM    5  C5  UNL     1     -34.022   5.577   3.418  1.00 20.00     0.196 A 
HETATM    6  C6  UNL     1     -32.963   6.480   3.502  1.00 20.00     0.199 A 
HETATM    7  F7  UNL     1     -33.070   7.306   7.044  1.00 20.00    -0.203 F 
HETATM    8  F8  UNL     1     -35.776   4.389   4.475  1.00 20.00    -0.203 F 
HETATM    9  F9  UNL     1     -31.625   7.933   4.809  1.00 20.00    -0.199 F 
HETATM   10  F10 UNL     1     -34.331   5.015   2.241  1.00 20.00    -0.199 F 
HETATM   11  F11 UNL     1     -32.254   6.788   2.408  1.00 20.00    -0.199 F 
ENDROOT
TORSDOF 0
ENDMDL
MODEL 8
REMARK VINA RESULT:      -5.3      0.859      3.603
REMARK  0 active torsions:
REMARK  status: ('A' for Active; 'I' for Inactive)
ROOT
HETATM    1  C1  UNL     1     -34.437   5.838   5.788  1.00 20.00     0.091 A 
HETATM    2  C2  UNL     1     -34.758   5.254   4.564  1.00 20.00     0.161 A 
HETATM    3  C3  UNL     1     -33.380   6.744   5.873  1.00 20.00     0.161 A 
HETATM    4  C4  UNL     1     -34.022   5.575   3.423  1.00 20.00     0.196 A 
HETATM    5  C5  UNL     1     -32.644   7.066   4.733  1.00 20.00     0.196 A 
HETATM    6  C6  UNL     1     -32.965   6.481   3.507  1.00 20.00     0.199 A 
HETATM    7  F7  UNL     1     -35.773   4.383   4.482  1.00 20.00    -0.203 F 
HETATM    8  F8  UNL     1     -33.072   7.307   7.049  1.00 20.00    -0.203 F 
HETATM    9  F9  UNL     1     -34.330   5.012   2.247  1.00 20.00    -0.199 F 
HETATM   10  F10 UNL     1     -31.629   7.937   4.814  1.00 20.00    -0.199 F 
HETATM   11  F11 UNL     1     -32.259   6.789   2.412  1.00 20.00    -0.199 F 
ENDROOT
TORSDOF 0
ENDMDL
MODEL 9
REMARK VINA RESULT:      -4.9      9.032     10.190
REMARK  0 active torsions:
REMARK  status: ('A' for Active; 'I' for Inactive)
ROOT
HETATM    1  C1  UNL     1     -40.874   4.701  -0.791  1.00 20.00     0.091 A 
HETATM    2  C2  UNL     1     -40.743   6.036  -0.409  1.00 20.00     0.161 A 
HETATM    3  C3  UNL     1     -41.654   4.366  -1.899  1.00 20.00     0.161 A 
HETATM    4  C4  UNL     1     -41.392   7.036  -1.133  1.00 20.00     0.196 A 
HETATM    5  C5  UNL     1     -42.303   5.367  -2.622  1.00 20.00     0.196 A 
HETATM    6  C6  UNL     1     -42.172   6.702  -2.240  1.00 20.00     0.199 A 
HETATM    7  F7  UNL     1     -39.994   6.357   0.654  1.00 20.00    -0.203 F 
HETATM    8  F8  UNL     1     -41.780   3.085  -2.267  1.00 20.00    -0.203 F 
HETATM    9  F9  UNL     1     -41.267   8.317  -0.764  1.00 20.00    -0.199 F 
HETATM   10  F10 UNL     1     -43.051   5.045  -3.686  1.00 20.00    -0.199 F 
HETATM   11  F11 UNL     1     -42.795   7.662  -2.934  1.00 20.00    -0.199 F 
ENDROOT
TORSDOF 0
ENDMDL
