MODEL 1
REMARK VINA RESULT:      -5.2      0.000      0.000
REMARK  0 active torsions:
REMARK  status: ('A' for Active; 'I' for Inactive)
ROOT
HETATM    1  C1  UNL     1     -34.370   5.837   6.500  1.00 20.00     0.002 A 
HETATM    2  C2  UNL     1     -35.205   4.866   5.949  1.00 20.00     0.002 A 
HETATM    3  C3  UNL     1     -33.512   6.567   5.677  1.00 20.00     0.025 A 
HETATM    4  C4  UNL     1     -35.183   4.623   4.576  1.00 20.00     0.025 A 
HETATM    5  C5  UNL     1     -33.489   6.325   4.303  1.00 20.00     0.055 A 
HETATM    6  C6  UNL     1     -34.325   5.352   3.753  1.00 20.00     0.055 A 
HETATM    7 CL7  UNL     1     -32.406   7.261   3.335  1.00 20.00    -0.083 Cl
HETATM    8 CL8  UNL     1     -34.343   5.006   2.059  1.00 20.00    -0.083 Cl
ENDROOT
TORSDOF 0
ENDMDL
MODEL 2
REMARK VINA RESULT:      -5.2      0.030      2.353
REMARK  0 active torsions:
REMARK  status: ('A' for Active; 'I' for Inactive)
ROOT
HETATM    1  C1  UNL     1     -35.184   4.896   5.964  1.00 20.00     0.002 A 
HETATM    2  C2  UNL     1     -34.349   5.875   6.502  1.00 20.00     0.002 A 
HETATM    3  C3  UNL     1     -35.165   4.641   4.593  1.00 20.00     0.025 A 
HETATM    4  C4  UNL     1     -33.495   6.599   5.671  1.00 20.00     0.025 A 
HETATM    5  C5  UNL     1     -34.310   5.364   3.760  1.00 20.00     0.055 A 
HETATM    6  C6  UNL     1     -33.476   6.344   4.299  1.00 20.00     0.055 A 
HETATM    7 CL7  UNL     1     -34.331   5.003   2.070  1.00 20.00    -0.083 Cl
HETATM    8 CL8  UNL     1     -32.396   7.274   3.321  1.00 20.00    -0.083 Cl
ENDROOT
TORSDOF 0
ENDMDL
MODEL 3
REMARK VINA RESULT:      -5.1      1.292      2.139
REMARK  0 active torsions:
REMARK  status: ('A' for Active; 'I' for Inactive)
ROOT
HETATM    1  C1  UNL     1     -35.279   4.311   5.844  1.00 20.00     0.002 A 
HETATM    2  C2  UNL     1     -35.185   4.223   4.455  1.00 20.00     0.002 A 
HETATM    3  C3  UNL     1     -34.618   5.333   6.525  1.00 20.00     0.025 A 
HETATM    4  C4  UNL     1     -34.430   5.157   3.746  1.00 20.00     0.025 A 
HETATM    5  C5  UNL     1     -33.862   6.268   5.816  1.00 20.00     0.055 A 
HETATM    6  C6  UNL     1     -33.768   6.179   4.426  1.00 20.00     0.055 A 
HETATM    7 CL7  UNL     1     -33.066   7.512   6.714  1.00 20.00    -0.083 Cl
HETATM    8 CL8  UNL     1     -32.848   7.306   3.492  1.00 20.00    -0.083 Cl
ENDROOT
TORSDOF 0
ENDMDL
MODEL 4
REMARK VINA RESULT:      -5.1      1.291      2.602
REMARK  0 active torsions:
REMARK  status: ('A' for Active; 'I' for Inactive)
ROOT
HETATM    1  C1  UNL     1     -35.186   4.229   4.445  1.00 20.00     0.002 A 
HETATM    2  C2  UNL     1     -35.282   4.314   5.834  1.00 20.00     0.002 A 
HETATM    3  C3  UNL     1     -34.426   5.161   3.739  1.00 20.00     0.025 A 
HETATM    4  C4  UNL     1     -34.620   5.333   6.517  1.00 20.00     0.025 A 
HETATM    5  C5  UNL     1     -33.763   6.181   4.423  1.00 20.00     0.055 A 
HETATM    6  C6  UNL     1     -33.860   6.268   5.812  1.00 20.00     0.055 A 
HETATM    7 CL7  UNL     1     -32.838   7.307   3.494  1.00 20.00    -0.083 Cl
HETATM    8 CL8  UNL     1     -33.063   7.507   6.716  1.00 20.00    -0.083 Cl
ENDROOT
TORSDOF 0
ENDMDL
MODEL 5
REMARK VINA RESULT:      -4.4      2.236      2.875
REMARK  0 active torsions:
REMARK  status: ('A' for Active; 'I' for Inactive)
ROOT
HETATM    1  C1  UNL     1     -33.289   6.266   2.937  1.00 20.00     0.002 A 
HETATM    2  C2  UNL     1     -34.206   5.218   2.853  1.00 20.00     0.002 A 
HETATM    3  C3  UNL     1     -33.014   6.855   4.171  1.00 20.00     0.025 A 
HETATM    4  C4  UNL     1     -34.849   4.760   4.002  1.00 20.00     0.025 A 
HETATM    5  C5  UNL     1     -33.657   6.397   5.321  1.00 20.00     0.055 A 
HETATM    6  C6  UNL     1     -34.575   5.349   5.237  1.00 20.00     0.055 A 
HETATM    7 CL7  UNL     1     -33.276   7.167   6.821  1.00 20.00    -0.083 Cl
HETATM    8 CL8  UNL     1     -35.404   4.737   6.625  1.00 20.00    -0.083 Cl
ENDROOT
TORSDOF 0
ENDMDL
MODEL 6
REMARK VINA RESULT:      -4.4      2.238      3.669
REMARK  0 active torsions:
REMARK  status: ('A' for Active; 'I' for Inactive)
ROOT
HETATM    1  C1  UNL     1     -34.185   5.181   2.870  1.00 20.00     0.002 A 
HETATM    2  C2  UNL     1     -33.271   6.232   2.944  1.00 20.00     0.002 A 
HETATM    3  C3  UNL     1     -34.833   4.738   4.023  1.00 20.00     0.025 A 
HETATM    4  C4  UNL     1     -33.003   6.839   4.170  1.00 20.00     0.025 A 
HETATM    5  C5  UNL     1     -34.566   5.346   5.251  1.00 20.00     0.055 A 
HETATM    6  C6  UNL     1     -33.650   6.396   5.324  1.00 20.00     0.055 A 
HETATM    7 CL7  UNL     1     -35.400   4.753   6.644  1.00 20.00    -0.083 Cl
HETATM    8 CL8  UNL     1     -33.277   7.189   6.814  1.00 20.00    -0.083 Cl
ENDROOT
TORSDOF 0
ENDMDL
MODEL 7
REMARK VINA RESULT:      -3.9     12.813     13.797
REMARK  0 active torsions:
REMARK  status: ('A' for Active; 'I' for Inactive)
ROOT
HETATM    1  C1  UNL     1     -33.581  13.804  -3.832  1.00 20.00     0.002 A 
HETATM    2  C2  UNL     1     -33.010  15.057  -3.611  1.00 20.00     0.002 A 
HETATM    3  C3  UNL     1     -34.362  13.583  -4.966  1.00 20.00     0.025 A 
HETATM    4  C4  UNL     1     -33.221  16.091  -4.523  1.00 20.00     0.025 A 
HETATM    5  C5  UNL     1     -34.573  14.617  -5.880  1.00 20.00     0.055 A 
HETATM    6  C6  UNL     1     -34.003  15.871  -5.657  1.00 20.00     0.055 A 
HETATM    7 CL7  UNL     1     -35.551  14.283  -7.266  1.00 20.00    -0.083 Cl
HETATM    8 CL8  UNL     1     -34.228  17.191  -6.751  1.00 20.00    -0.083 Cl
ENDROOT
TORSDOF 0
ENDMDL
MODEL 8
REMARK VINA RESULT:      -3.9     12.834     13.626
REMARK  0 active torsions:
REMARK  status: ('A' for Active; 'I' for Inactive)
ROOT
HETATM    1  C1  UNL     1     -33.068  15.042  -3.631  1.00 20.00     0.002 A 
HETATM    2  C2  UNL     1     -33.636  13.789  -3.865  1.00 20.00     0.002 A 
HETATM    3  C3  UNL     1     -33.263  16.078  -4.544  1.00 20.00     0.025 A 
HETATM    4  C4  UNL     1     -34.399  13.573  -5.012  1.00 20.00     0.025 A 
HETATM    5  C5  UNL     1     -34.027  15.862  -5.692  1.00 20.00     0.055 A 
HETATM    6  C6  UNL     1     -34.594  14.608  -5.926  1.00 20.00     0.055 A 
HETATM    7 CL7  UNL     1     -34.233  17.184  -6.786  1.00 20.00    -0.083 Cl
HETATM    8 CL8  UNL     1     -35.550  14.278  -7.328  1.00 20.00    -0.083 Cl
ENDROOT
TORSDOF 0
ENDMDL
MODEL 9
REMARK VINA RESULT:      -3.8     12.331     13.348
REMARK  0 active torsions:
REMARK  status: ('A' for Active; 'I' for Inactive)
ROOT
HETATM    1  C1  UNL     1     -34.838  13.824  -5.795  1.00 20.00     0.002 A 
HETATM    2  C2  UNL     1     -34.936  13.336  -4.493  1.00 20.00     0.002 A 
HETATM    3  C3  UNL     1     -34.371  15.118  -6.022  1.00 20.00     0.025 A 
HETATM    4  C4  UNL     1     -34.567  14.141  -3.416  1.00 20.00     0.025 A 
HETATM    5  C5  UNL     1     -34.002  15.925  -4.945  1.00 20.00     0.055 A 
HETATM    6  C6  UNL     1     -34.101  15.437  -3.642  1.00 20.00     0.055 A 
HETATM    7 CL7  UNL     1     -33.430  17.520  -5.289  1.00 20.00    -0.083 Cl
HETATM    8 CL8  UNL     1     -33.659  16.387  -2.266  1.00 20.00    -0.083 Cl
ENDROOT
TORSDOF 0
ENDMDL
