MODEL 1
REMARK VINA RESULT:      -4.9      0.000      0.000
REMARK  1 active torsions:
REMARK  status: ('A' for Active; 'I' for Inactive)
REMARK    1  A    between atoms: C6_6  and  N9_9 
ROOT
HETATM    1  N8  UNL     1     -32.567   9.665   1.825  1.00 20.00     0.068 N 
HETATM    2  N9  UNL     1     -31.979   7.372   2.169  1.00 20.00    -0.073 NA
HETATM    3  N10 UNL     1     -32.288   8.570   1.991  1.00 20.00    -0.162 NA
ENDROOT
BRANCH   2   4
HETATM    4  C6  UNL     1     -32.781   6.740   3.124  1.00 20.00     0.093 A 
HETATM    5  C3  UNL     1     -33.689   5.757   2.732  1.00 20.00     0.035 A 
HETATM    6  C1  UNL     1     -34.490   5.125   3.684  1.00 20.00     0.009 A 
HETATM    7  C5  UNL     1     -34.381   5.476   5.029  1.00 20.00    -0.062 A 
HETATM    8  C2  UNL     1     -33.473   6.459   5.422  1.00 20.00     0.009 A 
HETATM    9  C7  UNL     1     -35.237   4.803   6.047  1.00 20.00     0.048 C 
HETATM   10  C4  UNL     1     -32.673   7.092   4.470  1.00 20.00     0.035 A 
ENDBRANCH   2   4
TORSDOF 1
ENDMDL
MODEL 2
REMARK VINA RESULT:      -4.9      0.108      1.531
REMARK  1 active torsions:
REMARK  status: ('A' for Active; 'I' for Inactive)
REMARK    1  A    between atoms: C6_6  and  N9_9 
ROOT
HETATM    1  N8  UNL     1     -32.611   9.653   1.829  1.00 20.00     0.068 N 
HETATM    2  N9  UNL     1     -32.004   7.372   2.216  1.00 20.00    -0.073 NA
HETATM    3  N10 UNL     1     -32.324   8.564   2.016  1.00 20.00    -0.162 NA
ENDROOT
BRANCH   2   4
HETATM    4  C6  UNL     1     -32.788   6.757   3.197  1.00 20.00     0.093 A 
HETATM    5  C3  UNL     1     -32.651   7.130   4.534  1.00 20.00     0.035 A 
HETATM    6  C1  UNL     1     -33.433   6.519   5.514  1.00 20.00     0.009 A 
HETATM    7  C5  UNL     1     -34.353   5.534   5.156  1.00 20.00    -0.062 A 
HETATM    8  C2  UNL     1     -34.491   5.161   3.819  1.00 20.00     0.009 A 
HETATM    9  C7  UNL     1     -35.189   4.878   6.202  1.00 20.00     0.048 C 
HETATM   10  C4  UNL     1     -33.708   5.771   2.840  1.00 20.00     0.035 A 
ENDBRANCH   2   4
TORSDOF 1
ENDMDL
MODEL 3
REMARK VINA RESULT:      -4.2     11.371     11.759
REMARK  1 active torsions:
REMARK  status: ('A' for Active; 'I' for Inactive)
REMARK    1  A    between atoms: C6_6  and  N9_9 
ROOT
HETATM    1  N8  UNL     1     -35.462  14.582  -7.576  1.00 20.00     0.068 N 
HETATM    2  N9  UNL     1     -34.867  13.445  -5.558  1.00 20.00    -0.073 NA
HETATM    3  N10 UNL     1     -35.178  14.042  -6.611  1.00 20.00    -0.162 NA
ENDROOT
BRANCH   2   4
HETATM    4  C6  UNL     1     -34.770  14.301  -4.456  1.00 20.00     0.093 A 
HETATM    5  C3  UNL     1     -35.926  14.724  -3.799  1.00 20.00     0.035 A 
HETATM    6  C1  UNL     1     -35.831  15.577  -2.699  1.00 20.00     0.009 A 
HETATM    7  C5  UNL     1     -34.581  16.008  -2.257  1.00 20.00    -0.062 A 
HETATM    8  C2  UNL     1     -33.425  15.585  -2.915  1.00 20.00     0.009 A 
HETATM    9  C7  UNL     1     -34.478  16.921  -1.084  1.00 20.00     0.048 C 
HETATM   10  C4  UNL     1     -33.520  14.732  -4.014  1.00 20.00     0.035 A 
ENDBRANCH   2   4
TORSDOF 1
ENDMDL
MODEL 4
REMARK VINA RESULT:      -4.2     11.369     11.793
REMARK  1 active torsions:
REMARK  status: ('A' for Active; 'I' for Inactive)
REMARK    1  A    between atoms: C6_6  and  N9_9 
ROOT
HETATM    1  N8  UNL     1     -35.503  14.563  -7.564  1.00 20.00     0.068 N 
HETATM    2  N9  UNL     1     -34.868  13.437  -5.552  1.00 20.00    -0.073 NA
HETATM    3  N10 UNL     1     -35.200  14.028  -6.602  1.00 20.00    -0.162 NA
ENDROOT
BRANCH   2   4
HETATM    4  C6  UNL     1     -34.771  14.296  -4.453  1.00 20.00     0.093 A 
HETATM    5  C3  UNL     1     -33.520  14.730  -4.016  1.00 20.00     0.035 A 
HETATM    6  C1  UNL     1     -33.421  15.589  -2.920  1.00 20.00     0.009 A 
HETATM    7  C5  UNL     1     -34.576  16.012  -2.262  1.00 20.00    -0.062 A 
HETATM    8  C2  UNL     1     -35.827  15.578  -2.698  1.00 20.00     0.009 A 
HETATM    9  C7  UNL     1     -34.472  16.927  -1.089  1.00 20.00     0.048 C 
HETATM   10  C4  UNL     1     -35.925  14.719  -3.793  1.00 20.00     0.035 A 
ENDBRANCH   2   4
TORSDOF 1
ENDMDL
MODEL 5
REMARK VINA RESULT:      -4.1     11.254     12.583
REMARK  1 active torsions:
REMARK  status: ('A' for Active; 'I' for Inactive)
REMARK    1  A    between atoms: C6_6  and  N9_9 
ROOT
HETATM    1  N8  UNL     1     -34.785  16.545  -1.300  1.00 20.00     0.068 N 
HETATM    2  N9  UNL     1     -33.163  15.804  -2.894  1.00 20.00    -0.073 NA
HETATM    3  N10 UNL     1     -34.012  16.191  -2.062  1.00 20.00    -0.162 NA
ENDROOT
BRANCH   2   4
HETATM    4  C6  UNL     1     -33.725  15.471  -4.130  1.00 20.00     0.093 A 
HETATM    5  C3  UNL     1     -33.595  16.342  -5.212  1.00 20.00     0.035 A 
HETATM    6  C1  UNL     1     -34.155  16.011  -6.446  1.00 20.00     0.009 A 
HETATM    7  C5  UNL     1     -34.843  14.808  -6.599  1.00 20.00    -0.062 A 
HETATM    8  C2  UNL     1     -34.973  13.937  -5.517  1.00 20.00     0.009 A 
HETATM    9  C7  UNL     1     -35.443  14.454  -7.917  1.00 20.00     0.048 C 
HETATM   10  C4  UNL     1     -34.414  14.268  -4.283  1.00 20.00     0.035 A 
ENDBRANCH   2   4
TORSDOF 1
ENDMDL
MODEL 6
REMARK VINA RESULT:      -4.1     11.281     12.571
REMARK  1 active torsions:
REMARK  status: ('A' for Active; 'I' for Inactive)
REMARK    1  A    between atoms: C6_6  and  N9_9 
ROOT
HETATM    1  N8  UNL     1     -34.816  16.536  -1.285  1.00 20.00     0.068 N 
HETATM    2  N9  UNL     1     -33.173  15.853  -2.883  1.00 20.00    -0.073 NA
HETATM    3  N10 UNL     1     -34.034  16.210  -2.050  1.00 20.00    -0.162 NA
ENDROOT
BRANCH   2   4
HETATM    4  C6  UNL     1     -33.725  15.515  -4.123  1.00 20.00     0.093 A 
HETATM    5  C3  UNL     1     -34.425  14.318  -4.271  1.00 20.00     0.035 A 
HETATM    6  C1  UNL     1     -34.977  13.980  -5.507  1.00 20.00     0.009 A 
HETATM    7  C5  UNL     1     -34.829  14.840  -6.595  1.00 20.00    -0.062 A 
HETATM    8  C2  UNL     1     -34.128  16.037  -6.447  1.00 20.00     0.009 A 
HETATM    9  C7  UNL     1     -35.416  14.479  -7.916  1.00 20.00     0.048 C 
HETATM   10  C4  UNL     1     -33.576  16.375  -5.211  1.00 20.00     0.035 A 
ENDBRANCH   2   4
TORSDOF 1
ENDMDL
MODEL 7
REMARK VINA RESULT:      -4.0     11.278     11.830
REMARK  1 active torsions:
REMARK  status: ('A' for Active; 'I' for Inactive)
REMARK    1  A    between atoms: C6_6  and  N9_9 
ROOT
HETATM    1  N8  UNL     1     -38.907  16.357  -4.716  1.00 20.00     0.068 N 
HETATM    2  N9  UNL     1     -37.878  14.392  -3.821  1.00 20.00    -0.073 NA
HETATM    3  N10 UNL     1     -38.413  15.420  -4.289  1.00 20.00    -0.162 NA
ENDROOT
BRANCH   2   4
HETATM    4  C6  UNL     1     -36.484  14.486  -3.757  1.00 20.00     0.093 A 
HETATM    5  C3  UNL     1     -35.691  13.556  -4.430  1.00 20.00     0.035 A 
HETATM    6  C1  UNL     1     -34.300  13.650  -4.369  1.00 20.00     0.009 A 
HETATM    7  C5  UNL     1     -33.703  14.673  -3.634  1.00 20.00    -0.062 A 
HETATM    8  C2  UNL     1     -34.496  15.603  -2.961  1.00 20.00     0.009 A 
HETATM    9  C7  UNL     1     -32.217  14.773  -3.565  1.00 20.00     0.048 C 
HETATM   10  C4  UNL     1     -35.887  15.509  -3.022  1.00 20.00     0.035 A 
ENDBRANCH   2   4
TORSDOF 1
ENDMDL
MODEL 8
REMARK VINA RESULT:      -4.0     11.308     12.504
REMARK  1 active torsions:
REMARK  status: ('A' for Active; 'I' for Inactive)
REMARK    1  A    between atoms: C6_6  and  N9_9 
ROOT
HETATM    1  N8  UNL     1     -32.589  13.802  -3.429  1.00 20.00     0.068 N 
HETATM    2  N9  UNL     1     -34.642  12.861  -4.218  1.00 20.00    -0.073 NA
HETATM    3  N10 UNL     1     -33.570  13.355  -3.807  1.00 20.00    -0.162 NA
ENDROOT
BRANCH   2   4
HETATM    4  C6  UNL     1     -35.465  13.798  -4.849  1.00 20.00     0.093 A 
HETATM    5  C3  UNL     1     -36.519  14.384  -4.148  1.00 20.00     0.035 A 
HETATM    6  C1  UNL     1     -37.341  15.321  -4.776  1.00 20.00     0.009 A 
HETATM    7  C5  UNL     1     -37.108  15.671  -6.105  1.00 20.00    -0.062 A 
HETATM    8  C2  UNL     1     -36.054  15.085  -6.807  1.00 20.00     0.009 A 
HETATM    9  C7  UNL     1     -37.987  16.670  -6.778  1.00 20.00     0.048 C 
HETATM   10  C4  UNL     1     -35.233  14.148  -6.179  1.00 20.00     0.035 A 
ENDBRANCH   2   4
TORSDOF 1
ENDMDL
MODEL 9
REMARK VINA RESULT:      -4.0     10.331     11.128
REMARK  1 active torsions:
REMARK  status: ('A' for Active; 'I' for Inactive)
REMARK    1  A    between atoms: C6_6  and  N9_9 
ROOT
HETATM    1  N8  UNL     1     -40.811   1.628  -4.158  1.00 20.00     0.068 N 
HETATM    2  N9  UNL     1     -42.549   2.642  -2.864  1.00 20.00    -0.073 NA
HETATM    3  N10 UNL     1     -41.639   2.114  -3.540  1.00 20.00    -0.162 NA
ENDROOT
BRANCH   2   4
HETATM    4  C6  UNL     1     -42.212   3.919  -2.404  1.00 20.00     0.093 A 
HETATM    5  C3  UNL     1     -42.878   5.038  -2.903  1.00 20.00     0.035 A 
HETATM    6  C1  UNL     1     -42.544   6.313  -2.444  1.00 20.00     0.009 A 
HETATM    7  C5  UNL     1     -41.543   6.467  -1.485  1.00 20.00    -0.062 A 
HETATM    8  C2  UNL     1     -40.877   5.348  -0.986  1.00 20.00     0.009 A 
HETATM    9  C7  UNL     1     -41.184   7.828  -0.995  1.00 20.00     0.048 C 
HETATM   10  C4  UNL     1     -41.211   4.074  -1.446  1.00 20.00     0.035 A 
ENDBRANCH   2   4
TORSDOF 1
ENDMDL
