MODEL 1
REMARK VINA RESULT:      -4.0      0.000      0.000
REMARK  5 active torsions:
REMARK  status: ('A' for Active; 'I' for Inactive)
REMARK    1  A    between atoms: C3_3  and  C5_5 
REMARK    2  A    between atoms: C4_4  and  C6_6 
REMARK    3  A    between atoms: C5_5  and  S7_7 
REMARK    4  A    between atoms: C6_6  and  S8_8 
REMARK    5  A    between atoms: S7_7  and  S8_8 
ROOT
HETATM    1  S7  UNL     1     -34.216   6.007   3.806  1.00 20.00    -0.098 SA
ENDROOT
BRANCH   1   2
HETATM    2  C5  UNL     1     -33.912   6.387   5.555  1.00 20.00     0.086 C 
BRANCH   2   3
HETATM    3  C3  UNL     1     -34.631   5.384   6.452  1.00 20.00     0.006 C 
HETATM    4  C1  UNL     1     -34.922   4.091   5.705  1.00 20.00     0.006 C 
ENDBRANCH   2   3
ENDBRANCH   1   2
BRANCH   1   5
HETATM    5  S8  UNL     1     -32.316   6.102   3.029  1.00 20.00    -0.098 SA
BRANCH   5   6
HETATM    6  C6  UNL     1     -32.045   7.889   2.934  1.00 20.00     0.086 C 
BRANCH   6   7
HETATM    7  C4  UNL     1     -31.837   8.322   1.487  1.00 20.00     0.006 C 
HETATM    8  C2  UNL     1     -32.380   9.724   1.252  1.00 20.00     0.006 C 
ENDBRANCH   6   7
ENDBRANCH   5   6
ENDBRANCH   1   5
TORSDOF 5
ENDMDL
MODEL 2
REMARK VINA RESULT:      -4.0      0.056      5.387
REMARK  5 active torsions:
REMARK  status: ('A' for Active; 'I' for Inactive)
REMARK    1  A    between atoms: C3_3  and  C5_5 
REMARK    2  A    between atoms: C4_4  and  C6_6 
REMARK    3  A    between atoms: C5_5  and  S7_7 
REMARK    4  A    between atoms: C6_6  and  S8_8 
REMARK    5  A    between atoms: S7_7  and  S8_8 
ROOT
HETATM    1  S7  UNL     1     -32.341   6.102   3.012  1.00 20.00    -0.098 SA
ENDROOT
BRANCH   1   2
HETATM    2  C5  UNL     1     -32.051   7.889   2.895  1.00 20.00     0.086 C 
BRANCH   2   3
HETATM    3  C3  UNL     1     -31.881   8.309   1.438  1.00 20.00     0.006 C 
HETATM    4  C1  UNL     1     -32.395   9.722   1.213  1.00 20.00     0.006 C 
ENDBRANCH   2   3
ENDBRANCH   1   2
BRANCH   1   5
HETATM    5  S8  UNL     1     -34.240   6.043   3.794  1.00 20.00    -0.098 SA
BRANCH   5   6
HETATM    6  C6  UNL     1     -33.928   6.367   5.547  1.00 20.00     0.086 C 
BRANCH   6   7
HETATM    7  C4  UNL     1     -34.646   5.340   6.416  1.00 20.00     0.006 C 
HETATM    8  C2  UNL     1     -34.979   4.087   5.621  1.00 20.00     0.006 C 
ENDBRANCH   6   7
ENDBRANCH   5   6
ENDBRANCH   1   5
TORSDOF 5
ENDMDL
MODEL 3
REMARK VINA RESULT:      -4.0      0.940      1.172
REMARK  5 active torsions:
REMARK  status: ('A' for Active; 'I' for Inactive)
REMARK    1  A    between atoms: C3_3  and  C5_5 
REMARK    2  A    between atoms: C4_4  and  C6_6 
REMARK    3  A    between atoms: C5_5  and  S7_7 
REMARK    4  A    between atoms: C6_6  and  S8_8 
REMARK    5  A    between atoms: S7_7  and  S8_8 
ROOT
HETATM    1  S7  UNL     1     -33.797   6.418   4.496  1.00 20.00    -0.098 SA
ENDROOT
BRANCH   1   2
HETATM    2  C5  UNL     1     -35.077   5.250   3.954  1.00 20.00     0.086 C 
BRANCH   2   3
HETATM    3  C3  UNL     1     -35.231   4.119   4.967  1.00 20.00     0.006 C 
HETATM    4  C1  UNL     1     -34.841   4.578   6.363  1.00 20.00     0.006 C 
ENDBRANCH   2   3
ENDBRANCH   1   2
BRANCH   1   5
HETATM    5  S8  UNL     1     -32.403   6.224   3.000  1.00 20.00    -0.098 SA
BRANCH   5   6
HETATM    6  C6  UNL     1     -31.803   7.923   2.832  1.00 20.00     0.086 C 
BRANCH   6   7
HETATM    7  C4  UNL     1     -31.886   8.378   1.379  1.00 20.00     0.006 C 
HETATM    8  C2  UNL     1     -32.448   9.788   1.278  1.00 20.00     0.006 C 
ENDBRANCH   6   7
ENDBRANCH   5   6
ENDBRANCH   1   5
TORSDOF 5
ENDMDL
MODEL 4
REMARK VINA RESULT:      -3.9      0.780      5.444
REMARK  5 active torsions:
REMARK  status: ('A' for Active; 'I' for Inactive)
REMARK    1  A    between atoms: C3_3  and  C5_5 
REMARK    2  A    between atoms: C4_4  and  C6_6 
REMARK    3  A    between atoms: C5_5  and  S7_7 
REMARK    4  A    between atoms: C6_6  and  S8_8 
REMARK    5  A    between atoms: S7_7  and  S8_8 
ROOT
HETATM    1  S7  UNL     1     -32.518   6.184   2.950  1.00 20.00    -0.098 SA
ENDROOT
BRANCH   1   2
HETATM    2  C5  UNL     1     -31.784   7.842   2.862  1.00 20.00     0.086 C 
BRANCH   2   3
HETATM    3  C3  UNL     1     -31.925   8.414   1.455  1.00 20.00     0.006 C 
HETATM    4  C1  UNL     1     -32.500   9.822   1.492  1.00 20.00     0.006 C 
ENDBRANCH   2   3
ENDBRANCH   1   2
BRANCH   1   5
HETATM    5  S8  UNL     1     -34.018   6.470   4.324  1.00 20.00    -0.098 SA
BRANCH   5   6
HETATM    6  C6  UNL     1     -35.062   5.020   4.039  1.00 20.00     0.086 C 
BRANCH   6   7
HETATM    7  C4  UNL     1     -35.142   4.163   5.297  1.00 20.00     0.006 C 
HETATM    8  C2  UNL     1     -34.566   4.898   6.498  1.00 20.00     0.006 C 
ENDBRANCH   6   7
ENDBRANCH   5   6
ENDBRANCH   1   5
TORSDOF 5
ENDMDL
MODEL 5
REMARK VINA RESULT:      -3.8      0.552      1.233
REMARK  5 active torsions:
REMARK  status: ('A' for Active; 'I' for Inactive)
REMARK    1  A    between atoms: C3_3  and  C5_5 
REMARK    2  A    between atoms: C4_4  and  C6_6 
REMARK    3  A    between atoms: C5_5  and  S7_7 
REMARK    4  A    between atoms: C6_6  and  S8_8 
REMARK    5  A    between atoms: S7_7  and  S8_8 
ROOT
HETATM    1  S7  UNL     1     -34.407   5.942   3.700  1.00 20.00    -0.098 SA
ENDROOT
BRANCH   1   2
HETATM    2  C5  UNL     1     -34.338   4.770   5.083  1.00 20.00     0.086 C 
BRANCH   2   3
HETATM    3  C3  UNL     1     -34.647   5.477   6.399  1.00 20.00     0.006 C 
HETATM    4  C1  UNL     1     -33.856   6.770   6.524  1.00 20.00     0.006 C 
ENDBRANCH   2   3
ENDBRANCH   1   2
BRANCH   1   5
HETATM    5  S8  UNL     1     -32.438   6.010   3.118  1.00 20.00    -0.098 SA
BRANCH   5   6
HETATM    6  C6  UNL     1     -32.140   7.793   3.032  1.00 20.00     0.086 C 
BRANCH   6   7
HETATM    7  C4  UNL     1     -31.900   8.226   1.590  1.00 20.00     0.006 C 
HETATM    8  C2  UNL     1     -32.407   9.641   1.351  1.00 20.00     0.006 C 
ENDBRANCH   6   7
ENDBRANCH   5   6
ENDBRANCH   1   5
TORSDOF 5
ENDMDL
MODEL 6
REMARK VINA RESULT:      -3.4     11.409     11.944
REMARK  5 active torsions:
REMARK  status: ('A' for Active; 'I' for Inactive)
REMARK    1  A    between atoms: C3_3  and  C5_5 
REMARK    2  A    between atoms: C4_4  and  C6_6 
REMARK    3  A    between atoms: C5_5  and  S7_7 
REMARK    4  A    between atoms: C6_6  and  S8_8 
REMARK    5  A    between atoms: S7_7  and  S8_8 
ROOT
HETATM    1  S7  UNL     1     -33.356  16.296  -4.763  1.00 20.00    -0.098 SA
ENDROOT
BRANCH   1   2
HETATM    2  C5  UNL     1     -32.813  14.991  -3.626  1.00 20.00     0.086 C 
BRANCH   2   3
HETATM    3  C3  UNL     1     -33.539  13.684  -3.927  1.00 20.00     0.006 C 
HETATM    4  C1  UNL     1     -35.048  13.878  -3.900  1.00 20.00     0.006 C 
ENDBRANCH   2   3
ENDBRANCH   1   2
BRANCH   1   5
HETATM    5  S8  UNL     1     -34.206  17.644  -3.467  1.00 20.00    -0.098 SA
BRANCH   5   6
HETATM    6  C6  UNL     1     -33.631  17.029  -1.865  1.00 20.00     0.086 C 
BRANCH   6   7
HETATM    7  C4  UNL     1     -34.808  16.547  -1.024  1.00 20.00     0.006 C 
HETATM    8  C2  UNL     1     -34.896  17.317   0.286  1.00 20.00     0.006 C 
ENDBRANCH   6   7
ENDBRANCH   5   6
ENDBRANCH   1   5
TORSDOF 5
ENDMDL
MODEL 7
REMARK VINA RESULT:      -3.3     11.316     12.025
REMARK  5 active torsions:
REMARK  status: ('A' for Active; 'I' for Inactive)
REMARK    1  A    between atoms: C3_3  and  C5_5 
REMARK    2  A    between atoms: C4_4  and  C6_6 
REMARK    3  A    between atoms: C5_5  and  S7_7 
REMARK    4  A    between atoms: C6_6  and  S8_8 
REMARK    5  A    between atoms: S7_7  and  S8_8 
ROOT
HETATM    1  S7  UNL     1     -35.251  16.882  -4.205  1.00 20.00    -0.098 SA
ENDROOT
BRANCH   1   2
HETATM    2  C5  UNL     1     -34.162  17.072  -2.765  1.00 20.00     0.086 C 
BRANCH   2   3
HETATM    3  C3  UNL     1     -34.678  16.244  -1.592  1.00 20.00     0.006 C 
HETATM    4  C1  UNL     1     -34.676  17.056  -0.306  1.00 20.00     0.006 C 
ENDBRANCH   2   3
ENDBRANCH   1   2
BRANCH   1   5
HETATM    5  S8  UNL     1     -34.039  15.848  -5.503  1.00 20.00    -0.098 SA
BRANCH   5   6
HETATM    6  C6  UNL     1     -34.903  14.263  -5.629  1.00 20.00     0.086 C 
BRANCH   6   7
HETATM    7  C4  UNL     1     -34.784  13.483  -4.325  1.00 20.00     0.006 C 
HETATM    8  C2  UNL     1     -33.366  13.546  -3.777  1.00 20.00     0.006 C 
ENDBRANCH   6   7
ENDBRANCH   5   6
ENDBRANCH   1   5
TORSDOF 5
ENDMDL
MODEL 8
REMARK VINA RESULT:      -3.3     11.211     12.134
REMARK  5 active torsions:
REMARK  status: ('A' for Active; 'I' for Inactive)
REMARK    1  A    between atoms: C3_3  and  C5_5 
REMARK    2  A    between atoms: C4_4  and  C6_6 
REMARK    3  A    between atoms: C5_5  and  S7_7 
REMARK    4  A    between atoms: C6_6  and  S8_8 
REMARK    5  A    between atoms: S7_7  and  S8_8 
ROOT
HETATM    1  S7  UNL     1     -33.371  16.167  -4.452  1.00 20.00    -0.098 SA
ENDROOT
BRANCH   1   2
HETATM    2  C5  UNL     1     -33.755  17.093  -2.939  1.00 20.00     0.086 C 
BRANCH   2   3
HETATM    3  C3  UNL     1     -34.544  16.223  -1.966  1.00 20.00     0.006 C 
HETATM    4  C1  UNL     1     -34.577  16.844  -0.578  1.00 20.00     0.006 C 
ENDBRANCH   2   3
ENDBRANCH   1   2
BRANCH   1   5
HETATM    5  S8  UNL     1     -33.586  14.226  -3.813  1.00 20.00    -0.098 SA
BRANCH   5   6
HETATM    6  C6  UNL     1     -34.738  13.559  -5.040  1.00 20.00     0.086 C 
BRANCH   6   7
HETATM    7  C4  UNL     1     -35.385  14.688  -5.834  1.00 20.00     0.006 C 
HETATM    8  C2  UNL     1     -35.300  14.423  -7.330  1.00 20.00     0.006 C 
ENDBRANCH   6   7
ENDBRANCH   5   6
ENDBRANCH   1   5
TORSDOF 5
ENDMDL
MODEL 9
REMARK VINA RESULT:      -3.2     11.345     12.339
REMARK  5 active torsions:
REMARK  status: ('A' for Active; 'I' for Inactive)
REMARK    1  A    between atoms: C3_3  and  C5_5 
REMARK    2  A    between atoms: C4_4  and  C6_6 
REMARK    3  A    between atoms: C5_5  and  S7_7 
REMARK    4  A    between atoms: C6_6  and  S8_8 
REMARK    5  A    between atoms: S7_7  and  S8_8 
ROOT
HETATM    1  S7  UNL     1     -33.303  16.249  -4.922  1.00 20.00    -0.098 SA
ENDROOT
BRANCH   1   2
HETATM    2  C5  UNL     1     -34.375  14.980  -5.652  1.00 20.00     0.086 C 
BRANCH   2   3
HETATM    3  C3  UNL     1     -34.508  13.787  -4.710  1.00 20.00     0.006 C 
HETATM    4  C1  UNL     1     -33.351  13.736  -3.724  1.00 20.00     0.006 C 
ENDBRANCH   2   3
ENDBRANCH   1   2
BRANCH   1   5
HETATM    5  S8  UNL     1     -34.677  17.476  -4.012  1.00 20.00    -0.098 SA
BRANCH   5   6
HETATM    6  C6  UNL     1     -33.961  17.672  -2.362  1.00 20.00     0.086 C 
BRANCH   6   7
HETATM    7  C4  UNL     1     -34.423  16.549  -1.441  1.00 20.00     0.006 C 
HETATM    8  C2  UNL     1     -34.810  17.087  -0.072  1.00 20.00     0.006 C 
ENDBRANCH   6   7
ENDBRANCH   5   6
ENDBRANCH   1   5
TORSDOF 5
ENDMDL
