MODEL 1
REMARK VINA RESULT:      -5.3      0.000      0.000
REMARK  2 active torsions:
REMARK  status: ('A' for Active; 'I' for Inactive)
REMARK    1  A    between atoms: C6_6  and  C10_10 
REMARK    2  A    between atoms: C9_9  and  C10_10 
ROOT
HETATM    1  C1  UNL     1     -35.139   4.679   5.640  1.00 20.00     0.000 A 
HETATM    2  C2  UNL     1     -34.438   5.634   6.376  1.00 20.00     0.001 A 
HETATM    3  C3  UNL     1     -35.029   4.651   4.249  1.00 20.00     0.001 A 
HETATM    4  C4  UNL     1     -33.626   6.561   5.722  1.00 20.00     0.007 A 
HETATM    5  C5  UNL     1     -34.216   5.578   3.596  1.00 20.00     0.007 A 
HETATM    6  C6  UNL     1     -33.514   6.532   4.332  1.00 20.00    -0.054 A 
ENDROOT
BRANCH   6   7
HETATM    7  C10 UNL     1     -32.631   7.541   3.620  1.00 20.00     0.014 C 
HETATM    8  C8  UNL     1     -31.284   7.678   4.341  1.00 20.00     0.015 C 
BRANCH   7   9
HETATM    9  C9  UNL     1     -32.410   7.211   2.130  1.00 20.00     0.004 C 
HETATM   10  C7  UNL     1     -31.893   8.397   1.325  1.00 20.00     0.006 C 
ENDBRANCH   7   9
ENDBRANCH   6   7
TORSDOF 2
ENDMDL
MODEL 2
REMARK VINA RESULT:      -5.3      0.012      1.528
REMARK  2 active torsions:
REMARK  status: ('A' for Active; 'I' for Inactive)
REMARK    1  A    between atoms: C6_6  and  C10_10 
REMARK    2  A    between atoms: C9_9  and  C10_10 
ROOT
HETATM    1  C1  UNL     1     -35.142   4.673   5.646  1.00 20.00     0.000 A 
HETATM    2  C2  UNL     1     -35.035   4.644   4.256  1.00 20.00     0.001 A 
HETATM    3  C3  UNL     1     -34.441   5.629   6.381  1.00 20.00     0.001 A 
HETATM    4  C4  UNL     1     -34.225   5.572   3.600  1.00 20.00     0.007 A 
HETATM    5  C5  UNL     1     -33.632   6.557   5.724  1.00 20.00     0.007 A 
HETATM    6  C6  UNL     1     -33.525   6.529   4.334  1.00 20.00    -0.054 A 
ENDROOT
BRANCH   6   7
HETATM    7  C10 UNL     1     -32.643   7.539   3.621  1.00 20.00     0.014 C 
HETATM    8  C8  UNL     1     -31.293   7.672   4.336  1.00 20.00     0.015 C 
BRANCH   7   9
HETATM    9  C9  UNL     1     -32.429   7.212   2.129  1.00 20.00     0.004 C 
HETATM   10  C7  UNL     1     -31.907   8.397   1.326  1.00 20.00     0.006 C 
ENDBRANCH   7   9
ENDBRANCH   6   7
TORSDOF 2
ENDMDL
MODEL 3
REMARK VINA RESULT:      -5.0      0.835      1.882
REMARK  2 active torsions:
REMARK  status: ('A' for Active; 'I' for Inactive)
REMARK    1  A    between atoms: C6_6  and  C10_10 
REMARK    2  A    between atoms: C9_9  and  C10_10 
ROOT
HETATM    1  C1  UNL     1     -35.237   5.044   6.122  1.00 20.00     0.000 A 
HETATM    2  C2  UNL     1     -35.227   4.605   4.798  1.00 20.00     0.001 A 
HETATM    3  C3  UNL     1     -34.338   6.025   6.539  1.00 20.00     0.001 A 
HETATM    4  C4  UNL     1     -34.317   5.148   3.891  1.00 20.00     0.007 A 
HETATM    5  C5  UNL     1     -33.428   6.568   5.631  1.00 20.00     0.007 A 
HETATM    6  C6  UNL     1     -33.418   6.130   4.307  1.00 20.00    -0.054 A 
ENDROOT
BRANCH   6   7
HETATM    7  C10 UNL     1     -32.427   6.721   3.320  1.00 20.00     0.014 C 
HETATM    8  C8  UNL     1     -32.161   5.737   2.173  1.00 20.00     0.015 C 
BRANCH   7   9
HETATM    9  C9  UNL     1     -32.868   8.088   2.760  1.00 20.00     0.004 C 
HETATM   10  C7  UNL     1     -32.006   8.565   1.597  1.00 20.00     0.006 C 
ENDBRANCH   7   9
ENDBRANCH   6   7
TORSDOF 2
ENDMDL
MODEL 4
REMARK VINA RESULT:      -4.8     11.138     11.875
REMARK  2 active torsions:
REMARK  status: ('A' for Active; 'I' for Inactive)
REMARK    1  A    between atoms: C6_6  and  C10_10 
REMARK    2  A    between atoms: C9_9  and  C10_10 
ROOT
HETATM    1  C1  UNL     1     -35.096  13.338  -4.464  1.00 20.00     0.000 A 
HETATM    2  C2  UNL     1     -33.746  13.523  -4.163  1.00 20.00     0.001 A 
HETATM    3  C3  UNL     1     -36.051  14.219  -3.955  1.00 20.00     0.001 A 
HETATM    4  C4  UNL     1     -33.351  14.588  -3.354  1.00 20.00     0.007 A 
HETATM    5  C5  UNL     1     -35.655  15.285  -3.146  1.00 20.00     0.007 A 
HETATM    6  C6  UNL     1     -34.306  15.470  -2.846  1.00 20.00    -0.054 A 
ENDROOT
BRANCH   6   7
HETATM    7  C10 UNL     1     -33.876  16.630  -1.965  1.00 20.00     0.014 C 
HETATM    8  C8  UNL     1     -33.930  17.947  -2.748  1.00 20.00     0.015 C 
BRANCH   7   9
HETATM    9  C9  UNL     1     -34.700  16.744  -0.667  1.00 20.00     0.004 C 
HETATM   10  C7  UNL     1     -34.240  17.882   0.236  1.00 20.00     0.006 C 
ENDBRANCH   7   9
ENDBRANCH   6   7
TORSDOF 2
ENDMDL
MODEL 5
REMARK VINA RESULT:      -4.8     11.114     11.882
REMARK  2 active torsions:
REMARK  status: ('A' for Active; 'I' for Inactive)
REMARK    1  A    between atoms: C6_6  and  C10_10 
REMARK    2  A    between atoms: C9_9  and  C10_10 
ROOT
HETATM    1  C1  UNL     1     -35.056  13.302  -4.491  1.00 20.00     0.000 A 
HETATM    2  C2  UNL     1     -36.012  14.201  -4.017  1.00 20.00     0.001 A 
HETATM    3  C3  UNL     1     -33.712  13.477  -4.163  1.00 20.00     0.001 A 
HETATM    4  C4  UNL     1     -35.624  15.274  -3.215  1.00 20.00     0.007 A 
HETATM    5  C5  UNL     1     -33.324  14.550  -3.360  1.00 20.00     0.007 A 
HETATM    6  C6  UNL     1     -34.279  15.448  -2.886  1.00 20.00    -0.054 A 
ENDROOT
BRANCH   6   7
HETATM    7  C10 UNL     1     -33.856  16.617  -2.013  1.00 20.00     0.014 C 
HETATM    8  C8  UNL     1     -33.941  17.931  -2.799  1.00 20.00     0.015 C 
BRANCH   7   9
HETATM    9  C9  UNL     1     -34.664  16.722  -0.704  1.00 20.00     0.004 C 
HETATM   10  C7  UNL     1     -34.219  17.879   0.182  1.00 20.00     0.006 C 
ENDBRANCH   7   9
ENDBRANCH   6   7
TORSDOF 2
ENDMDL
MODEL 6
REMARK VINA RESULT:      -4.6     11.108     12.449
REMARK  2 active torsions:
REMARK  status: ('A' for Active; 'I' for Inactive)
REMARK    1  A    between atoms: C6_6  and  C10_10 
REMARK    2  A    between atoms: C9_9  and  C10_10 
ROOT
HETATM    1  C1  UNL     1     -34.853  13.766  -5.795  1.00 20.00     0.000 A 
HETATM    2  C2  UNL     1     -34.829  13.301  -4.480  1.00 20.00     0.001 A 
HETATM    3  C3  UNL     1     -34.530  15.095  -6.071  1.00 20.00     0.001 A 
HETATM    4  C4  UNL     1     -34.484  14.166  -3.441  1.00 20.00     0.007 A 
HETATM    5  C5  UNL     1     -34.183  15.959  -5.032  1.00 20.00     0.007 A 
HETATM    6  C6  UNL     1     -34.159  15.494  -3.717  1.00 20.00    -0.054 A 
ENDROOT
BRANCH   6   7
HETATM    7  C10 UNL     1     -33.784  16.436  -2.586  1.00 20.00     0.014 C 
HETATM    8  C8  UNL     1     -33.782  17.889  -3.076  1.00 20.00     0.015 C 
BRANCH   7   9
HETATM    9  C9  UNL     1     -34.690  16.289  -1.347  1.00 20.00     0.004 C 
HETATM   10  C7  UNL     1     -34.431  17.353  -0.288  1.00 20.00     0.006 C 
ENDBRANCH   7   9
ENDBRANCH   6   7
TORSDOF 2
ENDMDL
MODEL 7
REMARK VINA RESULT:      -4.4      9.659     11.311
REMARK  2 active torsions:
REMARK  status: ('A' for Active; 'I' for Inactive)
REMARK    1  A    between atoms: C6_6  and  C10_10 
REMARK    2  A    between atoms: C9_9  and  C10_10 
ROOT
HETATM    1  C1  UNL     1     -41.235   7.132  -0.918  1.00 20.00     0.000 A 
HETATM    2  C2  UNL     1     -42.176   7.070  -1.946  1.00 20.00     0.001 A 
HETATM    3  C3  UNL     1     -40.649   5.961  -0.436  1.00 20.00     0.001 A 
HETATM    4  C4  UNL     1     -42.529   5.836  -2.494  1.00 20.00     0.007 A 
HETATM    5  C5  UNL     1     -41.003   4.728  -0.985  1.00 20.00     0.007 A 
HETATM    6  C6  UNL     1     -41.942   4.665  -2.014  1.00 20.00    -0.054 A 
ENDROOT
BRANCH   6   7
HETATM    7  C10 UNL     1     -42.327   3.322  -2.609  1.00 20.00     0.014 C 
HETATM    8  C8  UNL     1     -43.417   3.501  -3.673  1.00 20.00     0.015 C 
BRANCH   7   9
HETATM    9  C9  UNL     1     -41.128   2.551  -3.194  1.00 20.00     0.004 C 
HETATM   10  C7  UNL     1     -41.534   1.515  -4.237  1.00 20.00     0.006 C 
ENDBRANCH   7   9
ENDBRANCH   6   7
TORSDOF 2
ENDMDL
MODEL 8
REMARK VINA RESULT:      -4.4     11.138     12.545
REMARK  2 active torsions:
REMARK  status: ('A' for Active; 'I' for Inactive)
REMARK    1  A    between atoms: C6_6  and  C10_10 
REMARK    2  A    between atoms: C9_9  and  C10_10 
ROOT
HETATM    1  C1  UNL     1     -34.157  18.258  -0.331  1.00 20.00     0.000 A 
HETATM    2  C2  UNL     1     -33.641  18.789  -1.513  1.00 20.00     0.001 A 
HETATM    3  C3  UNL     1     -34.676  16.963  -0.316  1.00 20.00     0.001 A 
HETATM    4  C4  UNL     1     -33.644  18.025  -2.680  1.00 20.00     0.007 A 
HETATM    5  C5  UNL     1     -34.678  16.199  -1.483  1.00 20.00     0.007 A 
HETATM    6  C6  UNL     1     -34.161  16.729  -2.665  1.00 20.00    -0.054 A 
ENDROOT
BRANCH   6   7
HETATM    7  C10 UNL     1     -34.165  15.897  -3.936  1.00 20.00     0.014 C 
HETATM    8  C8  UNL     1     -33.245  16.524  -4.990  1.00 20.00     0.015 C 
BRANCH   7   9
HETATM    9  C9  UNL     1     -33.781  14.423  -3.698  1.00 20.00     0.004 C 
HETATM   10  C7  UNL     1     -34.882  13.446  -4.096  1.00 20.00     0.006 C 
ENDBRANCH   7   9
ENDBRANCH   6   7
TORSDOF 2
ENDMDL
MODEL 9
REMARK VINA RESULT:      -4.4     11.138     12.451
REMARK  2 active torsions:
REMARK  status: ('A' for Active; 'I' for Inactive)
REMARK    1  A    between atoms: C6_6  and  C10_10 
REMARK    2  A    between atoms: C9_9  and  C10_10 
ROOT
HETATM    1  C1  UNL     1     -34.086  18.349  -0.188  1.00 20.00     0.000 A 
HETATM    2  C2  UNL     1     -34.725  17.111  -0.117  1.00 20.00     0.001 A 
HETATM    3  C3  UNL     1     -33.519  18.773  -1.391  1.00 20.00     0.001 A 
HETATM    4  C4  UNL     1     -34.798  16.297  -1.247  1.00 20.00     0.007 A 
HETATM    5  C5  UNL     1     -33.592  17.958  -2.521  1.00 20.00     0.007 A 
HETATM    6  C6  UNL     1     -34.232  16.721  -2.450  1.00 20.00    -0.054 A 
ENDROOT
BRANCH   6   7
HETATM    7  C10 UNL     1     -34.310  15.835  -3.681  1.00 20.00     0.014 C 
HETATM    8  C8  UNL     1     -33.234  16.234  -4.698  1.00 20.00     0.015 C 
BRANCH   7   9
HETATM    9  C9  UNL     1     -34.207  14.332  -3.354  1.00 20.00     0.004 C 
HETATM   10  C7  UNL     1     -34.984  13.453  -4.328  1.00 20.00     0.006 C 
ENDBRANCH   7   9
ENDBRANCH   6   7
TORSDOF 2
ENDMDL
