MODEL 1
REMARK VINA RESULT:      -5.6      0.000      0.000
REMARK  0 active torsions:
REMARK  status: ('A' for Active; 'I' for Inactive)
ROOT
HETATM    1  C1  UNL     1     -35.302   4.617   5.813  1.00 20.00     0.001 A 
HETATM    2  C2  UNL     1     -34.679   5.522   6.675  1.00 20.00     0.003 A 
HETATM    3  C3  UNL     1     -34.985   4.586   4.447  1.00 20.00     0.014 A 
HETATM    4  C4  UNL     1     -33.721   6.427   6.210  1.00 20.00     0.038 A 
HETATM    5  C5  UNL     1     -33.444   5.765   2.691  1.00 20.00     0.039 A 
HETATM    6  C6  UNL     1     -32.545   6.787   2.892  1.00 20.00     0.143 A 
HETATM    7  C7  UNL     1     -34.023   5.487   3.957  1.00 20.00    -0.001 A 
HETATM    8  C8  UNL     1     -33.427   6.372   4.849  1.00 20.00     0.085 A 
HETATM    9  O9  UNL     1     -32.528   7.162   4.198  1.00 20.00    -0.322 OA
ENDROOT
TORSDOF 0
ENDMDL
MODEL 2
REMARK VINA RESULT:      -5.5      0.896      1.949
REMARK  0 active torsions:
REMARK  status: ('A' for Active; 'I' for Inactive)
ROOT
HETATM    1  C1  UNL     1     -34.665   5.571   6.650  1.00 20.00     0.001 A 
HETATM    2  C2  UNL     1     -35.288   4.649   5.805  1.00 20.00     0.003 A 
HETATM    3  C3  UNL     1     -33.710   6.472   6.158  1.00 20.00     0.014 A 
HETATM    4  C4  UNL     1     -34.982   4.592   4.442  1.00 20.00     0.038 A 
HETATM    5  C5  UNL     1     -32.509   7.146   3.933  1.00 20.00     0.039 A 
HETATM    6  C6  UNL     1     -32.672   6.610   2.677  1.00 20.00     0.143 A 
HETATM    7  C7  UNL     1     -33.388   6.433   4.790  1.00 20.00    -0.001 A 
HETATM    8  C8  UNL     1     -34.030   5.500   3.983  1.00 20.00     0.085 A 
HETATM    9  O9  UNL     1     -33.593   5.610   2.697  1.00 20.00    -0.322 OA
ENDROOT
TORSDOF 0
ENDMDL
MODEL 3
REMARK VINA RESULT:      -4.6      1.067      3.083
REMARK  0 active torsions:
REMARK  status: ('A' for Active; 'I' for Inactive)
ROOT
HETATM    1  C1  UNL     1     -33.400   5.822   2.302  1.00 20.00     0.001 A 
HETATM    2  C2  UNL     1     -32.586   6.770   2.925  1.00 20.00     0.003 A 
HETATM    3  C3  UNL     1     -34.337   5.079   3.036  1.00 20.00     0.014 A 
HETATM    4  C4  UNL     1     -32.674   7.011   4.300  1.00 20.00     0.038 A 
HETATM    5  C5  UNL     1     -35.233   4.783   5.477  1.00 20.00     0.039 A 
HETATM    6  C6  UNL     1     -34.839   5.443   6.618  1.00 20.00     0.143 A 
HETATM    7  C7  UNL     1     -34.443   5.306   4.419  1.00 20.00    -0.001 A 
HETATM    8  C8  UNL     1     -33.613   6.258   5.002  1.00 20.00     0.085 A 
HETATM    9  O9  UNL     1     -33.856   6.340   6.340  1.00 20.00    -0.322 OA
ENDROOT
TORSDOF 0
ENDMDL
MODEL 4
REMARK VINA RESULT:      -4.6      1.453      3.654
REMARK  0 active torsions:
REMARK  status: ('A' for Active; 'I' for Inactive)
ROOT
HETATM    1  C1  UNL     1     -32.578   6.796   3.007  1.00 20.00     0.001 A 
HETATM    2  C2  UNL     1     -33.370   5.891   2.296  1.00 20.00     0.003 A 
HETATM    3  C3  UNL     1     -32.736   6.964   4.390  1.00 20.00     0.014 A 
HETATM    4  C4  UNL     1     -34.346   5.122   2.937  1.00 20.00     0.038 A 
HETATM    5  C5  UNL     1     -34.168   6.078   6.394  1.00 20.00     0.039 A 
HETATM    6  C6  UNL     1     -35.169   5.135   6.378  1.00 20.00     0.143 A 
HETATM    7  C7  UNL     1     -33.712   6.200   5.055  1.00 20.00    -0.001 A 
HETATM    8  C8  UNL     1     -34.480   5.310   4.311  1.00 20.00     0.085 A 
HETATM    9  O9  UNL     1     -35.366   4.663   5.119  1.00 20.00    -0.322 OA
ENDROOT
TORSDOF 0
ENDMDL
MODEL 5
REMARK VINA RESULT:      -4.5      9.952     10.813
REMARK  0 active torsions:
REMARK  status: ('A' for Active; 'I' for Inactive)
ROOT
HETATM    1  C1  UNL     1     -40.617   6.091  -0.422  1.00 20.00     0.001 A 
HETATM    2  C2  UNL     1     -41.283   7.136  -1.066  1.00 20.00     0.003 A 
HETATM    3  C3  UNL     1     -40.820   4.758  -0.808  1.00 20.00     0.014 A 
HETATM    4  C4  UNL     1     -42.174   6.892  -2.115  1.00 20.00     0.038 A 
HETATM    5  C5  UNL     1     -42.175   3.325  -2.529  1.00 20.00     0.039 A 
HETATM    6  C6  UNL     1     -43.057   3.755  -3.492  1.00 20.00     0.143 A 
HETATM    7  C7  UNL     1     -41.711   4.490  -1.863  1.00 20.00    -0.001 A 
HETATM    8  C8  UNL     1     -42.354   5.559  -2.477  1.00 20.00     0.085 A 
HETATM    9  O9  UNL     1     -43.173   5.109  -3.469  1.00 20.00    -0.322 OA
ENDROOT
TORSDOF 0
ENDMDL
MODEL 6
REMARK VINA RESULT:      -4.5     10.069     10.846
REMARK  0 active torsions:
REMARK  status: ('A' for Active; 'I' for Inactive)
ROOT
HETATM    1  C1  UNL     1     -40.619   5.906  -0.328  1.00 20.00     0.001 A 
HETATM    2  C2  UNL     1     -40.969   4.669  -0.873  1.00 20.00     0.003 A 
HETATM    3  C3  UNL     1     -41.089   7.102  -0.890  1.00 20.00     0.014 A 
HETATM    4  C4  UNL     1     -41.797   4.578  -1.996  1.00 20.00     0.038 A 
HETATM    5  C5  UNL     1     -42.584   7.975  -2.853  1.00 20.00     0.039 A 
HETATM    6  C6  UNL     1     -43.258   7.246  -3.804  1.00 20.00     0.143 A 
HETATM    7  C7  UNL     1     -41.924   7.034  -2.019  1.00 20.00    -0.001 A 
HETATM    8  C8  UNL     1     -42.248   5.782  -2.532  1.00 20.00     0.085 A 
HETATM    9  O9  UNL     1     -43.060   5.914  -3.618  1.00 20.00    -0.322 OA
ENDROOT
TORSDOF 0
ENDMDL
MODEL 7
REMARK VINA RESULT:      -4.3     12.100     13.769
REMARK  0 active torsions:
REMARK  status: ('A' for Active; 'I' for Inactive)
ROOT
HETATM    1  C1  UNL     1     -34.435  13.331  -4.874  1.00 20.00     0.001 A 
HETATM    2  C2  UNL     1     -33.596  13.696  -3.819  1.00 20.00     0.003 A 
HETATM    3  C3  UNL     1     -34.795  14.257  -5.864  1.00 20.00     0.014 A 
HETATM    4  C4  UNL     1     -33.088  14.994  -3.710  1.00 20.00     0.038 A 
HETATM    5  C5  UNL     1     -34.416  16.756  -6.544  1.00 20.00     0.039 A 
HETATM    6  C6  UNL     1     -33.662  17.711  -5.904  1.00 20.00     0.143 A 
HETATM    7  C7  UNL     1     -34.294  15.568  -5.776  1.00 20.00    -0.001 A 
HETATM    8  C8  UNL     1     -33.463  15.891  -4.708  1.00 20.00     0.085 A 
HETATM    9  O9  UNL     1     -33.079  17.196  -4.788  1.00 20.00    -0.322 OA
ENDROOT
TORSDOF 0
ENDMDL
MODEL 8
REMARK VINA RESULT:      -4.3     12.097     13.857
REMARK  0 active torsions:
REMARK  status: ('A' for Active; 'I' for Inactive)
ROOT
HETATM    1  C1  UNL     1     -33.101  15.163  -3.697  1.00 20.00     0.001 A 
HETATM    2  C2  UNL     1     -33.660  13.883  -3.700  1.00 20.00     0.003 A 
HETATM    3  C3  UNL     1     -33.293  16.038  -4.776  1.00 20.00     0.014 A 
HETATM    4  C4  UNL     1     -34.429  13.429  -4.776  1.00 20.00     0.038 A 
HETATM    5  C5  UNL     1     -34.479  16.162  -7.106  1.00 20.00     0.039 A 
HETATM    6  C6  UNL     1     -35.234  15.199  -7.733  1.00 20.00     0.143 A 
HETATM    7  C7  UNL     1     -34.065  15.603  -5.868  1.00 20.00    -0.001 A 
HETATM    8  C8  UNL     1     -34.604  14.321  -5.832  1.00 20.00     0.085 A 
HETATM    9  O9  UNL     1     -35.315  14.078  -6.969  1.00 20.00    -0.322 OA
ENDROOT
TORSDOF 0
ENDMDL
MODEL 9
REMARK VINA RESULT:      -4.2     12.019     12.601
REMARK  0 active torsions:
REMARK  status: ('A' for Active; 'I' for Inactive)
ROOT
HETATM    1  C1  UNL     1     -33.936  13.460  -4.304  1.00 20.00     0.001 A 
HETATM    2  C2  UNL     1     -35.320  13.464  -4.491  1.00 20.00     0.003 A 
HETATM    3  C3  UNL     1     -33.306  14.454  -3.541  1.00 20.00     0.014 A 
HETATM    4  C4  UNL     1     -36.126  14.456  -3.926  1.00 20.00     0.038 A 
HETATM    5  C5  UNL     1     -33.858  16.603  -2.153  1.00 20.00     0.039 A 
HETATM    6  C6  UNL     1     -35.084  17.183  -1.925  1.00 20.00     0.143 A 
HETATM    7  C7  UNL     1     -34.098  15.462  -2.962  1.00 20.00    -0.001 A 
HETATM    8  C8  UNL     1     -35.473  15.430  -3.173  1.00 20.00     0.085 A 
HETATM    9  O9  UNL     1     -36.070  16.478  -2.540  1.00 20.00    -0.322 OA
ENDROOT
TORSDOF 0
ENDMDL
