MODEL 1
REMARK VINA RESULT:      -5.4      0.000      0.000
REMARK  3 active torsions:
REMARK  status: ('A' for Active; 'I' for Inactive)
REMARK    1  A    between atoms: C5_5  and  O9_9 
REMARK    2  A    between atoms: C6_6  and  O10_10 
REMARK    3  A    between atoms: C8_8  and  O10_10 
ROOT
HETATM    1  C1  UNL     1     -35.211   4.225   5.867  1.00 20.00     0.003 A 
HETATM    2  C2  UNL     1     -35.247   4.278   4.474  1.00 20.00     0.003 A 
HETATM    3  C3  UNL     1     -34.539   5.216   6.584  1.00 20.00     0.039 A 
HETATM    4  C4  UNL     1     -34.614   5.321   3.798  1.00 20.00     0.039 A 
HETATM    5  C5  UNL     1     -33.906   6.259   5.909  1.00 20.00     0.099 A 
HETATM    6  C6  UNL     1     -33.944   6.311   4.515  1.00 20.00     0.101 A 
ENDROOT
BRANCH   6   7
HETATM    7  O10 UNL     1     -33.327   7.324   3.844  1.00 20.00    -0.349 OA
BRANCH   7   8
HETATM    8  C8  UNL     1     -32.304   6.958   2.919  1.00 20.00     0.171 C 
HETATM    9  C7  UNL     1     -32.021   8.134   2.008  1.00 20.00     0.034 C 
ENDBRANCH   7   8
ENDBRANCH   6   7
BRANCH   5  10
HETATM   10  O9  UNL     1     -33.253   7.219   6.622  1.00 20.00    -0.358 OA
HETATM   11  H20 UNL     1     -32.322   6.975   6.737  1.00 20.00     0.217 HD
ENDBRANCH   5  10
TORSDOF 3
ENDMDL
MODEL 2
REMARK VINA RESULT:      -5.2      1.037      2.188
REMARK  3 active torsions:
REMARK  status: ('A' for Active; 'I' for Inactive)
REMARK    1  A    between atoms: C5_5  and  O9_9 
REMARK    2  A    between atoms: C6_6  and  O10_10 
REMARK    3  A    between atoms: C8_8  and  O10_10 
ROOT
HETATM    1  C1  UNL     1     -35.013   4.446   6.038  1.00 20.00     0.003 A 
HETATM    2  C2  UNL     1     -34.426   5.600   6.557  1.00 20.00     0.003 A 
HETATM    3  C3  UNL     1     -35.080   4.259   4.657  1.00 20.00     0.039 A 
HETATM    4  C4  UNL     1     -33.906   6.566   5.696  1.00 20.00     0.039 A 
HETATM    5  C5  UNL     1     -34.560   5.225   3.796  1.00 20.00     0.099 A 
HETATM    6  C6  UNL     1     -33.973   6.379   4.315  1.00 20.00     0.101 A 
ENDROOT
BRANCH   6   7
HETATM    7  O10 UNL     1     -33.464   7.331   3.484  1.00 20.00    -0.349 OA
BRANCH   7   8
HETATM    8  C8  UNL     1     -32.101   7.183   3.089  1.00 20.00     0.171 C 
HETATM    9  C7  UNL     1     -31.815   8.129   1.942  1.00 20.00     0.034 C 
ENDBRANCH   7   8
ENDBRANCH   6   7
BRANCH   5  10
HETATM   10  O9  UNL     1     -34.633   5.030   2.449  1.00 20.00    -0.358 OA
HETATM   11  H20 UNL     1     -33.785   5.249   2.033  1.00 20.00     0.217 HD
ENDBRANCH   5  10
TORSDOF 3
ENDMDL
MODEL 3
REMARK VINA RESULT:      -4.5     11.958     12.305
REMARK  3 active torsions:
REMARK  status: ('A' for Active; 'I' for Inactive)
REMARK    1  A    between atoms: C5_5  and  O9_9 
REMARK    2  A    between atoms: C6_6  and  O10_10 
REMARK    3  A    between atoms: C8_8  and  O10_10 
ROOT
HETATM    1  C1  UNL     1     -35.396  13.481  -4.511  1.00 20.00     0.003 A 
HETATM    2  C2  UNL     1     -36.166  14.400  -3.799  1.00 20.00     0.003 A 
HETATM    3  C3  UNL     1     -34.003  13.554  -4.463  1.00 20.00     0.039 A 
HETATM    4  C4  UNL     1     -35.545  15.391  -3.040  1.00 20.00     0.039 A 
HETATM    5  C5  UNL     1     -33.382  14.545  -3.704  1.00 20.00     0.099 A 
HETATM    6  C6  UNL     1     -34.154  15.464  -2.992  1.00 20.00     0.101 A 
ENDROOT
BRANCH   6   7
HETATM    7  O10 UNL     1     -33.558  16.439  -2.249  1.00 20.00    -0.349 OA
BRANCH   7   8
HETATM    8  C8  UNL     1     -34.246  16.866  -1.074  1.00 20.00     0.171 C 
HETATM    9  C7  UNL     1     -33.505  18.041  -0.470  1.00 20.00     0.034 C 
ENDBRANCH   7   8
ENDBRANCH   6   7
BRANCH   5  10
HETATM   10  O9  UNL     1     -32.021  14.606  -3.667  1.00 20.00    -0.358 OA
HETATM   11  H20 UNL     1     -31.662  14.614  -4.568  1.00 20.00     0.217 HD
ENDBRANCH   5  10
TORSDOF 3
ENDMDL
MODEL 4
REMARK VINA RESULT:      -4.5     12.022     13.258
REMARK  3 active torsions:
REMARK  status: ('A' for Active; 'I' for Inactive)
REMARK    1  A    between atoms: C5_5  and  O9_9 
REMARK    2  A    between atoms: C6_6  and  O10_10 
REMARK    3  A    between atoms: C8_8  and  O10_10 
ROOT
HETATM    1  C1  UNL     1     -34.538  14.931  -6.986  1.00 20.00     0.003 A 
HETATM    2  C2  UNL     1     -34.119  16.101  -6.353  1.00 20.00     0.003 A 
HETATM    3  C3  UNL     1     -34.890  13.816  -6.224  1.00 20.00     0.039 A 
HETATM    4  C4  UNL     1     -34.052  16.157  -4.962  1.00 20.00     0.039 A 
HETATM    5  C5  UNL     1     -34.823  13.871  -4.833  1.00 20.00     0.099 A 
HETATM    6  C6  UNL     1     -34.404  15.042  -4.201  1.00 20.00     0.101 A 
ENDROOT
BRANCH   6   7
HETATM    7  O10 UNL     1     -34.332  15.109  -2.842  1.00 20.00    -0.349 OA
BRANCH   7   8
HETATM    8  C8  UNL     1     -33.905  16.347  -2.276  1.00 20.00     0.171 C 
HETATM    9  C7  UNL     1     -34.620  16.559  -0.959  1.00 20.00     0.034 C 
ENDBRANCH   7   8
ENDBRANCH   6   7
BRANCH   5  10
HETATM   10  O9  UNL     1     -35.168  12.775  -4.101  1.00 20.00    -0.358 OA
HETATM   11  H20 UNL     1     -36.086  12.850  -3.798  1.00 20.00     0.217 HD
ENDBRANCH   5  10
TORSDOF 3
ENDMDL
MODEL 5
REMARK VINA RESULT:      -4.4     11.580     12.665
REMARK  3 active torsions:
REMARK  status: ('A' for Active; 'I' for Inactive)
REMARK    1  A    between atoms: C5_5  and  O9_9 
REMARK    2  A    between atoms: C6_6  and  O10_10 
REMARK    3  A    between atoms: C8_8  and  O10_10 
ROOT
HETATM    1  C1  UNL     1     -32.909  15.131  -3.484  1.00 20.00     0.003 A 
HETATM    2  C2  UNL     1     -33.741  16.172  -3.073  1.00 20.00     0.003 A 
HETATM    3  C3  UNL     1     -33.460  13.907  -3.863  1.00 20.00     0.039 A 
HETATM    4  C4  UNL     1     -35.123  15.990  -3.041  1.00 20.00     0.039 A 
HETATM    5  C5  UNL     1     -34.842  13.724  -3.832  1.00 20.00     0.099 A 
HETATM    6  C6  UNL     1     -35.674  14.766  -3.420  1.00 20.00     0.101 A 
ENDROOT
BRANCH   6   7
HETATM    7  O10 UNL     1     -37.026  14.599  -3.383  1.00 20.00    -0.349 OA
BRANCH   7   8
HETATM    8  C8  UNL     1     -37.781  15.199  -4.434  1.00 20.00     0.171 C 
HETATM    9  C7  UNL     1     -39.212  14.710  -4.354  1.00 20.00     0.034 C 
ENDBRANCH   7   8
ENDBRANCH   6   7
BRANCH   5  10
HETATM   10  O9  UNL     1     -35.368  12.523  -4.204  1.00 20.00    -0.358 OA
HETATM   11  H20 UNL     1     -34.789  12.091  -4.852  1.00 20.00     0.217 HD
ENDBRANCH   5  10
TORSDOF 3
ENDMDL
MODEL 6
REMARK VINA RESULT:      -4.3     11.976     12.334
REMARK  3 active torsions:
REMARK  status: ('A' for Active; 'I' for Inactive)
REMARK    1  A    between atoms: C5_5  and  O9_9 
REMARK    2  A    between atoms: C6_6  and  O10_10 
REMARK    3  A    between atoms: C8_8  and  O10_10 
ROOT
HETATM    1  C1  UNL     1     -34.279  13.534  -4.507  1.00 20.00     0.003 A 
HETATM    2  C2  UNL     1     -33.283  14.313  -3.918  1.00 20.00     0.003 A 
HETATM    3  C3  UNL     1     -35.621  13.783  -4.216  1.00 20.00     0.039 A 
HETATM    4  C4  UNL     1     -33.628  15.339  -3.040  1.00 20.00     0.039 A 
HETATM    5  C5  UNL     1     -35.966  14.810  -3.339  1.00 20.00     0.099 A 
HETATM    6  C6  UNL     1     -34.969  15.589  -2.750  1.00 20.00     0.101 A 
ENDROOT
BRANCH   6   7
HETATM    7  O10 UNL     1     -35.293  16.594  -1.889  1.00 20.00    -0.349 OA
BRANCH   7   8
HETATM    8  C8  UNL     1     -34.313  16.955  -0.918  1.00 20.00     0.171 C 
HETATM    9  C7  UNL     1     -35.013  17.347   0.366  1.00 20.00     0.034 C 
ENDBRANCH   7   8
ENDBRANCH   6   7
BRANCH   5  10
HETATM   10  O9  UNL     1     -37.280  15.042  -3.063  1.00 20.00    -0.358 OA
HETATM   11  H20 UNL     1     -37.432  15.003  -2.106  1.00 20.00     0.217 HD
ENDBRANCH   5  10
TORSDOF 3
ENDMDL
MODEL 7
REMARK VINA RESULT:      -4.3     11.688     13.537
REMARK  3 active torsions:
REMARK  status: ('A' for Active; 'I' for Inactive)
REMARK    1  A    between atoms: C5_5  and  O9_9 
REMARK    2  A    between atoms: C6_6  and  O10_10 
REMARK    3  A    between atoms: C8_8  and  O10_10 
ROOT
HETATM    1  C1  UNL     1     -33.238  15.487  -3.562  1.00 20.00     0.003 A 
HETATM    2  C2  UNL     1     -33.258  16.159  -4.784  1.00 20.00     0.003 A 
HETATM    3  C3  UNL     1     -33.941  14.290  -3.414  1.00 20.00     0.039 A 
HETATM    4  C4  UNL     1     -33.979  15.636  -5.856  1.00 20.00     0.039 A 
HETATM    5  C5  UNL     1     -34.662  13.767  -4.487  1.00 20.00     0.099 A 
HETATM    6  C6  UNL     1     -34.681  14.440  -5.708  1.00 20.00     0.101 A 
ENDROOT
BRANCH   6   7
HETATM    7  O10 UNL     1     -35.384  13.940  -6.763  1.00 20.00    -0.349 OA
BRANCH   7   8
HETATM    8  C8  UNL     1     -36.014  14.885  -7.627  1.00 20.00     0.171 C 
HETATM    9  C7  UNL     1     -37.414  15.158  -7.119  1.00 20.00     0.034 C 
ENDBRANCH   7   8
ENDBRANCH   6   7
BRANCH   5  10
HETATM   10  O9  UNL     1     -35.344  12.598  -4.328  1.00 20.00    -0.358 OA
HETATM   11  H20 UNL     1     -36.032  12.518  -5.008  1.00 20.00     0.217 HD
ENDBRANCH   5  10
TORSDOF 3
ENDMDL
MODEL 8
REMARK VINA RESULT:      -4.3      9.994     11.273
REMARK  3 active torsions:
REMARK  status: ('A' for Active; 'I' for Inactive)
REMARK    1  A    between atoms: C5_5  and  O9_9 
REMARK    2  A    between atoms: C6_6  and  O10_10 
REMARK    3  A    between atoms: C8_8  and  O10_10 
ROOT
HETATM    1  C1  UNL     1     -41.121   7.045  -0.871  1.00 20.00     0.003 A 
HETATM    2  C2  UNL     1     -40.688   5.771  -0.504  1.00 20.00     0.003 A 
HETATM    3  C3  UNL     1     -41.979   7.202  -1.960  1.00 20.00     0.039 A 
HETATM    4  C4  UNL     1     -41.111   4.655  -1.225  1.00 20.00     0.039 A 
HETATM    5  C5  UNL     1     -42.403   6.086  -2.681  1.00 20.00     0.099 A 
HETATM    6  C6  UNL     1     -41.969   4.812  -2.313  1.00 20.00     0.101 A 
ENDROOT
BRANCH   6   7
HETATM    7  O10 UNL     1     -42.374   3.714  -3.011  1.00 20.00    -0.349 OA
BRANCH   7   8
HETATM    8  C8  UNL     1     -41.462   2.620  -3.082  1.00 20.00     0.171 C 
HETATM    9  C7  UNL     1     -41.910   1.675  -4.177  1.00 20.00     0.034 C 
ENDBRANCH   7   8
ENDBRANCH   6   7
BRANCH   5  10
HETATM   10  O9  UNL     1     -43.240   6.254  -3.743  1.00 20.00    -0.358 OA
HETATM   11  H20 UNL     1     -44.127   6.496  -3.435  1.00 20.00     0.217 HD
ENDBRANCH   5  10
TORSDOF 3
ENDMDL
MODEL 9
REMARK VINA RESULT:      -4.2     11.871     12.684
REMARK  3 active torsions:
REMARK  status: ('A' for Active; 'I' for Inactive)
REMARK    1  A    between atoms: C5_5  and  O9_9 
REMARK    2  A    between atoms: C6_6  and  O10_10 
REMARK    3  A    between atoms: C8_8  and  O10_10 
ROOT
HETATM    1  C1  UNL     1     -35.302  13.429  -4.358  1.00 20.00     0.003 A 
HETATM    2  C2  UNL     1     -36.091  14.420  -3.775  1.00 20.00     0.003 A 
HETATM    3  C3  UNL     1     -33.911  13.538  -4.328  1.00 20.00     0.039 A 
HETATM    4  C4  UNL     1     -35.490  15.520  -3.163  1.00 20.00     0.039 A 
HETATM    5  C5  UNL     1     -33.310  14.638  -3.715  1.00 20.00     0.099 A 
HETATM    6  C6  UNL     1     -34.100  15.629  -3.133  1.00 20.00     0.101 A 
ENDROOT
BRANCH   6   7
HETATM    7  O10 UNL     1     -33.525  16.709  -2.533  1.00 20.00    -0.349 OA
BRANCH   7   8
HETATM    8  C8  UNL     1     -33.981  17.996  -2.946  1.00 20.00     0.171 C 
HETATM    9  C7  UNL     1     -33.574  18.224  -4.387  1.00 20.00     0.034 C 
ENDBRANCH   7   8
ENDBRANCH   6   7
BRANCH   5  10
HETATM   10  O9  UNL     1     -31.951  14.733  -3.695  1.00 20.00    -0.358 OA
HETATM   11  H20 UNL     1     -31.554  13.911  -4.024  1.00 20.00     0.217 HD
ENDBRANCH   5  10
TORSDOF 3
ENDMDL
