MODEL 1
REMARK VINA RESULT:      -4.4      0.000      0.000
REMARK  2 active torsions:
REMARK  status: ('A' for Active; 'I' for Inactive)
REMARK    1  A    between atoms: C5_5  and  N8_8 
REMARK    2  A    between atoms: C6_6  and  S11_11 
ROOT
HETATM    1  C1  UNL     1     -34.472  14.909  -6.181  1.00 20.00     0.037 A 
HETATM    2  C2  UNL     1     -33.502  15.796  -4.154  1.00 20.00     0.037 A 
HETATM    3  C3  UNL     1     -34.468  16.185  -6.742  1.00 20.00     0.021 A 
HETATM    4  C4  UNL     1     -33.497  17.072  -4.714  1.00 20.00     0.021 A 
HETATM    5  C5  UNL     1     -33.990  14.713  -4.886  1.00 20.00     0.102 A 
HETATM    6  C6  UNL     1     -33.980  17.268  -6.008  1.00 20.00    -0.000 A 
ENDROOT
BRANCH   5   7
HETATM    7  N8  UNL     1     -33.995  13.413  -4.316  1.00 20.00    -0.116 N 
HETATM    8  O9  UNL     1     -32.955  12.990  -3.757  1.00 20.00    -0.532 OA
HETATM    9  O10 UNL     1     -35.039  12.721  -4.389  1.00 20.00    -0.532 OA
ENDBRANCH   5   7
BRANCH   6  10
HETATM   10  S11 UNL     1     -33.975  18.899  -6.725  1.00 20.00    -0.134 SA
HETATM   11  C7  UNL     1     -35.654  18.941  -7.391  1.00 20.00     0.095 C 
ENDBRANCH   6  10
TORSDOF 2
ENDMDL
MODEL 2
REMARK VINA RESULT:      -4.4      0.239      1.743
REMARK  2 active torsions:
REMARK  status: ('A' for Active; 'I' for Inactive)
REMARK    1  A    between atoms: C5_5  and  N8_8 
REMARK    2  A    between atoms: C6_6  and  S11_11 
ROOT
HETATM    1  C1  UNL     1     -33.399  15.766  -4.328  1.00 20.00     0.037 A 
HETATM    2  C2  UNL     1     -34.624  14.860  -6.203  1.00 20.00     0.037 A 
HETATM    3  C3  UNL     1     -33.411  17.024  -4.928  1.00 20.00     0.021 A 
HETATM    4  C4  UNL     1     -34.637  16.118  -6.803  1.00 20.00     0.021 A 
HETATM    5  C5  UNL     1     -34.005  14.683  -4.966  1.00 20.00     0.102 A 
HETATM    6  C6  UNL     1     -34.030  17.201  -6.167  1.00 20.00    -0.000 A 
ENDROOT
BRANCH   5   7
HETATM    7  N8  UNL     1     -33.993  13.402  -4.354  1.00 20.00    -0.116 N 
HETATM    8  O9  UNL     1     -35.017  12.682  -4.428  1.00 20.00    -0.532 OA
HETATM    9  O10 UNL     1     -32.957  13.025  -3.754  1.00 20.00    -0.532 OA
ENDBRANCH   5   7
BRANCH   6  10
HETATM   10  S11 UNL     1     -34.045  18.809  -6.933  1.00 20.00    -0.134 SA
HETATM   11  C7  UNL     1     -35.554  18.660  -7.917  1.00 20.00     0.095 C 
ENDBRANCH   6  10
TORSDOF 2
ENDMDL
MODEL 3
REMARK VINA RESULT:      -4.3      3.016      3.718
REMARK  2 active torsions:
REMARK  status: ('A' for Active; 'I' for Inactive)
REMARK    1  A    between atoms: C5_5  and  N8_8 
REMARK    2  A    between atoms: C6_6  and  S11_11 
ROOT
HETATM    1  C1  UNL     1     -33.781  15.514  -2.862  1.00 20.00     0.037 A 
HETATM    2  C2  UNL     1     -36.001  14.913  -3.603  1.00 20.00     0.037 A 
HETATM    3  C3  UNL     1     -34.273  16.720  -2.365  1.00 20.00     0.021 A 
HETATM    4  C4  UNL     1     -36.494  16.120  -3.106  1.00 20.00     0.021 A 
HETATM    5  C5  UNL     1     -34.645  14.610  -3.482  1.00 20.00     0.102 A 
HETATM    6  C6  UNL     1     -35.630  17.023  -2.487  1.00 20.00    -0.000 A 
ENDROOT
BRANCH   5   7
HETATM    7  N8  UNL     1     -34.144  13.382  -3.988  1.00 20.00    -0.116 N 
HETATM    8  O9  UNL     1     -32.946  13.078  -3.770  1.00 20.00    -0.532 OA
HETATM    9  O10 UNL     1     -34.912  12.634  -4.640  1.00 20.00    -0.532 OA
ENDBRANCH   5   7
BRANCH   6  10
HETATM   10  S11 UNL     1     -36.258  18.565  -1.851  1.00 20.00    -0.134 SA
HETATM   11  C7  UNL     1     -36.025  18.279  -0.082  1.00 20.00     0.095 C 
ENDBRANCH   6  10
TORSDOF 2
ENDMDL
MODEL 4
REMARK VINA RESULT:      -4.3      2.417      3.380
REMARK  2 active torsions:
REMARK  status: ('A' for Active; 'I' for Inactive)
REMARK    1  A    between atoms: C5_5  and  N8_8 
REMARK    2  A    between atoms: C6_6  and  S11_11 
ROOT
HETATM    1  C1  UNL     1     -33.916  16.051  -5.061  1.00 20.00     0.037 A 
HETATM    2  C2  UNL     1     -34.773  14.885  -3.126  1.00 20.00     0.037 A 
HETATM    3  C3  UNL     1     -33.638  17.163  -4.268  1.00 20.00     0.021 A 
HETATM    4  C4  UNL     1     -34.495  15.997  -2.332  1.00 20.00     0.021 A 
HETATM    5  C5  UNL     1     -34.484  14.911  -4.490  1.00 20.00     0.102 A 
HETATM    6  C6  UNL     1     -33.928  17.137  -2.903  1.00 20.00    -0.000 A 
ENDROOT
BRANCH   5   7
HETATM    7  N8  UNL     1     -34.766  13.778  -5.298  1.00 20.00    -0.116 N 
HETATM    8  O9  UNL     1     -35.068  13.950  -6.503  1.00 20.00    -0.532 OA
HETATM    9  O10 UNL     1     -34.705  12.635  -4.785  1.00 20.00    -0.532 OA
ENDBRANCH   5   7
BRANCH   6  10
HETATM   10  S11 UNL     1     -33.574  18.559  -1.890  1.00 20.00    -0.134 SA
HETATM   11  C7  UNL     1     -33.924  17.863  -0.259  1.00 20.00     0.095 C 
ENDBRANCH   6  10
TORSDOF 2
ENDMDL
MODEL 5
REMARK VINA RESULT:      -4.3      2.445      3.510
REMARK  2 active torsions:
REMARK  status: ('A' for Active; 'I' for Inactive)
REMARK    1  A    between atoms: C5_5  and  N8_8 
REMARK    2  A    between atoms: C6_6  and  S11_11 
ROOT
HETATM    1  C1  UNL     1     -34.834  14.873  -3.122  1.00 20.00     0.037 A 
HETATM    2  C2  UNL     1     -33.905  16.037  -5.025  1.00 20.00     0.037 A 
HETATM    3  C3  UNL     1     -34.557  15.974  -2.314  1.00 20.00     0.021 A 
HETATM    4  C4  UNL     1     -33.629  17.139  -4.217  1.00 20.00     0.021 A 
HETATM    5  C5  UNL     1     -34.507  14.903  -4.479  1.00 20.00     0.102 A 
HETATM    6  C6  UNL     1     -33.955  17.108  -2.861  1.00 20.00    -0.000 A 
ENDROOT
BRANCH   5   7
HETATM    7  N8  UNL     1     -34.789  13.781  -5.301  1.00 20.00    -0.116 N 
HETATM    8  O9  UNL     1     -35.070  13.967  -6.510  1.00 20.00    -0.532 OA
HETATM    9  O10 UNL     1     -34.750  12.632  -4.797  1.00 20.00    -0.532 OA
ENDBRANCH   5   7
BRANCH   6  10
HETATM   10  S11 UNL     1     -33.603  18.515  -1.827  1.00 20.00    -0.134 SA
HETATM   11  C7  UNL     1     -34.024  17.818  -0.214  1.00 20.00     0.095 C 
ENDBRANCH   6  10
TORSDOF 2
ENDMDL
MODEL 6
REMARK VINA RESULT:      -4.3      3.045      3.655
REMARK  2 active torsions:
REMARK  status: ('A' for Active; 'I' for Inactive)
REMARK    1  A    between atoms: C5_5  and  N8_8 
REMARK    2  A    between atoms: C6_6  and  S11_11 
ROOT
HETATM    1  C1  UNL     1     -36.006  14.825  -3.619  1.00 20.00     0.037 A 
HETATM    2  C2  UNL     1     -33.801  15.473  -2.873  1.00 20.00     0.037 A 
HETATM    3  C3  UNL     1     -36.529  16.008  -3.100  1.00 20.00     0.021 A 
HETATM    4  C4  UNL     1     -34.324  16.657  -2.354  1.00 20.00     0.021 A 
HETATM    5  C5  UNL     1     -34.641  14.556  -3.505  1.00 20.00     0.102 A 
HETATM    6  C6  UNL     1     -35.688  16.925  -2.467  1.00 20.00    -0.000 A 
ENDROOT
BRANCH   5   7
HETATM    7  N8  UNL     1     -34.109  13.351  -4.034  1.00 20.00    -0.116 N 
HETATM    8  O9  UNL     1     -34.831  12.639  -4.772  1.00 20.00    -0.532 OA
HETATM    9  O10 UNL     1     -32.930  13.030  -3.747  1.00 20.00    -0.532 OA
ENDBRANCH   5   7
BRANCH   6  10
HETATM   10  S11 UNL     1     -36.358  18.437  -1.805  1.00 20.00    -0.134 SA
HETATM   11  C7  UNL     1     -35.981  18.192  -0.054  1.00 20.00     0.095 C 
ENDBRANCH   6  10
TORSDOF 2
ENDMDL
MODEL 7
REMARK VINA RESULT:      -4.2      3.027      3.668
REMARK  2 active torsions:
REMARK  status: ('A' for Active; 'I' for Inactive)
REMARK    1  A    between atoms: C5_5  and  N8_8 
REMARK    2  A    between atoms: C6_6  and  S11_11 
ROOT
HETATM    1  C1  UNL     1     -34.092  15.332  -2.687  1.00 20.00     0.037 A 
HETATM    2  C2  UNL     1     -36.079  14.882  -3.987  1.00 20.00     0.037 A 
HETATM    3  C3  UNL     1     -34.677  16.498  -2.197  1.00 20.00     0.021 A 
HETATM    4  C4  UNL     1     -36.665  16.048  -3.495  1.00 20.00     0.021 A 
HETATM    5  C5  UNL     1     -34.793  14.523  -3.584  1.00 20.00     0.102 A 
HETATM    6  C6  UNL     1     -35.964  16.857  -2.601  1.00 20.00    -0.000 A 
ENDROOT
BRANCH   5   7
HETATM    7  N8  UNL     1     -34.196  13.336  -4.083  1.00 20.00    -0.116 N 
HETATM    8  O9  UNL     1     -34.878  12.569  -4.804  1.00 20.00    -0.532 OA
HETATM    9  O10 UNL     1     -33.002  13.084  -3.788  1.00 20.00    -0.532 OA
ENDBRANCH   5   7
BRANCH   6  10
HETATM   10  S11 UNL     1     -36.711  18.347  -1.973  1.00 20.00    -0.134 SA
HETATM   11  C7  UNL     1     -38.455  17.908  -2.149  1.00 20.00     0.095 C 
ENDBRANCH   6  10
TORSDOF 2
ENDMDL
MODEL 8
REMARK VINA RESULT:      -3.8      4.971      5.617
REMARK  2 active torsions:
REMARK  status: ('A' for Active; 'I' for Inactive)
REMARK    1  A    between atoms: C5_5  and  N8_8 
REMARK    2  A    between atoms: C6_6  and  S11_11 
ROOT
HETATM    1  C1  UNL     1     -33.400  18.945  -2.078  1.00 20.00     0.037 A 
HETATM    2  C2  UNL     1     -34.105  17.130  -0.647  1.00 20.00     0.037 A 
HETATM    3  C3  UNL     1     -34.144  18.407  -3.127  1.00 20.00     0.021 A 
HETATM    4  C4  UNL     1     -34.850  16.592  -1.696  1.00 20.00     0.021 A 
HETATM    5  C5  UNL     1     -33.379  18.306  -0.838  1.00 20.00     0.102 A 
HETATM    6  C6  UNL     1     -34.870  17.230  -2.937  1.00 20.00    -0.000 A 
ENDROOT
BRANCH   5   7
HETATM    7  N8  UNL     1     -32.622  18.855   0.230  1.00 20.00    -0.116 N 
HETATM    8  O9  UNL     1     -31.457  19.263   0.004  1.00 20.00    -0.532 OA
HETATM    9  O10 UNL     1     -33.137  18.916   1.373  1.00 20.00    -0.532 OA
ENDBRANCH   5   7
BRANCH   6  10
HETATM   10  S11 UNL     1     -35.820  16.543  -4.278  1.00 20.00    -0.134 SA
HETATM   11  C7  UNL     1     -36.350  14.996  -3.510  1.00 20.00     0.095 C 
ENDBRANCH   6  10
TORSDOF 2
ENDMDL
MODEL 9
REMARK VINA RESULT:      -3.8     13.513     14.480
REMARK  2 active torsions:
REMARK  status: ('A' for Active; 'I' for Inactive)
REMARK    1  A    between atoms: C5_5  and  N8_8 
REMARK    2  A    between atoms: C6_6  and  S11_11 
ROOT
HETATM    1  C1  UNL     1     -41.023   4.354  -1.593  1.00 20.00     0.037 A 
HETATM    2  C2  UNL     1     -42.763   5.867  -2.316  1.00 20.00     0.037 A 
HETATM    3  C3  UNL     1     -41.533   3.366  -2.434  1.00 20.00     0.021 A 
HETATM    4  C4  UNL     1     -43.273   4.879  -3.158  1.00 20.00     0.021 A 
HETATM    5  C5  UNL     1     -41.639   5.605  -1.533  1.00 20.00     0.102 A 
HETATM    6  C6  UNL     1     -42.658   3.628  -3.217  1.00 20.00    -0.000 A 
ENDROOT
BRANCH   5   7
HETATM    7  N8  UNL     1     -41.119   6.611  -0.677  1.00 20.00    -0.116 N 
HETATM    8  O9  UNL     1     -41.389   7.813  -0.915  1.00 20.00    -0.532 OA
HETATM    9  O10 UNL     1     -40.403   6.271   0.296  1.00 20.00    -0.532 OA
ENDBRANCH   5   7
BRANCH   6  10
HETATM   10  S11 UNL     1     -43.308   2.365  -4.292  1.00 20.00    -0.134 SA
HETATM   11  C7  UNL     1     -41.979   1.147  -4.165  1.00 20.00     0.095 C 
ENDBRANCH   6  10
TORSDOF 2
ENDMDL
