MODEL 1
REMARK VINA RESULT:      -6.0      0.000      0.000
REMARK  0 active torsions:
REMARK  status: ('A' for Active; 'I' for Inactive)
ROOT
HETATM    1  C1  UNL     1     -34.601   5.645   6.706  1.00 20.00     0.001 A 
HETATM    2  C2  UNL     1     -35.292   4.684   5.949  1.00 20.00     0.001 A 
HETATM    3  C3  UNL     1     -33.665   6.493   6.105  1.00 20.00     0.012 A 
HETATM    4  C4  UNL     1     -35.060   4.552   4.578  1.00 20.00     0.008 A 
HETATM    5  C5  UNL     1     -33.442   6.354   4.746  1.00 20.00    -0.030 A 
HETATM    6  C6  UNL     1     -34.132   5.394   3.993  1.00 20.00    -0.044 A 
HETATM    7  C7  UNL     1     -32.541   7.085   3.870  1.00 20.00     0.008 A 
HETATM    8  C8  UNL     1     -32.680   6.586   2.633  1.00 20.00    -0.021 A 
HETATM    9  C9  UNL     1     -33.693   5.468   2.563  1.00 20.00     0.066 A 
ENDROOT
TORSDOF 0
ENDMDL
MODEL 2
REMARK VINA RESULT:      -5.9      0.097      1.981
REMARK  0 active torsions:
REMARK  status: ('A' for Active; 'I' for Inactive)
ROOT
HETATM    1  C1  UNL     1     -35.304   4.614   5.910  1.00 20.00     0.001 A 
HETATM    2  C2  UNL     1     -34.679   5.587   6.710  1.00 20.00     0.001 A 
HETATM    3  C3  UNL     1     -35.008   4.511   4.548  1.00 20.00     0.012 A 
HETATM    4  C4  UNL     1     -33.748   6.472   6.163  1.00 20.00     0.008 A 
HETATM    5  C5  UNL     1     -34.084   5.392   4.015  1.00 20.00    -0.030 A 
HETATM    6  C6  UNL     1     -33.463   6.362   4.814  1.00 20.00    -0.044 A 
HETATM    7  C7  UNL     1     -33.592   5.516   2.653  1.00 20.00     0.008 A 
HETATM    8  C8  UNL     1     -32.705   6.522   2.628  1.00 20.00    -0.021 A 
HETATM    9  C9  UNL     1     -32.519   7.171   3.979  1.00 20.00     0.066 A 
ENDROOT
TORSDOF 0
ENDMDL
MODEL 3
REMARK VINA RESULT:      -5.6      0.495      3.713
REMARK  0 active torsions:
REMARK  status: ('A' for Active; 'I' for Inactive)
ROOT
HETATM    1  C1  UNL     1     -32.891   6.190   2.398  1.00 20.00     0.001 A 
HETATM    2  C2  UNL     1     -32.289   7.087   3.297  1.00 20.00     0.001 A 
HETATM    3  C3  UNL     1     -33.877   5.298   2.830  1.00 20.00     0.012 A 
HETATM    4  C4  UNL     1     -32.660   7.108   4.643  1.00 20.00     0.008 A 
HETATM    5  C5  UNL     1     -34.239   5.326   4.165  1.00 20.00    -0.030 A 
HETATM    6  C6  UNL     1     -33.636   6.221   5.060  1.00 20.00    -0.044 A 
HETATM    7  C7  UNL     1     -35.218   4.526   4.883  1.00 20.00     0.008 A 
HETATM    8  C8  UNL     1     -35.208   4.922   6.165  1.00 20.00    -0.021 A 
HETATM    9  C9  UNL     1     -34.216   6.030   6.428  1.00 20.00     0.066 A 
ENDROOT
TORSDOF 0
ENDMDL
MODEL 4
REMARK VINA RESULT:      -5.6      0.492      3.142
REMARK  0 active torsions:
REMARK  status: ('A' for Active; 'I' for Inactive)
ROOT
HETATM    1  C1  UNL     1     -32.274   7.119   3.427  1.00 20.00     0.001 A 
HETATM    2  C2  UNL     1     -32.838   6.250   2.478  1.00 20.00     0.001 A 
HETATM    3  C3  UNL     1     -32.691   7.089   4.762  1.00 20.00     0.012 A 
HETATM    4  C4  UNL     1     -33.829   5.336   2.844  1.00 20.00     0.008 A 
HETATM    5  C5  UNL     1     -33.673   6.181   5.115  1.00 20.00    -0.030 A 
HETATM    6  C6  UNL     1     -34.235   5.316   4.166  1.00 20.00    -0.044 A 
HETATM    7  C7  UNL     1     -34.292   5.933   6.407  1.00 20.00     0.008 A 
HETATM    8  C8  UNL     1     -35.195   4.954   6.246  1.00 20.00    -0.021 A 
HETATM    9  C9  UNL     1     -35.266   4.451   4.824  1.00 20.00     0.066 A 
ENDROOT
TORSDOF 0
ENDMDL
MODEL 5
REMARK VINA RESULT:      -4.5     12.022     13.923
REMARK  0 active torsions:
REMARK  status: ('A' for Active; 'I' for Inactive)
ROOT
HETATM    1  C1  UNL     1     -33.652  13.837  -3.764  1.00 20.00     0.001 A 
HETATM    2  C2  UNL     1     -33.078  15.116  -3.664  1.00 20.00     0.001 A 
HETATM    3  C3  UNL     1     -34.423  13.484  -4.876  1.00 20.00     0.012 A 
HETATM    4  C4  UNL     1     -33.264  16.064  -4.673  1.00 20.00     0.008 A 
HETATM    5  C5  UNL     1     -34.602  14.429  -5.869  1.00 20.00    -0.030 A 
HETATM    6  C6  UNL     1     -34.029  15.705  -5.768  1.00 20.00    -0.044 A 
HETATM    7  C7  UNL     1     -35.344  14.342  -7.117  1.00 20.00     0.008 A 
HETATM    8  C8  UNL     1     -35.224  15.521  -7.746  1.00 20.00    -0.021 A 
HETATM    9  C9  UNL     1     -34.387  16.514  -6.976  1.00 20.00     0.066 A 
ENDROOT
TORSDOF 0
ENDMDL
MODEL 6
REMARK VINA RESULT:      -4.5     12.040     13.817
REMARK  0 active torsions:
REMARK  status: ('A' for Active; 'I' for Inactive)
ROOT
HETATM    1  C1  UNL     1     -33.075  15.109  -3.662  1.00 20.00     0.001 A 
HETATM    2  C2  UNL     1     -33.659  13.835  -3.772  1.00 20.00     0.001 A 
HETATM    3  C3  UNL     1     -33.252  16.066  -4.665  1.00 20.00     0.012 A 
HETATM    4  C4  UNL     1     -34.431  13.496  -4.886  1.00 20.00     0.008 A 
HETATM    5  C5  UNL     1     -34.018  15.721  -5.764  1.00 20.00    -0.030 A 
HETATM    6  C6  UNL     1     -34.599  14.450  -5.873  1.00 20.00    -0.044 A 
HETATM    7  C7  UNL     1     -34.365  16.502  -6.941  1.00 20.00     0.008 A 
HETATM    8  C8  UNL     1     -35.128  15.732  -7.731  1.00 20.00    -0.021 A 
HETATM    9  C9  UNL     1     -35.365  14.356  -7.156  1.00 20.00     0.066 A 
ENDROOT
TORSDOF 0
ENDMDL
MODEL 7
REMARK VINA RESULT:      -4.4      9.494     10.572
REMARK  0 active torsions:
REMARK  status: ('A' for Active; 'I' for Inactive)
ROOT
HETATM    1  C1  UNL     1     -41.207   7.220  -0.824  1.00 20.00     0.001 A 
HETATM    2  C2  UNL     1     -40.488   6.140  -0.281  1.00 20.00     0.001 A 
HETATM    3  C3  UNL     1     -42.154   7.014  -1.831  1.00 20.00     0.012 A 
HETATM    4  C4  UNL     1     -40.703   4.837  -0.735  1.00 20.00     0.008 A 
HETATM    5  C5  UNL     1     -42.360   5.720  -2.275  1.00 20.00    -0.030 A 
HETATM    6  C6  UNL     1     -41.642   4.645  -1.732  1.00 20.00    -0.044 A 
HETATM    7  C7  UNL     1     -43.265   5.217  -3.295  1.00 20.00     0.008 A 
HETATM    8  C8  UNL     1     -43.101   3.887  -3.367  1.00 20.00    -0.021 A 
HETATM    9  C9  UNL     1     -42.065   3.371  -2.397  1.00 20.00     0.066 A 
ENDROOT
TORSDOF 0
ENDMDL
MODEL 8
REMARK VINA RESULT:      -4.3      9.484     10.573
REMARK  0 active torsions:
REMARK  status: ('A' for Active; 'I' for Inactive)
ROOT
HETATM    1  C1  UNL     1     -40.483   6.143  -0.254  1.00 20.00     0.001 A 
HETATM    2  C2  UNL     1     -41.172   7.246  -0.787  1.00 20.00     0.001 A 
HETATM    3  C3  UNL     1     -40.725   4.850  -0.729  1.00 20.00     0.012 A 
HETATM    4  C4  UNL     1     -42.115   7.077  -1.804  1.00 20.00     0.008 A 
HETATM    5  C5  UNL     1     -41.661   4.693  -1.735  1.00 20.00    -0.030 A 
HETATM    6  C6  UNL     1     -42.348   5.794  -2.265  1.00 20.00    -0.044 A 
HETATM    7  C7  UNL     1     -42.110   3.486  -2.410  1.00 20.00     0.008 A 
HETATM    8  C8  UNL     1     -43.034   3.843  -3.315  1.00 20.00    -0.021 A 
HETATM    9  C9  UNL     1     -43.292   5.331  -3.332  1.00 20.00     0.066 A 
ENDROOT
TORSDOF 0
ENDMDL
MODEL 9
REMARK VINA RESULT:      -4.3      9.553     10.677
REMARK  0 active torsions:
REMARK  status: ('A' for Active; 'I' for Inactive)
ROOT
HETATM    1  C1  UNL     1     -42.897   4.070  -3.252  1.00 20.00     0.001 A 
HETATM    2  C2  UNL     1     -41.912   3.420  -2.489  1.00 20.00     0.001 A 
HETATM    3  C3  UNL     1     -43.120   5.443  -3.112  1.00 20.00     0.012 A 
HETATM    4  C4  UNL     1     -41.134   4.131  -1.572  1.00 20.00     0.008 A 
HETATM    5  C5  UNL     1     -42.345   6.138  -2.202  1.00 20.00    -0.030 A 
HETATM    6  C6  UNL     1     -41.363   5.488  -1.440  1.00 20.00    -0.044 A 
HETATM    7  C7  UNL     1     -42.358   7.549  -1.851  1.00 20.00     0.008 A 
HETATM    8  C8  UNL     1     -41.419   7.746  -0.912  1.00 20.00    -0.021 A 
HETATM    9  C9  UNL     1     -40.685   6.478  -0.544  1.00 20.00     0.066 A 
ENDROOT
TORSDOF 0
ENDMDL
