MODEL 1
REMARK VINA RESULT:      -5.3      0.000      0.000
REMARK  0 active torsions:
REMARK  status: ('A' for Active; 'I' for Inactive)
ROOT
HETATM    1  C1  UNL     1     -34.769   5.265   4.459  1.00 20.00     0.199 A 
HETATM    2  C2  UNL     1     -34.394   5.857   5.666  1.00 20.00     0.198 A 
HETATM    3  C3  UNL     1     -34.060   5.551   3.292  1.00 20.00     0.198 A 
HETATM    4  C4  UNL     1     -33.310   6.735   5.705  1.00 20.00     0.182 A 
HETATM    5  C5  UNL     1     -32.977   6.429   3.332  1.00 20.00     0.182 A 
HETATM    6  C6  UNL     1     -32.602   7.022   4.538  1.00 20.00     0.117 A 
HETATM    7  F7  UNL     1     -35.809   4.423   4.422  1.00 20.00    -0.199 F 
HETATM    8  F8  UNL     1     -35.075   5.584   6.786  1.00 20.00    -0.199 F 
HETATM    9  F9  UNL     1     -34.420   4.982   2.135  1.00 20.00    -0.199 F 
HETATM   10  F10 UNL     1     -32.963   7.297   6.872  1.00 20.00    -0.201 F 
HETATM   11  F11 UNL     1     -32.305   6.693   2.202  1.00 20.00    -0.201 F 
HETATM   12 CL12 UNL     1     -31.264   8.105   4.586  1.00 20.00    -0.077 Cl
ENDROOT
TORSDOF 0
ENDMDL
MODEL 2
REMARK VINA RESULT:      -5.3      0.004      3.074
REMARK  0 active torsions:
REMARK  status: ('A' for Active; 'I' for Inactive)
ROOT
HETATM    1  C1  UNL     1     -34.768   5.261   4.460  1.00 20.00     0.199 A 
HETATM    2  C2  UNL     1     -34.059   5.547   3.292  1.00 20.00     0.198 A 
HETATM    3  C3  UNL     1     -34.395   5.854   5.666  1.00 20.00     0.198 A 
HETATM    4  C4  UNL     1     -32.977   6.427   3.332  1.00 20.00     0.182 A 
HETATM    5  C5  UNL     1     -33.312   6.732   5.705  1.00 20.00     0.182 A 
HETATM    6  C6  UNL     1     -32.603   7.019   4.539  1.00 20.00     0.117 A 
HETATM    7  F7  UNL     1     -35.807   4.417   4.421  1.00 20.00    -0.199 F 
HETATM    8  F8  UNL     1     -34.417   4.978   2.135  1.00 20.00    -0.199 F 
HETATM    9  F9  UNL     1     -35.076   5.578   6.785  1.00 20.00    -0.199 F 
HETATM   10  F10 UNL     1     -32.305   6.692   2.203  1.00 20.00    -0.201 F 
HETATM   11  F11 UNL     1     -32.966   7.295   6.872  1.00 20.00    -0.201 F 
HETATM   12 CL12 UNL     1     -31.267   8.104   4.588  1.00 20.00    -0.077 Cl
ENDROOT
TORSDOF 0
ENDMDL
MODEL 3
REMARK VINA RESULT:      -5.3      1.103      3.103
REMARK  0 active torsions:
REMARK  status: ('A' for Active; 'I' for Inactive)
ROOT
HETATM    1  C1  UNL     1     -34.429   5.789   5.776  1.00 20.00     0.199 A 
HETATM    2  C2  UNL     1     -34.729   5.248   4.525  1.00 20.00     0.198 A 
HETATM    3  C3  UNL     1     -33.407   6.731   5.903  1.00 20.00     0.198 A 
HETATM    4  C4  UNL     1     -34.006   5.649   3.401  1.00 20.00     0.182 A 
HETATM    5  C5  UNL     1     -32.685   7.131   4.779  1.00 20.00     0.182 A 
HETATM    6  C6  UNL     1     -32.984   6.590   3.528  1.00 20.00     0.117 A 
HETATM    7  F7  UNL     1     -35.122   5.404   6.855  1.00 20.00    -0.199 F 
HETATM    8  F8  UNL     1     -35.709   4.344   4.404  1.00 20.00    -0.199 F 
HETATM    9  F9  UNL     1     -33.121   7.249   7.104  1.00 20.00    -0.199 F 
HETATM   10  F10 UNL     1     -34.306   5.121   2.206  1.00 20.00    -0.201 F 
HETATM   11  F11 UNL     1     -31.706   8.037   4.916  1.00 20.00    -0.201 F 
HETATM   12 CL12 UNL     1     -32.093   7.086   2.140  1.00 20.00    -0.077 Cl
ENDROOT
TORSDOF 0
ENDMDL
MODEL 4
REMARK VINA RESULT:      -5.3      1.103      2.077
REMARK  0 active torsions:
REMARK  status: ('A' for Active; 'I' for Inactive)
ROOT
HETATM    1  C1  UNL     1     -34.429   5.788   5.776  1.00 20.00     0.199 A 
HETATM    2  C2  UNL     1     -33.407   6.730   5.904  1.00 20.00     0.198 A 
HETATM    3  C3  UNL     1     -34.729   5.248   4.526  1.00 20.00     0.198 A 
HETATM    4  C4  UNL     1     -32.685   7.131   4.779  1.00 20.00     0.182 A 
HETATM    5  C5  UNL     1     -34.006   5.650   3.402  1.00 20.00     0.182 A 
HETATM    6  C6  UNL     1     -32.985   6.591   3.528  1.00 20.00     0.117 A 
HETATM    7  F7  UNL     1     -35.123   5.404   6.855  1.00 20.00    -0.199 F 
HETATM    8  F8  UNL     1     -33.121   7.249   7.104  1.00 20.00    -0.199 F 
HETATM    9  F9  UNL     1     -35.709   4.345   4.405  1.00 20.00    -0.199 F 
HETATM   10  F10 UNL     1     -31.706   8.036   4.917  1.00 20.00    -0.201 F 
HETATM   11  F11 UNL     1     -34.305   5.121   2.206  1.00 20.00    -0.201 F 
HETATM   12 CL12 UNL     1     -32.093   7.085   2.141  1.00 20.00    -0.077 Cl
ENDROOT
TORSDOF 0
ENDMDL
MODEL 5
REMARK VINA RESULT:      -5.2      1.217      2.297
REMARK  0 active torsions:
REMARK  status: ('A' for Active; 'I' for Inactive)
ROOT
HETATM    1  C1  UNL     1     -33.957   5.486   3.228  1.00 20.00     0.199 A 
HETATM    2  C2  UNL     1     -34.724   5.189   4.356  1.00 20.00     0.198 A 
HETATM    3  C3  UNL     1     -32.920   6.414   3.314  1.00 20.00     0.198 A 
HETATM    4  C4  UNL     1     -34.453   5.823   5.569  1.00 20.00     0.182 A 
HETATM    5  C5  UNL     1     -32.650   7.048   4.527  1.00 20.00     0.182 A 
HETATM    6  C6  UNL     1     -33.416   6.753   5.655  1.00 20.00     0.117 A 
HETATM    7  F7  UNL     1     -34.218   4.878   2.064  1.00 20.00    -0.199 F 
HETATM    8  F8  UNL     1     -35.720   4.298   4.274  1.00 20.00    -0.199 F 
HETATM    9  F9  UNL     1     -32.185   6.697   2.231  1.00 20.00    -0.199 F 
HETATM   10  F10 UNL     1     -35.198   5.529   6.644  1.00 20.00    -0.201 F 
HETATM   11  F11 UNL     1     -31.650   7.938   4.593  1.00 20.00    -0.201 F 
HETATM   12 CL12 UNL     1     -33.082   7.534   7.152  1.00 20.00    -0.077 Cl
ENDROOT
TORSDOF 0
ENDMDL
MODEL 6
REMARK VINA RESULT:      -5.2      1.217      3.106
REMARK  0 active torsions:
REMARK  status: ('A' for Active; 'I' for Inactive)
ROOT
HETATM    1  C1  UNL     1     -33.958   5.485   3.229  1.00 20.00     0.199 A 
HETATM    2  C2  UNL     1     -32.920   6.415   3.313  1.00 20.00     0.198 A 
HETATM    3  C3  UNL     1     -34.724   5.190   4.356  1.00 20.00     0.198 A 
HETATM    4  C4  UNL     1     -32.649   7.048   4.527  1.00 20.00     0.182 A 
HETATM    5  C5  UNL     1     -34.453   5.823   5.569  1.00 20.00     0.182 A 
HETATM    6  C6  UNL     1     -33.415   6.752   5.655  1.00 20.00     0.117 A 
HETATM    7  F7  UNL     1     -34.217   4.877   2.064  1.00 20.00    -0.199 F 
HETATM    8  F8  UNL     1     -32.185   6.698   2.231  1.00 20.00    -0.199 F 
HETATM    9  F9  UNL     1     -35.719   4.298   4.273  1.00 20.00    -0.199 F 
HETATM   10  F10 UNL     1     -31.649   7.938   4.593  1.00 20.00    -0.201 F 
HETATM   11  F11 UNL     1     -35.198   5.529   6.644  1.00 20.00    -0.201 F 
HETATM   12 CL12 UNL     1     -33.081   7.535   7.152  1.00 20.00    -0.077 Cl
ENDROOT
TORSDOF 0
ENDMDL
MODEL 7
REMARK VINA RESULT:      -5.0     12.221     13.747
REMARK  0 active torsions:
REMARK  status: ('A' for Active; 'I' for Inactive)
ROOT
HETATM    1  C1  UNL     1     -33.626  15.686  -3.751  1.00 20.00     0.199 A 
HETATM    2  C2  UNL     1     -33.604  16.651  -4.759  1.00 20.00     0.198 A 
HETATM    3  C3  UNL     1     -34.082  14.397  -4.027  1.00 20.00     0.198 A 
HETATM    4  C4  UNL     1     -34.039  16.325  -6.044  1.00 20.00     0.182 A 
HETATM    5  C5  UNL     1     -34.518  14.073  -5.312  1.00 20.00     0.182 A 
HETATM    6  C6  UNL     1     -34.496  15.037  -6.321  1.00 20.00     0.117 A 
HETATM    7  F7  UNL     1     -33.209  15.998  -2.517  1.00 20.00    -0.199 F 
HETATM    8  F8  UNL     1     -33.166  17.887  -4.493  1.00 20.00    -0.199 F 
HETATM    9  F9  UNL     1     -34.103  13.473  -3.059  1.00 20.00    -0.199 F 
HETATM   10  F10 UNL     1     -34.012  17.263  -7.002  1.00 20.00    -0.201 F 
HETATM   11  F11 UNL     1     -34.953  12.830  -5.563  1.00 20.00    -0.201 F 
HETATM   12 CL12 UNL     1     -35.033  14.635  -7.907  1.00 20.00    -0.077 Cl
ENDROOT
TORSDOF 0
ENDMDL
MODEL 8
REMARK VINA RESULT:      -5.0     12.227     13.683
REMARK  0 active torsions:
REMARK  status: ('A' for Active; 'I' for Inactive)
ROOT
HETATM    1  C1  UNL     1     -33.617  15.691  -3.764  1.00 20.00     0.199 A 
HETATM    2  C2  UNL     1     -34.076  14.400  -4.034  1.00 20.00     0.198 A 
HETATM    3  C3  UNL     1     -33.601  16.651  -4.775  1.00 20.00     0.198 A 
HETATM    4  C4  UNL     1     -34.518  14.071  -5.315  1.00 20.00     0.182 A 
HETATM    5  C5  UNL     1     -34.043  16.322  -6.057  1.00 20.00     0.182 A 
HETATM    6  C6  UNL     1     -34.501  15.032  -6.327  1.00 20.00     0.117 A 
HETATM    7  F7  UNL     1     -33.193  16.006  -2.534  1.00 20.00    -0.199 F 
HETATM    8  F8  UNL     1     -34.091  13.479  -3.063  1.00 20.00    -0.199 F 
HETATM    9  F9  UNL     1     -33.162  17.889  -4.515  1.00 20.00    -0.199 F 
HETATM   10  F10 UNL     1     -34.955  12.828  -5.559  1.00 20.00    -0.201 F 
HETATM   11  F11 UNL     1     -34.022  17.256  -7.018  1.00 20.00    -0.201 F 
HETATM   12 CL12 UNL     1     -35.047  14.626  -7.909  1.00 20.00    -0.077 Cl
ENDROOT
TORSDOF 0
ENDMDL
MODEL 9
REMARK VINA RESULT:      -4.9      1.689      3.160
REMARK  0 active torsions:
REMARK  status: ('A' for Active; 'I' for Inactive)
ROOT
HETATM    1  C1  UNL     1     -33.293   6.847   5.888  1.00 20.00     0.199 A 
HETATM    2  C2  UNL     1     -34.356   5.949   5.795  1.00 20.00     0.198 A 
HETATM    3  C3  UNL     1     -32.539   7.157   4.755  1.00 20.00     0.198 A 
HETATM    4  C4  UNL     1     -34.666   5.359   4.568  1.00 20.00     0.182 A 
HETATM    5  C5  UNL     1     -32.849   6.567   3.530  1.00 20.00     0.182 A 
HETATM    6  C6  UNL     1     -33.912   5.668   3.436  1.00 20.00     0.117 A 
HETATM    7  F7  UNL     1     -32.996   7.412   7.065  1.00 20.00    -0.199 F 
HETATM    8  F8  UNL     1     -35.079   5.652   6.882  1.00 20.00    -0.199 F 
HETATM    9  F9  UNL     1     -31.519   8.019   4.846  1.00 20.00    -0.199 F 
HETATM   10  F10 UNL     1     -35.690   4.498   4.495  1.00 20.00    -0.201 F 
HETATM   11  F11 UNL     1     -32.116   6.874   2.450  1.00 20.00    -0.201 F 
HETATM   12 CL12 UNL     1     -34.294   4.941   1.923  1.00 20.00    -0.077 Cl
ENDROOT
TORSDOF 0
ENDMDL
