MODEL 1
REMARK VINA RESULT:      -3.8      0.000      0.000
REMARK  3 active torsions:
REMARK  status: ('A' for Active; 'I' for Inactive)
REMARK    1  A    between atoms: C2_2  and  C4_4 
REMARK    2  A    between atoms: C4_4  and  S8_8 
REMARK    3  A    between atoms: C5_5  and  S8_8 
ROOT
HETATM    1  O6  UNL     1     -36.852  14.051  -3.811  1.00 20.00    -0.228 OA
HETATM    2  O7  UNL     1     -34.949  12.532  -4.480  1.00 20.00    -0.228 OA
HETATM    3  S8  UNL     1     -35.529  13.862  -4.383  1.00 20.00     0.147 S 
ENDROOT
BRANCH   3   4
HETATM    4  C4  UNL     1     -34.397  14.898  -3.515  1.00 20.00     0.166 C 
BRANCH   4   5
HETATM    5  C2  UNL     1     -35.192  15.727  -2.565  1.00 20.00    -0.022 C 
HETATM    6  C1  UNL     1     -34.673  16.320  -1.484  1.00 20.00     0.008 C 
ENDBRANCH   4   5
ENDBRANCH   3   4
BRANCH   3   7
HETATM    7  C5  UNL     1     -35.551  14.555  -6.022  1.00 20.00     0.136 C 
HETATM    8  C3  UNL     1     -34.334  15.417  -6.276  1.00 20.00     0.021 C 
ENDBRANCH   3   7
TORSDOF 3
ENDMDL
MODEL 2
REMARK VINA RESULT:      -3.8      1.181      1.441
REMARK  3 active torsions:
REMARK  status: ('A' for Active; 'I' for Inactive)
REMARK    1  A    between atoms: C2_2  and  C4_4 
REMARK    2  A    between atoms: C4_4  and  S8_8 
REMARK    3  A    between atoms: C5_5  and  S8_8 
ROOT
HETATM    1  O6  UNL     1     -35.077  12.679  -4.220  1.00 20.00    -0.228 OA
HETATM    2  O7  UNL     1     -32.995  14.050  -3.822  1.00 20.00    -0.228 OA
HETATM    3  S8  UNL     1     -34.390  13.960  -4.224  1.00 20.00     0.147 S 
ENDROOT
BRANCH   3   4
HETATM    4  C4  UNL     1     -35.322  15.092  -3.247  1.00 20.00     0.166 C 
BRANCH   4   5
HETATM    5  C2  UNL     1     -34.360  15.823  -2.374  1.00 20.00    -0.022 C 
HETATM    6  C1  UNL     1     -34.713  16.460  -1.252  1.00 20.00     0.008 C 
ENDBRANCH   4   5
ENDBRANCH   3   4
BRANCH   3   7
HETATM    7  C5  UNL     1     -34.516  14.629  -5.867  1.00 20.00     0.136 C 
HETATM    8  C3  UNL     1     -33.886  16.002  -5.958  1.00 20.00     0.021 C 
ENDBRANCH   3   7
TORSDOF 3
ENDMDL
MODEL 3
REMARK VINA RESULT:      -3.6     11.648     12.438
REMARK  3 active torsions:
REMARK  status: ('A' for Active; 'I' for Inactive)
REMARK    1  A    between atoms: C2_2  and  C4_4 
REMARK    2  A    between atoms: C4_4  and  S8_8 
REMARK    3  A    between atoms: C5_5  and  S8_8 
ROOT
HETATM    1  O6  UNL     1     -34.196   4.794   2.444  1.00 20.00    -0.228 OA
HETATM    2  O7  UNL     1     -36.147   5.964   3.540  1.00 20.00    -0.228 OA
HETATM    3  S8  UNL     1     -34.822   5.368   3.623  1.00 20.00     0.147 S 
ENDROOT
BRANCH   3   4
HETATM    4  C4  UNL     1     -33.721   6.561   4.311  1.00 20.00     0.166 C 
BRANCH   4   5
HETATM    5  C2  UNL     1     -32.489   6.563   3.472  1.00 20.00    -0.022 C 
HETATM    6  C1  UNL     1     -32.122   7.589   2.695  1.00 20.00     0.008 C 
ENDBRANCH   4   5
ENDBRANCH   3   4
BRANCH   3   7
HETATM    7  C5  UNL     1     -34.885   4.098   4.867  1.00 20.00     0.136 C 
HETATM    8  C3  UNL     1     -34.867   4.685   6.261  1.00 20.00     0.021 C 
ENDBRANCH   3   7
TORSDOF 3
ENDMDL
MODEL 4
REMARK VINA RESULT:      -3.5      1.139      1.236
REMARK  3 active torsions:
REMARK  status: ('A' for Active; 'I' for Inactive)
REMARK    1  A    between atoms: C2_2  and  C4_4 
REMARK    2  A    between atoms: C4_4  and  S8_8 
REMARK    3  A    between atoms: C5_5  and  S8_8 
ROOT
HETATM    1  O6  UNL     1     -36.146  14.667  -3.530  1.00 20.00    -0.228 OA
HETATM    2  O7  UNL     1     -34.076  13.223  -3.454  1.00 20.00    -0.228 OA
HETATM    3  S8  UNL     1     -34.715  14.502  -3.723  1.00 20.00     0.147 S 
ENDROOT
BRANCH   3   4
HETATM    4  C4  UNL     1     -33.883  15.744  -2.790  1.00 20.00     0.166 C 
BRANCH   4   5
HETATM    5  C2  UNL     1     -34.818  16.199  -1.722  1.00 20.00    -0.022 C 
HETATM    6  C1  UNL     1     -34.437  16.911  -0.656  1.00 20.00     0.008 C 
ENDBRANCH   4   5
ENDBRANCH   3   4
BRANCH   3   7
HETATM    7  C5  UNL     1     -34.349  14.936  -5.409  1.00 20.00     0.136 C 
HETATM    8  C3  UNL     1     -33.613  16.255  -5.495  1.00 20.00     0.021 C 
ENDBRANCH   3   7
TORSDOF 3
ENDMDL
MODEL 5
REMARK VINA RESULT:      -3.5      2.522      2.870
REMARK  3 active torsions:
REMARK  status: ('A' for Active; 'I' for Inactive)
REMARK    1  A    between atoms: C2_2  and  C4_4 
REMARK    2  A    between atoms: C4_4  and  S8_8 
REMARK    3  A    between atoms: C5_5  and  S8_8 
ROOT
HETATM    1  O6  UNL     1     -32.497  14.784  -3.606  1.00 20.00    -0.228 OA
HETATM    2  O7  UNL     1     -33.335  16.426  -5.331  1.00 20.00    -0.228 OA
HETATM    3  S8  UNL     1     -33.500  15.730  -4.064  1.00 20.00     0.147 S 
ENDROOT
BRANCH   3   4
HETATM    4  C4  UNL     1     -33.747  16.932  -2.799  1.00 20.00     0.166 C 
BRANCH   4   5
HETATM    5  C2  UNL     1     -34.501  16.270  -1.697  1.00 20.00    -0.022 C 
HETATM    6  C1  UNL     1     -34.704  16.827  -0.498  1.00 20.00     0.008 C 
ENDBRANCH   4   5
ENDBRANCH   3   4
BRANCH   3   7
HETATM    7  C5  UNL     1     -35.056  14.870  -4.127  1.00 20.00     0.136 C 
HETATM    8  C3  UNL     1     -34.860  13.379  -4.289  1.00 20.00     0.021 C 
ENDBRANCH   3   7
TORSDOF 3
ENDMDL
MODEL 6
REMARK VINA RESULT:      -3.4      1.000      3.592
REMARK  3 active torsions:
REMARK  status: ('A' for Active; 'I' for Inactive)
REMARK    1  A    between atoms: C2_2  and  C4_4 
REMARK    2  A    between atoms: C4_4  and  S8_8 
REMARK    3  A    between atoms: C5_5  and  S8_8 
ROOT
HETATM    1  O6  UNL     1     -34.876  12.890  -4.570  1.00 20.00    -0.228 OA
HETATM    2  O7  UNL     1     -37.008  14.010  -3.813  1.00 20.00    -0.228 OA
HETATM    3  S8  UNL     1     -35.618  14.094  -4.233  1.00 20.00     0.147 S 
ENDROOT
BRANCH   3   4
HETATM    4  C4  UNL     1     -35.517  15.207  -5.595  1.00 20.00     0.166 C 
BRANCH   4   5
HETATM    5  C2  UNL     1     -35.002  14.437  -6.762  1.00 20.00    -0.022 C 
HETATM    6  C1  UNL     1     -35.673  14.290  -7.910  1.00 20.00     0.008 C 
ENDBRANCH   4   5
ENDBRANCH   3   4
BRANCH   3   7
HETATM    7  C5  UNL     1     -34.721  14.932  -2.946  1.00 20.00     0.136 C 
HETATM    8  C3  UNL     1     -33.432  15.528  -3.466  1.00 20.00     0.021 C 
ENDBRANCH   3   7
TORSDOF 3
ENDMDL
MODEL 7
REMARK VINA RESULT:      -3.3     11.797     12.518
REMARK  3 active torsions:
REMARK  status: ('A' for Active; 'I' for Inactive)
REMARK    1  A    between atoms: C2_2  and  C4_4 
REMARK    2  A    between atoms: C4_4  and  S8_8 
REMARK    3  A    between atoms: C5_5  and  S8_8 
ROOT
HETATM    1  O6  UNL     1     -35.970   5.916   3.360  1.00 20.00    -0.228 OA
HETATM    2  O7  UNL     1     -34.281   6.616   5.101  1.00 20.00    -0.228 OA
HETATM    3  S8  UNL     1     -34.725   5.687   4.074  1.00 20.00     0.147 S 
ENDROOT
BRANCH   3   4
HETATM    4  C4  UNL     1     -33.431   5.511   2.889  1.00 20.00     0.166 C 
BRANCH   4   5
HETATM    5  C2  UNL     1     -32.370   6.497   3.240  1.00 20.00    -0.022 C 
HETATM    6  C1  UNL     1     -32.132   7.611   2.539  1.00 20.00     0.008 C 
ENDBRANCH   4   5
ENDBRANCH   3   4
BRANCH   3   7
HETATM    7  C5  UNL     1     -34.825   4.075   4.820  1.00 20.00     0.136 C 
HETATM    8  C3  UNL     1     -35.008   4.168   6.319  1.00 20.00     0.021 C 
ENDBRANCH   3   7
TORSDOF 3
ENDMDL
MODEL 8
REMARK VINA RESULT:      -3.3      1.110      1.718
REMARK  3 active torsions:
REMARK  status: ('A' for Active; 'I' for Inactive)
REMARK    1  A    between atoms: C2_2  and  C4_4 
REMARK    2  A    between atoms: C4_4  and  S8_8 
REMARK    3  A    between atoms: C5_5  and  S8_8 
ROOT
HETATM    1  O6  UNL     1     -37.394  14.008  -3.815  1.00 20.00    -0.228 OA
HETATM    2  O7  UNL     1     -35.194  12.855  -4.268  1.00 20.00    -0.228 OA
HETATM    3  S8  UNL     1     -36.002  14.064  -4.230  1.00 20.00     0.147 S 
ENDROOT
BRANCH   3   4
HETATM    4  C4  UNL     1     -35.172  15.253  -3.227  1.00 20.00     0.166 C 
BRANCH   4   5
HETATM    5  C2  UNL     1     -33.709  15.086  -3.459  1.00 20.00    -0.022 C 
HETATM    6  C1  UNL     1     -32.986  15.889  -4.246  1.00 20.00     0.008 C 
ENDBRANCH   4   5
ENDBRANCH   3   4
BRANCH   3   7
HETATM    7  C5  UNL     1     -35.957  14.788  -5.854  1.00 20.00     0.136 C 
HETATM    8  C3  UNL     1     -37.070  15.794  -6.044  1.00 20.00     0.021 C 
ENDBRANCH   3   7
TORSDOF 3
ENDMDL
MODEL 9
REMARK VINA RESULT:      -3.3     11.859     12.481
REMARK  3 active torsions:
REMARK  status: ('A' for Active; 'I' for Inactive)
REMARK    1  A    between atoms: C2_2  and  C4_4 
REMARK    2  A    between atoms: C4_4  and  S8_8 
REMARK    3  A    between atoms: C5_5  and  S8_8 
ROOT
HETATM    1  O6  UNL     1     -41.118   6.744  -2.119  1.00 20.00    -0.228 OA
HETATM    2  O7  UNL     1     -40.465   6.306   0.280  1.00 20.00    -0.228 OA
HETATM    3  S8  UNL     1     -41.204   5.933  -0.916  1.00 20.00     0.147 S 
ENDROOT
BRANCH   3   4
HETATM    4  C4  UNL     1     -40.779   4.274  -1.334  1.00 20.00     0.166 C 
BRANCH   4   5
HETATM    5  C2  UNL     1     -41.812   3.777  -2.286  1.00 20.00    -0.022 C 
HETATM    6  C1  UNL     1     -41.649   2.701  -3.064  1.00 20.00     0.008 C 
ENDBRANCH   4   5
ENDBRANCH   3   4
BRANCH   3   7
HETATM    7  C5  UNL     1     -42.922   5.820  -0.468  1.00 20.00     0.136 C 
HETATM    8  C3  UNL     1     -43.093   5.402   0.976  1.00 20.00     0.021 C 
ENDBRANCH   3   7
TORSDOF 3
ENDMDL
