MODEL 1
REMARK VINA RESULT:      -5.2      0.000      0.000
REMARK  0 active torsions:
REMARK  status: ('A' for Active; 'I' for Inactive)
ROOT
HETATM    1  C1  UNL     1     -35.224   4.818   5.916  1.00 20.00     0.000 A 
HETATM    2  C2  UNL     1     -34.373   5.786   6.448  1.00 20.00     0.001 A 
HETATM    3  C3  UNL     1     -35.239   4.582   4.541  1.00 20.00     0.001 A 
HETATM    4  C4  UNL     1     -33.537   6.520   5.606  1.00 20.00     0.018 A 
HETATM    5  C5  UNL     1     -34.404   5.315   3.698  1.00 20.00     0.018 A 
HETATM    6  C6  UNL     1     -33.553   6.284   4.230  1.00 20.00     0.006 A 
HETATM    7  I7  UNL     1     -32.307   7.376   2.976  1.00 20.00    -0.045 I 
ENDROOT
TORSDOF 0
ENDMDL
MODEL 2
REMARK VINA RESULT:      -5.2      0.001      1.826
REMARK  0 active torsions:
REMARK  status: ('A' for Active; 'I' for Inactive)
ROOT
HETATM    1  C1  UNL     1     -35.224   4.818   5.916  1.00 20.00     0.000 A 
HETATM    2  C2  UNL     1     -35.239   4.583   4.541  1.00 20.00     0.001 A 
HETATM    3  C3  UNL     1     -34.373   5.786   6.448  1.00 20.00     0.001 A 
HETATM    4  C4  UNL     1     -34.403   5.315   3.699  1.00 20.00     0.018 A 
HETATM    5  C5  UNL     1     -33.537   6.520   5.606  1.00 20.00     0.018 A 
HETATM    6  C6  UNL     1     -33.552   6.284   4.231  1.00 20.00     0.006 A 
HETATM    7  I7  UNL     1     -32.307   7.376   2.976  1.00 20.00    -0.045 I 
ENDROOT
TORSDOF 0
ENDMDL
MODEL 3
REMARK VINA RESULT:      -3.8      9.486     10.294
REMARK  0 active torsions:
REMARK  status: ('A' for Active; 'I' for Inactive)
ROOT
HETATM    1  C1  UNL     1     -41.115   7.098  -0.906  1.00 20.00     0.000 A 
HETATM    2  C2  UNL     1     -40.652   5.893  -0.379  1.00 20.00     0.001 A 
HETATM    3  C3  UNL     1     -41.954   7.096  -2.020  1.00 20.00     0.001 A 
HETATM    4  C4  UNL     1     -41.027   4.685  -0.967  1.00 20.00     0.018 A 
HETATM    5  C5  UNL     1     -42.330   5.888  -2.608  1.00 20.00     0.018 A 
HETATM    6  C6  UNL     1     -41.867   4.683  -2.081  1.00 20.00     0.006 A 
HETATM    7  I7  UNL     1     -42.426   2.883  -2.956  1.00 20.00    -0.045 I 
ENDROOT
TORSDOF 0
ENDMDL
MODEL 4
REMARK VINA RESULT:      -3.8      9.486     10.372
REMARK  0 active torsions:
REMARK  status: ('A' for Active; 'I' for Inactive)
ROOT
HETATM    1  C1  UNL     1     -41.114   7.100  -0.903  1.00 20.00     0.000 A 
HETATM    2  C2  UNL     1     -41.954   7.099  -2.017  1.00 20.00     0.001 A 
HETATM    3  C3  UNL     1     -40.652   5.894  -0.378  1.00 20.00     0.001 A 
HETATM    4  C4  UNL     1     -42.331   5.892  -2.605  1.00 20.00     0.018 A 
HETATM    5  C5  UNL     1     -41.029   4.686  -0.966  1.00 20.00     0.018 A 
HETATM    6  C6  UNL     1     -41.868   4.686  -2.080  1.00 20.00     0.006 A 
HETATM    7  I7  UNL     1     -42.430   2.888  -2.957  1.00 20.00    -0.045 I 
ENDROOT
TORSDOF 0
ENDMDL
MODEL 5
REMARK VINA RESULT:      -3.8     12.157     12.370
REMARK  0 active torsions:
REMARK  status: ('A' for Active; 'I' for Inactive)
ROOT
HETATM    1  C1  UNL     1     -34.992  13.414  -4.596  1.00 20.00     0.000 A 
HETATM    2  C2  UNL     1     -33.731  13.732  -4.092  1.00 20.00     0.001 A 
HETATM    3  C3  UNL     1     -36.112  14.131  -4.175  1.00 20.00     0.001 A 
HETATM    4  C4  UNL     1     -33.589  14.766  -3.167  1.00 20.00     0.018 A 
HETATM    5  C5  UNL     1     -35.971  15.166  -3.250  1.00 20.00     0.018 A 
HETATM    6  C6  UNL     1     -34.710  15.484  -2.746  1.00 20.00     0.006 A 
HETATM    7  I7  UNL     1     -34.499  17.025  -1.369  1.00 20.00    -0.045 I 
ENDROOT
TORSDOF 0
ENDMDL
MODEL 6
REMARK VINA RESULT:      -3.8     12.154     12.411
REMARK  0 active torsions:
REMARK  status: ('A' for Active; 'I' for Inactive)
ROOT
HETATM    1  C1  UNL     1     -34.992  13.414  -4.597  1.00 20.00     0.000 A 
HETATM    2  C2  UNL     1     -36.109  14.136  -4.178  1.00 20.00     0.001 A 
HETATM    3  C3  UNL     1     -33.730  13.726  -4.093  1.00 20.00     0.001 A 
HETATM    4  C4  UNL     1     -35.964  15.171  -3.254  1.00 20.00     0.018 A 
HETATM    5  C5  UNL     1     -33.585  14.761  -3.169  1.00 20.00     0.018 A 
HETATM    6  C6  UNL     1     -34.702  15.483  -2.749  1.00 20.00     0.006 A 
HETATM    7  I7  UNL     1     -34.486  17.024  -1.372  1.00 20.00    -0.045 I 
ENDROOT
TORSDOF 0
ENDMDL
MODEL 7
REMARK VINA RESULT:      -3.7      9.524     10.403
REMARK  0 active torsions:
REMARK  status: ('A' for Active; 'I' for Inactive)
ROOT
HETATM    1  C1  UNL     1     -40.909   4.675  -0.749  1.00 20.00     0.000 A 
HETATM    2  C2  UNL     1     -41.707   4.258  -1.814  1.00 20.00     0.001 A 
HETATM    3  C3  UNL     1     -40.709   6.035  -0.518  1.00 20.00     0.001 A 
HETATM    4  C4  UNL     1     -42.305   5.201  -2.649  1.00 20.00     0.018 A 
HETATM    5  C5  UNL     1     -41.307   6.980  -1.352  1.00 20.00     0.018 A 
HETATM    6  C6  UNL     1     -42.105   6.563  -2.418  1.00 20.00     0.006 A 
HETATM    7  I7  UNL     1     -42.996   7.969  -3.661  1.00 20.00    -0.045 I 
ENDROOT
TORSDOF 0
ENDMDL
MODEL 8
REMARK VINA RESULT:      -3.6     12.717     13.683
REMARK  0 active torsions:
REMARK  status: ('A' for Active; 'I' for Inactive)
ROOT
HETATM    1  C1  UNL     1     -33.245  14.789  -3.646  1.00 20.00     0.000 A 
HETATM    2  C2  UNL     1     -33.170  15.922  -4.455  1.00 20.00     0.001 A 
HETATM    3  C3  UNL     1     -33.988  13.684  -4.061  1.00 20.00     0.001 A 
HETATM    4  C4  UNL     1     -33.839  15.952  -5.678  1.00 20.00     0.018 A 
HETATM    5  C5  UNL     1     -34.657  13.712  -5.284  1.00 20.00     0.018 A 
HETATM    6  C6  UNL     1     -34.582  14.846  -6.093  1.00 20.00     0.006 A 
HETATM    7  I7  UNL     1     -35.578  14.889  -7.916  1.00 20.00    -0.045 I 
ENDROOT
TORSDOF 0
ENDMDL
MODEL 9
REMARK VINA RESULT:      -3.6     12.655     13.674
REMARK  0 active torsions:
REMARK  status: ('A' for Active; 'I' for Inactive)
ROOT
HETATM    1  C1  UNL     1     -33.283  14.813  -3.535  1.00 20.00     0.000 A 
HETATM    2  C2  UNL     1     -34.043  13.717  -3.941  1.00 20.00     0.001 A 
HETATM    3  C3  UNL     1     -33.164  15.927  -4.367  1.00 20.00     0.001 A 
HETATM    4  C4  UNL     1     -34.685  13.733  -5.179  1.00 20.00     0.018 A 
HETATM    5  C5  UNL     1     -33.807  15.944  -5.605  1.00 20.00     0.018 A 
HETATM    6  C6  UNL     1     -34.567  14.848  -6.011  1.00 20.00     0.006 A 
HETATM    7  I7  UNL     1     -35.525  14.872  -7.855  1.00 20.00    -0.045 I 
ENDROOT
TORSDOF 0
ENDMDL
