MODEL 1
REMARK VINA RESULT:      -4.7      0.000      0.000
REMARK  0 active torsions:
REMARK  status: ('A' for Active; 'I' for Inactive)
ROOT
HETATM    1  C1  UNL     1     -35.280   4.663   5.845  1.00 20.00     0.001 A 
HETATM    2  C2  UNL     1     -34.657   5.593   6.667  1.00 20.00     0.001 A 
HETATM    3  C3  UNL     1     -34.962   4.597   4.487  1.00 20.00     0.013 A 
HETATM    4  C4  UNL     1     -33.705   6.473   6.150  1.00 20.00     0.019 A 
HETATM    5  C5  UNL     1     -33.514   5.599   2.588  1.00 20.00     0.020 A 
HETATM    6  C6  UNL     1     -32.568   6.589   2.449  1.00 20.00     0.051 A 
HETATM    7  C7  UNL     1     -34.000   5.477   3.932  1.00 20.00    -0.019 A 
HETATM    8  C8  UNL     1     -33.387   6.404   4.780  1.00 20.00     0.015 A 
HETATM    9  S9  UNL     1     -32.253   7.382   3.924  1.00 20.00    -0.101 SA
ENDROOT
TORSDOF 0
ENDMDL
MODEL 2
REMARK VINA RESULT:      -4.5      1.073      2.022
REMARK  0 active torsions:
REMARK  status: ('A' for Active; 'I' for Inactive)
ROOT
HETATM    1  C1  UNL     1     -34.656   5.612   6.752  1.00 20.00     0.001 A 
HETATM    2  C2  UNL     1     -35.291   4.645   5.984  1.00 20.00     0.001 A 
HETATM    3  C3  UNL     1     -33.735   6.483   6.168  1.00 20.00     0.013 A 
HETATM    4  C4  UNL     1     -35.020   4.530   4.620  1.00 20.00     0.019 A 
HETATM    5  C5  UNL     1     -32.542   7.163   3.972  1.00 20.00     0.020 A 
HETATM    6  C6  UNL     1     -32.535   6.760   2.656  1.00 20.00     0.051 A 
HETATM    7  C7  UNL     1     -33.438   6.393   4.786  1.00 20.00    -0.019 A 
HETATM    8  C8  UNL     1     -34.090   5.412   4.034  1.00 20.00     0.015 A 
HETATM    9  S9  UNL     1     -33.599   5.457   2.381  1.00 20.00    -0.101 SA
ENDROOT
TORSDOF 0
ENDMDL
MODEL 3
REMARK VINA RESULT:      -4.2     12.118     13.978
REMARK  0 active torsions:
REMARK  status: ('A' for Active; 'I' for Inactive)
ROOT
HETATM    1  C1  UNL     1     -32.992  15.079  -3.639  1.00 20.00     0.001 A 
HETATM    2  C2  UNL     1     -33.592  13.838  -3.805  1.00 20.00     0.001 A 
HETATM    3  C3  UNL     1     -33.180  16.085  -4.589  1.00 20.00     0.013 A 
HETATM    4  C4  UNL     1     -34.392  13.578  -4.919  1.00 20.00     0.019 A 
HETATM    5  C5  UNL     1     -34.322  16.716  -6.826  1.00 20.00     0.020 A 
HETATM    6  C6  UNL     1     -35.141  16.112  -7.751  1.00 20.00     0.051 A 
HETATM    7  C7  UNL     1     -33.985  15.853  -5.730  1.00 20.00    -0.019 A 
HETATM    8  C8  UNL     1     -34.580  14.596  -5.874  1.00 20.00     0.015 A 
HETATM    9  S9  UNL     1     -35.516  14.506  -7.320  1.00 20.00    -0.101 SA
ENDROOT
TORSDOF 0
ENDMDL
MODEL 4
REMARK VINA RESULT:      -4.2      1.559      3.844
REMARK  0 active torsions:
REMARK  status: ('A' for Active; 'I' for Inactive)
ROOT
HETATM    1  C1  UNL     1     -32.129   7.212   3.181  1.00 20.00     0.001 A 
HETATM    2  C2  UNL     1     -32.708   6.273   2.339  1.00 20.00     0.001 A 
HETATM    3  C3  UNL     1     -32.510   7.285   4.523  1.00 20.00     0.013 A 
HETATM    4  C4  UNL     1     -33.675   5.388   2.817  1.00 20.00     0.019 A 
HETATM    5  C5  UNL     1     -34.037   6.285   6.360  1.00 20.00     0.020 A 
HETATM    6  C6  UNL     1     -34.981   5.290   6.462  1.00 20.00     0.051 A 
HETATM    7  C7  UNL     1     -33.489   6.402   5.039  1.00 20.00    -0.019 A 
HETATM    8  C8  UNL     1     -34.057   5.465   4.171  1.00 20.00     0.015 A 
HETATM    9  S9  UNL     1     -35.223   4.485   4.980  1.00 20.00    -0.101 SA
ENDROOT
TORSDOF 0
ENDMDL
MODEL 5
REMARK VINA RESULT:      -4.2     12.197     13.803
REMARK  0 active torsions:
REMARK  status: ('A' for Active; 'I' for Inactive)
ROOT
HETATM    1  C1  UNL     1     -33.612  13.819  -3.796  1.00 20.00     0.001 A 
HETATM    2  C2  UNL     1     -33.067  15.089  -3.670  1.00 20.00     0.001 A 
HETATM    3  C3  UNL     1     -34.406  13.498  -4.899  1.00 20.00     0.013 A 
HETATM    4  C4  UNL     1     -33.302  16.063  -4.643  1.00 20.00     0.019 A 
HETATM    5  C5  UNL     1     -35.436  14.373  -7.108  1.00 20.00     0.020 A 
HETATM    6  C6  UNL     1     -35.444  15.546  -7.828  1.00 20.00     0.051 A 
HETATM    7  C7  UNL     1     -34.664  14.463  -5.903  1.00 20.00    -0.019 A 
HETATM    8  C8  UNL     1     -34.103  15.736  -5.754  1.00 20.00     0.015 A 
HETATM    9  S9  UNL     1     -34.529  16.767  -7.069  1.00 20.00    -0.101 SA
ENDROOT
TORSDOF 0
ENDMDL
MODEL 6
REMARK VINA RESULT:      -4.2      1.309      3.273
REMARK  0 active torsions:
REMARK  status: ('A' for Active; 'I' for Inactive)
ROOT
HETATM    1  C1  UNL     1     -32.912   6.138   2.166  1.00 20.00     0.001 A 
HETATM    2  C2  UNL     1     -32.282   7.063   2.987  1.00 20.00     0.001 A 
HETATM    3  C3  UNL     1     -33.878   5.276   2.687  1.00 20.00     0.013 A 
HETATM    4  C4  UNL     1     -32.605   7.147   4.342  1.00 20.00     0.019 A 
HETATM    5  C5  UNL     1     -35.175   4.566   4.813  1.00 20.00     0.020 A 
HETATM    6  C6  UNL     1     -35.224   4.930   6.139  1.00 20.00     0.051 A 
HETATM    7  C7  UNL     1     -34.228   5.335   4.058  1.00 20.00    -0.019 A 
HETATM    8  C8  UNL     1     -33.581   6.275   4.864  1.00 20.00     0.015 A 
HETATM    9  S9  UNL     1     -34.138   6.194   6.495  1.00 20.00    -0.101 SA
ENDROOT
TORSDOF 0
ENDMDL
MODEL 7
REMARK VINA RESULT:      -4.1     11.941     13.291
REMARK  0 active torsions:
REMARK  status: ('A' for Active; 'I' for Inactive)
ROOT
HETATM    1  C1  UNL     1     -34.670  13.355  -4.772  1.00 20.00     0.001 A 
HETATM    2  C2  UNL     1     -34.622  14.126  -5.925  1.00 20.00     0.001 A 
HETATM    3  C3  UNL     1     -34.491  13.947  -3.520  1.00 20.00     0.013 A 
HETATM    4  C4  UNL     1     -34.396  15.502  -5.852  1.00 20.00     0.019 A 
HETATM    5  C5  UNL     1     -34.049  16.164  -2.256  1.00 20.00     0.020 A 
HETATM    6  C6  UNL     1     -33.856  17.489  -2.571  1.00 20.00     0.051 A 
HETATM    7  C7  UNL     1     -34.260  15.340  -3.412  1.00 20.00    -0.019 A 
HETATM    8  C8  UNL     1     -34.216  16.095  -4.587  1.00 20.00     0.015 A 
HETATM    9  S9  UNL     1     -33.924  17.762  -4.253  1.00 20.00    -0.101 SA
ENDROOT
TORSDOF 0
ENDMDL
MODEL 8
REMARK VINA RESULT:      -4.0     12.078     13.810
REMARK  0 active torsions:
REMARK  status: ('A' for Active; 'I' for Inactive)
ROOT
HETATM    1  C1  UNL     1     -34.437  13.263  -4.659  1.00 20.00     0.001 A 
HETATM    2  C2  UNL     1     -33.681  13.889  -3.677  1.00 20.00     0.001 A 
HETATM    3  C3  UNL     1     -34.883  13.981  -5.770  1.00 20.00     0.013 A 
HETATM    4  C4  UNL     1     -33.353  15.241  -3.787  1.00 20.00     0.019 A 
HETATM    5  C5  UNL     1     -34.906  16.289  -6.946  1.00 20.00     0.020 A 
HETATM    6  C6  UNL     1     -34.405  17.549  -6.714  1.00 20.00     0.051 A 
HETATM    7  C7  UNL     1     -34.567  15.354  -5.911  1.00 20.00    -0.019 A 
HETATM    8  C8  UNL     1     -33.804  15.962  -4.910  1.00 20.00     0.015 A 
HETATM    9  S9  UNL     1     -33.526  17.629  -5.256  1.00 20.00    -0.101 SA
ENDROOT
TORSDOF 0
ENDMDL
MODEL 9
REMARK VINA RESULT:      -4.0     12.247     13.261
REMARK  0 active torsions:
REMARK  status: ('A' for Active; 'I' for Inactive)
ROOT
HETATM    1  C1  UNL     1     -34.383  17.767  -0.284  1.00 20.00     0.001 A 
HETATM    2  C2  UNL     1     -33.874  18.803  -1.055  1.00 20.00     0.001 A 
HETATM    3  C3  UNL     1     -34.620  16.515  -0.854  1.00 20.00     0.013 A 
HETATM    4  C4  UNL     1     -33.590  18.609  -2.408  1.00 20.00     0.019 A 
HETATM    5  C5  UNL     1     -34.502  15.105  -3.024  1.00 20.00     0.020 A 
HETATM    6  C6  UNL     1     -34.117  15.289  -4.331  1.00 20.00     0.051 A 
HETATM    7  C7  UNL     1     -34.344  16.286  -2.224  1.00 20.00    -0.019 A 
HETATM    8  C8  UNL     1     -33.831  17.344  -2.979  1.00 20.00     0.015 A 
HETATM    9  S9  UNL     1     -33.562  16.875  -4.617  1.00 20.00    -0.101 SA
ENDROOT
TORSDOF 0
ENDMDL
