MODEL 1
REMARK VINA RESULT:      -5.3      0.000      0.000
REMARK  1 active torsions:
REMARK  status: ('A' for Active; 'I' for Inactive)
REMARK    1  A    between atoms: C6_6  and  N8_8 
ROOT
HETATM    1  C1  UNL     1     -35.142   4.719   6.047  1.00 20.00     0.000 A 
HETATM    2  C2  UNL     1     -34.332   5.786   6.434  1.00 20.00     0.002 A 
HETATM    3  C3  UNL     1     -35.283   4.405   4.695  1.00 20.00     0.002 A 
HETATM    4  C4  UNL     1     -33.663   6.541   5.469  1.00 20.00     0.029 A 
HETATM    5  C5  UNL     1     -34.614   5.159   3.731  1.00 20.00     0.029 A 
HETATM    6  C6  UNL     1     -33.804   6.227   4.118  1.00 20.00     0.027 A 
ENDROOT
BRANCH   6   7
HETATM    7  N8  UNL     1     -33.128   6.989   3.142  1.00 20.00    -0.394 N 
HETATM    8  C7  UNL     1     -31.761   7.385   3.275  1.00 20.00     0.146 C 
HETATM    9  H17 UNL     1     -33.652   7.251   2.329  1.00 20.00     0.159 HD
ENDBRANCH   6   7
TORSDOF 1
ENDMDL
MODEL 2
REMARK VINA RESULT:      -5.3      0.021      1.709
REMARK  1 active torsions:
REMARK  status: ('A' for Active; 'I' for Inactive)
REMARK    1  A    between atoms: C6_6  and  N8_8 
ROOT
HETATM    1  C1  UNL     1     -35.137   4.731   6.054  1.00 20.00     0.000 A 
HETATM    2  C2  UNL     1     -35.267   4.401   4.705  1.00 20.00     0.002 A 
HETATM    3  C3  UNL     1     -34.332   5.806   6.434  1.00 20.00     0.002 A 
HETATM    4  C4  UNL     1     -34.593   5.145   3.736  1.00 20.00     0.029 A 
HETATM    5  C5  UNL     1     -33.659   6.550   5.465  1.00 20.00     0.029 A 
HETATM    6  C6  UNL     1     -33.788   6.219   4.116  1.00 20.00     0.027 A 
ENDROOT
BRANCH   6   7
HETATM    7  N8  UNL     1     -33.107   6.972   3.137  1.00 20.00    -0.394 N 
HETATM    8  C7  UNL     1     -31.740   7.368   3.275  1.00 20.00     0.146 C 
HETATM    9  H17 UNL     1     -33.626   7.228   2.319  1.00 20.00     0.159 HD
ENDBRANCH   6   7
TORSDOF 1
ENDMDL
MODEL 3
REMARK VINA RESULT:      -3.9      9.270     10.384
REMARK  1 active torsions:
REMARK  status: ('A' for Active; 'I' for Inactive)
REMARK    1  A    between atoms: C6_6  and  N8_8 
ROOT
HETATM    1  C1  UNL     1     -41.469   7.255  -1.078  1.00 20.00     0.000 A 
HETATM    2  C2  UNL     1     -40.733   6.321  -0.350  1.00 20.00     0.002 A 
HETATM    3  C3  UNL     1     -42.220   6.846  -2.181  1.00 20.00     0.002 A 
HETATM    4  C4  UNL     1     -40.746   4.977  -0.725  1.00 20.00     0.029 A 
HETATM    5  C5  UNL     1     -42.234   5.502  -2.554  1.00 20.00     0.029 A 
HETATM    6  C6  UNL     1     -41.497   4.567  -1.827  1.00 20.00     0.027 A 
ENDROOT
BRANCH   6   7
HETATM    7  N8  UNL     1     -41.512   3.209  -2.206  1.00 20.00    -0.394 N 
HETATM    8  C7  UNL     1     -42.438   2.678  -3.157  1.00 20.00     0.146 C 
HETATM    9  H17 UNL     1     -40.833   2.611  -1.775  1.00 20.00     0.159 HD
ENDBRANCH   6   7
TORSDOF 1
ENDMDL
MODEL 4
REMARK VINA RESULT:      -3.8      9.440     10.312
REMARK  1 active torsions:
REMARK  status: ('A' for Active; 'I' for Inactive)
REMARK    1  A    between atoms: C6_6  and  N8_8 
ROOT
HETATM    1  C1  UNL     1     -41.110   4.650  -0.667  1.00 20.00     0.000 A 
HETATM    2  C2  UNL     1     -40.700   5.922  -0.266  1.00 20.00     0.002 A 
HETATM    3  C3  UNL     1     -41.864   4.495  -1.830  1.00 20.00     0.002 A 
HETATM    4  C4  UNL     1     -41.045   7.039  -1.028  1.00 20.00     0.029 A 
HETATM    5  C5  UNL     1     -42.208   5.611  -2.592  1.00 20.00     0.029 A 
HETATM    6  C6  UNL     1     -41.800   6.883  -2.191  1.00 20.00     0.027 A 
ENDROOT
BRANCH   6   7
HETATM    7  N8  UNL     1     -42.149   8.011  -2.963  1.00 20.00    -0.394 N 
HETATM    8  C7  UNL     1     -42.899   7.920  -4.177  1.00 20.00     0.146 C 
HETATM    9  H17 UNL     1     -41.846   8.904  -2.623  1.00 20.00     0.159 HD
ENDBRANCH   6   7
TORSDOF 1
ENDMDL
MODEL 5
REMARK VINA RESULT:      -3.8     12.054     12.540
REMARK  1 active torsions:
REMARK  status: ('A' for Active; 'I' for Inactive)
REMARK    1  A    between atoms: C6_6  and  N8_8 
ROOT
HETATM    1  C1  UNL     1     -33.249  14.437  -3.781  1.00 20.00     0.000 A 
HETATM    2  C2  UNL     1     -33.625  15.572  -3.062  1.00 20.00     0.002 A 
HETATM    3  C3  UNL     1     -34.223  13.583  -4.297  1.00 20.00     0.002 A 
HETATM    4  C4  UNL     1     -34.978  15.851  -2.858  1.00 20.00     0.029 A 
HETATM    5  C5  UNL     1     -35.575  13.863  -4.094  1.00 20.00     0.029 A 
HETATM    6  C6  UNL     1     -35.952  14.997  -3.374  1.00 20.00     0.027 A 
ENDROOT
BRANCH   6   7
HETATM    7  N8  UNL     1     -37.319  15.279  -3.169  1.00 20.00    -0.394 N 
HETATM    8  C7  UNL     1     -38.352  14.777  -4.021  1.00 20.00     0.146 C 
HETATM    9  H17 UNL     1     -37.549  15.859  -2.385  1.00 20.00     0.159 HD
ENDBRANCH   6   7
TORSDOF 1
ENDMDL
MODEL 6
REMARK VINA RESULT:      -3.8     12.079     12.649
REMARK  1 active torsions:
REMARK  status: ('A' for Active; 'I' for Inactive)
REMARK    1  A    between atoms: C6_6  and  N8_8 
ROOT
HETATM    1  C1  UNL     1     -33.245  14.485  -3.752  1.00 20.00     0.000 A 
HETATM    2  C2  UNL     1     -34.222  13.644  -4.287  1.00 20.00     0.002 A 
HETATM    3  C3  UNL     1     -33.618  15.601  -3.004  1.00 20.00     0.002 A 
HETATM    4  C4  UNL     1     -35.573  13.922  -4.074  1.00 20.00     0.029 A 
HETATM    5  C5  UNL     1     -34.969  15.878  -2.791  1.00 20.00     0.029 A 
HETATM    6  C6  UNL     1     -35.946  15.039  -3.326  1.00 20.00     0.027 A 
ENDROOT
BRANCH   6   7
HETATM    7  N8  UNL     1     -37.312  15.319  -3.110  1.00 20.00    -0.394 N 
HETATM    8  C7  UNL     1     -38.353  14.801  -3.942  1.00 20.00     0.146 C 
HETATM    9  H17 UNL     1     -37.535  15.911  -2.333  1.00 20.00     0.159 HD
ENDBRANCH   6   7
TORSDOF 1
ENDMDL
MODEL 7
REMARK VINA RESULT:      -3.8     12.056     12.256
REMARK  1 active torsions:
REMARK  status: ('A' for Active; 'I' for Inactive)
REMARK    1  A    between atoms: C6_6  and  N8_8 
ROOT
HETATM    1  C1  UNL     1     -34.399  13.505  -4.550  1.00 20.00     0.000 A 
HETATM    2  C2  UNL     1     -33.400  14.195  -3.863  1.00 20.00     0.002 A 
HETATM    3  C3  UNL     1     -35.740  13.826  -4.340  1.00 20.00     0.002 A 
HETATM    4  C4  UNL     1     -33.743  15.206  -2.963  1.00 20.00     0.029 A 
HETATM    5  C5  UNL     1     -36.083  14.837  -3.442  1.00 20.00     0.029 A 
HETATM    6  C6  UNL     1     -35.085  15.527  -2.753  1.00 20.00     0.027 A 
ENDROOT
BRANCH   6   7
HETATM    7  N8  UNL     1     -35.432  16.549  -1.845  1.00 20.00    -0.394 N 
HETATM    8  C7  UNL     1     -34.683  16.820  -0.658  1.00 20.00     0.146 C 
HETATM    9  H17 UNL     1     -36.244  17.093  -2.065  1.00 20.00     0.159 HD
ENDBRANCH   6   7
TORSDOF 1
ENDMDL
MODEL 8
REMARK VINA RESULT:      -3.7     11.939     12.219
REMARK  1 active torsions:
REMARK  status: ('A' for Active; 'I' for Inactive)
REMARK    1  A    between atoms: C6_6  and  N8_8 
ROOT
HETATM    1  C1  UNL     1     -35.125  13.440  -4.429  1.00 20.00     0.000 A 
HETATM    2  C2  UNL     1     -36.098  14.275  -3.880  1.00 20.00     0.002 A 
HETATM    3  C3  UNL     1     -33.778  13.651  -4.135  1.00 20.00     0.002 A 
HETATM    4  C4  UNL     1     -35.723  15.323  -3.038  1.00 20.00     0.029 A 
HETATM    5  C5  UNL     1     -33.404  14.698  -3.292  1.00 20.00     0.029 A 
HETATM    6  C6  UNL     1     -34.376  15.534  -2.744  1.00 20.00     0.027 A 
ENDROOT
BRANCH   6   7
HETATM    7  N8  UNL     1     -33.997  16.593  -1.892  1.00 20.00    -0.394 N 
HETATM    8  C7  UNL     1     -34.646  16.858  -0.646  1.00 20.00     0.146 C 
HETATM    9  H17 UNL     1     -33.236  17.169  -2.197  1.00 20.00     0.159 HD
ENDBRANCH   6   7
TORSDOF 1
ENDMDL
MODEL 9
REMARK VINA RESULT:      -3.7     12.057     13.604
REMARK  1 active torsions:
REMARK  status: ('A' for Active; 'I' for Inactive)
REMARK    1  A    between atoms: C6_6  and  N8_8 
ROOT
HETATM    1  C1  UNL     1     -33.060  15.095  -3.647  1.00 20.00     0.000 A 
HETATM    2  C2  UNL     1     -33.247  16.063  -4.634  1.00 20.00     0.002 A 
HETATM    3  C3  UNL     1     -33.646  13.837  -3.783  1.00 20.00     0.002 A 
HETATM    4  C4  UNL     1     -34.022  15.772  -5.758  1.00 20.00     0.029 A 
HETATM    5  C5  UNL     1     -34.419  13.546  -4.907  1.00 20.00     0.029 A 
HETATM    6  C6  UNL     1     -34.608  14.514  -5.895  1.00 20.00     0.027 A 
ENDROOT
BRANCH   6   7
HETATM    7  N8  UNL     1     -35.390  14.219  -7.030  1.00 20.00    -0.394 N 
HETATM    8  C7  UNL     1     -36.526  14.998  -7.415  1.00 20.00     0.146 C 
HETATM    9  H17 UNL     1     -35.117  13.423  -7.575  1.00 20.00     0.159 HD
ENDBRANCH   6   7
TORSDOF 1
ENDMDL
