MODEL 1
REMARK VINA RESULT:      -3.9      0.000      0.000
REMARK  0 active torsions:
REMARK  status: ('A' for Active; 'I' for Inactive)
ROOT
HETATM    1  C1  UNL     1     -35.215   4.642   5.340  1.00 20.00     0.019 A 
HETATM    2  C2  UNL     1     -34.643   5.471   6.337  1.00 20.00     0.019 A 
HETATM    3  C3  UNL     1     -34.665   5.012   4.132  1.00 20.00     0.090 A 
HETATM    4  C4  UNL     1     -33.762   6.321   5.709  1.00 20.00     0.090 A 
HETATM    5  C5  UNL     1     -32.998   6.706   3.359  1.00 20.00     0.154 C 
HETATM    6  N6  UNL     1     -33.783   6.034   4.368  1.00 20.00    -0.371 N 
ENDROOT
TORSDOF 0
ENDMDL
MODEL 2
REMARK VINA RESULT:      -3.9      0.006      1.530
REMARK  0 active torsions:
REMARK  status: ('A' for Active; 'I' for Inactive)
ROOT
HETATM    1  C1  UNL     1     -34.643   5.465   6.336  1.00 20.00     0.019 A 
HETATM    2  C2  UNL     1     -35.215   4.636   5.340  1.00 20.00     0.019 A 
HETATM    3  C3  UNL     1     -33.764   6.320   5.706  1.00 20.00     0.090 A 
HETATM    4  C4  UNL     1     -34.670   5.008   4.132  1.00 20.00     0.090 A 
HETATM    5  C5  UNL     1     -33.005   6.705   3.356  1.00 20.00     0.154 C 
HETATM    6  N6  UNL     1     -33.789   6.032   4.366  1.00 20.00    -0.371 N 
ENDROOT
TORSDOF 0
ENDMDL
MODEL 3
REMARK VINA RESULT:      -3.8      1.030      2.066
REMARK  0 active torsions:
REMARK  status: ('A' for Active; 'I' for Inactive)
ROOT
HETATM    1  C1  UNL     1     -35.225   4.446   4.783  1.00 20.00     0.019 A 
HETATM    2  C2  UNL     1     -34.730   5.253   3.729  1.00 20.00     0.019 A 
HETATM    3  C3  UNL     1     -34.839   5.035   5.968  1.00 20.00     0.090 A 
HETATM    4  C4  UNL     1     -34.057   6.310   4.300  1.00 20.00     0.090 A 
HETATM    5  C5  UNL     1     -33.547   7.071   6.627  1.00 20.00     0.154 C 
HETATM    6  N6  UNL     1     -34.130   6.167   5.662  1.00 20.00    -0.371 N 
ENDROOT
TORSDOF 0
ENDMDL
MODEL 4
REMARK VINA RESULT:      -3.8      1.021      2.034
REMARK  0 active torsions:
REMARK  status: ('A' for Active; 'I' for Inactive)
ROOT
HETATM    1  C1  UNL     1     -34.715   5.294   3.720  1.00 20.00     0.019 A 
HETATM    2  C2  UNL     1     -35.226   4.495   4.772  1.00 20.00     0.019 A 
HETATM    3  C3  UNL     1     -34.023   6.338   4.294  1.00 20.00     0.090 A 
HETATM    4  C4  UNL     1     -34.830   5.074   5.957  1.00 20.00     0.090 A 
HETATM    5  C5  UNL     1     -33.504   7.086   6.622  1.00 20.00     0.154 C 
HETATM    6  N6  UNL     1     -34.100   6.193   5.654  1.00 20.00    -0.371 N 
ENDROOT
TORSDOF 0
ENDMDL
MODEL 5
REMARK VINA RESULT:      -3.5      0.876      2.443
REMARK  0 active torsions:
REMARK  status: ('A' for Active; 'I' for Inactive)
ROOT
HETATM    1  C1  UNL     1     -34.398   5.358   2.868  1.00 20.00     0.019 A 
HETATM    2  C2  UNL     1     -33.231   6.135   3.070  1.00 20.00     0.019 A 
HETATM    3  C3  UNL     1     -34.980   5.161   4.102  1.00 20.00     0.090 A 
HETATM    4  C4  UNL     1     -33.134   6.389   4.420  1.00 20.00     0.090 A 
HETATM    5  C5  UNL     1     -34.468   5.822   6.457  1.00 20.00     0.154 C 
HETATM    6  N6  UNL     1     -34.203   5.792   5.037  1.00 20.00    -0.371 N 
ENDROOT
TORSDOF 0
ENDMDL
MODEL 6
REMARK VINA RESULT:      -3.0      9.111      9.948
REMARK  0 active torsions:
REMARK  status: ('A' for Active; 'I' for Inactive)
ROOT
HETATM    1  C1  UNL     1     -40.700   6.181  -0.417  1.00 20.00     0.019 A 
HETATM    2  C2  UNL     1     -41.403   6.948  -1.378  1.00 20.00     0.019 A 
HETATM    3  C3  UNL     1     -40.835   4.856  -0.769  1.00 20.00     0.090 A 
HETATM    4  C4  UNL     1     -41.947   6.069  -2.288  1.00 20.00     0.090 A 
HETATM    5  C5  UNL     1     -41.969   3.589  -2.601  1.00 20.00     0.154 C 
HETATM    6  N6  UNL     1     -41.594   4.800  -1.908  1.00 20.00    -0.371 N 
ENDROOT
TORSDOF 0
ENDMDL
MODEL 7
REMARK VINA RESULT:      -2.9      1.136      2.575
REMARK  0 active torsions:
REMARK  status: ('A' for Active; 'I' for Inactive)
ROOT
HETATM    1  C1  UNL     1     -33.760   6.841   6.361  1.00 20.00     0.019 A 
HETATM    2  C2  UNL     1     -33.356   6.938   5.007  1.00 20.00     0.019 A 
HETATM    3  C3  UNL     1     -34.484   5.676   6.493  1.00 20.00     0.090 A 
HETATM    4  C4  UNL     1     -33.844   5.830   4.351  1.00 20.00     0.090 A 
HETATM    5  C5  UNL     1     -35.196   3.821   4.976  1.00 20.00     0.154 C 
HETATM    6  N6  UNL     1     -34.528   5.070   5.265  1.00 20.00    -0.371 N 
ENDROOT
TORSDOF 0
ENDMDL
MODEL 8
REMARK VINA RESULT:      -2.9      9.306      9.949
REMARK  0 active torsions:
REMARK  status: ('A' for Active; 'I' for Inactive)
ROOT
HETATM    1  C1  UNL     1     -41.055   4.672  -1.058  1.00 20.00     0.019 A 
HETATM    2  C2  UNL     1     -40.657   5.872  -0.420  1.00 20.00     0.019 A 
HETATM    3  C3  UNL     1     -41.808   5.020  -2.158  1.00 20.00     0.090 A 
HETATM    4  C4  UNL     1     -41.178   6.918  -1.149  1.00 20.00     0.090 A 
HETATM    5  C5  UNL     1     -42.577   7.154  -3.208  1.00 20.00     0.154 C 
HETATM    6  N6  UNL     1     -41.875   6.388  -2.203  1.00 20.00    -0.371 N 
ENDROOT
TORSDOF 0
ENDMDL
MODEL 9
REMARK VINA RESULT:      -2.9     12.198     13.374
REMARK  0 active torsions:
REMARK  status: ('A' for Active; 'I' for Inactive)
ROOT
HETATM    1  C1  UNL     1     -33.647  13.663  -3.743  1.00 20.00     0.019 A 
HETATM    2  C2  UNL     1     -34.472  13.511  -4.884  1.00 20.00     0.019 A 
HETATM    3  C3  UNL     1     -33.174  14.958  -3.747  1.00 20.00     0.090 A 
HETATM    4  C4  UNL     1     -34.479  14.716  -5.551  1.00 20.00     0.090 A 
HETATM    5  C5  UNL     1     -33.429  16.961  -5.220  1.00 20.00     0.154 C 
HETATM    6  N6  UNL     1     -33.686  15.588  -4.850  1.00 20.00    -0.371 N 
ENDROOT
TORSDOF 0
ENDMDL
