MODEL 1
REMARK VINA RESULT:      -5.5      0.000      0.000
REMARK  4 active torsions:
REMARK  status: ('A' for Active; 'I' for Inactive)
REMARK    1  A    between atoms: C6_6  and  C7_7 
REMARK    2  A    between atoms: C7_7  and  C8_8 
REMARK    3  A    between atoms: C8_8  and  C9_9 
REMARK    4  A    between atoms: C9_9  and  O10_10 
ROOT
HETATM    1  C1  UNL     1     -35.015   4.888   5.945  1.00 20.00     0.000 C 
HETATM    2  C2  UNL     1     -35.507   4.842   4.502  1.00 20.00     0.000 C 
HETATM    3  C3  UNL     1     -34.282   6.191   6.248  1.00 20.00     0.000 C 
HETATM    4  C4  UNL     1     -34.369   5.087   3.512  1.00 20.00     0.004 C 
HETATM    5  C5  UNL     1     -33.143   6.438   5.260  1.00 20.00     0.004 C 
HETATM    6  C6  UNL     1     -33.634   6.402   3.808  1.00 20.00    -0.014 C 
ENDROOT
BRANCH   6   7
HETATM    7  C7  UNL     1     -32.470   6.599   2.838  1.00 20.00     0.007 C 
BRANCH   7   8
HETATM    8  C8  UNL     1     -32.015   8.052   2.809  1.00 20.00     0.026 C 
BRANCH   8   9
HETATM    9  C9  UNL     1     -31.995   8.598   1.388  1.00 20.00     0.164 C 
BRANCH   9  10
HETATM   10  O10 UNL     1     -32.402   9.960   1.414  1.00 20.00    -0.401 OA
HETATM   11  H28 UNL     1     -31.601  10.489   1.555  1.00 20.00     0.209 HD
ENDBRANCH   9  10
ENDBRANCH   8   9
ENDBRANCH   7   8
ENDBRANCH   6   7
TORSDOF 4
ENDMDL
MODEL 2
REMARK VINA RESULT:      -5.3      0.621      1.697
REMARK  4 active torsions:
REMARK  status: ('A' for Active; 'I' for Inactive)
REMARK    1  A    between atoms: C6_6  and  C7_7 
REMARK    2  A    between atoms: C7_7  and  C8_8 
REMARK    3  A    between atoms: C8_8  and  C9_9 
REMARK    4  A    between atoms: C9_9  and  O10_10 
ROOT
HETATM    1  C1  UNL     1     -35.181   4.992   6.302  1.00 20.00     0.000 C 
HETATM    2  C2  UNL     1     -33.970   5.900   6.492  1.00 20.00     0.000 C 
HETATM    3  C3  UNL     1     -35.052   4.138   5.045  1.00 20.00     0.000 C 
HETATM    4  C4  UNL     1     -33.711   6.759   5.255  1.00 20.00     0.004 C 
HETATM    5  C5  UNL     1     -34.795   4.995   3.807  1.00 20.00     0.004 C 
HETATM    6  C6  UNL     1     -33.572   5.903   3.989  1.00 20.00    -0.014 C 
ENDROOT
BRANCH   6   7
HETATM    7  C7  UNL     1     -33.367   6.787   2.760  1.00 20.00     0.007 C 
BRANCH   7   8
HETATM    8  C8  UNL     1     -32.058   7.560   2.848  1.00 20.00     0.026 C 
BRANCH   8   9
HETATM    9  C9  UNL     1     -31.843   8.431   1.618  1.00 20.00     0.164 C 
BRANCH   9  10
HETATM   10  O10 UNL     1     -32.562   9.646   1.785  1.00 20.00    -0.401 OA
HETATM   11  H28 UNL     1     -33.129   9.531   2.564  1.00 20.00     0.209 HD
ENDBRANCH   9  10
ENDBRANCH   8   9
ENDBRANCH   7   8
ENDBRANCH   6   7
TORSDOF 4
ENDMDL
MODEL 3
REMARK VINA RESULT:      -4.5     10.941     12.087
REMARK  4 active torsions:
REMARK  status: ('A' for Active; 'I' for Inactive)
REMARK    1  A    between atoms: C6_6  and  C7_7 
REMARK    2  A    between atoms: C7_7  and  C8_8 
REMARK    3  A    between atoms: C8_8  and  C9_9 
REMARK    4  A    between atoms: C9_9  and  O10_10 
ROOT
HETATM    1  C1  UNL     1     -34.036  19.085  -0.773  1.00 20.00     0.000 C 
HETATM    2  C2  UNL     1     -33.400  18.911  -2.148  1.00 20.00     0.000 C 
HETATM    3  C3  UNL     1     -34.012  17.786   0.026  1.00 20.00     0.000 C 
HETATM    4  C4  UNL     1     -34.044  17.764  -2.925  1.00 20.00     0.004 C 
HETATM    5  C5  UNL     1     -34.656  16.637  -0.748  1.00 20.00     0.004 C 
HETATM    6  C6  UNL     1     -34.014  16.453  -2.128  1.00 20.00    -0.014 C 
ENDROOT
BRANCH   6   7
HETATM    7  C7  UNL     1     -34.710  15.335  -2.903  1.00 20.00     0.007 C 
BRANCH   7   8
HETATM    8  C8  UNL     1     -33.698  14.426  -3.589  1.00 20.00     0.026 C 
BRANCH   8   9
HETATM    9  C9  UNL     1     -34.339  13.635  -4.720  1.00 20.00     0.164 C 
BRANCH   9  10
HETATM   10  O10 UNL     1     -35.138  12.600  -4.162  1.00 20.00    -0.401 OA
HETATM   11  H28 UNL     1     -34.607  11.788  -4.196  1.00 20.00     0.209 HD
ENDBRANCH   9  10
ENDBRANCH   8   9
ENDBRANCH   7   8
ENDBRANCH   6   7
TORSDOF 4
ENDMDL
MODEL 4
REMARK VINA RESULT:      -4.4     10.876     12.080
REMARK  4 active torsions:
REMARK  status: ('A' for Active; 'I' for Inactive)
REMARK    1  A    between atoms: C6_6  and  C7_7 
REMARK    2  A    between atoms: C7_7  and  C8_8 
REMARK    3  A    between atoms: C8_8  and  C9_9 
REMARK    4  A    between atoms: C9_9  and  O10_10 
ROOT
HETATM    1  C1  UNL     1     -33.201  18.450  -0.914  1.00 20.00     0.000 C 
HETATM    2  C2  UNL     1     -34.307  17.668  -0.213  1.00 20.00     0.000 C 
HETATM    3  C3  UNL     1     -33.561  18.753  -2.366  1.00 20.00     0.000 C 
HETATM    4  C4  UNL     1     -34.668  16.396  -0.977  1.00 20.00     0.004 C 
HETATM    5  C5  UNL     1     -33.921  17.482  -3.133  1.00 20.00     0.004 C 
HETATM    6  C6  UNL     1     -35.039  16.697  -2.436  1.00 20.00    -0.014 C 
ENDROOT
BRANCH   6   7
HETATM    7  C7  UNL     1     -35.345  15.405  -3.192  1.00 20.00     0.007 C 
BRANCH   7   8
HETATM    8  C8  UNL     1     -34.093  14.553  -3.359  1.00 20.00     0.026 C 
BRANCH   8   9
HETATM    9  C9  UNL     1     -34.278  13.499  -4.441  1.00 20.00     0.164 C 
BRANCH   9  10
HETATM   10  O10 UNL     1     -35.364  12.656  -4.079  1.00 20.00    -0.401 OA
HETATM   11  H28 UNL     1     -36.162  13.209  -4.086  1.00 20.00     0.209 HD
ENDBRANCH   9  10
ENDBRANCH   8   9
ENDBRANCH   7   8
ENDBRANCH   6   7
TORSDOF 4
ENDMDL
MODEL 5
REMARK VINA RESULT:      -4.3     11.010     12.199
REMARK  4 active torsions:
REMARK  status: ('A' for Active; 'I' for Inactive)
REMARK    1  A    between atoms: C6_6  and  C7_7 
REMARK    2  A    between atoms: C7_7  and  C8_8 
REMARK    3  A    between atoms: C8_8  and  C9_9 
REMARK    4  A    between atoms: C9_9  and  O10_10 
ROOT
HETATM    1  C1  UNL     1     -34.869  14.161  -5.900  1.00 20.00     0.000 C 
HETATM    2  C2  UNL     1     -34.327  13.465  -4.656  1.00 20.00     0.000 C 
HETATM    3  C3  UNL     1     -34.124  15.461  -6.186  1.00 20.00     0.000 C 
HETATM    4  C4  UNL     1     -34.336  14.393  -3.443  1.00 20.00     0.004 C 
HETATM    5  C5  UNL     1     -34.132  16.392  -4.976  1.00 20.00     0.004 C 
HETATM    6  C6  UNL     1     -33.580  15.699  -3.724  1.00 20.00    -0.014 C 
ENDROOT
BRANCH   6   7
HETATM    7  C7  UNL     1     -33.647  16.632  -2.515  1.00 20.00     0.007 C 
BRANCH   7   8
HETATM    8  C8  UNL     1     -34.737  16.198  -1.543  1.00 20.00     0.026 C 
BRANCH   8   9
HETATM    9  C9  UNL     1     -34.720  17.042  -0.277  1.00 20.00     0.164 C 
BRANCH   9  10
HETATM   10  O10 UNL     1     -36.007  17.616  -0.091  1.00 20.00    -0.401 OA
HETATM   11  H28 UNL     1     -35.902  18.576  -0.192  1.00 20.00     0.209 HD
ENDBRANCH   9  10
ENDBRANCH   8   9
ENDBRANCH   7   8
ENDBRANCH   6   7
TORSDOF 4
ENDMDL
MODEL 6
REMARK VINA RESULT:      -4.2     11.024     11.705
REMARK  4 active torsions:
REMARK  status: ('A' for Active; 'I' for Inactive)
REMARK    1  A    between atoms: C6_6  and  C7_7 
REMARK    2  A    between atoms: C7_7  and  C8_8 
REMARK    3  A    between atoms: C8_8  and  C9_9 
REMARK    4  A    between atoms: C9_9  and  O10_10 
ROOT
HETATM    1  C1  UNL     1     -35.125  13.797  -4.929  1.00 20.00     0.000 C 
HETATM    2  C2  UNL     1     -36.225  14.307  -4.004  1.00 20.00     0.000 C 
HETATM    3  C3  UNL     1     -33.802  13.630  -4.189  1.00 20.00     0.000 C 
HETATM    4  C4  UNL     1     -35.813  15.596  -3.295  1.00 20.00     0.004 C 
HETATM    5  C5  UNL     1     -33.386  14.917  -3.480  1.00 20.00     0.004 C 
HETATM    6  C6  UNL     1     -34.486  15.429  -2.541  1.00 20.00    -0.014 C 
ENDROOT
BRANCH   6   7
HETATM    7  C7  UNL     1     -34.069  16.744  -1.886  1.00 20.00     0.007 C 
BRANCH   7   8
HETATM    8  C8  UNL     1     -34.666  16.879  -0.491  1.00 20.00     0.026 C 
BRANCH   8   9
HETATM    9  C9  UNL     1     -35.497  18.148  -0.363  1.00 20.00     0.164 C 
BRANCH   9  10
HETATM   10  O10 UNL     1     -36.868  17.819  -0.546  1.00 20.00    -0.401 OA
HETATM   11  H28 UNL     1     -36.900  16.882  -0.796  1.00 20.00     0.209 HD
ENDBRANCH   9  10
ENDBRANCH   8   9
ENDBRANCH   7   8
ENDBRANCH   6   7
TORSDOF 4
ENDMDL
MODEL 7
REMARK VINA RESULT:      -4.1     11.083     11.792
REMARK  4 active torsions:
REMARK  status: ('A' for Active; 'I' for Inactive)
REMARK    1  A    between atoms: C6_6  and  C7_7 
REMARK    2  A    between atoms: C7_7  and  C8_8 
REMARK    3  A    between atoms: C8_8  and  C9_9 
REMARK    4  A    between atoms: C9_9  and  O10_10 
ROOT
HETATM    1  C1  UNL     1     -34.400  13.801  -4.754  1.00 20.00     0.000 C 
HETATM    2  C2  UNL     1     -35.748  13.897  -4.049  1.00 20.00     0.000 C 
HETATM    3  C3  UNL     1     -33.246  14.113  -3.807  1.00 20.00     0.000 C 
HETATM    4  C4  UNL     1     -35.933  15.253  -3.369  1.00 20.00     0.004 C 
HETATM    5  C5  UNL     1     -33.427  15.469  -3.127  1.00 20.00     0.004 C 
HETATM    6  C6  UNL     1     -34.778  15.567  -2.408  1.00 20.00    -0.014 C 
ENDROOT
BRANCH   6   7
HETATM    7  C7  UNL     1     -34.959  16.949  -1.782  1.00 20.00     0.007 C 
BRANCH   7   8
HETATM    8  C8  UNL     1     -33.680  17.417  -1.100  1.00 20.00     0.026 C 
BRANCH   8   9
HETATM    9  C9  UNL     1     -33.411  18.890  -1.375  1.00 20.00     0.164 C 
BRANCH   9  10
HETATM   10  O10 UNL     1     -32.197  19.263  -0.736  1.00 20.00    -0.401 OA
HETATM   11  H28 UNL     1     -32.302  20.185  -0.454  1.00 20.00     0.209 HD
ENDBRANCH   9  10
ENDBRANCH   8   9
ENDBRANCH   7   8
ENDBRANCH   6   7
TORSDOF 4
ENDMDL
MODEL 8
REMARK VINA RESULT:      -4.1     11.085     11.899
REMARK  4 active torsions:
REMARK  status: ('A' for Active; 'I' for Inactive)
REMARK    1  A    between atoms: C6_6  and  C7_7 
REMARK    2  A    between atoms: C7_7  and  C8_8 
REMARK    3  A    between atoms: C8_8  and  C9_9 
REMARK    4  A    between atoms: C9_9  and  O10_10 
ROOT
HETATM    1  C1  UNL     1     -34.005  18.335   1.432  1.00 20.00     0.000 C 
HETATM    2  C2  UNL     1     -35.178  17.559   0.843  1.00 20.00     0.000 C 
HETATM    3  C3  UNL     1     -33.351  19.240   0.392  1.00 20.00     0.000 C 
HETATM    4  C4  UNL     1     -34.766  16.774  -0.401  1.00 20.00     0.004 C 
HETATM    5  C5  UNL     1     -32.936  18.457  -0.852  1.00 20.00     0.004 C 
HETATM    6  C6  UNL     1     -34.115  17.682  -1.454  1.00 20.00    -0.014 C 
ENDROOT
BRANCH   6   7
HETATM    7  C7  UNL     1     -33.664  16.866  -2.664  1.00 20.00     0.007 C 
BRANCH   7   8
HETATM    8  C8  UNL     1     -34.327  15.495  -2.685  1.00 20.00     0.026 C 
BRANCH   8   9
HETATM    9  C9  UNL     1     -33.728  14.604  -3.763  1.00 20.00     0.164 C 
BRANCH   9  10
HETATM   10  O10 UNL     1     -32.319  14.793  -3.783  1.00 20.00    -0.401 OA
HETATM   11  H28 UNL     1     -32.092  15.116  -4.670  1.00 20.00     0.209 HD
ENDBRANCH   9  10
ENDBRANCH   8   9
ENDBRANCH   7   8
ENDBRANCH   6   7
TORSDOF 4
ENDMDL
MODEL 9
REMARK VINA RESULT:      -4.1     10.338     11.687
REMARK  4 active torsions:
REMARK  status: ('A' for Active; 'I' for Inactive)
REMARK    1  A    between atoms: C6_6  and  C7_7 
REMARK    2  A    between atoms: C7_7  and  C8_8 
REMARK    3  A    between atoms: C8_8  and  C9_9 
REMARK    4  A    between atoms: C9_9  and  O10_10 
ROOT
HETATM    1  C1  UNL     1     -41.191   7.011  -1.165  1.00 20.00     0.000 C 
HETATM    2  C2  UNL     1     -40.775   5.807  -0.326  1.00 20.00     0.000 C 
HETATM    3  C3  UNL     1     -42.520   6.769  -1.874  1.00 20.00     0.000 C 
HETATM    4  C4  UNL     1     -40.742   4.526  -1.158  1.00 20.00     0.004 C 
HETATM    5  C5  UNL     1     -42.489   5.490  -2.708  1.00 20.00     0.004 C 
HETATM    6  C6  UNL     1     -42.080   4.275  -1.866  1.00 20.00    -0.014 C 
ENDROOT
BRANCH   6   7
HETATM    7  C7  UNL     1     -42.004   3.018  -2.733  1.00 20.00     0.007 C 
BRANCH   7   8
HETATM    8  C8  UNL     1     -43.090   3.018  -3.801  1.00 20.00     0.026 C 
BRANCH   8   9
HETATM    9  C9  UNL     1     -43.074   1.727  -4.608  1.00 20.00     0.164 C 
BRANCH   9  10
HETATM   10  O10 UNL     1     -43.089   2.051  -5.992  1.00 20.00    -0.401 OA
HETATM   11  H28 UNL     1     -44.018   2.195  -6.235  1.00 20.00     0.209 HD
ENDBRANCH   9  10
ENDBRANCH   8   9
ENDBRANCH   7   8
ENDBRANCH   6   7
TORSDOF 4
ENDMDL
