MODEL 1
REMARK VINA RESULT:      -5.5      0.000      0.000
REMARK  0 active torsions:
REMARK  status: ('A' for Active; 'I' for Inactive)
ROOT
HETATM    1  C1  UNL     1     -32.168   7.269   3.054  1.00 20.00     0.001 A 
HETATM    2  C2  UNL     1     -32.724   6.320   2.200  1.00 20.00     0.001 A 
HETATM    3  C3  UNL     1     -34.778   5.472   6.747  1.00 20.00     0.001 A 
HETATM    4  C4  UNL     1     -35.334   4.525   5.893  1.00 20.00     0.001 A 
HETATM    5  C5  UNL     1     -32.537   7.299   4.399  1.00 20.00     0.012 A 
HETATM    6  C6  UNL     1     -33.651   5.399   2.688  1.00 20.00     0.012 A 
HETATM    7  C7  UNL     1     -33.851   6.395   6.258  1.00 20.00     0.012 A 
HETATM    8  C8  UNL     1     -34.965   4.495   4.548  1.00 20.00     0.012 A 
HETATM    9  C9  UNL     1     -33.468   6.379   4.907  1.00 20.00    -0.026 A 
HETATM   10  C10 UNL     1     -34.033   5.414   4.039  1.00 20.00    -0.026 A 
ENDROOT
TORSDOF 0
ENDMDL
MODEL 2
REMARK VINA RESULT:      -5.5      0.034      4.020
REMARK  0 active torsions:
REMARK  status: ('A' for Active; 'I' for Inactive)
ROOT
HETATM    1  C1  UNL     1     -35.341   4.490   5.874  1.00 20.00     0.001 A 
HETATM    2  C2  UNL     1     -34.791   5.442   6.729  1.00 20.00     0.001 A 
HETATM    3  C3  UNL     1     -32.739   6.304   2.183  1.00 20.00     0.001 A 
HETATM    4  C4  UNL     1     -32.190   7.255   3.038  1.00 20.00     0.001 A 
HETATM    5  C5  UNL     1     -34.971   4.463   4.529  1.00 20.00     0.012 A 
HETATM    6  C6  UNL     1     -33.870   6.369   6.241  1.00 20.00     0.012 A 
HETATM    7  C7  UNL     1     -33.661   5.376   2.670  1.00 20.00     0.012 A 
HETATM    8  C8  UNL     1     -32.560   7.282   4.382  1.00 20.00     0.012 A 
HETATM    9  C9  UNL     1     -34.045   5.389   4.022  1.00 20.00    -0.026 A 
HETATM   10  C10 UNL     1     -33.486   6.356   4.891  1.00 20.00    -0.026 A 
ENDROOT
TORSDOF 0
ENDMDL
MODEL 3
REMARK VINA RESULT:      -5.5      0.045      3.446
REMARK  0 active torsions:
REMARK  status: ('A' for Active; 'I' for Inactive)
ROOT
HETATM    1  C1  UNL     1     -34.802   5.417   6.731  1.00 20.00     0.001 A 
HETATM    2  C2  UNL     1     -35.347   4.469   5.869  1.00 20.00     0.001 A 
HETATM    3  C3  UNL     1     -32.198   7.259   3.057  1.00 20.00     0.001 A 
HETATM    4  C4  UNL     1     -32.742   6.312   2.195  1.00 20.00     0.001 A 
HETATM    5  C5  UNL     1     -33.882   6.350   6.252  1.00 20.00     0.012 A 
HETATM    6  C6  UNL     1     -34.974   4.452   4.525  1.00 20.00     0.012 A 
HETATM    7  C7  UNL     1     -32.570   7.277   4.402  1.00 20.00     0.012 A 
HETATM    8  C8  UNL     1     -33.662   5.379   2.675  1.00 20.00     0.012 A 
HETATM    9  C9  UNL     1     -33.496   6.346   4.901  1.00 20.00    -0.026 A 
HETATM   10  C10 UNL     1     -34.050   5.383   4.025  1.00 20.00    -0.026 A 
ENDROOT
TORSDOF 0
ENDMDL
MODEL 4
REMARK VINA RESULT:      -5.5      0.009      2.070
REMARK  0 active torsions:
REMARK  status: ('A' for Active; 'I' for Inactive)
ROOT
HETATM    1  C1  UNL     1     -32.719   6.326   2.193  1.00 20.00     0.001 A 
HETATM    2  C2  UNL     1     -32.161   7.271   3.049  1.00 20.00     0.001 A 
HETATM    3  C3  UNL     1     -35.330   4.527   5.885  1.00 20.00     0.001 A 
HETATM    4  C4  UNL     1     -34.772   5.472   6.740  1.00 20.00     0.001 A 
HETATM    5  C5  UNL     1     -33.647   5.405   2.680  1.00 20.00     0.012 A 
HETATM    6  C6  UNL     1     -32.530   7.299   4.394  1.00 20.00     0.012 A 
HETATM    7  C7  UNL     1     -34.962   4.499   4.538  1.00 20.00     0.012 A 
HETATM    8  C8  UNL     1     -33.844   6.393   6.253  1.00 20.00     0.012 A 
HETATM    9  C9  UNL     1     -34.029   5.419   4.031  1.00 20.00    -0.026 A 
HETATM   10  C10 UNL     1     -33.462   6.380   4.901  1.00 20.00    -0.026 A 
ENDROOT
TORSDOF 0
ENDMDL
MODEL 5
REMARK VINA RESULT:      -4.7     12.081     13.881
REMARK  0 active torsions:
REMARK  status: ('A' for Active; 'I' for Inactive)
ROOT
HETATM    1  C1  UNL     1     -34.843  16.695  -7.632  1.00 20.00     0.001 A 
HETATM    2  C2  UNL     1     -35.408  15.455  -7.918  1.00 20.00     0.001 A 
HETATM    3  C3  UNL     1     -33.025  14.909  -3.487  1.00 20.00     0.001 A 
HETATM    4  C4  UNL     1     -33.590  13.670  -3.773  1.00 20.00     0.001 A 
HETATM    5  C5  UNL     1     -34.109  16.874  -6.460  1.00 20.00     0.012 A 
HETATM    6  C6  UNL     1     -35.240  14.390  -7.032  1.00 20.00     0.012 A 
HETATM    7  C7  UNL     1     -33.193  15.975  -4.372  1.00 20.00     0.012 A 
HETATM    8  C8  UNL     1     -34.325  13.491  -4.945  1.00 20.00     0.012 A 
HETATM    9  C9  UNL     1     -33.930  15.813  -5.557  1.00 20.00    -0.026 A 
HETATM   10  C10 UNL     1     -34.504  14.552  -5.848  1.00 20.00    -0.026 A 
ENDROOT
TORSDOF 0
ENDMDL
MODEL 6
REMARK VINA RESULT:      -4.7     12.062     14.229
REMARK  0 active torsions:
REMARK  status: ('A' for Active; 'I' for Inactive)
ROOT
HETATM    1  C1  UNL     1     -33.694  13.656  -3.759  1.00 20.00     0.001 A 
HETATM    2  C2  UNL     1     -33.075  14.887  -3.559  1.00 20.00     0.001 A 
HETATM    3  C3  UNL     1     -35.615  15.299  -7.917  1.00 20.00     0.001 A 
HETATM    4  C4  UNL     1     -34.997  16.529  -7.717  1.00 20.00     0.001 A 
HETATM    5  C5  UNL     1     -34.481  13.446  -4.891  1.00 20.00     0.012 A 
HETATM    6  C6  UNL     1     -33.241  15.912  -4.491  1.00 20.00     0.012 A 
HETATM    7  C7  UNL     1     -35.449  14.273  -6.985  1.00 20.00     0.012 A 
HETATM    8  C8  UNL     1     -34.209  16.739  -6.585  1.00 20.00     0.012 A 
HETATM    9  C9  UNL     1     -34.659  14.467  -5.839  1.00 20.00    -0.026 A 
HETATM   10  C10 UNL     1     -34.030  15.718  -5.636  1.00 20.00    -0.026 A 
ENDROOT
TORSDOF 0
ENDMDL
MODEL 7
REMARK VINA RESULT:      -4.6     12.229     14.277
REMARK  0 active torsions:
REMARK  status: ('A' for Active; 'I' for Inactive)
ROOT
HETATM    1  C1  UNL     1     -33.824  13.774  -3.776  1.00 20.00     0.001 A 
HETATM    2  C2  UNL     1     -34.526  13.207  -4.837  1.00 20.00     0.001 A 
HETATM    3  C3  UNL     1     -33.768  18.049  -6.098  1.00 20.00     0.001 A 
HETATM    4  C4  UNL     1     -34.469  17.483  -7.159  1.00 20.00     0.001 A 
HETATM    5  C5  UNL     1     -33.458  15.119  -3.820  1.00 20.00     0.012 A 
HETATM    6  C6  UNL     1     -34.864  13.985  -5.945  1.00 20.00     0.012 A 
HETATM    7  C7  UNL     1     -33.430  17.272  -4.989  1.00 20.00     0.012 A 
HETATM    8  C8  UNL     1     -34.835  16.138  -7.114  1.00 20.00     0.012 A 
HETATM    9  C9  UNL     1     -33.791  15.916  -4.928  1.00 20.00    -0.026 A 
HETATM   10  C10 UNL     1     -34.504  15.340  -6.006  1.00 20.00    -0.026 A 
ENDROOT
TORSDOF 0
ENDMDL
MODEL 8
REMARK VINA RESULT:      -4.5     11.767     13.342
REMARK  0 active torsions:
REMARK  status: ('A' for Active; 'I' for Inactive)
ROOT
HETATM    1  C1  UNL     1     -33.786  18.027  -2.773  1.00 20.00     0.001 A 
HETATM    2  C2  UNL     1     -34.100  17.134  -1.752  1.00 20.00     0.001 A 
HETATM    3  C3  UNL     1     -34.492  14.512  -6.063  1.00 20.00     0.001 A 
HETATM    4  C4  UNL     1     -34.805  13.620  -5.043  1.00 20.00     0.001 A 
HETATM    5  C5  UNL     1     -33.804  17.603  -4.102  1.00 20.00     0.012 A 
HETATM    6  C6  UNL     1     -34.433  15.814  -2.057  1.00 20.00     0.012 A 
HETATM    7  C7  UNL     1     -34.159  15.833  -5.759  1.00 20.00     0.012 A 
HETATM    8  C8  UNL     1     -34.788  14.044  -3.714  1.00 20.00     0.012 A 
HETATM    9  C9  UNL     1     -34.136  16.277  -4.427  1.00 20.00    -0.026 A 
HETATM   10  C10 UNL     1     -34.456  15.370  -3.389  1.00 20.00    -0.026 A 
ENDROOT
TORSDOF 0
ENDMDL
MODEL 9
REMARK VINA RESULT:      -4.5     11.715     13.336
REMARK  0 active torsions:
REMARK  status: ('A' for Active; 'I' for Inactive)
ROOT
HETATM    1  C1  UNL     1     -34.055  17.213  -1.782  1.00 20.00     0.001 A 
HETATM    2  C2  UNL     1     -33.762  18.073  -2.837  1.00 20.00     0.001 A 
HETATM    3  C3  UNL     1     -34.792  13.587  -4.941  1.00 20.00     0.001 A 
HETATM    4  C4  UNL     1     -34.500  14.446  -5.996  1.00 20.00     0.001 A 
HETATM    5  C5  UNL     1     -34.385  15.882  -2.036  1.00 20.00     0.012 A 
HETATM    6  C6  UNL     1     -33.799  17.604  -4.151  1.00 20.00     0.012 A 
HETATM    7  C7  UNL     1     -34.756  14.056  -3.627  1.00 20.00     0.012 A 
HETATM    8  C8  UNL     1     -34.170  15.778  -5.741  1.00 20.00     0.012 A 
HETATM    9  C9  UNL     1     -34.426  15.393  -3.352  1.00 20.00    -0.026 A 
HETATM   10  C10 UNL     1     -34.128  16.267  -4.425  1.00 20.00    -0.026 A 
ENDROOT
TORSDOF 0
ENDMDL
