@<TRIPOS>MOLECULE
3-iodotoluene.pdb
   15    15     0     0     0
SMALL
NO_CHARGES

@<TRIPOS>ATOM
      1 C1          4.0440   21.0060   40.3770 C.ar      1 <0>         0.0000
      2 C2          3.1320   21.6880   39.5370 C.ar      1 <0>         0.0000
      3 C3          4.5360   19.7690   40.0140 C.ar      1 <0>         0.0000
      4 C4          3.3140   19.8850   37.9010 C.ar      1 <0>         0.0000
      5 C5          2.7570   21.1000   38.3200 C.ar      1 <0>         0.0000
      6 C6          4.2270   19.2170   38.7660 C.ar      1 <0>         0.0000
      7 C7          1.7110   21.6590   37.3730 C.3       1 <0>         0.0000
      8 H1          4.3480   21.3300   41.3700 H         1 <0>         0.0000
      9 H2          2.5900   22.5420   39.9350 H         1 <0>         0.0000
     10 I1          5.8087   18.8102   41.0197 I         1 <0>         0.0000
     11 H3          2.9990   19.5010   36.9340 H         1 <0>         0.0000
     12 H4          1.1040   20.8520   36.9550 H         1 <0>         0.0000
     13 H5          1.0380   22.4440   37.7230 H         1 <0>         0.0000
     14 H6          2.2220   22.2070   36.5780 H         1 <0>         0.0000
     15 H7          4.6801   18.2859   38.4592 H         1 <0>         0.0000
@<TRIPOS>BOND
     1    1    2 ar
     2    1    3 ar
     3    1    8 1
     4    2    5 ar
     5    2    9 1
     6    3    6 ar
     7    3   10 1
     8    4    5 ar
     9    4    6 ar
    10    4   11 1
    11    5    7 1
    12    7   12 1
    13    7   13 1
    14    7   14 1
    15    6   15 1
