MODEL 1
REMARK VINA RESULT:      -4.8      0.000      0.000
REMARK  1 active torsions:
REMARK  status: ('A' for Active; 'I' for Inactive)
REMARK    1  A    between atoms: C3_3  and  C8_8 
ROOT
HETATM    1  C1  UNL     1     -33.773  16.907  -4.111  1.00 20.00    -0.026 C 
HETATM    2  C2  UNL     1     -33.447  16.721  -5.399  1.00 20.00    -0.024 C 
HETATM    3  C4  UNL     1     -33.103  14.710  -4.325  1.00 20.00     0.018 C 
HETATM    4  C5  UNL     1     -35.452  15.085  -4.144  1.00 20.00     0.029 C 
HETATM    5  C6  UNL     1     -34.107  15.552  -3.532  1.00 20.00     0.010 C 
HETATM    6  C7  UNL     1     -33.585  15.242  -5.685  1.00 20.00     0.027 C 
HETATM    7  C8  UNL     1     -35.083  14.859  -5.638  1.00 20.00     0.052 C 
HETATM    8  C9  UNL     1     -35.987  15.594  -6.619  1.00 20.00     0.027 C 
ENDROOT
BRANCH   7   9
HETATM    9  C3  UNL     1     -35.265  13.391  -6.014  1.00 20.00     0.182 C 
HETATM   10  O10 UNL     1     -36.008  12.725  -5.241  1.00 20.00    -0.647 OA
HETATM   11  O11 UNL     1     -34.647  13.030  -7.054  1.00 20.00    -0.647 OA
ENDBRANCH   7   9
TORSDOF 1
ENDMDL
MODEL 2
REMARK VINA RESULT:      -4.8      0.835      1.263
REMARK  1 active torsions:
REMARK  status: ('A' for Active; 'I' for Inactive)
REMARK    1  A    between atoms: C3_3  and  C8_8 
ROOT
HETATM    1  C1  UNL     1     -33.358  16.649  -4.685  1.00 20.00    -0.026 C 
HETATM    2  C2  UNL     1     -33.295  15.992  -5.853  1.00 20.00    -0.024 C 
HETATM    3  C4  UNL     1     -33.563  14.402  -4.207  1.00 20.00     0.018 C 
HETATM    4  C5  UNL     1     -35.571  15.686  -4.122  1.00 20.00     0.029 C 
HETATM    5  C6  UNL     1     -34.080  15.752  -3.706  1.00 20.00     0.010 C 
HETATM    6  C7  UNL     1     -33.995  14.665  -5.659  1.00 20.00     0.027 C 
HETATM    7  C8  UNL     1     -35.510  14.919  -5.474  1.00 20.00     0.052 C 
HETATM    8  C9  UNL     1     -36.207  15.633  -6.625  1.00 20.00     0.027 C 
ENDROOT
BRANCH   7   9
HETATM    9  C3  UNL     1     -36.258  13.594  -5.368  1.00 20.00     0.182 C 
HETATM   10  O10 UNL     1     -35.615  12.579  -5.754  1.00 20.00    -0.647 OA
HETATM   11  O11 UNL     1     -37.429  13.683  -4.904  1.00 20.00    -0.647 OA
ENDBRANCH   7   9
TORSDOF 1
ENDMDL
MODEL 3
REMARK VINA RESULT:      -4.6      1.133      1.814
REMARK  1 active torsions:
REMARK  status: ('A' for Active; 'I' for Inactive)
REMARK    1  A    between atoms: C3_3  and  C8_8 
ROOT
HETATM    1  C1  UNL     1     -33.363  16.650  -4.968  1.00 20.00    -0.026 C 
HETATM    2  C2  UNL     1     -34.514  17.028  -5.543  1.00 20.00    -0.024 C 
HETATM    3  C4  UNL     1     -33.973  14.968  -6.425  1.00 20.00     0.018 C 
HETATM    4  C5  UNL     1     -34.343  14.543  -4.107  1.00 20.00     0.029 C 
HETATM    5  C6  UNL     1     -33.286  15.144  -5.068  1.00 20.00     0.010 C 
HETATM    6  C7  UNL     1     -35.217  15.772  -6.007  1.00 20.00     0.027 C 
HETATM    7  C8  UNL     1     -35.684  14.970  -4.769  1.00 20.00     0.052 C 
HETATM    8  C9  UNL     1     -36.636  15.698  -3.829  1.00 20.00     0.027 C 
ENDROOT
BRANCH   7   9
HETATM    9  C3  UNL     1     -36.477  13.742  -5.203  1.00 20.00     0.182 C 
HETATM   10  O10 UNL     1     -37.680  13.960  -5.517  1.00 20.00    -0.647 OA
HETATM   11  O11 UNL     1     -35.826  12.660  -5.193  1.00 20.00    -0.647 OA
ENDBRANCH   7   9
TORSDOF 1
ENDMDL
MODEL 4
REMARK VINA RESULT:      -4.4      1.364      2.546
REMARK  1 active torsions:
REMARK  status: ('A' for Active; 'I' for Inactive)
REMARK    1  A    between atoms: C3_3  and  C8_8 
ROOT
HETATM    1  C1  UNL     1     -33.814  16.660  -6.794  1.00 20.00    -0.026 C 
HETATM    2  C2  UNL     1     -34.989  17.078  -6.299  1.00 20.00    -0.024 C 
HETATM    3  C4  UNL     1     -35.429  15.211  -7.577  1.00 20.00     0.018 C 
HETATM    4  C5  UNL     1     -34.057  14.403  -5.801  1.00 20.00     0.029 C 
HETATM    5  C6  UNL     1     -33.965  15.194  -7.130  1.00 20.00     0.010 C 
HETATM    6  C7  UNL     1     -35.917  15.884  -6.284  1.00 20.00     0.027 C 
HETATM    7  C8  UNL     1     -35.421  14.875  -5.221  1.00 20.00     0.052 C 
HETATM    8  C9  UNL     1     -35.340  15.401  -3.794  1.00 20.00     0.027 C 
ENDROOT
BRANCH   7   9
HETATM    9  C3  UNL     1     -36.388  13.700  -5.115  1.00 20.00     0.182 C 
HETATM   10  O10 UNL     1     -37.592  14.011  -4.895  1.00 20.00    -0.647 OA
HETATM   11  O11 UNL     1     -35.859  12.563  -5.263  1.00 20.00    -0.647 OA
ENDBRANCH   7   9
TORSDOF 1
ENDMDL
MODEL 5
REMARK VINA RESULT:      -4.4      1.140      1.467
REMARK  1 active torsions:
REMARK  status: ('A' for Active; 'I' for Inactive)
REMARK    1  A    between atoms: C3_3  and  C8_8 
ROOT
HETATM    1  C1  UNL     1     -33.812  16.322  -3.513  1.00 20.00    -0.026 C 
HETATM    2  C2  UNL     1     -34.693  16.882  -4.354  1.00 20.00    -0.024 C 
HETATM    3  C4  UNL     1     -33.336  15.516  -5.621  1.00 20.00     0.018 C 
HETATM    4  C5  UNL     1     -34.477  14.022  -4.151  1.00 20.00     0.029 C 
HETATM    5  C6  UNL     1     -33.318  15.051  -4.162  1.00 20.00     0.010 C 
HETATM    6  C7  UNL     1     -34.804  15.972  -5.557  1.00 20.00     0.027 C 
HETATM    7  C8  UNL     1     -35.503  14.659  -5.132  1.00 20.00     0.052 C 
HETATM    8  C9  UNL     1     -36.903  14.811  -4.552  1.00 20.00     0.027 C 
ENDROOT
BRANCH   7   9
HETATM    9  C3  UNL     1     -35.712  13.755  -6.343  1.00 20.00     0.182 C 
HETATM   10  O10 UNL     1     -35.280  12.576  -6.216  1.00 20.00    -0.647 OA
HETATM   11  O11 UNL     1     -36.293  14.305  -7.320  1.00 20.00    -0.647 OA
ENDBRANCH   7   9
TORSDOF 1
ENDMDL
MODEL 6
REMARK VINA RESULT:      -4.3      1.491      2.373
REMARK  1 active torsions:
REMARK  status: ('A' for Active; 'I' for Inactive)
REMARK    1  A    between atoms: C3_3  and  C8_8 
ROOT
HETATM    1  C1  UNL     1     -33.078  15.497  -4.786  1.00 20.00    -0.026 C 
HETATM    2  C2  UNL     1     -33.490  14.265  -4.449  1.00 20.00    -0.024 C 
HETATM    3  C4  UNL     1     -35.173  15.720  -3.846  1.00 20.00     0.018 C 
HETATM    4  C5  UNL     1     -35.057  15.900  -6.222  1.00 20.00     0.029 C 
HETATM    5  C6  UNL     1     -34.312  16.355  -4.941  1.00 20.00     0.010 C 
HETATM    6  C7  UNL     1     -35.001  14.296  -4.402  1.00 20.00     0.027 C 
HETATM    7  C8  UNL     1     -35.545  14.474  -5.840  1.00 20.00     0.052 C 
HETATM    8  C9  UNL     1     -35.147  13.394  -6.837  1.00 20.00     0.027 C 
ENDROOT
BRANCH   7   9
HETATM    9  C3  UNL     1     -37.070  14.417  -5.839  1.00 20.00     0.182 C 
HETATM   10  O10 UNL     1     -37.637  15.152  -6.693  1.00 20.00    -0.647 OA
HETATM   11  O11 UNL     1     -37.570  13.637  -4.980  1.00 20.00    -0.647 OA
ENDBRANCH   7   9
TORSDOF 1
ENDMDL
MODEL 7
REMARK VINA RESULT:      -4.2      1.944      3.338
REMARK  1 active torsions:
REMARK  status: ('A' for Active; 'I' for Inactive)
REMARK    1  A    between atoms: C3_3  and  C8_8 
ROOT
HETATM    1  C1  UNL     1     -34.019  14.312  -7.830  1.00 20.00    -0.026 C 
HETATM    2  C2  UNL     1     -33.939  15.379  -7.022  1.00 20.00    -0.024 C 
HETATM    3  C4  UNL     1     -36.153  15.163  -7.624  1.00 20.00     0.018 C 
HETATM    4  C5  UNL     1     -35.681  13.183  -6.379  1.00 20.00     0.029 C 
HETATM    5  C6  UNL     1     -35.445  13.814  -7.775  1.00 20.00     0.010 C 
HETATM    6  C7  UNL     1     -35.307  15.580  -6.409  1.00 20.00     0.027 C 
HETATM    7  C8  UNL     1     -35.597  14.415  -5.433  1.00 20.00     0.052 C 
HETATM    8  C9  UNL     1     -34.609  14.250  -4.286  1.00 20.00     0.027 C 
ENDROOT
BRANCH   7   9
HETATM    9  C3  UNL     1     -36.932  14.635  -4.729  1.00 20.00     0.182 C 
HETATM   10  O10 UNL     1     -37.822  13.777  -4.980  1.00 20.00    -0.647 OA
HETATM   11  O11 UNL     1     -36.975  15.652  -3.981  1.00 20.00    -0.647 OA
ENDBRANCH   7   9
TORSDOF 1
ENDMDL
MODEL 8
REMARK VINA RESULT:      -4.2      1.669      2.448
REMARK  1 active torsions:
REMARK  status: ('A' for Active; 'I' for Inactive)
REMARK    1  A    between atoms: C3_3  and  C8_8 
ROOT
HETATM    1  C1  UNL     1     -34.958  18.246  -3.749  1.00 20.00    -0.026 C 
HETATM    2  C2  UNL     1     -33.666  17.907  -3.628  1.00 20.00    -0.024 C 
HETATM    3  C4  UNL     1     -34.882  16.330  -2.468  1.00 20.00     0.018 C 
HETATM    4  C5  UNL     1     -35.568  16.057  -4.737  1.00 20.00     0.029 C 
HETATM    5  C6  UNL     1     -35.773  16.995  -3.521  1.00 20.00     0.010 C 
HETATM    6  C7  UNL     1     -33.618  16.423  -3.339  1.00 20.00     0.027 C 
HETATM    7  C8  UNL     1     -34.072  15.651  -4.601  1.00 20.00     0.052 C 
HETATM    8  C9  UNL     1     -33.247  15.893  -5.858  1.00 20.00     0.027 C 
ENDROOT
BRANCH   7   9
HETATM    9  C3  UNL     1     -33.948  14.148  -4.374  1.00 20.00     0.182 C 
HETATM   10  O10 UNL     1     -32.779  13.732  -4.141  1.00 20.00    -0.647 OA
HETATM   11  O11 UNL     1     -35.035  13.510  -4.447  1.00 20.00    -0.647 OA
ENDBRANCH   7   9
TORSDOF 1
ENDMDL
MODEL 9
REMARK VINA RESULT:      -4.2      1.821      3.447
REMARK  1 active torsions:
REMARK  status: ('A' for Active; 'I' for Inactive)
REMARK    1  A    between atoms: C3_3  and  C8_8 
ROOT
HETATM    1  C1  UNL     1     -37.314  14.796  -6.267  1.00 20.00    -0.026 C 
HETATM    2  C2  UNL     1     -37.068  14.042  -5.186  1.00 20.00    -0.024 C 
HETATM    3  C4  UNL     1     -35.392  13.599  -6.704  1.00 20.00     0.018 C 
HETATM    4  C5  UNL     1     -35.099  15.901  -6.154  1.00 20.00     0.029 C 
HETATM    5  C6  UNL     1     -36.004  14.970  -7.000  1.00 20.00     0.010 C 
HETATM    6  C7  UNL     1     -35.587  13.731  -5.185  1.00 20.00     0.027 C 
HETATM    7  C8  UNL     1     -34.801  15.032  -4.898  1.00 20.00     0.052 C 
HETATM    8  C9  UNL     1     -35.118  15.721  -3.578  1.00 20.00     0.027 C 
ENDROOT
BRANCH   7   9
HETATM    9  C3  UNL     1     -33.308  14.736  -4.799  1.00 20.00     0.182 C 
HETATM   10  O10 UNL     1     -32.553  15.580  -5.357  1.00 20.00    -0.647 OA
HETATM   11  O11 UNL     1     -33.018  13.681  -4.170  1.00 20.00    -0.647 OA
ENDBRANCH   7   9
TORSDOF 1
ENDMDL
