MODEL 1
REMARK VINA RESULT:      -4.5      0.000      0.000
REMARK  1 active torsions:
REMARK  status: ('A' for Active; 'I' for Inactive)
REMARK    1  A    between atoms: C4_4  and  C5_5 
ROOT
HETATM    1  C1  UNL     1     -34.744   5.825   5.222  1.00 20.00     0.029 C 
HETATM    2  C2  UNL     1     -33.740   6.951   5.215  1.00 20.00     0.035 C 
HETATM    3  C3  UNL     1     -34.257   4.965   4.074  1.00 20.00     0.168 C 
HETATM    4  C4  UNL     1     -33.516   7.147   3.725  1.00 20.00     0.131 C 
HETATM    5  O6  UNL     1     -33.631   5.844   3.128  1.00 20.00    -0.385 OA
ENDROOT
BRANCH   4   6
HETATM    6  C5  UNL     1     -32.164   7.749   3.392  1.00 20.00     0.117 C 
HETATM    7 BR7  UNL     1     -32.279   8.732   1.720  1.00 20.00    -0.094 Br
ENDBRANCH   4   6
TORSDOF 1
ENDMDL
MODEL 2
REMARK VINA RESULT:      -4.3      2.539      3.527
REMARK  1 active torsions:
REMARK  status: ('A' for Active; 'I' for Inactive)
REMARK    1  A    between atoms: C4_4  and  C5_5 
ROOT
HETATM    1  C1  UNL     1     -32.569   7.558   2.425  1.00 20.00     0.029 C 
HETATM    2  C2  UNL     1     -33.522   6.560   3.036  1.00 20.00     0.035 C 
HETATM    3  C3  UNL     1     -31.754   7.988   3.627  1.00 20.00     0.168 C 
HETATM    4  C4  UNL     1     -33.817   7.209   4.378  1.00 20.00     0.131 C 
HETATM    5  O6  UNL     1     -32.609   7.879   4.774  1.00 20.00    -0.385 OA
ENDROOT
BRANCH   4   6
HETATM    6  C5  UNL     1     -34.231   6.218   5.450  1.00 20.00     0.117 C 
HETATM    7 BR7  UNL     1     -34.480   4.462   4.658  1.00 20.00    -0.094 Br
ENDBRANCH   4   6
TORSDOF 1
ENDMDL
MODEL 3
REMARK VINA RESULT:      -4.3      1.229      1.709
REMARK  1 active torsions:
REMARK  status: ('A' for Active; 'I' for Inactive)
REMARK    1  A    between atoms: C4_4  and  C5_5 
ROOT
HETATM    1  C1  UNL     1     -34.624   5.621   5.509  1.00 20.00     0.029 C 
HETATM    2  C2  UNL     1     -34.692   5.719   4.005  1.00 20.00     0.035 C 
HETATM    3  C3  UNL     1     -33.982   6.941   5.881  1.00 20.00     0.168 C 
HETATM    4  C4  UNL     1     -33.381   6.421   3.690  1.00 20.00     0.131 C 
HETATM    5  O6  UNL     1     -33.132   7.316   4.787  1.00 20.00    -0.385 OA
ENDROOT
BRANCH   4   6
HETATM    6  C5  UNL     1     -33.411   7.198   2.388  1.00 20.00     0.117 C 
HETATM    7 BR7  UNL     1     -31.911   8.432   2.326  1.00 20.00    -0.094 Br
ENDBRANCH   4   6
TORSDOF 1
ENDMDL
MODEL 4
REMARK VINA RESULT:      -3.9      2.466      3.462
REMARK  1 active torsions:
REMARK  status: ('A' for Active; 'I' for Inactive)
REMARK    1  A    between atoms: C4_4  and  C5_5 
ROOT
HETATM    1  C1  UNL     1     -31.666   8.286   3.504  1.00 20.00     0.029 C 
HETATM    2  C2  UNL     1     -32.723   7.591   4.327  1.00 20.00     0.035 C 
HETATM    3  C3  UNL     1     -32.277   8.256   2.119  1.00 20.00     0.168 C 
HETATM    4  C4  UNL     1     -33.193   6.513   3.365  1.00 20.00     0.131 C 
HETATM    5  O6  UNL     1     -33.097   7.081   2.048  1.00 20.00    -0.385 OA
ENDROOT
BRANCH   4   6
HETATM    6  C5  UNL     1     -34.614   6.049   3.624  1.00 20.00     0.117 C 
HETATM    7 BR7  UNL     1     -34.687   5.058   5.293  1.00 20.00    -0.094 Br
ENDBRANCH   4   6
TORSDOF 1
ENDMDL
MODEL 5
REMARK VINA RESULT:      -3.9      1.286      1.859
REMARK  1 active torsions:
REMARK  status: ('A' for Active; 'I' for Inactive)
REMARK    1  A    between atoms: C4_4  and  C5_5 
ROOT
HETATM    1  C1  UNL     1     -34.131   5.975   3.531  1.00 20.00     0.029 C 
HETATM    2  C2  UNL     1     -33.316   6.786   2.553  1.00 20.00     0.035 C 
HETATM    3  C3  UNL     1     -34.091   6.846   4.769  1.00 20.00     0.168 C 
HETATM    4  C4  UNL     1     -32.232   7.347   3.457  1.00 20.00     0.131 C 
HETATM    5  O6  UNL     1     -32.849   7.564   4.737  1.00 20.00    -0.385 OA
ENDROOT
BRANCH   4   6
HETATM    6  C5  UNL     1     -31.633   8.644   2.948  1.00 20.00     0.117 C 
HETATM    7 BR7  UNL     1     -32.309   9.025   1.168  1.00 20.00    -0.094 Br
ENDBRANCH   4   6
TORSDOF 1
ENDMDL
MODEL 6
REMARK VINA RESULT:      -3.9      1.974      2.079
REMARK  1 active torsions:
REMARK  status: ('A' for Active; 'I' for Inactive)
REMARK    1  A    between atoms: C4_4  and  C5_5 
ROOT
HETATM    1  C1  UNL     1     -33.998   7.175   6.201  1.00 20.00     0.029 C 
HETATM    2  C2  UNL     1     -33.116   7.529   5.029  1.00 20.00     0.035 C 
HETATM    3  C3  UNL     1     -34.559   5.834   5.776  1.00 20.00     0.168 C 
HETATM    4  C4  UNL     1     -33.943   7.013   3.863  1.00 20.00     0.131 C 
HETATM    5  O6  UNL     1     -34.625   5.842   4.343  1.00 20.00    -0.385 OA
ENDROOT
BRANCH   4   6
HETATM    6  C5  UNL     1     -33.113   6.661   2.643  1.00 20.00     0.117 C 
HETATM    7 BR7  UNL     1     -33.049   4.732   2.427  1.00 20.00    -0.094 Br
ENDBRANCH   4   6
TORSDOF 1
ENDMDL
MODEL 7
REMARK VINA RESULT:      -3.4      1.846      2.511
REMARK  1 active torsions:
REMARK  status: ('A' for Active; 'I' for Inactive)
REMARK    1  A    between atoms: C4_4  and  C5_5 
ROOT
HETATM    1  C1  UNL     1     -32.552   7.481   4.295  1.00 20.00     0.029 C 
HETATM    2  C2  UNL     1     -31.633   8.297   3.418  1.00 20.00     0.035 C 
HETATM    3  C3  UNL     1     -33.284   6.633   3.277  1.00 20.00     0.168 C 
HETATM    4  C4  UNL     1     -32.522   8.562   2.215  1.00 20.00     0.131 C 
HETATM    5  O6  UNL     1     -33.351   7.397   2.064  1.00 20.00    -0.385 OA
ENDROOT
BRANCH   4   6
HETATM    6  C5  UNL     1     -31.748   8.812   0.935  1.00 20.00     0.117 C 
HETATM    7 BR7  UNL     1     -32.951   9.464  -0.443  1.00 20.00    -0.094 Br
ENDBRANCH   4   6
TORSDOF 1
ENDMDL
MODEL 8
REMARK VINA RESULT:      -3.3      2.264      3.210
REMARK  1 active torsions:
REMARK  status: ('A' for Active; 'I' for Inactive)
REMARK    1  A    between atoms: C4_4  and  C5_5 
ROOT
HETATM    1  C1  UNL     1     -33.002   5.449   2.112  1.00 20.00     0.029 C 
HETATM    2  C2  UNL     1     -33.482   4.798   3.386  1.00 20.00     0.035 C 
HETATM    3  C3  UNL     1     -32.951   6.910   2.508  1.00 20.00     0.168 C 
HETATM    4  C4  UNL     1     -34.479   5.826   3.893  1.00 20.00     0.131 C 
HETATM    5  O6  UNL     1     -33.964   7.110   3.505  1.00 20.00    -0.385 OA
ENDROOT
BRANCH   4   6
HETATM    6  C5  UNL     1     -34.678   5.784   5.396  1.00 20.00     0.117 C 
HETATM    7 BR7  UNL     1     -33.781   7.297   6.219  1.00 20.00    -0.094 Br
ENDBRANCH   4   6
TORSDOF 1
ENDMDL
MODEL 9
REMARK VINA RESULT:      -3.3     11.456     11.939
REMARK  1 active torsions:
REMARK  status: ('A' for Active; 'I' for Inactive)
REMARK    1  A    between atoms: C4_4  and  C5_5 
ROOT
HETATM    1  C1  UNL     1     -33.833  15.831  -3.591  1.00 20.00     0.029 C 
HETATM    2  C2  UNL     1     -35.222  15.384  -3.976  1.00 20.00     0.035 C 
HETATM    3  C3  UNL     1     -32.984  15.160  -4.649  1.00 20.00     0.168 C 
HETATM    4  C4  UNL     1     -34.966  13.955  -4.423  1.00 20.00     0.131 C 
HETATM    5  O6  UNL     1     -33.661  13.952  -5.026  1.00 20.00    -0.385 OA
ENDROOT
BRANCH   4   6
HETATM    6  C5  UNL     1     -35.992  13.439  -5.413  1.00 20.00     0.117 C 
HETATM    7 BR7  UNL     1     -35.181  13.269  -7.170  1.00 20.00    -0.094 Br
ENDBRANCH   4   6
TORSDOF 1
ENDMDL
