MODEL 1
REMARK VINA RESULT:      -5.5      0.000      0.000
REMARK  1 active torsions:
REMARK  status: ('A' for Active; 'I' for Inactive)
REMARK    1  A    between atoms: C8_8  and  N9_9 
ROOT
HETATM    1  C1  UNL     1     -32.707   7.923   1.977  1.00 20.00     0.158 C 
HETATM    2  N9  UNL     1     -33.029   6.801   2.109  1.00 20.00    -0.270 NA
HETATM    3  S10 UNL     1     -32.275   9.441   1.768  1.00 20.00    -0.055 SA
ENDROOT
BRANCH   2   4
HETATM    4  C8  UNL     1     -33.060   6.328   3.495  1.00 20.00     0.118 C 
HETATM    5  C5  UNL     1     -33.406   4.813   3.532  1.00 20.00     0.036 C 
HETATM    6  C6  UNL     1     -34.729   4.786   4.331  1.00 20.00     0.010 C 
HETATM    7  C2  UNL     1     -34.433   5.238   5.743  1.00 20.00    -0.026 C 
HETATM    8  C4  UNL     1     -35.411   6.055   3.816  1.00 20.00     0.019 C 
HETATM    9  C3  UNL     1     -34.152   6.548   5.690  1.00 20.00    -0.024 C 
HETATM   10  C7  UNL     1     -34.254   6.968   4.241  1.00 20.00     0.033 C 
ENDBRANCH   2   4
TORSDOF 1
ENDMDL
MODEL 2
REMARK VINA RESULT:      -3.9     12.260     13.070
REMARK  1 active torsions:
REMARK  status: ('A' for Active; 'I' for Inactive)
REMARK    1  A    between atoms: C8_8  and  N9_9 
ROOT
HETATM    1  C1  UNL     1     -31.250  18.637   0.657  1.00 20.00     0.158 C 
HETATM    2  N9  UNL     1     -31.508  18.420  -0.468  1.00 20.00    -0.270 NA
HETATM    3  S10 UNL     1     -30.874  18.918   2.179  1.00 20.00    -0.055 SA
ENDROOT
BRANCH   2   4
HETATM    4  C8  UNL     1     -32.833  18.875  -0.895  1.00 20.00     0.118 C 
HETATM    5  C5  UNL     1     -33.935  18.126  -0.094  1.00 20.00     0.036 C 
HETATM    6  C6  UNL     1     -34.712  17.378  -1.201  1.00 20.00     0.010 C 
HETATM    7  C2  UNL     1     -35.384  18.408  -2.080  1.00 20.00    -0.026 C 
HETATM    8  C4  UNL     1     -33.572  16.975  -2.140  1.00 20.00     0.019 C 
HETATM    9  C3  UNL     1     -34.418  19.031  -2.772  1.00 20.00    -0.024 C 
HETATM   10  C7  UNL     1     -33.101  18.420  -2.349  1.00 20.00     0.033 C 
ENDBRANCH   2   4
TORSDOF 1
ENDMDL
MODEL 3
REMARK VINA RESULT:      -3.9     11.614     12.464
REMARK  1 active torsions:
REMARK  status: ('A' for Active; 'I' for Inactive)
REMARK    1  A    between atoms: C8_8  and  N9_9 
ROOT
HETATM    1  C1  UNL     1     -34.352  17.028  -1.767  1.00 20.00     0.158 C 
HETATM    2  N9  UNL     1     -33.571  16.752  -2.600  1.00 20.00    -0.270 NA
HETATM    3  S10 UNL     1     -35.388  17.406  -0.618  1.00 20.00    -0.055 SA
ENDROOT
BRANCH   2   4
HETATM    4  C8  UNL     1     -34.148  16.465  -3.914  1.00 20.00     0.118 C 
HETATM    5  C5  UNL     1     -35.233  15.358  -3.788  1.00 20.00     0.036 C 
HETATM    6  C6  UNL     1     -34.666  14.224  -4.673  1.00 20.00     0.010 C 
HETATM    7  C2  UNL     1     -34.651  14.710  -6.104  1.00 20.00    -0.026 C 
HETATM    8  C4  UNL     1     -33.169  14.335  -4.372  1.00 20.00     0.019 C 
HETATM    9  C3  UNL     1     -33.700  15.652  -6.194  1.00 20.00    -0.024 C 
HETATM   10  C7  UNL     1     -33.087  15.799  -4.821  1.00 20.00     0.033 C 
ENDBRANCH   2   4
TORSDOF 1
ENDMDL
MODEL 4
REMARK VINA RESULT:      -3.9     11.987     12.573
REMARK  1 active torsions:
REMARK  status: ('A' for Active; 'I' for Inactive)
REMARK    1  A    between atoms: C8_8  and  N9_9 
ROOT
HETATM    1  C1  UNL     1     -33.783  15.112  -6.022  1.00 20.00     0.158 C 
HETATM    2  N9  UNL     1     -33.300  15.966  -5.376  1.00 20.00    -0.270 NA
HETATM    3  S10 UNL     1     -34.426  13.966  -6.922  1.00 20.00    -0.055 SA
ENDROOT
BRANCH   2   4
HETATM    4  C8  UNL     1     -33.585  15.889  -3.942  1.00 20.00     0.118 C 
HETATM    5  C5  UNL     1     -35.050  15.420  -3.715  1.00 20.00     0.036 C 
HETATM    6  C6  UNL     1     -35.678  16.617  -2.965  1.00 20.00     0.010 C 
HETATM    7  C2  UNL     1     -35.004  16.731  -1.617  1.00 20.00    -0.026 C 
HETATM    8  C4  UNL     1     -34.998  17.795  -3.668  1.00 20.00     0.019 C 
HETATM    9  C3  UNL     1     -33.749  17.150  -1.834  1.00 20.00    -0.024 C 
HETATM   10  C7  UNL     1     -33.583  17.309  -3.328  1.00 20.00     0.033 C 
ENDBRANCH   2   4
TORSDOF 1
ENDMDL
MODEL 5
REMARK VINA RESULT:      -3.8     11.916     12.651
REMARK  1 active torsions:
REMARK  status: ('A' for Active; 'I' for Inactive)
REMARK    1  A    between atoms: C8_8  and  N9_9 
ROOT
HETATM    1  C1  UNL     1     -34.294  15.714  -3.999  1.00 20.00     0.158 C 
HETATM    2  N9  UNL     1     -33.895  16.782  -3.717  1.00 20.00    -0.270 NA
HETATM    3  S10 UNL     1     -34.838  14.275  -4.411  1.00 20.00    -0.055 SA
ENDROOT
BRANCH   2   4
HETATM    4  C8  UNL     1     -33.542  16.954  -2.306  1.00 20.00     0.118 C 
HETATM    5  C5  UNL     1     -34.827  16.937  -1.431  1.00 20.00     0.036 C 
HETATM    6  C6  UNL     1     -34.815  18.340  -0.782  1.00 20.00     0.010 C 
HETATM    7  C2  UNL     1     -33.618  18.420   0.138  1.00 20.00    -0.026 C 
HETATM    8  C4  UNL     1     -34.283  19.194  -1.935  1.00 20.00     0.019 C 
HETATM    9  C3  UNL     1     -32.523  18.448  -0.636  1.00 20.00    -0.024 C 
HETATM   10  C7  UNL     1     -32.990  18.380  -2.073  1.00 20.00     0.033 C 
ENDBRANCH   2   4
TORSDOF 1
ENDMDL
MODEL 6
REMARK VINA RESULT:      -3.8     11.868     12.919
REMARK  1 active torsions:
REMARK  status: ('A' for Active; 'I' for Inactive)
REMARK    1  A    between atoms: C8_8  and  N9_9 
ROOT
HETATM    1  C1  UNL     1     -38.636  14.667  -5.189  1.00 20.00     0.158 C 
HETATM    2  N9  UNL     1     -37.682  14.007  -5.003  1.00 20.00    -0.270 NA
HETATM    3  S10 UNL     1     -39.945  15.537  -5.447  1.00 20.00    -0.055 SA
ENDROOT
BRANCH   2   4
HETATM    4  C8  UNL     1     -36.476  14.755  -4.644  1.00 20.00     0.118 C 
HETATM    5  C5  UNL     1     -36.163  15.814  -5.738  1.00 20.00     0.036 C 
HETATM    6  C6  UNL     1     -34.774  15.372  -6.252  1.00 20.00     0.010 C 
HETATM    7  C2  UNL     1     -33.780  15.547  -5.126  1.00 20.00    -0.026 C 
HETATM    8  C4  UNL     1     -34.913  13.848  -6.207  1.00 20.00     0.019 C 
HETATM    9  C3  UNL     1     -34.058  14.616  -4.202  1.00 20.00    -0.024 C 
HETATM   10  C7  UNL     1     -35.242  13.824  -4.709  1.00 20.00     0.033 C 
ENDBRANCH   2   4
TORSDOF 1
ENDMDL
MODEL 7
REMARK VINA RESULT:      -3.6     11.896     12.908
REMARK  1 active torsions:
REMARK  status: ('A' for Active; 'I' for Inactive)
REMARK    1  A    between atoms: C8_8  and  N9_9 
ROOT
HETATM    1  C1  UNL     1     -38.826  14.762  -5.195  1.00 20.00     0.158 C 
HETATM    2  N9  UNL     1     -37.924  14.083  -4.872  1.00 20.00    -0.270 NA
HETATM    3  S10 UNL     1     -40.068  15.667  -5.614  1.00 20.00    -0.055 SA
ENDROOT
BRANCH   2   4
HETATM    4  C8  UNL     1     -36.642  14.429  -5.489  1.00 20.00     0.118 C 
HETATM    5  C5  UNL     1     -35.510  13.545  -4.892  1.00 20.00     0.036 C 
HETATM    6  C6  UNL     1     -34.572  14.588  -4.242  1.00 20.00     0.010 C 
HETATM    7  C2  UNL     1     -33.979  15.436  -5.344  1.00 20.00    -0.026 C 
HETATM    8  C4  UNL     1     -35.586  15.594  -3.691  1.00 20.00     0.019 C 
HETATM    9  C3  UNL     1     -34.967  16.199  -5.834  1.00 20.00    -0.024 C 
HETATM   10  C7  UNL     1     -36.221  15.854  -5.063  1.00 20.00     0.033 C 
ENDBRANCH   2   4
TORSDOF 1
ENDMDL
MODEL 8
REMARK VINA RESULT:      -3.6     11.737     12.515
REMARK  1 active torsions:
REMARK  status: ('A' for Active; 'I' for Inactive)
REMARK    1  A    between atoms: C8_8  and  N9_9 
ROOT
HETATM    1  C1  UNL     1     -34.279  16.919  -2.182  1.00 20.00     0.158 C 
HETATM    2  N9  UNL     1     -33.568  16.750  -3.101  1.00 20.00    -0.270 NA
HETATM    3  S10 UNL     1     -35.230  17.175  -0.930  1.00 20.00    -0.055 SA
ENDROOT
BRANCH   2   4
HETATM    4  C8  UNL     1     -33.760  15.479  -3.803  1.00 20.00     0.118 C 
HETATM    5  C5  UNL     1     -33.003  15.502  -5.160  1.00 20.00     0.036 C 
HETATM    6  C6  UNL     1     -34.143  15.329  -6.189  1.00 20.00     0.010 C 
HETATM    7  C2  UNL     1     -34.737  13.951  -6.002  1.00 20.00    -0.026 C 
HETATM    8  C4  UNL     1     -35.256  16.155  -5.538  1.00 20.00     0.019 C 
HETATM    9  C3  UNL     1     -35.397  13.958  -4.835  1.00 20.00    -0.024 C 
HETATM   10  C7  UNL     1     -35.237  15.338  -4.240  1.00 20.00     0.033 C 
ENDBRANCH   2   4
TORSDOF 1
ENDMDL
MODEL 9
REMARK VINA RESULT:      -3.5     11.903     13.246
REMARK  1 active torsions:
REMARK  status: ('A' for Active; 'I' for Inactive)
REMARK    1  A    between atoms: C8_8  and  N9_9 
ROOT
HETATM    1  C1  UNL     1     -38.683  15.053  -4.896  1.00 20.00     0.158 C 
HETATM    2  N9  UNL     1     -37.638  14.722  -4.474  1.00 20.00    -0.270 NA
HETATM    3  S10 UNL     1     -40.106  15.515  -5.442  1.00 20.00    -0.055 SA
ENDROOT
BRANCH   2   4
HETATM    4  C8  UNL     1     -36.835  13.907  -5.387  1.00 20.00     0.118 C 
HETATM    5  C5  UNL     1     -35.409  13.702  -4.802  1.00 20.00     0.036 C 
HETATM    6  C6  UNL     1     -34.506  14.363  -5.869  1.00 20.00     0.010 C 
HETATM    7  C2  UNL     1     -34.615  13.555  -7.141  1.00 20.00    -0.026 C 
HETATM    8  C4  UNL     1     -35.362  15.564  -6.278  1.00 20.00     0.019 C 
HETATM    9  C3  UNL     1     -35.845  13.757  -7.636  1.00 20.00    -0.024 C 
HETATM   10  C7  UNL     1     -36.558  14.695  -6.689  1.00 20.00     0.033 C 
ENDBRANCH   2   4
TORSDOF 1
ENDMDL
