MODEL 1
REMARK VINA RESULT:      -4.5      0.000      0.000
REMARK  2 active torsions:
REMARK  status: ('A' for Active; 'I' for Inactive)
REMARK    1  A    between atoms: C3_3  and  C5_5 
REMARK    2  A    between atoms: C5_5  and  C6_6 
ROOT
HETATM    1  C1  UNL     1     -35.029   5.603   4.111  1.00 20.00     0.179 C 
HETATM    2  C2  UNL     1     -34.457   5.622   5.517  1.00 20.00     0.103 C 
HETATM    3  C3  UNL     1     -33.607   7.407   3.823  1.00 20.00     0.182 C 
HETATM    4  O7  UNL     1     -34.058   6.182   3.231  1.00 20.00    -0.375 OA
HETATM    5  S8  UNL     1     -33.724   7.263   5.626  1.00 20.00    -0.135 SA
ENDROOT
BRANCH   3   6
HETATM    6  C5  UNL     1     -32.179   7.669   3.382  1.00 20.00     0.042 C 
BRANCH   6   7
HETATM    7  C6  UNL     1     -32.106   8.043   1.902  1.00 20.00    -0.001 C 
HETATM    8  C4  UNL     1     -32.497   9.493   1.671  1.00 20.00     0.005 C 
ENDBRANCH   6   7
ENDBRANCH   3   6
TORSDOF 2
ENDMDL
MODEL 2
REMARK VINA RESULT:      -4.3      1.000      1.051
REMARK  2 active torsions:
REMARK  status: ('A' for Active; 'I' for Inactive)
REMARK    1  A    between atoms: C3_3  and  C5_5 
REMARK    2  A    between atoms: C5_5  and  C6_6 
ROOT
HETATM    1  C1  UNL     1     -34.814   4.649   4.720  1.00 20.00     0.179 C 
HETATM    2  C2  UNL     1     -34.293   5.536   5.836  1.00 20.00     0.103 C 
HETATM    3  C3  UNL     1     -33.877   6.286   3.378  1.00 20.00     0.182 C 
HETATM    4  O7  UNL     1     -33.999   4.870   3.563  1.00 20.00    -0.375 OA
HETATM    5  S8  UNL     1     -33.990   7.099   4.994  1.00 20.00    -0.135 SA
ENDROOT
BRANCH   3   6
HETATM    6  C5  UNL     1     -32.549   6.580   2.705  1.00 20.00     0.042 C 
BRANCH   6   7
HETATM    7  C6  UNL     1     -32.086   8.011   2.971  1.00 20.00    -0.001 C 
HETATM    8  C4  UNL     1     -32.080   8.843   1.699  1.00 20.00     0.005 C 
ENDBRANCH   6   7
ENDBRANCH   3   6
TORSDOF 2
ENDMDL
MODEL 3
REMARK VINA RESULT:      -4.2      1.520      1.673
REMARK  2 active torsions:
REMARK  status: ('A' for Active; 'I' for Inactive)
REMARK    1  A    between atoms: C3_3  and  C5_5 
REMARK    2  A    between atoms: C5_5  and  C6_6 
ROOT
HETATM    1  C1  UNL     1     -34.233   6.231   5.460  1.00 20.00     0.179 C 
HETATM    2  C2  UNL     1     -34.847   5.290   4.439  1.00 20.00     0.103 C 
HETATM    3  C3  UNL     1     -33.033   6.969   3.622  1.00 20.00     0.182 C 
HETATM    4  O7  UNL     1     -33.781   7.400   4.766  1.00 20.00    -0.375 OA
HETATM    5  S8  UNL     1     -33.679   5.367   3.072  1.00 20.00    -0.135 SA
ENDROOT
BRANCH   3   6
HETATM    6  C5  UNL     1     -33.156   8.018   2.532  1.00 20.00     0.042 C 
BRANCH   6   7
HETATM    7  C6  UNL     1     -31.790   8.411   1.972  1.00 20.00    -0.001 C 
HETATM    8  C4  UNL     1     -31.918   9.159   0.656  1.00 20.00     0.005 C 
ENDBRANCH   6   7
ENDBRANCH   3   6
TORSDOF 2
ENDMDL
MODEL 4
REMARK VINA RESULT:      -3.5      1.789      4.018
REMARK  2 active torsions:
REMARK  status: ('A' for Active; 'I' for Inactive)
REMARK    1  A    between atoms: C3_3  and  C5_5 
REMARK    2  A    between atoms: C5_5  and  C6_6 
ROOT
HETATM    1  C1  UNL     1     -31.789   8.361   3.667  1.00 20.00     0.179 C 
HETATM    2  C2  UNL     1     -31.984   7.306   2.593  1.00 20.00     0.103 C 
HETATM    3  C3  UNL     1     -33.737   7.439   4.513  1.00 20.00     0.182 C 
HETATM    4  O7  UNL     1     -32.424   7.895   4.864  1.00 20.00    -0.375 OA
HETATM    5  S8  UNL     1     -33.710   6.837   2.804  1.00 20.00    -0.135 SA
ENDROOT
BRANCH   3   6
HETATM    6  C5  UNL     1     -34.148   6.342   5.478  1.00 20.00     0.042 C 
BRANCH   6   7
HETATM    7  C6  UNL     1     -34.973   5.260   4.783  1.00 20.00    -0.001 C 
HETATM    8  C4  UNL     1     -34.187   3.968   4.631  1.00 20.00     0.005 C 
ENDBRANCH   6   7
ENDBRANCH   3   6
TORSDOF 2
ENDMDL
MODEL 5
REMARK VINA RESULT:      -3.5      1.444      3.908
REMARK  2 active torsions:
REMARK  status: ('A' for Active; 'I' for Inactive)
REMARK    1  A    between atoms: C3_3  and  C5_5 
REMARK    2  A    between atoms: C5_5  and  C6_6 
ROOT
HETATM    1  C1  UNL     1     -32.528   7.990   1.363  1.00 20.00     0.179 C 
HETATM    2  C2  UNL     1     -31.917   9.090   2.213  1.00 20.00     0.103 C 
HETATM    3  C3  UNL     1     -32.821   6.967   3.420  1.00 20.00     0.182 C 
HETATM    4  O7  UNL     1     -33.465   7.274   2.176  1.00 20.00    -0.375 OA
HETATM    5  S8  UNL     1     -31.595   8.253   3.775  1.00 20.00    -0.135 SA
ENDROOT
BRANCH   3   6
HETATM    6  C5  UNL     1     -33.873   6.891   4.511  1.00 20.00     0.042 C 
BRANCH   6   7
HETATM    7  C6  UNL     1     -34.938   5.842   4.196  1.00 20.00    -0.001 C 
HETATM    8  C4  UNL     1     -34.478   4.445   4.578  1.00 20.00     0.005 C 
ENDBRANCH   6   7
ENDBRANCH   3   6
TORSDOF 2
ENDMDL
MODEL 6
REMARK VINA RESULT:      -3.5     11.396     11.599
REMARK  2 active torsions:
REMARK  status: ('A' for Active; 'I' for Inactive)
REMARK    1  A    between atoms: C3_3  and  C5_5 
REMARK    2  A    between atoms: C5_5  and  C6_6 
ROOT
HETATM    1  C1  UNL     1     -35.930  13.302  -5.266  1.00 20.00     0.179 C 
HETATM    2  C2  UNL     1     -36.975  14.394  -5.120  1.00 20.00     0.103 C 
HETATM    3  C3  UNL     1     -34.472  15.044  -4.816  1.00 20.00     0.182 C 
HETATM    4  O7  UNL     1     -34.784  13.682  -4.495  1.00 20.00    -0.375 OA
HETATM    5  S8  UNL     1     -36.002  15.901  -5.277  1.00 20.00    -0.135 SA
ENDROOT
BRANCH   3   6
HETATM    6  C5  UNL     1     -33.817  15.694  -3.612  1.00 20.00     0.042 C 
BRANCH   6   7
HETATM    7  C6  UNL     1     -34.853  16.285  -2.657  1.00 20.00    -0.001 C 
HETATM    8  C4  UNL     1     -34.196  17.078  -1.539  1.00 20.00     0.005 C 
ENDBRANCH   6   7
ENDBRANCH   3   6
TORSDOF 2
ENDMDL
MODEL 7
REMARK VINA RESULT:      -3.4     11.453     12.319
REMARK  2 active torsions:
REMARK  status: ('A' for Active; 'I' for Inactive)
REMARK    1  A    between atoms: C3_3  and  C5_5 
REMARK    2  A    between atoms: C5_5  and  C6_6 
ROOT
HETATM    1  C1  UNL     1     -34.404  13.672  -7.258  1.00 20.00     0.179 C 
HETATM    2  C2  UNL     1     -34.352  15.153  -7.588  1.00 20.00     0.103 C 
HETATM    3  C3  UNL     1     -33.838  14.423  -5.143  1.00 20.00     0.182 C 
HETATM    4  O7  UNL     1     -34.707  13.541  -5.864  1.00 20.00    -0.375 OA
HETATM    5  S8  UNL     1     -33.432  15.838  -6.200  1.00 20.00    -0.135 SA
ENDROOT
BRANCH   3   6
HETATM    6  C5  UNL     1     -34.536  14.867  -3.870  1.00 20.00     0.042 C 
BRANCH   6   7
HETATM    7  C6  UNL     1     -33.902  16.131  -3.292  1.00 20.00    -0.001 C 
HETATM    8  C4  UNL     1     -34.699  16.668  -2.113  1.00 20.00     0.005 C 
ENDBRANCH   6   7
ENDBRANCH   3   6
TORSDOF 2
ENDMDL
MODEL 8
REMARK VINA RESULT:      -3.3     11.428     11.905
REMARK  2 active torsions:
REMARK  status: ('A' for Active; 'I' for Inactive)
REMARK    1  A    between atoms: C3_3  and  C5_5 
REMARK    2  A    between atoms: C5_5  and  C6_6 
ROOT
HETATM    1  C1  UNL     1     -35.237  14.012  -5.450  1.00 20.00     0.179 C 
HETATM    2  C2  UNL     1     -34.802  15.065  -6.453  1.00 20.00     0.103 C 
HETATM    3  C3  UNL     1     -33.768  15.146  -4.066  1.00 20.00     0.182 C 
HETATM    4  O7  UNL     1     -35.075  14.560  -4.136  1.00 20.00    -0.375 OA
HETATM    5  S8  UNL     1     -33.292  15.715  -5.719  1.00 20.00    -0.135 SA
ENDROOT
BRANCH   3   6
HETATM    6  C5  UNL     1     -33.798  16.294  -3.074  1.00 20.00     0.042 C 
BRANCH   6   7
HETATM    7  C6  UNL     1     -35.204  16.526  -2.523  1.00 20.00    -0.001 C 
HETATM    8  C4  UNL     1     -35.168  17.013  -1.083  1.00 20.00     0.005 C 
ENDBRANCH   6   7
ENDBRANCH   3   6
TORSDOF 2
ENDMDL
MODEL 9
REMARK VINA RESULT:      -3.2     11.248     12.119
REMARK  2 active torsions:
REMARK  status: ('A' for Active; 'I' for Inactive)
REMARK    1  A    between atoms: C3_3  and  C5_5 
REMARK    2  A    between atoms: C5_5  and  C6_6 
ROOT
HETATM    1  C1  UNL     1     -32.843  14.753  -4.404  1.00 20.00     0.179 C 
HETATM    2  C2  UNL     1     -33.256  15.923  -5.278  1.00 20.00     0.103 C 
HETATM    3  C3  UNL     1     -35.114  14.305  -4.440  1.00 20.00     0.182 C 
HETATM    4  O7  UNL     1     -33.815  13.713  -4.571  1.00 20.00    -0.375 OA
HETATM    5  S8  UNL     1     -35.030  16.029  -4.991  1.00 20.00    -0.135 SA
ENDROOT
BRANCH   3   6
HETATM    6  C5  UNL     1     -36.102  13.507  -5.272  1.00 20.00     0.042 C 
BRANCH   6   7
HETATM    7  C6  UNL     1     -36.264  14.096  -6.672  1.00 20.00    -0.001 C 
HETATM    8  C4  UNL     1     -35.405  13.365  -7.690  1.00 20.00     0.005 C 
ENDBRANCH   6   7
ENDBRANCH   3   6
TORSDOF 2
ENDMDL
