MODEL 1
REMARK VINA RESULT:      -5.2      0.000      0.000
REMARK  0 active torsions:
REMARK  status: ('A' for Active; 'I' for Inactive)
ROOT
HETATM    1  C1  UNL     1     -32.110   7.986   2.044  1.00 20.00     0.136 A 
HETATM    2  C2  UNL     1     -31.623   8.654   3.141  1.00 20.00     0.136 A 
HETATM    3  C3  UNL     1     -33.459   6.717   3.407  1.00 20.00     0.059 A 
HETATM    4  C4  UNL     1     -32.974   7.401   4.516  1.00 20.00     0.059 A 
HETATM    5  C5  UNL     1     -34.526   5.665   3.529  1.00 20.00     0.061 C 
HETATM    6  C6  UNL     1     -33.406   7.054   5.913  1.00 20.00     0.061 C 
HETATM    7  C7  UNL     1     -34.668   5.115   4.947  1.00 20.00     0.006 C 
HETATM    8  C8  UNL     1     -34.708   6.256   5.958  1.00 20.00     0.006 C 
HETATM    9  N9  UNL     1     -33.034   7.013   2.157  1.00 20.00    -0.262 NA
HETATM   10  N10 UNL     1     -32.041   8.373   4.389  1.00 20.00    -0.262 NA
ENDROOT
TORSDOF 0
ENDMDL
MODEL 2
REMARK VINA RESULT:      -5.2      0.080      2.137
REMARK  0 active torsions:
REMARK  status: ('A' for Active; 'I' for Inactive)
ROOT
HETATM    1  C1  UNL     1     -31.660   8.668   3.182  1.00 20.00     0.136 A 
HETATM    2  C2  UNL     1     -32.084   7.971   2.077  1.00 20.00     0.136 A 
HETATM    3  C3  UNL     1     -33.007   7.375   4.523  1.00 20.00     0.059 A 
HETATM    4  C4  UNL     1     -33.427   6.662   3.406  1.00 20.00     0.059 A 
HETATM    5  C5  UNL     1     -33.472   7.022   5.909  1.00 20.00     0.061 C 
HETATM    6  C6  UNL     1     -34.455   5.569   3.502  1.00 20.00     0.061 C 
HETATM    7  C7  UNL     1     -34.742   6.173   5.918  1.00 20.00     0.006 C 
HETATM    8  C8  UNL     1     -34.623   5.026   4.921  1.00 20.00     0.006 C 
HETATM    9  N9  UNL     1     -32.110   8.382   4.418  1.00 20.00    -0.262 NA
HETATM   10  N10 UNL     1     -32.972   6.963   2.167  1.00 20.00    -0.262 NA
ENDROOT
TORSDOF 0
ENDMDL
MODEL 3
REMARK VINA RESULT:      -4.9      1.319      4.011
REMARK  0 active torsions:
REMARK  status: ('A' for Active; 'I' for Inactive)
ROOT
HETATM    1  C1  UNL     1     -34.620   5.902   5.894  1.00 20.00     0.136 A 
HETATM    2  C2  UNL     1     -34.970   5.196   4.768  1.00 20.00     0.136 A 
HETATM    3  C3  UNL     1     -33.214   7.220   4.640  1.00 20.00     0.059 A 
HETATM    4  C4  UNL     1     -33.576   6.513   3.499  1.00 20.00     0.059 A 
HETATM    5  C5  UNL     1     -32.273   8.391   4.581  1.00 20.00     0.061 C 
HETATM    6  C6  UNL     1     -32.964   6.804   2.157  1.00 20.00     0.061 C 
HETATM    7  C7  UNL     1     -31.431   8.421   3.307  1.00 20.00     0.006 C 
HETATM    8  C8  UNL     1     -32.309   8.183   2.083  1.00 20.00     0.006 C 
HETATM    9  N9  UNL     1     -33.743   6.922   5.849  1.00 20.00    -0.262 NA
HETATM   10  N10 UNL     1     -34.455   5.485   3.558  1.00 20.00    -0.262 NA
ENDROOT
TORSDOF 0
ENDMDL
MODEL 4
REMARK VINA RESULT:      -4.9      1.330      3.426
REMARK  0 active torsions:
REMARK  status: ('A' for Active; 'I' for Inactive)
ROOT
HETATM    1  C1  UNL     1     -34.970   5.159   4.798  1.00 20.00     0.136 A 
HETATM    2  C2  UNL     1     -34.622   5.872   5.920  1.00 20.00     0.136 A 
HETATM    3  C3  UNL     1     -33.590   6.483   3.521  1.00 20.00     0.059 A 
HETATM    4  C4  UNL     1     -33.230   7.196   4.658  1.00 20.00     0.059 A 
HETATM    5  C5  UNL     1     -32.983   6.775   2.176  1.00 20.00     0.061 C 
HETATM    6  C6  UNL     1     -32.297   8.374   4.593  1.00 20.00     0.061 C 
HETATM    7  C7  UNL     1     -32.339   8.157   2.096  1.00 20.00     0.006 C 
HETATM    8  C8  UNL     1     -31.459   8.406   3.316  1.00 20.00     0.006 C 
HETATM    9  N9  UNL     1     -34.461   5.449   3.586  1.00 20.00    -0.262 NA
HETATM   10  N10 UNL     1     -33.754   6.899   5.870  1.00 20.00    -0.262 NA
ENDROOT
TORSDOF 0
ENDMDL
MODEL 5
REMARK VINA RESULT:      -4.3     11.468     12.061
REMARK  0 active torsions:
REMARK  status: ('A' for Active; 'I' for Inactive)
ROOT
HETATM    1  C1  UNL     1     -37.153  14.026  -5.305  1.00 20.00     0.136 A 
HETATM    2  C2  UNL     1     -35.959  13.439  -5.647  1.00 20.00     0.136 A 
HETATM    3  C3  UNL     1     -36.053  15.449  -3.873  1.00 20.00     0.059 A 
HETATM    4  C4  UNL     1     -34.843  14.863  -4.227  1.00 20.00     0.059 A 
HETATM    5  C5  UNL     1     -36.122  16.611  -2.921  1.00 20.00     0.061 C 
HETATM    6  C6  UNL     1     -33.544  15.281  -3.596  1.00 20.00     0.061 C 
HETATM    7  C7  UNL     1     -34.867  16.760  -2.064  1.00 20.00     0.006 C 
HETATM    8  C8  UNL     1     -33.616  16.653  -2.929  1.00 20.00     0.006 C 
HETATM    9  N9  UNL     1     -37.220  15.037  -4.419  1.00 20.00    -0.262 NA
HETATM   10  N10 UNL     1     -34.790  13.842  -5.115  1.00 20.00    -0.262 NA
ENDROOT
TORSDOF 0
ENDMDL
MODEL 6
REMARK VINA RESULT:      -4.3     11.486     12.045
REMARK  0 active torsions:
REMARK  status: ('A' for Active; 'I' for Inactive)
ROOT
HETATM    1  C1  UNL     1     -35.972  13.444  -5.664  1.00 20.00     0.136 A 
HETATM    2  C2  UNL     1     -37.165  14.026  -5.311  1.00 20.00     0.136 A 
HETATM    3  C3  UNL     1     -34.851  14.863  -4.245  1.00 20.00     0.059 A 
HETATM    4  C4  UNL     1     -36.059  15.444  -3.879  1.00 20.00     0.059 A 
HETATM    5  C5  UNL     1     -33.548  15.282  -3.620  1.00 20.00     0.061 C 
HETATM    6  C6  UNL     1     -36.125  16.601  -2.921  1.00 20.00     0.061 C 
HETATM    7  C7  UNL     1     -33.619  16.650  -2.946  1.00 20.00     0.006 C 
HETATM    8  C8  UNL     1     -34.864  16.749  -2.071  1.00 20.00     0.006 C 
HETATM    9  N9  UNL     1     -34.801  13.848  -5.138  1.00 20.00    -0.262 NA
HETATM   10  N10 UNL     1     -37.230  15.033  -4.420  1.00 20.00    -0.262 NA
ENDROOT
TORSDOF 0
ENDMDL
MODEL 7
REMARK VINA RESULT:      -4.3     11.649     12.133
REMARK  0 active torsions:
REMARK  status: ('A' for Active; 'I' for Inactive)
ROOT
HETATM    1  C1  UNL     1     -32.900  18.954   1.169  1.00 20.00     0.136 A 
HETATM    2  C2  UNL     1     -31.868  18.911   0.263  1.00 20.00     0.136 A 
HETATM    3  C3  UNL     1     -34.265  17.860  -0.323  1.00 20.00     0.059 A 
HETATM    4  C4  UNL     1     -33.218  17.807  -1.236  1.00 20.00     0.059 A 
HETATM    5  C5  UNL     1     -35.600  17.231  -0.612  1.00 20.00     0.061 C 
HETATM    6  C6  UNL     1     -33.389  17.216  -2.607  1.00 20.00     0.061 C 
HETATM    7  C7  UNL     1     -35.832  16.970  -2.098  1.00 20.00     0.006 C 
HETATM    8  C8  UNL     1     -34.609  16.303  -2.719  1.00 20.00     0.006 C 
HETATM    9  N9  UNL     1     -34.109  18.429   0.894  1.00 20.00    -0.262 NA
HETATM   10  N10 UNL     1     -32.008  18.343  -0.949  1.00 20.00    -0.262 NA
ENDROOT
TORSDOF 0
ENDMDL
MODEL 8
REMARK VINA RESULT:      -4.2     11.629     12.039
REMARK  0 active torsions:
REMARK  status: ('A' for Active; 'I' for Inactive)
ROOT
HETATM    1  C1  UNL     1     -31.616  18.971   0.688  1.00 20.00     0.136 A 
HETATM    2  C2  UNL     1     -32.594  19.039   1.650  1.00 20.00     0.136 A 
HETATM    3  C3  UNL     1     -33.100  17.979  -0.761  1.00 20.00     0.059 A 
HETATM    4  C4  UNL     1     -34.093  18.058   0.209  1.00 20.00     0.059 A 
HETATM    5  C5  UNL     1     -33.377  17.437  -2.136  1.00 20.00     0.061 C 
HETATM    6  C6  UNL     1     -35.472  17.506  -0.020  1.00 20.00     0.061 C 
HETATM    7  C7  UNL     1     -34.645  16.589  -2.203  1.00 20.00     0.006 C 
HETATM    8  C8  UNL     1     -35.797  17.298  -1.499  1.00 20.00     0.006 C 
HETATM    9  N9  UNL     1     -31.851  18.445  -0.528  1.00 20.00    -0.262 NA
HETATM   10  N10 UNL     1     -33.842  18.584   1.431  1.00 20.00    -0.262 NA
ENDROOT
TORSDOF 0
ENDMDL
MODEL 9
REMARK VINA RESULT:      -4.0     11.417     12.851
REMARK  0 active torsions:
REMARK  status: ('A' for Active; 'I' for Inactive)
ROOT
HETATM    1  C1  UNL     1     -35.196  12.934  -6.998  1.00 20.00     0.136 A 
HETATM    2  C2  UNL     1     -34.555  13.744  -7.904  1.00 20.00     0.136 A 
HETATM    3  C3  UNL     1     -34.652  14.389  -5.303  1.00 20.00     0.059 A 
HETATM    4  C4  UNL     1     -34.014  15.214  -6.222  1.00 20.00     0.059 A 
HETATM    5  C5  UNL     1     -34.763  14.759  -3.850  1.00 20.00     0.061 C 
HETATM    6  C6  UNL     1     -33.300  16.469  -5.800  1.00 20.00     0.061 C 
HETATM    7  C7  UNL     1     -33.753  15.820  -3.421  1.00 20.00     0.006 C 
HETATM    8  C8  UNL     1     -33.731  16.970  -4.423  1.00 20.00     0.006 C 
HETATM    9  N9  UNL     1     -35.257  13.242  -5.689  1.00 20.00    -0.262 NA
HETATM   10  N10 UNL     1     -33.953  14.890  -7.534  1.00 20.00    -0.262 NA
ENDROOT
TORSDOF 0
ENDMDL
