MODEL 1
REMARK VINA RESULT:      -4.6      0.000      0.000
REMARK  0 active torsions:
REMARK  status: ('A' for Active; 'I' for Inactive)
ROOT
HETATM    1  C1  UNL     1     -34.757   5.882   5.864  1.00 20.00     0.029 C 
HETATM    2  C2  UNL     1     -34.232   4.956   4.768  1.00 20.00     0.048 C 
HETATM    3  C3  UNL     1     -33.828   7.074   6.051  1.00 20.00     0.170 C 
HETATM    4  C4  UNL     1     -33.001   6.938   3.831  1.00 20.00     0.255 C 
HETATM    5  C5  UNL     1     -33.886   5.725   3.483  1.00 20.00     0.152 C 
HETATM    6  O6  UNL     1     -33.628   7.763   4.817  1.00 20.00    -0.367 OA
HETATM    7 CL7  UNL     1     -32.614   7.967   2.419  1.00 20.00    -0.092 Cl
HETATM    8 CL8  UNL     1     -33.031   4.615   2.359  1.00 20.00    -0.098 Cl
HETATM    9 CL9  UNL     1     -35.417   6.247   2.683  1.00 20.00    -0.098 Cl
ENDROOT
TORSDOF 0
ENDMDL
MODEL 2
REMARK VINA RESULT:      -3.9      1.676      2.436
REMARK  0 active torsions:
REMARK  status: ('A' for Active; 'I' for Inactive)
ROOT
HETATM    1  C1  UNL     1     -33.400   8.115   4.721  1.00 20.00     0.029 C 
HETATM    2  C2  UNL     1     -33.878   6.822   5.381  1.00 20.00     0.048 C 
HETATM    3  C3  UNL     1     -32.263   7.834   3.747  1.00 20.00     0.170 C 
HETATM    4  C4  UNL     1     -32.955   5.592   3.392  1.00 20.00     0.255 C 
HETATM    5  C5  UNL     1     -34.158   5.719   4.347  1.00 20.00     0.152 C 
HETATM    6  O6  UNL     1     -32.647   6.851   2.787  1.00 20.00    -0.367 OA
HETATM    7 CL7  UNL     1     -33.209   4.400   2.082  1.00 20.00    -0.092 Cl
HETATM    8 CL8  UNL     1     -34.446   4.175   5.218  1.00 20.00    -0.098 Cl
HETATM    9 CL9  UNL     1     -35.664   6.132   3.445  1.00 20.00    -0.098 Cl
ENDROOT
TORSDOF 0
ENDMDL
MODEL 3
REMARK VINA RESULT:      -3.8     11.831     12.658
REMARK  0 active torsions:
REMARK  status: ('A' for Active; 'I' for Inactive)
ROOT
HETATM    1  C1  UNL     1     -36.871  14.831  -4.889  1.00 20.00     0.029 C 
HETATM    2  C2  UNL     1     -35.953  16.013  -5.198  1.00 20.00     0.048 C 
HETATM    3  C3  UNL     1     -36.178  13.513  -5.207  1.00 20.00     0.170 C 
HETATM    4  C4  UNL     1     -34.012  14.439  -4.919  1.00 20.00     0.255 C 
HETATM    5  C5  UNL     1     -34.560  15.837  -4.571  1.00 20.00     0.152 C 
HETATM    6  O6  UNL     1     -34.929  13.416  -4.522  1.00 20.00    -0.367 OA
HETATM    7 CL7  UNL     1     -32.431  14.085  -4.160  1.00 20.00    -0.092 Cl
HETATM    8 CL8  UNL     1     -33.477  17.122  -5.205  1.00 20.00    -0.098 Cl
HETATM    9 CL9  UNL     1     -34.690  16.058  -2.785  1.00 20.00    -0.098 Cl
ENDROOT
TORSDOF 0
ENDMDL
MODEL 4
REMARK VINA RESULT:      -3.5     12.142     13.108
REMARK  0 active torsions:
REMARK  status: ('A' for Active; 'I' for Inactive)
ROOT
HETATM    1  C1  UNL     1     -33.173  14.549  -4.387  1.00 20.00     0.029 C 
HETATM    2  C2  UNL     1     -34.676  14.362  -4.188  1.00 20.00     0.048 C 
HETATM    3  C3  UNL     1     -32.898  15.608  -5.446  1.00 20.00     0.170 C 
HETATM    4  C4  UNL     1     -34.976  16.694  -5.080  1.00 20.00     0.255 C 
HETATM    5  C5  UNL     1     -35.399  15.703  -3.978  1.00 20.00     0.152 C 
HETATM    6  O6  UNL     1     -33.553  16.834  -5.123  1.00 20.00    -0.367 OA
HETATM    7 CL7  UNL     1     -35.683  18.325  -4.881  1.00 20.00    -0.092 Cl
HETATM    8 CL8  UNL     1     -37.171  15.415  -4.027  1.00 20.00    -0.098 Cl
HETATM    9 CL9  UNL     1     -34.989  16.338  -2.340  1.00 20.00    -0.098 Cl
ENDROOT
TORSDOF 0
ENDMDL
MODEL 5
REMARK VINA RESULT:      -3.5     11.868     12.852
REMARK  0 active torsions:
REMARK  status: ('A' for Active; 'I' for Inactive)
ROOT
HETATM    1  C1  UNL     1     -34.735  16.618  -1.989  1.00 20.00     0.029 C 
HETATM    2  C2  UNL     1     -33.726  16.550  -3.134  1.00 20.00     0.048 C 
HETATM    3  C3  UNL     1     -36.078  17.138  -2.485  1.00 20.00     0.170 C 
HETATM    4  C4  UNL     1     -35.682  16.404  -4.707  1.00 20.00     0.255 C 
HETATM    5  C5  UNL     1     -34.298  15.821  -4.361  1.00 20.00     0.152 C 
HETATM    6  O6  UNL     1     -36.556  16.352  -3.576  1.00 20.00    -0.367 OA
HETATM    7 CL7  UNL     1     -36.489  15.565  -6.065  1.00 20.00    -0.092 Cl
HETATM    8 CL8  UNL     1     -33.159  16.025  -5.735  1.00 20.00    -0.098 Cl
HETATM    9 CL9  UNL     1     -34.408  14.058  -3.996  1.00 20.00    -0.098 Cl
ENDROOT
TORSDOF 0
ENDMDL
MODEL 6
REMARK VINA RESULT:      -3.4     12.415     13.077
REMARK  0 active torsions:
REMARK  status: ('A' for Active; 'I' for Inactive)
ROOT
HETATM    1  C1  UNL     1     -37.188  15.549  -4.102  1.00 20.00     0.029 C 
HETATM    2  C2  UNL     1     -35.959  16.153  -4.779  1.00 20.00     0.048 C 
HETATM    3  C3  UNL     1     -37.927  14.622  -5.058  1.00 20.00     0.170 C 
HETATM    4  C4  UNL     1     -35.977  14.178  -6.334  1.00 20.00     0.255 C 
HETATM    5  C5  UNL     1     -35.090  15.081  -5.455  1.00 20.00     0.152 C 
HETATM    6  O6  UNL     1     -37.052  13.620  -5.574  1.00 20.00    -0.367 OA
HETATM    7 CL7  UNL     1     -35.084  12.828  -7.098  1.00 20.00    -0.092 Cl
HETATM    8 CL8  UNL     1     -33.833  15.897  -6.444  1.00 20.00    -0.098 Cl
HETATM    9 CL9  UNL     1     -34.249  14.120  -4.180  1.00 20.00    -0.098 Cl
ENDROOT
TORSDOF 0
ENDMDL
MODEL 7
REMARK VINA RESULT:      -3.4      1.842      3.127
REMARK  0 active torsions:
REMARK  status: ('A' for Active; 'I' for Inactive)
ROOT
HETATM    1  C1  UNL     1     -32.153   7.632   2.196  1.00 20.00     0.029 C 
HETATM    2  C2  UNL     1     -33.598   7.142   2.118  1.00 20.00     0.048 C 
HETATM    3  C3  UNL     1     -31.919   8.416   3.481  1.00 20.00     0.170 C 
HETATM    4  C4  UNL     1     -33.675   7.304   4.626  1.00 20.00     0.255 C 
HETATM    5  C5  UNL     1     -34.033   6.429   3.409  1.00 20.00     0.152 C 
HETATM    6  O6  UNL     1     -32.286   7.642   4.623  1.00 20.00    -0.367 OA
HETATM    7 CL7  UNL     1     -34.049   6.529   6.195  1.00 20.00    -0.092 Cl
HETATM    8 CL8  UNL     1     -35.803   6.133   3.335  1.00 20.00    -0.098 Cl
HETATM    9 CL9  UNL     1     -33.210   4.826   3.497  1.00 20.00    -0.098 Cl
ENDROOT
TORSDOF 0
ENDMDL
MODEL 8
REMARK VINA RESULT:      -3.4     12.374     13.530
REMARK  0 active torsions:
REMARK  status: ('A' for Active; 'I' for Inactive)
ROOT
HETATM    1  C1  UNL     1     -32.988  14.678  -4.635  1.00 20.00     0.029 C 
HETATM    2  C2  UNL     1     -33.309  15.866  -5.542  1.00 20.00     0.048 C 
HETATM    3  C3  UNL     1     -34.266  14.065  -4.079  1.00 20.00     0.170 C 
HETATM    4  C4  UNL     1     -35.578  14.843  -5.897  1.00 20.00     0.255 C 
HETATM    5  C5  UNL     1     -34.377  15.514  -6.591  1.00 20.00     0.152 C 
HETATM    6  O6  UNL     1     -35.160  13.708  -5.134  1.00 20.00    -0.367 OA
HETATM    7 CL7  UNL     1     -36.847  14.301  -7.036  1.00 20.00    -0.092 Cl
HETATM    8 CL8  UNL     1     -34.884  17.023  -7.423  1.00 20.00    -0.098 Cl
HETATM    9 CL9  UNL     1     -33.647  14.422  -7.827  1.00 20.00    -0.098 Cl
ENDROOT
TORSDOF 0
ENDMDL
MODEL 9
REMARK VINA RESULT:      -3.4     11.899     12.572
REMARK  0 active torsions:
REMARK  status: ('A' for Active; 'I' for Inactive)
ROOT
HETATM    1  C1  UNL     1     -36.361  14.732  -5.553  1.00 20.00     0.029 C 
HETATM    2  C2  UNL     1     -35.011  14.052  -5.330  1.00 20.00     0.048 C 
HETATM    3  C3  UNL     1     -36.864  15.367  -4.263  1.00 20.00     0.170 C 
HETATM    4  C4  UNL     1     -34.674  15.601  -3.378  1.00 20.00     0.255 C 
HETATM    5  C5  UNL     1     -34.010  14.981  -4.623  1.00 20.00     0.152 C 
HETATM    6  O6  UNL     1     -35.893  16.264  -3.725  1.00 20.00    -0.367 OA
HETATM    7 CL7  UNL     1     -33.631  16.779  -2.526  1.00 20.00    -0.092 Cl
HETATM    8 CL8  UNL     1     -32.563  14.023  -4.162  1.00 20.00    -0.098 Cl
HETATM    9 CL9  UNL     1     -33.479  16.258  -5.780  1.00 20.00    -0.098 Cl
ENDROOT
TORSDOF 0
ENDMDL
