MODEL 1
REMARK VINA RESULT:      -4.8      0.000      0.000
REMARK  2 active torsions:
REMARK  status: ('A' for Active; 'I' for Inactive)
REMARK    1  A    between atoms: C3_3  and  C5_5 
REMARK    2  A    between atoms: C5_5  and  C6_6 
ROOT
HETATM    1  C1  UNL     1     -34.016   6.943   6.047  1.00 20.00     0.179 C 
HETATM    2  C2  UNL     1     -34.477   5.563   5.612  1.00 20.00     0.103 C 
HETATM    3  C3  UNL     1     -33.734   7.245   3.768  1.00 20.00     0.182 C 
HETATM    4  O7  UNL     1     -33.118   7.443   5.048  1.00 20.00    -0.375 OA
HETATM    5  S8  UNL     1     -34.811   5.790   3.857  1.00 20.00    -0.135 SA
ENDROOT
BRANCH   3   6
HETATM    6  C5  UNL     1     -32.648   7.066   2.723  1.00 20.00     0.042 C 
BRANCH   6   7
HETATM    7  C6  UNL     1     -31.856   8.355   2.507  1.00 20.00    -0.001 C 
HETATM    8  C4  UNL     1     -32.222   9.022   1.192  1.00 20.00     0.005 C 
ENDBRANCH   6   7
ENDBRANCH   3   6
TORSDOF 2
ENDMDL
MODEL 2
REMARK VINA RESULT:      -4.2      1.612      1.828
REMARK  2 active torsions:
REMARK  status: ('A' for Active; 'I' for Inactive)
REMARK    1  A    between atoms: C3_3  and  C5_5 
REMARK    2  A    between atoms: C5_5  and  C6_6 
ROOT
HETATM    1  C1  UNL     1     -33.997   4.826   3.697  1.00 20.00     0.179 C 
HETATM    2  C2  UNL     1     -34.764   5.611   4.746  1.00 20.00     0.103 C 
HETATM    3  C3  UNL     1     -32.927   6.856   3.385  1.00 20.00     0.182 C 
HETATM    4  O7  UNL     1     -33.537   5.752   2.704  1.00 20.00    -0.375 OA
HETATM    5  S8  UNL     1     -33.724   7.059   5.001  1.00 20.00    -0.135 SA
ENDROOT
BRANCH   3   6
HETATM    6  C5  UNL     1     -33.080   8.103   2.533  1.00 20.00     0.042 C 
BRANCH   6   7
HETATM    7  C6  UNL     1     -31.793   8.429   1.777  1.00 20.00    -0.001 C 
HETATM    8  C4  UNL     1     -32.041   9.419   0.650  1.00 20.00     0.005 C 
ENDBRANCH   6   7
ENDBRANCH   3   6
TORSDOF 2
ENDMDL
MODEL 3
REMARK VINA RESULT:      -3.9      1.265      3.889
REMARK  2 active torsions:
REMARK  status: ('A' for Active; 'I' for Inactive)
REMARK    1  A    between atoms: C3_3  and  C5_5 
REMARK    2  A    between atoms: C5_5  and  C6_6 
ROOT
HETATM    1  C1  UNL     1     -31.445   8.334   3.313  1.00 20.00     0.179 C 
HETATM    2  C2  UNL     1     -32.358   8.306   2.101  1.00 20.00     0.103 C 
HETATM    3  C3  UNL     1     -33.004   6.843   4.154  1.00 20.00     0.182 C 
HETATM    4  O7  UNL     1     -32.233   8.011   4.465  1.00 20.00    -0.375 OA
HETATM    5  S8  UNL     1     -33.338   6.820   2.373  1.00 20.00    -0.135 SA
ENDROOT
BRANCH   3   6
HETATM    6  C5  UNL     1     -34.291   6.877   4.957  1.00 20.00     0.042 C 
BRANCH   6   7
HETATM    7  C6  UNL     1     -34.508   5.576   5.730  1.00 20.00    -0.001 C 
HETATM    8  C4  UNL     1     -34.538   4.373   4.802  1.00 20.00     0.005 C 
ENDBRANCH   6   7
ENDBRANCH   3   6
TORSDOF 2
ENDMDL
MODEL 4
REMARK VINA RESULT:      -3.8      1.871      4.020
REMARK  2 active torsions:
REMARK  status: ('A' for Active; 'I' for Inactive)
REMARK    1  A    between atoms: C3_3  and  C5_5 
REMARK    2  A    between atoms: C5_5  and  C6_6 
ROOT
HETATM    1  C1  UNL     1     -31.910   8.412   2.264  1.00 20.00     0.179 C 
HETATM    2  C2  UNL     1     -31.393   8.298   3.687  1.00 20.00     0.103 C 
HETATM    3  C3  UNL     1     -33.658   7.152   3.112  1.00 20.00     0.182 C 
HETATM    4  O7  UNL     1     -32.750   7.279   2.009  1.00 20.00    -0.375 OA
HETATM    5  S8  UNL     1     -32.858   7.797   4.605  1.00 20.00    -0.135 SA
ENDROOT
BRANCH   3   6
HETATM    6  C5  UNL     1     -34.032   5.690   3.273  1.00 20.00     0.042 C 
BRANCH   6   7
HETATM    7  C6  UNL     1     -35.076   5.494   4.371  1.00 20.00    -0.001 C 
HETATM    8  C4  UNL     1     -34.547   4.621   5.497  1.00 20.00     0.005 C 
ENDBRANCH   6   7
ENDBRANCH   3   6
TORSDOF 2
ENDMDL
MODEL 5
REMARK VINA RESULT:      -3.5     11.349     12.373
REMARK  2 active torsions:
REMARK  status: ('A' for Active; 'I' for Inactive)
REMARK    1  A    between atoms: C3_3  and  C5_5 
REMARK    2  A    between atoms: C5_5  and  C6_6 
ROOT
HETATM    1  C1  UNL     1     -35.263  12.982  -7.335  1.00 20.00     0.179 C 
HETATM    2  C2  UNL     1     -34.209  13.995  -7.746  1.00 20.00     0.103 C 
HETATM    3  C3  UNL     1     -35.259  14.212  -5.374  1.00 20.00     0.182 C 
HETATM    4  O7  UNL     1     -35.242  12.881  -5.906  1.00 20.00    -0.375 OA
HETATM    5  S8  UNL     1     -34.447  15.323  -6.554  1.00 20.00    -0.135 SA
ENDROOT
BRANCH   3   6
HETATM    6  C5  UNL     1     -34.545  14.212  -4.034  1.00 20.00     0.042 C 
BRANCH   6   7
HETATM    7  C6  UNL     1     -33.887  15.562  -3.747  1.00 20.00    -0.001 C 
HETATM    8  C4  UNL     1     -34.649  16.343  -2.690  1.00 20.00     0.005 C 
ENDBRANCH   6   7
ENDBRANCH   3   6
TORSDOF 2
ENDMDL
MODEL 6
REMARK VINA RESULT:      -3.4     11.530     11.916
REMARK  2 active torsions:
REMARK  status: ('A' for Active; 'I' for Inactive)
REMARK    1  A    between atoms: C3_3  and  C5_5 
REMARK    2  A    between atoms: C5_5  and  C6_6 
ROOT
HETATM    1  C1  UNL     1     -35.895  13.360  -5.236  1.00 20.00     0.179 C 
HETATM    2  C2  UNL     1     -35.875  14.351  -6.386  1.00 20.00     0.103 C 
HETATM    3  C3  UNL     1     -35.001  15.148  -4.067  1.00 20.00     0.182 C 
HETATM    4  O7  UNL     1     -34.871  13.741  -4.309  1.00 20.00    -0.375 OA
HETATM    5  S8  UNL     1     -35.694  15.933  -5.547  1.00 20.00    -0.135 SA
ENDROOT
BRANCH   3   6
HETATM    6  C5  UNL     1     -33.634  15.716  -3.729  1.00 20.00     0.042 C 
BRANCH   6   7
HETATM    7  C6  UNL     1     -33.713  16.732  -2.590  1.00 20.00    -0.001 C 
HETATM    8  C4  UNL     1     -35.052  16.667  -1.874  1.00 20.00     0.005 C 
ENDBRANCH   6   7
ENDBRANCH   3   6
TORSDOF 2
ENDMDL
MODEL 7
REMARK VINA RESULT:      -3.3     11.602     12.372
REMARK  2 active torsions:
REMARK  status: ('A' for Active; 'I' for Inactive)
REMARK    1  A    between atoms: C3_3  and  C5_5 
REMARK    2  A    between atoms: C5_5  and  C6_6 
ROOT
HETATM    1  C1  UNL     1     -33.607  15.583  -6.449  1.00 20.00     0.179 C 
HETATM    2  C2  UNL     1     -34.906  14.888  -6.079  1.00 20.00     0.103 C 
HETATM    3  C3  UNL     1     -33.347  15.681  -4.151  1.00 20.00     0.182 C 
HETATM    4  O7  UNL     1     -33.242  16.441  -5.361  1.00 20.00    -0.375 OA
HETATM    5  S8  UNL     1     -34.631  14.419  -4.362  1.00 20.00    -0.135 SA
ENDROOT
BRANCH   3   6
HETATM    6  C5  UNL     1     -33.680  16.622  -3.007  1.00 20.00     0.042 C 
BRANCH   6   7
HETATM    7  C6  UNL     1     -35.111  16.420  -2.510  1.00 20.00    -0.001 C 
HETATM    8  C4  UNL     1     -35.304  16.989  -1.114  1.00 20.00     0.005 C 
ENDBRANCH   6   7
ENDBRANCH   3   6
TORSDOF 2
ENDMDL
MODEL 8
REMARK VINA RESULT:      -3.3     11.646     12.137
REMARK  2 active torsions:
REMARK  status: ('A' for Active; 'I' for Inactive)
REMARK    1  A    between atoms: C3_3  and  C5_5 
REMARK    2  A    between atoms: C5_5  and  C6_6 
ROOT
HETATM    1  C1  UNL     1     -30.913  19.004   1.422  1.00 20.00     0.179 C 
HETATM    2  C2  UNL     1     -32.130  18.605   2.238  1.00 20.00     0.103 C 
HETATM    3  C3  UNL     1     -32.411  18.860  -0.338  1.00 20.00     0.182 C 
HETATM    4  O7  UNL     1     -31.091  18.502   0.092  1.00 20.00    -0.375 OA
HETATM    5  S8  UNL     1     -33.493  18.949   1.113  1.00 20.00    -0.135 SA
ENDROOT
BRANCH   3   6
HETATM    6  C5  UNL     1     -32.902  17.823  -1.331  1.00 20.00     0.042 C 
BRANCH   6   7
HETATM    7  C6  UNL     1     -34.356  18.070  -1.730  1.00 20.00    -0.001 C 
HETATM    8  C4  UNL     1     -35.202  16.818  -1.564  1.00 20.00     0.005 C 
ENDBRANCH   6   7
ENDBRANCH   3   6
TORSDOF 2
ENDMDL
MODEL 9
REMARK VINA RESULT:      -3.3      2.552      4.511
REMARK  2 active torsions:
REMARK  status: ('A' for Active; 'I' for Inactive)
REMARK    1  A    between atoms: C3_3  and  C5_5 
REMARK    2  A    between atoms: C5_5  and  C6_6 
ROOT
HETATM    1  C1  UNL     1     -33.009  10.421   1.255  1.00 20.00     0.179 C 
HETATM    2  C2  UNL     1     -32.651   9.707  -0.036  1.00 20.00     0.103 C 
HETATM    3  C3  UNL     1     -32.082   8.529   2.214  1.00 20.00     0.182 C 
HETATM    4  O7  UNL     1     -33.198   9.427   2.270  1.00 20.00    -0.375 OA
HETATM    5  S8  UNL     1     -31.467   8.466   0.510  1.00 20.00    -0.135 SA
ENDROOT
BRANCH   3   6
HETATM    6  C5  UNL     1     -32.532   7.159   2.691  1.00 20.00     0.042 C 
BRANCH   6   7
HETATM    7  C6  UNL     1     -33.607   7.264   3.771  1.00 20.00    -0.001 C 
HETATM    8  C4  UNL     1     -34.582   6.099   3.705  1.00 20.00     0.005 C 
ENDBRANCH   6   7
ENDBRANCH   3   6
TORSDOF 2
ENDMDL
