MODEL 1
REMARK VINA RESULT:      -5.8      0.000      0.000
REMARK  2 active torsions:
REMARK  status: ('A' for Active; 'I' for Inactive)
REMARK    1  A    between atoms: C3_3  and  O11_11 
REMARK    2  A    between atoms: C8_8  and  O11_11 
ROOT
HETATM    1  C1  UNL     1     -34.006   4.382   4.799  1.00 20.00    -0.025 C 
HETATM    2  C2  UNL     1     -33.794   4.492   3.479  1.00 20.00    -0.023 C 
HETATM    3  C4  UNL     1     -35.645   5.785   3.965  1.00 20.00     0.019 C 
HETATM    4  C5  UNL     1     -33.840   6.818   5.141  1.00 20.00     0.042 C 
HETATM    5  C6  UNL     1     -34.789   5.600   5.226  1.00 20.00     0.011 C 
HETATM    6  C7  UNL     1     -34.433   5.785   3.027  1.00 20.00     0.038 C 
HETATM    7  C8  UNL     1     -33.646   6.984   3.608  1.00 20.00     0.140 C 
ENDROOT
BRANCH   7   8
HETATM    8  O11 UNL     1     -32.279   6.960   3.245  1.00 20.00    -0.316 OA
BRANCH   8   9
HETATM    9  C3  UNL     1     -31.684   8.182   3.057  1.00 20.00     0.255 C 
HETATM   10  C9  UNL     1     -31.881   8.638   1.643  1.00 20.00     0.126 C 
HETATM   11  O10 UNL     1     -31.078   8.820   3.906  1.00 20.00    -0.266 OA
ENDBRANCH   8   9
ENDBRANCH   7   8
TORSDOF 2
ENDMDL
MODEL 2
REMARK VINA RESULT:      -5.3      1.105      1.192
REMARK  2 active torsions:
REMARK  status: ('A' for Active; 'I' for Inactive)
REMARK    1  A    between atoms: C3_3  and  O11_11 
REMARK    2  A    between atoms: C8_8  and  O11_11 
ROOT
HETATM    1  C1  UNL     1     -33.593   4.700   4.273  1.00 20.00    -0.025 C 
HETATM    2  C2  UNL     1     -33.472   4.952   2.961  1.00 20.00    -0.023 C 
HETATM    3  C4  UNL     1     -35.393   6.022   3.670  1.00 20.00     0.019 C 
HETATM    4  C5  UNL     1     -33.612   7.098   4.846  1.00 20.00     0.042 C 
HETATM    5  C6  UNL     1     -34.448   5.798   4.860  1.00 20.00     0.011 C 
HETATM    6  C7  UNL     1     -34.245   6.220   2.674  1.00 20.00     0.038 C 
HETATM    7  C8  UNL     1     -33.527   7.424   3.328  1.00 20.00     0.140 C 
ENDROOT
BRANCH   7   8
HETATM    8  O11 UNL     1     -32.188   7.557   2.893  1.00 20.00    -0.316 OA
BRANCH   8   9
HETATM    9  C3  UNL     1     -31.973   8.439   1.865  1.00 20.00     0.255 C 
HETATM   10  C9  UNL     1     -32.878   9.624   2.004  1.00 20.00     0.126 C 
HETATM   11  O10 UNL     1     -31.165   8.295   0.957  1.00 20.00    -0.266 OA
ENDBRANCH   8   9
ENDBRANCH   7   8
TORSDOF 2
ENDMDL
MODEL 3
REMARK VINA RESULT:      -4.7      0.932      1.858
REMARK  2 active torsions:
REMARK  status: ('A' for Active; 'I' for Inactive)
REMARK    1  A    between atoms: C3_3  and  O11_11 
REMARK    2  A    between atoms: C8_8  and  O11_11 
ROOT
HETATM    1  C1  UNL     1     -35.541   5.744   3.776  1.00 20.00    -0.025 C 
HETATM    2  C2  UNL     1     -35.149   7.008   3.989  1.00 20.00    -0.023 C 
HETATM    3  C4  UNL     1     -33.806   5.666   5.303  1.00 20.00     0.019 C 
HETATM    4  C5  UNL     1     -33.289   5.048   3.053  1.00 20.00     0.042 C 
HETATM    5  C6  UNL     1     -34.378   4.851   4.134  1.00 20.00     0.011 C 
HETATM    6  C7  UNL     1     -33.722   6.959   4.486  1.00 20.00     0.038 C 
HETATM    7  C8  UNL     1     -32.791   6.492   3.342  1.00 20.00     0.140 C 
ENDROOT
BRANCH   7   8
HETATM    8  O11 UNL     1     -32.883   7.318   2.197  1.00 20.00    -0.316 OA
BRANCH   8   9
HETATM    9  C3  UNL     1     -32.066   8.420   2.182  1.00 20.00     0.255 C 
HETATM   10  C9  UNL     1     -32.282   9.205   0.925  1.00 20.00     0.126 C 
HETATM   11  O10 UNL     1     -31.271   8.732   3.059  1.00 20.00    -0.266 OA
ENDBRANCH   8   9
ENDBRANCH   7   8
TORSDOF 2
ENDMDL
MODEL 4
REMARK VINA RESULT:      -4.4     11.745     12.661
REMARK  2 active torsions:
REMARK  status: ('A' for Active; 'I' for Inactive)
REMARK    1  A    between atoms: C3_3  and  O11_11 
REMARK    2  A    between atoms: C8_8  and  O11_11 
ROOT
HETATM    1  C1  UNL     1     -34.776  16.700  -1.763  1.00 20.00    -0.025 C 
HETATM    2  C2  UNL     1     -35.941  16.957  -2.375  1.00 20.00    -0.023 C 
HETATM    3  C4  UNL     1     -34.277  17.829  -3.719  1.00 20.00     0.019 C 
HETATM    4  C5  UNL     1     -33.896  15.469  -3.709  1.00 20.00     0.042 C 
HETATM    5  C6  UNL     1     -33.702  16.722  -2.823  1.00 20.00     0.011 C 
HETATM    6  C7  UNL     1     -35.644  17.147  -3.845  1.00 20.00     0.038 C 
HETATM    7  C8  UNL     1     -35.214  15.797  -4.466  1.00 20.00     0.140 C 
ENDROOT
BRANCH   7   8
HETATM    8  O11 UNL     1     -36.186  14.785  -4.290  1.00 20.00    -0.316 OA
BRANCH   8   9
HETATM    9  C3  UNL     1     -36.262  13.842  -5.283  1.00 20.00     0.255 C 
HETATM   10  C9  UNL     1     -36.872  14.438  -6.514  1.00 20.00     0.126 C 
HETATM   11  O10 UNL     1     -35.891  12.679  -5.194  1.00 20.00    -0.266 OA
ENDBRANCH   8   9
ENDBRANCH   7   8
TORSDOF 2
ENDMDL
MODEL 5
REMARK VINA RESULT:      -4.3      0.910      1.650
REMARK  2 active torsions:
REMARK  status: ('A' for Active; 'I' for Inactive)
REMARK    1  A    between atoms: C3_3  and  O11_11 
REMARK    2  A    between atoms: C8_8  and  O11_11 
ROOT
HETATM    1  C1  UNL     1     -34.831   5.971   5.593  1.00 20.00    -0.025 C 
HETATM    2  C2  UNL     1     -33.525   6.244   5.453  1.00 20.00    -0.023 C 
HETATM    3  C4  UNL     1     -33.981   4.443   4.080  1.00 20.00     0.019 C 
HETATM    4  C5  UNL     1     -35.263   6.248   3.182  1.00 20.00     0.042 C 
HETATM    5  C6  UNL     1     -35.268   5.235   4.350  1.00 20.00     0.011 C 
HETATM    6  C7  UNL     1     -33.093   5.691   4.113  1.00 20.00     0.038 C 
HETATM    7  C8  UNL     1     -33.745   6.515   2.978  1.00 20.00     0.140 C 
ENDROOT
BRANCH   7   8
HETATM    8  O11 UNL     1     -33.437   7.893   3.062  1.00 20.00    -0.316 OA
BRANCH   8   9
HETATM    9  C3  UNL     1     -32.171   8.252   2.677  1.00 20.00     0.255 C 
HETATM   10  C9  UNL     1     -32.176   8.714   1.252  1.00 20.00     0.126 C 
HETATM   11  O10 UNL     1     -31.171   8.208   3.381  1.00 20.00    -0.266 OA
ENDBRANCH   8   9
ENDBRANCH   7   8
TORSDOF 2
ENDMDL
MODEL 6
REMARK VINA RESULT:      -4.3     11.918     12.905
REMARK  2 active torsions:
REMARK  status: ('A' for Active; 'I' for Inactive)
REMARK    1  A    between atoms: C3_3  and  O11_11 
REMARK    2  A    between atoms: C8_8  and  O11_11 
ROOT
HETATM    1  C1  UNL     1     -33.726  17.591  -4.674  1.00 20.00    -0.025 C 
HETATM    2  C2  UNL     1     -33.300  16.343  -4.919  1.00 20.00    -0.023 C 
HETATM    3  C4  UNL     1     -34.086  16.364  -2.747  1.00 20.00     0.019 C 
HETATM    4  C5  UNL     1     -35.999  16.824  -4.103  1.00 20.00     0.042 C 
HETATM    5  C6  UNL     1     -34.727  17.507  -3.547  1.00 20.00     0.011 C 
HETATM    6  C7  UNL     1     -34.021  15.426  -3.956  1.00 20.00     0.038 C 
HETATM    7  C8  UNL     1     -35.522  15.361  -4.326  1.00 20.00     0.140 C 
ENDROOT
BRANCH   7   8
HETATM    8  O11 UNL     1     -35.734  14.937  -5.658  1.00 20.00    -0.316 OA
BRANCH   8   9
HETATM    9  C3  UNL     1     -35.516  13.606  -5.909  1.00 20.00     0.255 C 
HETATM   10  C9  UNL     1     -34.708  13.443  -7.160  1.00 20.00     0.126 C 
HETATM   11  O10 UNL     1     -35.915  12.675  -5.223  1.00 20.00    -0.266 OA
ENDBRANCH   8   9
ENDBRANCH   7   8
TORSDOF 2
ENDMDL
MODEL 7
REMARK VINA RESULT:      -4.2     11.246     12.322
REMARK  2 active torsions:
REMARK  status: ('A' for Active; 'I' for Inactive)
REMARK    1  A    between atoms: C3_3  and  O11_11 
REMARK    2  A    between atoms: C8_8  and  O11_11 
ROOT
HETATM    1  C1  UNL     1     -34.362  14.084  -4.158  1.00 20.00    -0.025 C 
HETATM    2  C2  UNL     1     -33.175  14.698  -4.268  1.00 20.00    -0.023 C 
HETATM    3  C4  UNL     1     -34.678  15.931  -5.515  1.00 20.00     0.019 C 
HETATM    4  C5  UNL     1     -35.450  16.107  -3.260  1.00 20.00     0.042 C 
HETATM    5  C6  UNL     1     -35.425  15.117  -4.448  1.00 20.00     0.011 C 
HETATM    6  C7  UNL     1     -33.446  16.141  -4.628  1.00 20.00     0.038 C 
HETATM    7  C8  UNL     1     -34.101  16.861  -3.426  1.00 20.00     0.140 C 
ENDROOT
BRANCH   7   8
HETATM    8  O11 UNL     1     -33.310  16.789  -2.255  1.00 20.00    -0.316 OA
BRANCH   8   9
HETATM    9  C3  UNL     1     -33.147  17.963  -1.565  1.00 20.00     0.255 C 
HETATM   10  C9  UNL     1     -34.068  17.999  -0.384  1.00 20.00     0.126 C 
HETATM   11  O10 UNL     1     -32.368  18.861  -1.857  1.00 20.00    -0.266 OA
ENDBRANCH   8   9
ENDBRANCH   7   8
TORSDOF 2
ENDMDL
MODEL 8
REMARK VINA RESULT:      -4.1     11.783     12.994
REMARK  2 active torsions:
REMARK  status: ('A' for Active; 'I' for Inactive)
REMARK    1  A    between atoms: C3_3  and  O11_11 
REMARK    2  A    between atoms: C8_8  and  O11_11 
ROOT
HETATM    1  C1  UNL     1     -33.367  16.575  -5.072  1.00 20.00    -0.025 C 
HETATM    2  C2  UNL     1     -33.498  15.750  -6.122  1.00 20.00    -0.023 C 
HETATM    3  C4  UNL     1     -33.036  14.424  -4.288  1.00 20.00     0.019 C 
HETATM    4  C5  UNL     1     -35.150  15.432  -3.808  1.00 20.00     0.042 C 
HETATM    5  C6  UNL     1     -33.639  15.761  -3.830  1.00 20.00     0.011 C 
HETATM    6  C7  UNL     1     -33.861  14.386  -5.579  1.00 20.00     0.038 C 
HETATM    7  C8  UNL     1     -35.289  14.427  -4.986  1.00 20.00     0.140 C 
ENDROOT
BRANCH   7   8
HETATM    8  O11 UNL     1     -36.255  14.851  -5.928  1.00 20.00    -0.316 OA
BRANCH   8   9
HETATM    9  C3  UNL     1     -37.562  14.794  -5.518  1.00 20.00     0.255 C 
HETATM   10  C9  UNL     1     -38.257  16.085  -5.827  1.00 20.00     0.126 C 
HETATM   11  O10 UNL     1     -38.100  13.837  -4.977  1.00 20.00    -0.266 OA
ENDBRANCH   8   9
ENDBRANCH   7   8
TORSDOF 2
ENDMDL
MODEL 9
REMARK VINA RESULT:      -4.0      1.779      4.881
REMARK  2 active torsions:
REMARK  status: ('A' for Active; 'I' for Inactive)
REMARK    1  A    between atoms: C3_3  and  O11_11 
REMARK    2  A    between atoms: C8_8  and  O11_11 
ROOT
HETATM    1  C1  UNL     1     -32.143  10.926   1.086  1.00 20.00    -0.025 C 
HETATM    2  C2  UNL     1     -33.230  10.546   1.772  1.00 20.00    -0.023 C 
HETATM    3  C4  UNL     1     -33.236   9.346  -0.202  1.00 20.00     0.019 C 
HETATM    4  C5  UNL     1     -31.277   8.621   0.961  1.00 20.00     0.042 C 
HETATM    5  C6  UNL     1     -31.809   9.810   0.126  1.00 20.00     0.011 C 
HETATM    6  C7  UNL     1     -33.620   9.173   1.272  1.00 20.00     0.038 C 
HETATM    7  C8  UNL     1     -32.554   8.141   1.708  1.00 20.00     0.140 C 
ENDROOT
BRANCH   7   8
HETATM    8  O11 UNL     1     -32.365   8.115   3.109  1.00 20.00    -0.316 OA
BRANCH   8   9
HETATM    9  C3  UNL     1     -33.078   7.167   3.796  1.00 20.00     0.255 C 
HETATM   10  C9  UNL     1     -33.315   5.970   2.927  1.00 20.00     0.126 C 
HETATM   11  O10 UNL     1     -33.472   7.266   4.951  1.00 20.00    -0.266 OA
ENDBRANCH   8   9
ENDBRANCH   7   8
TORSDOF 2
ENDMDL
