MODEL 1
REMARK VINA RESULT:      -4.2      0.000      0.000
REMARK  0 active torsions:
REMARK  status: ('A' for Active; 'I' for Inactive)
ROOT
HETATM    1  C1  UNL     1     -33.375   7.139   4.665  1.00 20.00     0.056 A 
HETATM    2  C2  UNL     1     -33.748   6.006   3.973  1.00 20.00     0.077 A 
HETATM    3  C3  UNL     1     -32.541   7.660   2.705  1.00 20.00     0.072 A 
HETATM    4  C4  UNL     1     -33.643   7.428   6.090  1.00 20.00     0.072 C 
HETATM    5  C5  UNL     1     -31.848   8.408   1.633  1.00 20.00     0.079 C 
HETATM    6  N6  UNL     1     -32.682   8.088   3.939  1.00 20.00    -0.249 NA
HETATM    7  S7  UNL     1     -33.217   6.123   2.347  1.00 20.00    -0.066 SA
HETATM    8 BR8  UNL     1     -34.702   4.524   4.670  1.00 20.00    -0.041 Br
ENDROOT
TORSDOF 0
ENDMDL
MODEL 2
REMARK VINA RESULT:      -3.5     12.172     12.448
REMARK  0 active torsions:
REMARK  status: ('A' for Active; 'I' for Inactive)
ROOT
HETATM    1  C1  UNL     1     -35.076  14.426  -5.123  1.00 20.00     0.056 A 
HETATM    2  C2  UNL     1     -34.229  14.965  -6.068  1.00 20.00     0.077 A 
HETATM    3  C3  UNL     1     -34.071  15.908  -3.857  1.00 20.00     0.072 A 
HETATM    4  C4  UNL     1     -36.057  13.340  -5.338  1.00 20.00     0.072 C 
HETATM    5  C5  UNL     1     -33.695  16.713  -2.674  1.00 20.00     0.079 C 
HETATM    6  N6  UNL     1     -34.987  14.965  -3.854  1.00 20.00    -0.249 NA
HETATM    7  S7  UNL     1     -33.278  16.200  -5.350  1.00 20.00    -0.066 SA
HETATM    8 BR8  UNL     1     -34.101  14.454  -7.888  1.00 20.00    -0.041 Br
ENDROOT
TORSDOF 0
ENDMDL
MODEL 3
REMARK VINA RESULT:      -3.4      1.984      2.328
REMARK  0 active torsions:
REMARK  status: ('A' for Active; 'I' for Inactive)
ROOT
HETATM    1  C1  UNL     1     -33.654   6.802   3.210  1.00 20.00     0.056 A 
HETATM    2  C2  UNL     1     -33.106   7.467   4.287  1.00 20.00     0.077 A 
HETATM    3  C3  UNL     1     -32.192   8.031   2.131  1.00 20.00     0.072 A 
HETATM    4  C4  UNL     1     -34.732   5.792   3.255  1.00 20.00     0.072 C 
HETATM    5  C5  UNL     1     -31.405   8.623   1.027  1.00 20.00     0.079 C 
HETATM    6  N6  UNL     1     -33.132   7.125   1.973  1.00 20.00    -0.249 NA
HETATM    7  S7  UNL     1     -31.885   8.540   3.741  1.00 20.00    -0.066 SA
HETATM    8 BR8  UNL     1     -33.594   7.257   6.106  1.00 20.00    -0.041 Br
ENDROOT
TORSDOF 0
ENDMDL
MODEL 4
REMARK VINA RESULT:      -3.3     11.540     12.072
REMARK  0 active torsions:
REMARK  status: ('A' for Active; 'I' for Inactive)
ROOT
HETATM    1  C1  UNL     1     -34.420  14.881  -4.127  1.00 20.00     0.056 A 
HETATM    2  C2  UNL     1     -34.803  15.982  -3.389  1.00 20.00     0.077 A 
HETATM    3  C3  UNL     1     -36.563  14.860  -4.593  1.00 20.00     0.072 A 
HETATM    4  C4  UNL     1     -33.051  14.336  -4.246  1.00 20.00     0.072 C 
HETATM    5  C5  UNL     1     -37.866  14.457  -5.165  1.00 20.00     0.079 C 
HETATM    6  N6  UNL     1     -35.427  14.237  -4.818  1.00 20.00    -0.249 NA
HETATM    7  S7  UNL     1     -36.492  16.229  -3.561  1.00 20.00    -0.066 SA
HETATM    8 BR8  UNL     1     -33.675  17.080  -2.335  1.00 20.00    -0.041 Br
ENDROOT
TORSDOF 0
ENDMDL
MODEL 5
REMARK VINA RESULT:      -3.3     12.083     12.247
REMARK  0 active torsions:
REMARK  status: ('A' for Active; 'I' for Inactive)
ROOT
HETATM    1  C1  UNL     1     -31.699  18.679   1.291  1.00 20.00     0.056 A 
HETATM    2  C2  UNL     1     -33.004  18.638   1.734  1.00 20.00     0.077 A 
HETATM    3  C3  UNL     1     -32.699  18.484  -0.651  1.00 20.00     0.072 A 
HETATM    4  C4  UNL     1     -30.488  18.807   2.131  1.00 20.00     0.072 C 
HETATM    5  C5  UNL     1     -32.911  18.366  -2.110  1.00 20.00     0.079 C 
HETATM    6  N6  UNL     1     -31.522  18.590  -0.076  1.00 20.00    -0.249 NA
HETATM    7  S7  UNL     1     -34.062  18.484   0.392  1.00 20.00    -0.066 SA
HETATM    8 BR8  UNL     1     -33.586  18.735   3.535  1.00 20.00    -0.041 Br
ENDROOT
TORSDOF 0
ENDMDL
MODEL 6
REMARK VINA RESULT:      -3.2     11.590     11.977
REMARK  0 active torsions:
REMARK  status: ('A' for Active; 'I' for Inactive)
ROOT
HETATM    1  C1  UNL     1     -35.458  15.615  -3.577  1.00 20.00     0.056 A 
HETATM    2  C2  UNL     1     -34.797  14.684  -4.350  1.00 20.00     0.077 A 
HETATM    3  C3  UNL     1     -37.179  14.824  -4.682  1.00 20.00     0.072 A 
HETATM    4  C4  UNL     1     -34.850  16.520  -2.578  1.00 20.00     0.072 C 
HETATM    5  C5  UNL     1     -38.567  14.622  -5.153  1.00 20.00     0.079 C 
HETATM    6  N6  UNL     1     -36.823  15.697  -3.766  1.00 20.00    -0.249 NA
HETATM    7  S7  UNL     1     -35.922  13.871  -5.358  1.00 20.00    -0.066 SA
HETATM    8 BR8  UNL     1     -32.937  14.323  -4.334  1.00 20.00    -0.041 Br
ENDROOT
TORSDOF 0
ENDMDL
MODEL 7
REMARK VINA RESULT:      -3.2     12.060     13.031
REMARK  0 active torsions:
REMARK  status: ('A' for Active; 'I' for Inactive)
ROOT
HETATM    1  C1  UNL     1     -33.909  16.154  -6.194  1.00 20.00     0.056 A 
HETATM    2  C2  UNL     1     -34.275  14.846  -5.953  1.00 20.00     0.077 A 
HETATM    3  C3  UNL     1     -33.847  16.193  -4.002  1.00 20.00     0.072 A 
HETATM    4  C4  UNL     1     -33.757  16.794  -7.518  1.00 20.00     0.072 C 
HETATM    5  C5  UNL     1     -33.677  16.681  -2.616  1.00 20.00     0.079 C 
HETATM    6  N6  UNL     1     -33.664  16.928  -5.077  1.00 20.00    -0.249 NA
HETATM    7  S7  UNL     1     -34.316  14.563  -4.261  1.00 20.00    -0.066 SA
HETATM    8 BR8  UNL     1     -34.680  13.531  -7.256  1.00 20.00    -0.041 Br
ENDROOT
TORSDOF 0
ENDMDL
MODEL 8
REMARK VINA RESULT:      -3.1     12.235     12.477
REMARK  0 active torsions:
REMARK  status: ('A' for Active; 'I' for Inactive)
ROOT
HETATM    1  C1  UNL     1     -32.739  18.404  -0.616  1.00 20.00     0.056 A 
HETATM    2  C2  UNL     1     -33.778  18.440   0.290  1.00 20.00     0.077 A 
HETATM    3  C3  UNL     1     -31.575  18.766   1.207  1.00 20.00     0.072 A 
HETATM    4  C4  UNL     1     -32.850  18.186  -2.074  1.00 20.00     0.072 C 
HETATM    5  C5  UNL     1     -30.427  18.998   2.112  1.00 20.00     0.079 C 
HETATM    6  N6  UNL     1     -31.475  18.591  -0.092  1.00 20.00    -0.249 NA
HETATM    7  S7  UNL     1     -33.159  18.718   1.865  1.00 20.00    -0.066 SA
HETATM    8 BR8  UNL     1     -35.619  18.221  -0.100  1.00 20.00    -0.041 Br
ENDROOT
TORSDOF 0
ENDMDL
MODEL 9
REMARK VINA RESULT:      -3.1     11.843     12.055
REMARK  0 active torsions:
REMARK  status: ('A' for Active; 'I' for Inactive)
ROOT
HETATM    1  C1  UNL     1     -35.693  14.748  -4.302  1.00 20.00     0.056 A 
HETATM    2  C2  UNL     1     -36.778  15.559  -4.041  1.00 20.00     0.077 A 
HETATM    3  C3  UNL     1     -34.692  16.243  -3.048  1.00 20.00     0.072 A 
HETATM    4  C4  UNL     1     -35.692  13.517  -5.121  1.00 20.00     0.072 C 
HETATM    5  C5  UNL     1     -33.638  16.962  -2.299  1.00 20.00     0.079 C 
HETATM    6  N6  UNL     1     -34.496  15.139  -3.734  1.00 20.00    -0.249 NA
HETATM    7  S7  UNL     1     -36.291  16.867  -3.044  1.00 20.00    -0.066 SA
HETATM    8 BR8  UNL     1     -38.548  15.306  -4.667  1.00 20.00    -0.041 Br
ENDROOT
TORSDOF 0
ENDMDL
