MODEL 1
REMARK VINA RESULT:      -3.5      0.000      0.000
REMARK  0 active torsions:
REMARK  status: ('A' for Active; 'I' for Inactive)
ROOT
HETATM    1  C1  UNL     1     -32.355   7.934   2.337  1.00 20.00     0.075 C 
HETATM    2  C2  UNL     1     -34.867   5.208   4.991  1.00 20.00     0.084 C 
HETATM    3  C3  UNL     1     -33.989   4.521   3.957  1.00 20.00     0.085 C 
HETATM    4  C4  UNL     1     -33.669   7.633   4.389  1.00 20.00     0.104 C 
HETATM    5  C5  UNL     1     -32.780   6.950   3.347  1.00 20.00     0.163 C 
HETATM    6  N6  UNL     1     -32.020   8.709   1.541  1.00 20.00    -0.196 NA
HETATM    7  S7  UNL     1     -34.019   6.578   5.831  1.00 20.00    -0.166 SA
HETATM    8  S8  UNL     1     -33.648   5.572   2.515  1.00 20.00    -0.148 SA
ENDROOT
TORSDOF 0
ENDMDL
MODEL 2
REMARK VINA RESULT:      -3.4      1.235      2.083
REMARK  0 active torsions:
REMARK  status: ('A' for Active; 'I' for Inactive)
ROOT
HETATM    1  C1  UNL     1     -32.615   7.788   2.541  1.00 20.00     0.075 C 
HETATM    2  C2  UNL     1     -34.203   4.894   5.686  1.00 20.00     0.084 C 
HETATM    3  C3  UNL     1     -34.526   6.365   5.898  1.00 20.00     0.085 C 
HETATM    4  C4  UNL     1     -33.181   5.486   3.180  1.00 20.00     0.104 C 
HETATM    5  C5  UNL     1     -33.503   6.968   3.383  1.00 20.00     0.163 C 
HETATM    6  N6  UNL     1     -31.916   8.436   1.879  1.00 20.00    -0.196 NA
HETATM    7  S7  UNL     1     -34.398   4.377   3.954  1.00 20.00    -0.166 SA
HETATM    8  S8  UNL     1     -33.304   7.470   5.132  1.00 20.00    -0.148 SA
ENDROOT
TORSDOF 0
ENDMDL
MODEL 3
REMARK VINA RESULT:      -3.2     11.738     12.894
REMARK  0 active torsions:
REMARK  status: ('A' for Active; 'I' for Inactive)
ROOT
HETATM    1  C1  UNL     1     -35.646  13.886  -4.980  1.00 20.00     0.075 C 
HETATM    2  C2  UNL     1     -33.629  17.930  -4.374  1.00 20.00     0.084 C 
HETATM    3  C3  UNL     1     -34.899  17.928  -5.212  1.00 20.00     0.085 C 
HETATM    4  C4  UNL     1     -34.068  15.276  -3.713  1.00 20.00     0.104 C 
HETATM    5  C5  UNL     1     -35.347  15.264  -4.551  1.00 20.00     0.163 C 
HETATM    6  N6  UNL     1     -35.883  12.802  -5.318  1.00 20.00    -0.196 NA
HETATM    7  S7  UNL     1     -33.761  16.875  -2.900  1.00 20.00    -0.166 SA
HETATM    8  S8  UNL     1     -35.198  16.333  -6.029  1.00 20.00    -0.148 SA
ENDROOT
TORSDOF 0
ENDMDL
MODEL 4
REMARK VINA RESULT:      -3.2     12.241     12.990
REMARK  0 active torsions:
REMARK  status: ('A' for Active; 'I' for Inactive)
ROOT
HETATM    1  C1  UNL     1     -37.082  14.374  -4.925  1.00 20.00     0.075 C 
HETATM    2  C2  UNL     1     -33.400  17.057  -4.753  1.00 20.00     0.084 C 
HETATM    3  C3  UNL     1     -33.895  16.505  -3.425  1.00 20.00     0.085 C 
HETATM    4  C4  UNL     1     -35.201  15.434  -6.093  1.00 20.00     0.104 C 
HETATM    5  C5  UNL     1     -35.704  14.870  -4.763  1.00 20.00     0.163 C 
HETATM    6  N6  UNL     1     -38.167  13.982  -5.051  1.00 20.00    -0.196 NA
HETATM    7  S7  UNL     1     -33.421  15.816  -6.080  1.00 20.00    -0.166 SA
HETATM    8  S8  UNL     1     -35.673  16.132  -3.438  1.00 20.00    -0.148 SA
ENDROOT
TORSDOF 0
ENDMDL
MODEL 5
REMARK VINA RESULT:      -3.1     12.116     12.886
REMARK  0 active torsions:
REMARK  status: ('A' for Active; 'I' for Inactive)
ROOT
HETATM    1  C1  UNL     1     -37.306  14.570  -5.124  1.00 20.00     0.075 C 
HETATM    2  C2  UNL     1     -32.864  15.582  -5.303  1.00 20.00     0.084 C 
HETATM    3  C3  UNL     1     -33.625  15.647  -6.619  1.00 20.00     0.085 C 
HETATM    4  C4  UNL     1     -35.253  15.221  -3.947  1.00 20.00     0.104 C 
HETATM    5  C5  UNL     1     -36.028  15.287  -5.265  1.00 20.00     0.163 C 
HETATM    6  N6  UNL     1     -38.314  14.004  -5.015  1.00 20.00    -0.196 NA
HETATM    7  S7  UNL     1     -33.794  16.308  -3.921  1.00 20.00    -0.166 SA
HETATM    8  S8  UNL     1     -35.077  14.554  -6.646  1.00 20.00    -0.148 SA
ENDROOT
TORSDOF 0
ENDMDL
MODEL 6
REMARK VINA RESULT:      -3.1     12.128     13.168
REMARK  0 active torsions:
REMARK  status: ('A' for Active; 'I' for Inactive)
ROOT
HETATM    1  C1  UNL     1     -37.166  14.382  -5.275  1.00 20.00     0.075 C 
HETATM    2  C2  UNL     1     -33.289  16.765  -4.996  1.00 20.00     0.084 C 
HETATM    3  C3  UNL     1     -33.157  15.251  -4.933  1.00 20.00     0.085 C 
HETATM    4  C4  UNL     1     -35.974  16.499  -5.628  1.00 20.00     0.104 C 
HETATM    5  C5  UNL     1     -35.851  14.975  -5.570  1.00 20.00     0.163 C 
HETATM    6  N6  UNL     1     -38.202  13.915  -5.042  1.00 20.00    -0.196 NA
HETATM    7  S7  UNL     1     -34.474  17.313  -6.261  1.00 20.00    -0.166 SA
HETATM    8  S8  UNL     1     -34.652  14.441  -4.293  1.00 20.00    -0.148 SA
ENDROOT
TORSDOF 0
ENDMDL
MODEL 7
REMARK VINA RESULT:      -3.1     11.650     12.783
REMARK  0 active torsions:
REMARK  status: ('A' for Active; 'I' for Inactive)
ROOT
HETATM    1  C1  UNL     1     -35.036  13.549  -6.266  1.00 20.00     0.075 C 
HETATM    2  C2  UNL     1     -33.559  17.143  -3.881  1.00 20.00     0.084 C 
HETATM    3  C3  UNL     1     -33.750  17.357  -5.375  1.00 20.00     0.085 C 
HETATM    4  C4  UNL     1     -34.750  14.650  -4.091  1.00 20.00     0.104 C 
HETATM    5  C5  UNL     1     -34.949  14.856  -5.594  1.00 20.00     0.163 C 
HETATM    6  N6  UNL     1     -35.103  12.519  -6.797  1.00 20.00    -0.196 NA
HETATM    7  S7  UNL     1     -34.911  16.188  -3.131  1.00 20.00    -0.166 SA
HETATM    8  S8  UNL     1     -33.580  15.821  -6.331  1.00 20.00    -0.148 SA
ENDROOT
TORSDOF 0
ENDMDL
MODEL 8
REMARK VINA RESULT:      -3.1     11.995     12.759
REMARK  0 active torsions:
REMARK  status: ('A' for Active; 'I' for Inactive)
ROOT
HETATM    1  C1  UNL     1     -35.583  13.943  -5.081  1.00 20.00     0.075 C 
HETATM    2  C2  UNL     1     -33.617  17.801  -3.655  1.00 20.00     0.084 C 
HETATM    3  C3  UNL     1     -33.502  17.495  -5.140  1.00 20.00     0.085 C 
HETATM    4  C4  UNL     1     -35.372  15.678  -3.358  1.00 20.00     0.104 C 
HETATM    5  C5  UNL     1     -35.265  15.363  -4.851  1.00 20.00     0.163 C 
HETATM    6  N6  UNL     1     -35.833  12.825  -5.264  1.00 20.00    -0.196 NA
HETATM    7  S7  UNL     1     -35.275  17.459  -2.995  1.00 20.00    -0.166 SA
HETATM    8  S8  UNL     1     -33.591  15.716  -5.499  1.00 20.00    -0.148 SA
ENDROOT
TORSDOF 0
ENDMDL
MODEL 9
REMARK VINA RESULT:      -3.0     11.761     13.268
REMARK  0 active torsions:
REMARK  status: ('A' for Active; 'I' for Inactive)
ROOT
HETATM    1  C1  UNL     1     -35.339  13.856  -5.214  1.00 20.00     0.075 C 
HETATM    2  C2  UNL     1     -34.222  18.250  -4.730  1.00 20.00     0.084 C 
HETATM    3  C3  UNL     1     -33.633  17.288  -3.710  1.00 20.00     0.085 C 
HETATM    4  C4  UNL     1     -35.183  16.102  -6.193  1.00 20.00     0.104 C 
HETATM    5  C5  UNL     1     -34.594  15.126  -5.173  1.00 20.00     0.163 C 
HETATM    6  N6  UNL     1     -35.926  12.856  -5.245  1.00 20.00    -0.196 NA
HETATM    7  S7  UNL     1     -34.167  17.594  -6.424  1.00 20.00    -0.166 SA
HETATM    8  S8  UNL     1     -34.654  15.804  -3.474  1.00 20.00    -0.148 SA
ENDROOT
TORSDOF 0
ENDMDL
