MODEL 1
REMARK VINA RESULT:      -5.8      0.000      0.000
REMARK  0 active torsions:
REMARK  status: ('A' for Active; 'I' for Inactive)
ROOT
HETATM    1  C1  UNL     1     -34.507   6.203   6.080  1.00 20.00    -0.030 C 
HETATM    2  C2  UNL     1     -34.694   5.006   5.474  1.00 20.00    -0.029 C 
HETATM    3  C3  UNL     1     -32.804   7.483   2.853  1.00 20.00     0.224 C 
HETATM    4  C4  UNL     1     -33.855   7.405   5.397  1.00 20.00     0.043 C 
HETATM    5  C5  UNL     1     -34.336   4.734   4.014  1.00 20.00     0.053 C 
HETATM    6  C6  UNL     1     -33.121   6.846   4.203  1.00 20.00     0.104 C 
HETATM    7  C7  UNL     1     -34.198   6.096   3.382  1.00 20.00     0.101 C 
HETATM    8  N8  UNL     1     -33.347   6.373   2.237  1.00 20.00    -0.355 N 
HETATM    9  O9  UNL     1     -32.257   8.476   2.438  1.00 20.00    -0.273 OA
HETATM   10  H18 UNL     1     -33.497   6.246   1.243  1.00 20.00     0.162 HD
ENDROOT
TORSDOF 0
ENDMDL
MODEL 2
REMARK VINA RESULT:      -5.6      1.213      2.100
REMARK  0 active torsions:
REMARK  status: ('A' for Active; 'I' for Inactive)
ROOT
HETATM    1  C1  UNL     1     -34.556   5.248   4.188  1.00 20.00    -0.030 C 
HETATM    2  C2  UNL     1     -34.580   5.949   5.347  1.00 20.00    -0.029 C 
HETATM    3  C3  UNL     1     -32.257   7.967   2.680  1.00 20.00     0.224 C 
HETATM    4  C4  UNL     1     -33.758   5.675   2.957  1.00 20.00     0.043 C 
HETATM    5  C5  UNL     1     -33.760   7.216   5.583  1.00 20.00     0.053 C 
HETATM    6  C6  UNL     1     -33.443   7.137   3.162  1.00 20.00     0.104 C 
HETATM    7  C7  UNL     1     -32.696   7.202   4.516  1.00 20.00     0.101 C 
HETATM    8  N8  UNL     1     -32.074   8.400   3.979  1.00 20.00    -0.355 N 
HETATM    9  O9  UNL     1     -31.715   8.232   1.635  1.00 20.00    -0.273 OA
HETATM   10  H18 UNL     1     -31.313   8.973   4.323  1.00 20.00     0.162 HD
ENDROOT
TORSDOF 0
ENDMDL
MODEL 3
REMARK VINA RESULT:      -4.7      2.414      3.712
REMARK  0 active torsions:
REMARK  status: ('A' for Active; 'I' for Inactive)
ROOT
HETATM    1  C1  UNL     1     -32.440   7.523   2.484  1.00 20.00    -0.030 C 
HETATM    2  C2  UNL     1     -32.132   8.222   3.603  1.00 20.00    -0.029 C 
HETATM    3  C3  UNL     1     -34.517   5.098   4.666  1.00 20.00     0.224 C 
HETATM    4  C4  UNL     1     -33.349   6.293   2.478  1.00 20.00     0.043 C 
HETATM    5  C5  UNL     1     -32.708   7.905   4.981  1.00 20.00     0.053 C 
HETATM    6  C6  UNL     1     -33.407   5.823   3.911  1.00 20.00     0.104 C 
HETATM    7  C7  UNL     1     -33.916   7.043   4.716  1.00 20.00     0.101 C 
HETATM    8  N8  UNL     1     -34.429   6.059   5.654  1.00 20.00    -0.355 N 
HETATM    9  O9  UNL     1     -35.170   4.090   4.548  1.00 20.00    -0.273 OA
HETATM   10  H18 UNL     1     -35.033   6.153   6.461  1.00 20.00     0.162 HD
ENDROOT
TORSDOF 0
ENDMDL
MODEL 4
REMARK VINA RESULT:      -4.5      2.379      3.330
REMARK  0 active torsions:
REMARK  status: ('A' for Active; 'I' for Inactive)
ROOT
HETATM    1  C1  UNL     1     -32.517   7.961   3.625  1.00 20.00    -0.030 C 
HETATM    2  C2  UNL     1     -32.781   7.372   2.434  1.00 20.00    -0.029 C 
HETATM    3  C3  UNL     1     -34.625   5.222   5.359  1.00 20.00     0.224 C 
HETATM    4  C4  UNL     1     -33.015   7.420   4.966  1.00 20.00     0.043 C 
HETATM    5  C5  UNL     1     -33.551   6.061   2.294  1.00 20.00     0.053 C 
HETATM    6  C6  UNL     1     -34.139   6.470   4.630  1.00 20.00     0.104 C 
HETATM    7  C7  UNL     1     -33.516   5.433   3.664  1.00 20.00     0.101 C 
HETATM    8  N8  UNL     1     -34.537   4.529   4.166  1.00 20.00    -0.355 N 
HETATM    9  O9  UNL     1     -35.007   4.921   6.464  1.00 20.00    -0.273 OA
HETATM   10  H18 UNL     1     -34.678   3.536   4.032  1.00 20.00     0.162 HD
ENDROOT
TORSDOF 0
ENDMDL
MODEL 5
REMARK VINA RESULT:      -4.5     11.610     12.200
REMARK  0 active torsions:
REMARK  status: ('A' for Active; 'I' for Inactive)
ROOT
HETATM    1  C1  UNL     1     -34.438  16.458  -3.077  1.00 20.00    -0.030 C 
HETATM    2  C2  UNL     1     -33.379  15.862  -3.676  1.00 20.00    -0.029 C 
HETATM    3  C3  UNL     1     -36.774  14.013  -4.953  1.00 20.00     0.224 C 
HETATM    4  C4  UNL     1     -35.886  16.015  -3.285  1.00 20.00     0.043 C 
HETATM    5  C5  UNL     1     -33.499  14.635  -4.578  1.00 20.00     0.053 C 
HETATM    6  C6  UNL     1     -35.881  15.179  -4.542  1.00 20.00     0.104 C 
HETATM    7  C7  UNL     1     -34.855  14.052  -4.272  1.00 20.00     0.101 C 
HETATM    8  N8  UNL     1     -35.636  13.277  -5.222  1.00 20.00    -0.355 N 
HETATM    9  O9  UNL     1     -37.953  13.790  -5.083  1.00 20.00    -0.273 OA
HETATM   10  H18 UNL     1     -35.595  12.300  -5.485  1.00 20.00     0.162 HD
ENDROOT
TORSDOF 0
ENDMDL
MODEL 6
REMARK VINA RESULT:      -4.3     11.680     12.227
REMARK  0 active torsions:
REMARK  status: ('A' for Active; 'I' for Inactive)
ROOT
HETATM    1  C1  UNL     1     -33.559  16.250  -3.238  1.00 20.00    -0.030 C 
HETATM    2  C2  UNL     1     -34.702  16.758  -2.718  1.00 20.00    -0.029 C 
HETATM    3  C3  UNL     1     -35.677  13.620  -5.123  1.00 20.00     0.224 C 
HETATM    4  C4  UNL     1     -33.523  15.078  -4.219  1.00 20.00     0.043 C 
HETATM    5  C5  UNL     1     -36.095  16.263  -3.100  1.00 20.00     0.053 C 
HETATM    6  C6  UNL     1     -34.865  14.400  -4.093  1.00 20.00     0.104 C 
HETATM    7  C7  UNL     1     -35.906  15.506  -4.390  1.00 20.00     0.101 C 
HETATM    8  N8  UNL     1     -36.765  14.416  -4.822  1.00 20.00    -0.355 N 
HETATM    9  O9  UNL     1     -35.522  12.672  -5.854  1.00 20.00    -0.273 OA
HETATM   10  H18 UNL     1     -37.663  14.415  -5.290  1.00 20.00     0.162 HD
ENDROOT
TORSDOF 0
ENDMDL
MODEL 7
REMARK VINA RESULT:      -4.3      2.112      3.173
REMARK  0 active torsions:
REMARK  status: ('A' for Active; 'I' for Inactive)
ROOT
HETATM    1  C1  UNL     1     -32.460   8.349   4.766  1.00 20.00    -0.030 C 
HETATM    2  C2  UNL     1     -32.134   8.431   3.454  1.00 20.00    -0.029 C 
HETATM    3  C3  UNL     1     -34.401   5.093   4.002  1.00 20.00     0.224 C 
HETATM    4  C4  UNL     1     -33.282   7.208   5.364  1.00 20.00     0.043 C 
HETATM    5  C5  UNL     1     -32.492   7.358   2.427  1.00 20.00     0.053 C 
HETATM    6  C6  UNL     1     -33.968   6.543   4.196  1.00 20.00     0.104 C 
HETATM    7  C7  UNL     1     -32.824   6.131   3.238  1.00 20.00     0.101 C 
HETATM    8  N8  UNL     1     -33.734   5.089   2.792  1.00 20.00    -0.355 N 
HETATM    9  O9  UNL     1     -35.084   4.278   4.572  1.00 20.00    -0.273 OA
HETATM   10  H18 UNL     1     -33.595   4.294   2.181  1.00 20.00     0.162 HD
ENDROOT
TORSDOF 0
ENDMDL
MODEL 8
REMARK VINA RESULT:      -4.2      1.916      2.526
REMARK  0 active torsions:
REMARK  status: ('A' for Active; 'I' for Inactive)
ROOT
HETATM    1  C1  UNL     1     -33.434   7.907   4.962  1.00 20.00    -0.030 C 
HETATM    2  C2  UNL     1     -33.985   7.210   5.984  1.00 20.00    -0.029 C 
HETATM    3  C3  UNL     1     -33.364   4.649   2.881  1.00 20.00     0.224 C 
HETATM    4  C4  UNL     1     -33.086   7.289   3.607  1.00 20.00     0.043 C 
HETATM    5  C5  UNL     1     -34.385   5.740   5.884  1.00 20.00     0.053 C 
HETATM    6  C6  UNL     1     -33.055   5.798   3.835  1.00 20.00     0.104 C 
HETATM    7  C7  UNL     1     -34.451   5.448   4.406  1.00 20.00     0.101 C 
HETATM    8  N8  UNL     1     -34.225   4.133   3.831  1.00 20.00    -0.355 N 
HETATM    9  O9  UNL     1     -32.998   4.260   1.798  1.00 20.00    -0.273 OA
HETATM   10  H18 UNL     1     -34.837   3.334   3.721  1.00 20.00     0.162 HD
ENDROOT
TORSDOF 0
ENDMDL
MODEL 9
REMARK VINA RESULT:      -4.1      1.362      2.197
REMARK  0 active torsions:
REMARK  status: ('A' for Active; 'I' for Inactive)
ROOT
HETATM    1  C1  UNL     1     -34.636   5.303   5.947  1.00 20.00    -0.030 C 
HETATM    2  C2  UNL     1     -34.161   6.507   6.345  1.00 20.00    -0.029 C 
HETATM    3  C3  UNL     1     -33.990   6.349   2.281  1.00 20.00     0.224 C 
HETATM    4  C4  UNL     1     -34.700   4.860   4.485  1.00 20.00     0.043 C 
HETATM    5  C5  UNL     1     -33.570   7.540   5.388  1.00 20.00     0.053 C 
HETATM    6  C6  UNL     1     -34.578   6.124   3.670  1.00 20.00     0.104 C 
HETATM    7  C7  UNL     1     -33.250   6.774   4.129  1.00 20.00     0.101 C 
HETATM    8  N8  UNL     1     -33.222   7.371   2.805  1.00 20.00    -0.355 N 
HETATM    9  O9  UNL     1     -34.139   5.915   1.164  1.00 20.00    -0.273 OA
HETATM   10  H18 UNL     1     -32.505   7.898   2.321  1.00 20.00     0.162 HD
ENDROOT
TORSDOF 0
ENDMDL
