MODEL 1
REMARK VINA RESULT:      -3.4      0.000      0.000
REMARK  0 active torsions:
REMARK  status: ('A' for Active; 'I' for Inactive)
ROOT
HETATM    1  C1  UNL     1     -33.730   7.229   5.844  1.00 20.00     0.197 C 
HETATM    2  C2  UNL     1     -32.885   7.707   4.695  1.00 20.00     0.197 C 
HETATM    3  C3  UNL     1     -34.216   6.010   3.994  1.00 20.00     0.156 C 
HETATM    4  C4  UNL     1     -35.675   6.040   3.560  1.00 20.00     0.078 C 
HETATM    5  C5  UNL     1     -33.487   4.810   3.405  1.00 20.00     0.078 C 
HETATM    6  O6  UNL     1     -34.148   5.930   5.427  1.00 20.00    -0.354 OA
HETATM    7  O7  UNL     1     -33.579   7.219   3.548  1.00 20.00    -0.354 OA
ENDROOT
TORSDOF 0
ENDMDL
MODEL 2
REMARK VINA RESULT:      -3.4      0.132      2.010
REMARK  0 active torsions:
REMARK  status: ('A' for Active; 'I' for Inactive)
ROOT
HETATM    1  C1  UNL     1     -32.986   7.686   4.860  1.00 20.00     0.197 C 
HETATM    2  C2  UNL     1     -33.844   7.111   5.953  1.00 20.00     0.197 C 
HETATM    3  C3  UNL     1     -34.261   6.012   4.014  1.00 20.00     0.156 C 
HETATM    4  C4  UNL     1     -33.489   4.872   3.361  1.00 20.00     0.078 C 
HETATM    5  C5  UNL     1     -35.710   6.037   3.547  1.00 20.00     0.078 C 
HETATM    6  O6  UNL     1     -33.645   7.263   3.667  1.00 20.00    -0.354 OA
HETATM    7  O7  UNL     1     -34.223   5.834   5.439  1.00 20.00    -0.354 OA
ENDROOT
TORSDOF 0
ENDMDL
MODEL 3
REMARK VINA RESULT:      -3.4      1.713      3.047
REMARK  0 active torsions:
REMARK  status: ('A' for Active; 'I' for Inactive)
ROOT
HETATM    1  C1  UNL     1     -33.636   5.603   2.993  1.00 20.00     0.197 C 
HETATM    2  C2  UNL     1     -34.189   6.458   4.101  1.00 20.00     0.197 C 
HETATM    3  C3  UNL     1     -32.627   7.634   2.953  1.00 20.00     0.156 C 
HETATM    4  C4  UNL     1     -32.761   8.401   1.643  1.00 20.00     0.078 C 
HETATM    5  C5  UNL     1     -31.461   8.154   3.783  1.00 20.00     0.078 C 
HETATM    6  O6  UNL     1     -32.403   6.243   2.668  1.00 20.00    -0.354 OA
HETATM    7  O7  UNL     1     -33.846   7.783   3.698  1.00 20.00    -0.354 OA
ENDROOT
TORSDOF 0
ENDMDL
MODEL 4
REMARK VINA RESULT:      -3.4      1.714      3.085
REMARK  0 active torsions:
REMARK  status: ('A' for Active; 'I' for Inactive)
ROOT
HETATM    1  C1  UNL     1     -34.227   6.478   4.069  1.00 20.00     0.197 C 
HETATM    2  C2  UNL     1     -33.657   5.613   2.978  1.00 20.00     0.197 C 
HETATM    3  C3  UNL     1     -32.631   7.635   2.947  1.00 20.00     0.156 C 
HETATM    4  C4  UNL     1     -31.480   8.151   3.801  1.00 20.00     0.078 C 
HETATM    5  C5  UNL     1     -32.729   8.397   1.632  1.00 20.00     0.078 C 
HETATM    6  O6  UNL     1     -33.866   7.798   3.665  1.00 20.00    -0.354 OA
HETATM    7  O7  UNL     1     -32.412   6.241   2.674  1.00 20.00    -0.354 OA
ENDROOT
TORSDOF 0
ENDMDL
MODEL 5
REMARK VINA RESULT:      -3.3      1.186      1.365
REMARK  0 active torsions:
REMARK  status: ('A' for Active; 'I' for Inactive)
ROOT
HETATM    1  C1  UNL     1     -32.996   7.502   4.124  1.00 20.00     0.197 C 
HETATM    2  C2  UNL     1     -32.527   6.686   2.950  1.00 20.00     0.197 C 
HETATM    3  C3  UNL     1     -34.354   5.704   3.867  1.00 20.00     0.156 C 
HETATM    4  C4  UNL     1     -35.830   6.027   3.669  1.00 20.00     0.078 C 
HETATM    5  C5  UNL     1     -34.159   4.267   4.332  1.00 20.00     0.078 C 
HETATM    6  O6  UNL     1     -33.805   6.586   4.860  1.00 20.00    -0.354 OA
HETATM    7  O7  UNL     1     -33.670   5.898   2.618  1.00 20.00    -0.354 OA
ENDROOT
TORSDOF 0
ENDMDL
MODEL 6
REMARK VINA RESULT:      -3.3      1.149      2.201
REMARK  0 active torsions:
REMARK  status: ('A' for Active; 'I' for Inactive)
ROOT
HETATM    1  C1  UNL     1     -32.546   6.759   2.957  1.00 20.00     0.197 C 
HETATM    2  C2  UNL     1     -33.011   7.520   4.168  1.00 20.00     0.197 C 
HETATM    3  C3  UNL     1     -34.346   5.713   3.858  1.00 20.00     0.156 C 
HETATM    4  C4  UNL     1     -34.120   4.262   4.261  1.00 20.00     0.078 C 
HETATM    5  C5  UNL     1     -35.828   6.018   3.691  1.00 20.00     0.078 C 
HETATM    6  O6  UNL     1     -33.682   5.968   2.609  1.00 20.00    -0.354 OA
HETATM    7  O7  UNL     1     -33.797   6.563   4.878  1.00 20.00    -0.354 OA
ENDROOT
TORSDOF 0
ENDMDL
MODEL 7
REMARK VINA RESULT:      -3.1      1.632      2.290
REMARK  0 active torsions:
REMARK  status: ('A' for Active; 'I' for Inactive)
ROOT
HETATM    1  C1  UNL     1     -34.369   4.232   4.538  1.00 20.00     0.197 C 
HETATM    2  C2  UNL     1     -34.566   5.455   5.390  1.00 20.00     0.197 C 
HETATM    3  C3  UNL     1     -33.915   6.085   3.311  1.00 20.00     0.156 C 
HETATM    4  C4  UNL     1     -34.744   6.245   2.044  1.00 20.00     0.078 C 
HETATM    5  C5  UNL     1     -32.643   6.920   3.250  1.00 20.00     0.078 C 
HETATM    6  O6  UNL     1     -33.550   4.704   3.469  1.00 20.00    -0.354 OA
HETATM    7  O7  UNL     1     -34.707   6.505   4.434  1.00 20.00    -0.354 OA
ENDROOT
TORSDOF 0
ENDMDL
MODEL 8
REMARK VINA RESULT:      -3.1     12.246     12.961
REMARK  0 active torsions:
REMARK  status: ('A' for Active; 'I' for Inactive)
ROOT
HETATM    1  C1  UNL     1     -33.486  15.998  -5.434  1.00 20.00     0.197 C 
HETATM    2  C2  UNL     1     -33.179  14.948  -4.402  1.00 20.00     0.197 C 
HETATM    3  C3  UNL     1     -34.726  14.147  -5.854  1.00 20.00     0.156 C 
HETATM    4  C4  UNL     1     -34.533  13.533  -7.234  1.00 20.00     0.078 C 
HETATM    5  C5  UNL     1     -36.039  13.696  -5.226  1.00 20.00     0.078 C 
HETATM    6  O6  UNL     1     -34.741  15.579  -5.968  1.00 20.00    -0.354 OA
HETATM    7  O7  UNL     1     -33.633  13.741  -5.014  1.00 20.00    -0.354 OA
ENDROOT
TORSDOF 0
ENDMDL
MODEL 9
REMARK VINA RESULT:      -3.1     12.264     12.882
REMARK  0 active torsions:
REMARK  status: ('A' for Active; 'I' for Inactive)
ROOT
HETATM    1  C1  UNL     1     -33.211  14.965  -4.422  1.00 20.00     0.197 C 
HETATM    2  C2  UNL     1     -33.501  15.995  -5.479  1.00 20.00     0.197 C 
HETATM    3  C3  UNL     1     -34.744  14.141  -5.876  1.00 20.00     0.156 C 
HETATM    4  C4  UNL     1     -36.065  13.708  -5.253  1.00 20.00     0.078 C 
HETATM    5  C5  UNL     1     -34.539  13.497  -7.241  1.00 20.00     0.078 C 
HETATM    6  O6  UNL     1     -33.662  13.748  -5.017  1.00 20.00    -0.354 OA
HETATM    7  O7  UNL     1     -34.752  15.571  -6.020  1.00 20.00    -0.354 OA
ENDROOT
TORSDOF 0
ENDMDL
