MODEL 1
REMARK VINA RESULT:      -4.7      0.000      0.000
REMARK  0 active torsions:
REMARK  status: ('A' for Active; 'I' for Inactive)
ROOT
HETATM    1  C1  UNL     1     -34.240   5.700   5.785  1.00 20.00     0.006 C 
HETATM    2  C2  UNL     1     -34.877   5.002   4.581  1.00 20.00     0.006 C 
HETATM    3  C3  UNL     1     -33.903   7.117   5.324  1.00 20.00     0.068 C 
HETATM    4  C4  UNL     1     -34.881   6.027   3.449  1.00 20.00     0.068 C 
HETATM    5  C5  UNL     1     -31.783   7.485   2.835  1.00 20.00     0.197 C 
HETATM    6  C6  UNL     1     -32.878   8.298   2.200  1.00 20.00     0.197 C 
HETATM    7  C7  UNL     1     -33.760   6.993   3.814  1.00 20.00     0.164 C 
HETATM    8  O8  UNL     1     -32.490   6.421   3.471  1.00 20.00    -0.353 OA
HETATM    9  O9  UNL     1     -33.922   8.257   3.172  1.00 20.00    -0.353 OA
ENDROOT
TORSDOF 0
ENDMDL
MODEL 2
REMARK VINA RESULT:      -4.4      1.123      2.070
REMARK  0 active torsions:
REMARK  status: ('A' for Active; 'I' for Inactive)
ROOT
HETATM    1  C1  UNL     1     -34.408   5.382   3.706  1.00 20.00     0.006 C 
HETATM    2  C2  UNL     1     -34.557   6.360   4.873  1.00 20.00     0.006 C 
HETATM    3  C3  UNL     1     -33.086   5.731   3.027  1.00 20.00     0.068 C 
HETATM    4  C4  UNL     1     -33.325   7.260   4.833  1.00 20.00     0.068 C 
HETATM    5  C5  UNL     1     -32.739   8.739   1.740  1.00 20.00     0.197 C 
HETATM    6  C6  UNL     1     -31.506   8.818   2.598  1.00 20.00     0.197 C 
HETATM    7  C7  UNL     1     -32.858   7.193   3.384  1.00 20.00     0.164 C 
HETATM    8  O8  UNL     1     -33.673   8.045   2.568  1.00 20.00    -0.353 OA
HETATM    9  O9  UNL     1     -31.483   7.550   3.254  1.00 20.00    -0.353 OA
ENDROOT
TORSDOF 0
ENDMDL
MODEL 3
REMARK VINA RESULT:      -4.1      1.273      3.421
REMARK  0 active torsions:
REMARK  status: ('A' for Active; 'I' for Inactive)
ROOT
HETATM    1  C1  UNL     1     -31.935   8.433   1.945  1.00 20.00     0.006 C 
HETATM    2  C2  UNL     1     -31.349   8.389   3.358  1.00 20.00     0.006 C 
HETATM    3  C3  UNL     1     -33.340   7.844   2.051  1.00 20.00     0.068 C 
HETATM    4  C4  UNL     1     -32.423   7.764   4.244  1.00 20.00     0.068 C 
HETATM    5  C5  UNL     1     -33.654   4.731   3.067  1.00 20.00     0.197 C 
HETATM    6  C6  UNL     1     -34.581   5.303   4.103  1.00 20.00     0.197 C 
HETATM    7  C7  UNL     1     -33.277   6.949   3.280  1.00 20.00     0.164 C 
HETATM    8  O8  UNL     1     -32.621   5.711   2.971  1.00 20.00    -0.353 OA
HETATM    9  O9  UNL     1     -34.579   6.700   3.808  1.00 20.00    -0.353 OA
ENDROOT
TORSDOF 0
ENDMDL
MODEL 4
REMARK VINA RESULT:      -4.0      2.150      4.514
REMARK  0 active torsions:
REMARK  status: ('A' for Active; 'I' for Inactive)
ROOT
HETATM    1  C1  UNL     1     -33.348   9.919  -0.129  1.00 20.00     0.006 C 
HETATM    2  C2  UNL     1     -32.325   8.913  -0.662  1.00 20.00     0.006 C 
HETATM    3  C3  UNL     1     -32.993  10.146   1.339  1.00 20.00     0.068 C 
HETATM    4  C4  UNL     1     -31.412   8.573   0.513  1.00 20.00     0.068 C 
HETATM    5  C5  UNL     1     -33.099   7.573   3.386  1.00 20.00     0.197 C 
HETATM    6  C6  UNL     1     -31.681   7.949   3.718  1.00 20.00     0.197 C 
HETATM    7  C7  UNL     1     -32.256   8.878   1.745  1.00 20.00     0.164 C 
HETATM    8  O8  UNL     1     -33.182   7.808   1.981  1.00 20.00    -0.353 OA
HETATM    9  O9  UNL     1     -31.447   9.095   2.900  1.00 20.00    -0.353 OA
ENDROOT
TORSDOF 0
ENDMDL
MODEL 5
REMARK VINA RESULT:      -4.0     11.278     12.306
REMARK  0 active torsions:
REMARK  status: ('A' for Active; 'I' for Inactive)
ROOT
HETATM    1  C1  UNL     1     -36.144  15.896  -3.701  1.00 20.00     0.006 C 
HETATM    2  C2  UNL     1     -34.666  15.589  -3.450  1.00 20.00     0.006 C 
HETATM    3  C3  UNL     1     -36.673  14.755  -4.567  1.00 20.00     0.068 C 
HETATM    4  C4  UNL     1     -34.372  14.285  -4.188  1.00 20.00     0.068 C 
HETATM    5  C5  UNL     1     -35.326  14.295  -7.533  1.00 20.00     0.197 C 
HETATM    6  C6  UNL     1     -35.093  12.886  -7.061  1.00 20.00     0.197 C 
HETATM    7  C7  UNL     1     -35.436  14.222  -5.277  1.00 20.00     0.164 C 
HETATM    8  O8  UNL     1     -35.072  15.079  -6.368  1.00 20.00    -0.353 OA
HETATM    9  O9  UNL     1     -35.639  12.889  -5.742  1.00 20.00    -0.353 OA
ENDROOT
TORSDOF 0
ENDMDL
MODEL 6
REMARK VINA RESULT:      -3.9     11.405     12.707
REMARK  0 active torsions:
REMARK  status: ('A' for Active; 'I' for Inactive)
ROOT
HETATM    1  C1  UNL     1     -34.112  15.734  -3.584  1.00 20.00     0.006 C 
HETATM    2  C2  UNL     1     -33.405  16.509  -4.698  1.00 20.00     0.006 C 
HETATM    3  C3  UNL     1     -34.399  14.345  -4.149  1.00 20.00     0.068 C 
HETATM    4  C4  UNL     1     -33.313  15.554  -5.886  1.00 20.00     0.068 C 
HETATM    5  C5  UNL     1     -36.344  14.110  -6.792  1.00 20.00     0.197 C 
HETATM    6  C6  UNL     1     -35.200  13.346  -7.401  1.00 20.00     0.197 C 
HETATM    7  C7  UNL     1     -34.443  14.559  -5.656  1.00 20.00     0.164 C 
HETATM    8  O8  UNL     1     -35.695  15.140  -6.048  1.00 20.00    -0.353 OA
HETATM    9  O9  UNL     1     -34.223  13.337  -6.360  1.00 20.00    -0.353 OA
ENDROOT
TORSDOF 0
ENDMDL
MODEL 7
REMARK VINA RESULT:      -3.7     11.427     12.178
REMARK  0 active torsions:
REMARK  status: ('A' for Active; 'I' for Inactive)
ROOT
HETATM    1  C1  UNL     1     -34.799  16.990  -1.381  1.00 20.00     0.006 C 
HETATM    2  C2  UNL     1     -36.019  17.077  -2.301  1.00 20.00     0.006 C 
HETATM    3  C3  UNL     1     -33.577  17.011  -2.295  1.00 20.00     0.068 C 
HETATM    4  C4  UNL     1     -35.473  17.132  -3.726  1.00 20.00     0.068 C 
HETATM    5  C5  UNL     1     -33.230  14.586  -4.492  1.00 20.00     0.197 C 
HETATM    6  C6  UNL     1     -33.124  15.696  -5.501  1.00 20.00     0.197 C 
HETATM    7  C7  UNL     1     -34.097  16.485  -3.626  1.00 20.00     0.164 C 
HETATM    8  O8  UNL     1     -34.229  15.057  -3.588  1.00 20.00    -0.353 OA
HETATM    9  O9  UNL     1     -33.250  16.875  -4.705  1.00 20.00    -0.353 OA
ENDROOT
TORSDOF 0
ENDMDL
MODEL 8
REMARK VINA RESULT:      -3.7     11.539     12.757
REMARK  0 active torsions:
REMARK  status: ('A' for Active; 'I' for Inactive)
ROOT
HETATM    1  C1  UNL     1     -36.023  13.922  -7.835  1.00 20.00     0.006 C 
HETATM    2  C2  UNL     1     -36.936  14.308  -6.669  1.00 20.00     0.006 C 
HETATM    3  C3  UNL     1     -34.688  13.521  -7.212  1.00 20.00     0.068 C 
HETATM    4  C4  UNL     1     -36.104  14.134  -5.402  1.00 20.00     0.068 C 
HETATM    5  C5  UNL     1     -33.038  15.776  -5.475  1.00 20.00     0.197 C 
HETATM    6  C6  UNL     1     -33.053  14.747  -4.378  1.00 20.00     0.197 C 
HETATM    7  C7  UNL     1     -34.662  14.258  -5.880  1.00 20.00     0.164 C 
HETATM    8  O8  UNL     1     -34.327  15.639  -6.073  1.00 20.00    -0.353 OA
HETATM    9  O9  UNL     1     -33.749  13.650  -4.969  1.00 20.00    -0.353 OA
ENDROOT
TORSDOF 0
ENDMDL
MODEL 9
REMARK VINA RESULT:      -3.6     11.138     12.414
REMARK  0 active torsions:
REMARK  status: ('A' for Active; 'I' for Inactive)
ROOT
HETATM    1  C1  UNL     1     -33.236  14.893  -4.480  1.00 20.00     0.006 C 
HETATM    2  C2  UNL     1     -33.419  15.267  -5.953  1.00 20.00     0.006 C 
HETATM    3  C3  UNL     1     -34.449  14.046  -4.105  1.00 20.00     0.068 C 
HETATM    4  C4  UNL     1     -34.739  14.638  -6.391  1.00 20.00     0.068 C 
HETATM    5  C5  UNL     1     -37.435  15.409  -4.332  1.00 20.00     0.197 C 
HETATM    6  C6  UNL     1     -37.763  14.225  -5.200  1.00 20.00     0.197 C 
HETATM    7  C7  UNL     1     -35.524  14.474  -5.095  1.00 20.00     0.164 C 
HETATM    8  O8  UNL     1     -36.096  15.731  -4.706  1.00 20.00    -0.353 OA
HETATM    9  O9  UNL     1     -36.543  13.483  -5.215  1.00 20.00    -0.353 OA
ENDROOT
TORSDOF 0
ENDMDL
