MODEL 1
REMARK VINA RESULT:      -3.7      0.000      0.000
REMARK  0 active torsions:
REMARK  status: ('A' for Active; 'I' for Inactive)
ROOT
HETATM    1  C1  UNL     1     -33.087   7.424   4.979  1.00 20.00     0.038 A 
HETATM    2  C2  UNL     1     -33.244   7.155   2.593  1.00 20.00     0.058 A 
HETATM    3  C3  UNL     1     -32.090   8.359   4.754  1.00 20.00     0.119 A 
HETATM    4  C4  UNL     1     -33.670   6.815   3.873  1.00 20.00     0.015 A 
HETATM    5  C5  UNL     1     -32.240   8.101   2.475  1.00 20.00     0.104 A 
HETATM    6  N6  UNL     1     -31.650   8.714   3.525  1.00 20.00    -0.254 NA
HETATM    7 BR7  UNL     1     -35.036   5.532   4.109  1.00 20.00    -0.051 Br
HETATM    8 BR8  UNL     1     -31.643   8.582   0.737  1.00 20.00    -0.029 Br
ENDROOT
TORSDOF 0
ENDMDL
MODEL 2
REMARK VINA RESULT:      -3.6      1.156      3.374
REMARK  0 active torsions:
REMARK  status: ('A' for Active; 'I' for Inactive)
ROOT
HETATM    1  C1  UNL     1     -31.565   8.887   2.612  1.00 20.00     0.038 A 
HETATM    2  C2  UNL     1     -33.556   7.618   2.146  1.00 20.00     0.058 A 
HETATM    3  C3  UNL     1     -31.549   8.299   3.867  1.00 20.00     0.119 A 
HETATM    4  C4  UNL     1     -32.590   8.535   1.741  1.00 20.00     0.015 A 
HETATM    5  C5  UNL     1     -33.450   7.088   3.421  1.00 20.00     0.104 A 
HETATM    6  N6  UNL     1     -32.469   7.405   4.295  1.00 20.00    -0.254 NA
HETATM    7 BR7  UNL     1     -32.671   9.298   0.015  1.00 20.00    -0.051 Br
HETATM    8 BR8  UNL     1     -34.756   5.834   3.995  1.00 20.00    -0.029 Br
ENDROOT
TORSDOF 0
ENDMDL
MODEL 3
REMARK VINA RESULT:      -3.6     11.026     11.783
REMARK  0 active torsions:
REMARK  status: ('A' for Active; 'I' for Inactive)
ROOT
HETATM    1  C1  UNL     1     -34.979  14.127  -4.525  1.00 20.00     0.038 A 
HETATM    2  C2  UNL     1     -36.567  15.838  -3.943  1.00 20.00     0.058 A 
HETATM    3  C3  UNL     1     -36.027  13.423  -5.094  1.00 20.00     0.119 A 
HETATM    4  C4  UNL     1     -35.262  15.356  -3.941  1.00 20.00     0.015 A 
HETATM    5  C5  UNL     1     -37.544  15.057  -4.538  1.00 20.00     0.104 A 
HETATM    6  N6  UNL     1     -37.307  13.858  -5.116  1.00 20.00    -0.254 NA
HETATM    7 BR7  UNL     1     -33.878  16.369  -3.147  1.00 20.00    -0.051 Br
HETATM    8 BR8  UNL     1     -39.333  15.694  -4.555  1.00 20.00    -0.029 Br
ENDROOT
TORSDOF 0
ENDMDL
MODEL 4
REMARK VINA RESULT:      -3.5     11.393     11.432
REMARK  0 active torsions:
REMARK  status: ('A' for Active; 'I' for Inactive)
ROOT
HETATM    1  C1  UNL     1     -31.917  18.816   2.189  1.00 20.00     0.038 A 
HETATM    2  C2  UNL     1     -33.657  18.525   0.554  1.00 20.00     0.058 A 
HETATM    3  C3  UNL     1     -31.001  18.698   1.156  1.00 20.00     0.119 A 
HETATM    4  C4  UNL     1     -33.268  18.727   1.874  1.00 20.00     0.015 A 
HETATM    5  C5  UNL     1     -32.664  18.419  -0.405  1.00 20.00     0.104 A 
HETATM    6  N6  UNL     1     -31.341  18.501  -0.138  1.00 20.00    -0.254 NA
HETATM    7 BR7  UNL     1     -34.570  18.881   3.234  1.00 20.00    -0.051 Br
HETATM    8 BR8  UNL     1     -33.172  18.144  -2.215  1.00 20.00    -0.029 Br
ENDROOT
TORSDOF 0
ENDMDL
MODEL 5
REMARK VINA RESULT:      -3.4     11.003     11.328
REMARK  0 active torsions:
REMARK  status: ('A' for Active; 'I' for Inactive)
ROOT
HETATM    1  C1  UNL     1     -34.744  18.084   0.297  1.00 20.00     0.038 A 
HETATM    2  C2  UNL     1     -33.164  17.618  -1.457  1.00 20.00     0.058 A 
HETATM    3  C3  UNL     1     -35.674  17.348  -0.418  1.00 20.00     0.119 A 
HETATM    4  C4  UNL     1     -33.467  18.217  -0.238  1.00 20.00     0.015 A 
HETATM    5  C5  UNL     1     -34.165  16.902  -2.093  1.00 20.00     0.104 A 
HETATM    6  N6  UNL     1     -35.416  16.751  -1.604  1.00 20.00    -0.254 NA
HETATM    7 BR7  UNL     1     -32.150  19.207   0.686  1.00 20.00    -0.051 Br
HETATM    8 BR8  UNL     1     -33.773  16.074  -3.757  1.00 20.00    -0.029 Br
ENDROOT
TORSDOF 0
ENDMDL
MODEL 6
REMARK VINA RESULT:      -3.4     11.021     11.351
REMARK  0 active torsions:
REMARK  status: ('A' for Active; 'I' for Inactive)
ROOT
HETATM    1  C1  UNL     1     -35.309  16.666  -1.850  1.00 20.00     0.038 A 
HETATM    2  C2  UNL     1     -33.087  17.573  -1.680  1.00 20.00     0.058 A 
HETATM    3  C3  UNL     1     -35.575  17.227  -0.611  1.00 20.00     0.119 A 
HETATM    4  C4  UNL     1     -34.040  16.847  -2.388  1.00 20.00     0.015 A 
HETATM    5  C5  UNL     1     -33.453  18.093  -0.450  1.00 20.00     0.104 A 
HETATM    6  N6  UNL     1     -34.675  17.939   0.105  1.00 20.00    -0.254 NA
HETATM    7 BR7  UNL     1     -33.612  16.110  -4.074  1.00 20.00    -0.051 Br
HETATM    8 BR8  UNL     1     -32.169  19.089   0.534  1.00 20.00    -0.029 Br
ENDROOT
TORSDOF 0
ENDMDL
MODEL 7
REMARK VINA RESULT:      -3.4     11.014     11.213
REMARK  0 active torsions:
REMARK  status: ('A' for Active; 'I' for Inactive)
ROOT
HETATM    1  C1  UNL     1     -33.499  18.745   0.477  1.00 20.00     0.038 A 
HETATM    2  C2  UNL     1     -34.733  17.292  -0.991  1.00 20.00     0.058 A 
HETATM    3  C3  UNL     1     -32.458  18.694  -0.437  1.00 20.00     0.119 A 
HETATM    4  C4  UNL     1     -34.654  18.028   0.187  1.00 20.00     0.015 A 
HETATM    5  C5  UNL     1     -33.637  17.306  -1.838  1.00 20.00     0.104 A 
HETATM    6  N6  UNL     1     -32.498  17.990  -1.591  1.00 20.00    -0.254 NA
HETATM    7 BR7  UNL     1     -36.112  18.056   1.388  1.00 20.00    -0.051 Br
HETATM    8 BR8  UNL     1     -33.723  16.309  -3.452  1.00 20.00    -0.029 Br
ENDROOT
TORSDOF 0
ENDMDL
MODEL 8
REMARK VINA RESULT:      -3.4     10.944     11.376
REMARK  0 active torsions:
REMARK  status: ('A' for Active; 'I' for Inactive)
ROOT
HETATM    1  C1  UNL     1     -32.954  17.681  -1.742  1.00 20.00     0.038 A 
HETATM    2  C2  UNL     1     -35.166  17.113  -0.984  1.00 20.00     0.058 A 
HETATM    3  C3  UNL     1     -32.829  18.473  -0.612  1.00 20.00     0.119 A 
HETATM    4  C4  UNL     1     -34.147  16.991  -1.924  1.00 20.00     0.015 A 
HETATM    5  C5  UNL     1     -34.941  17.930   0.111  1.00 20.00     0.104 A 
HETATM    6  N6  UNL     1     -33.796  18.615   0.323  1.00 20.00    -0.254 NA
HETATM    7 BR7  UNL     1     -34.383  15.893  -3.443  1.00 20.00    -0.051 Br
HETATM    8 BR8  UNL     1     -36.317  18.110   1.408  1.00 20.00    -0.029 Br
ENDROOT
TORSDOF 0
ENDMDL
MODEL 9
REMARK VINA RESULT:      -3.3      1.453      3.427
REMARK  0 active torsions:
REMARK  status: ('A' for Active; 'I' for Inactive)
ROOT
HETATM    1  C1  UNL     1     -32.394   8.441   4.340  1.00 20.00     0.038 A 
HETATM    2  C2  UNL     1     -33.316   6.544   3.181  1.00 20.00     0.058 A 
HETATM    3  C3  UNL     1     -32.942   7.927   5.504  1.00 20.00     0.119 A 
HETATM    4  C4  UNL     1     -32.589   7.730   3.160  1.00 20.00     0.015 A 
HETATM    5  C5  UNL     1     -33.823   6.116   4.397  1.00 20.00     0.104 A 
HETATM    6  N6  UNL     1     -33.654   6.778   5.563  1.00 20.00    -0.254 NA
HETATM    7 BR7  UNL     1     -31.868   8.374   1.537  1.00 20.00    -0.051 Br
HETATM    8 BR8  UNL     1     -34.818   4.499   4.449  1.00 20.00    -0.029 Br
ENDROOT
TORSDOF 0
ENDMDL
