MODEL 1
REMARK VINA RESULT:      -4.5      0.000      0.000
REMARK  0 active torsions:
REMARK  status: ('A' for Active; 'I' for Inactive)
ROOT
HETATM    1  C1  UNL     1     -34.688   5.215   5.927  1.00 20.00     0.000 C 
HETATM    2  C2  UNL     1     -34.284   6.548   6.332  1.00 20.00     0.017 C 
HETATM    3  C3  UNL     1     -34.673   4.858   4.630  1.00 20.00     0.010 C 
HETATM    4  C4  UNL     1     -33.688   7.349   5.435  1.00 20.00     0.092 C 
HETATM    5  C5  UNL     1     -32.256   6.577   2.209  1.00 20.00     0.072 C 
HETATM    6  C6  UNL     1     -32.492   7.401   3.247  1.00 20.00     0.015 C 
HETATM    7  C7  UNL     1     -34.294   5.847   3.563  1.00 20.00     0.178 C 
HETATM    8  C8  UNL     1     -31.719   8.656   3.496  1.00 20.00     0.069 C 
HETATM    9  N9  UNL     1     -33.499   6.969   4.117  1.00 20.00    -0.343 N 
HETATM   10  S10 UNL     1     -33.253   5.143   2.229  1.00 20.00    -0.110 SA
ENDROOT
TORSDOF 0
ENDMDL
MODEL 2
REMARK VINA RESULT:      -4.2      1.686      3.320
REMARK  0 active torsions:
REMARK  status: ('A' for Active; 'I' for Inactive)
ROOT
HETATM    1  C1  UNL     1     -32.470   8.324   5.005  1.00 20.00     0.000 C 
HETATM    2  C2  UNL     1     -32.055   8.094   3.635  1.00 20.00     0.017 C 
HETATM    3  C3  UNL     1     -33.469   7.605   5.549  1.00 20.00     0.010 C 
HETATM    4  C4  UNL     1     -32.520   7.016   2.984  1.00 20.00     0.092 C 
HETATM    5  C5  UNL     1     -34.208   4.082   4.246  1.00 20.00     0.072 C 
HETATM    6  C6  UNL     1     -33.597   4.786   3.275  1.00 20.00     0.015 C 
HETATM    7  C7  UNL     1     -34.218   6.588   4.735  1.00 20.00     0.178 C 
HETATM    8  C8  UNL     1     -33.085   4.174   2.011  1.00 20.00     0.069 C 
HETATM    9  N9  UNL     1     -33.432   6.146   3.557  1.00 20.00    -0.343 N 
HETATM   10  S10 UNL     1     -34.613   5.047   5.645  1.00 20.00    -0.110 SA
ENDROOT
TORSDOF 0
ENDMDL
MODEL 3
REMARK VINA RESULT:      -4.0     12.217     12.708
REMARK  0 active torsions:
REMARK  status: ('A' for Active; 'I' for Inactive)
ROOT
HETATM    1  C1  UNL     1     -34.103  16.991  -1.790  1.00 20.00     0.000 C 
HETATM    2  C2  UNL     1     -35.311  17.086  -0.994  1.00 20.00     0.017 C 
HETATM    3  C3  UNL     1     -33.021  17.731  -1.487  1.00 20.00     0.010 C 
HETATM    4  C4  UNL     1     -35.272  17.749   0.173  1.00 20.00     0.092 C 
HETATM    5  C5  UNL     1     -32.445  18.873   2.122  1.00 20.00     0.072 C 
HETATM    6  C6  UNL     1     -33.760  18.647   1.941  1.00 20.00     0.015 C 
HETATM    7  C7  UNL     1     -33.055  18.717  -0.352  1.00 20.00     0.178 C 
HETATM    8  C8  UNL     1     -34.752  18.614   3.059  1.00 20.00     0.069 C 
HETATM    9  N9  UNL     1     -34.132  18.397   0.616  1.00 20.00    -0.343 N 
HETATM   10  S10 UNL     1     -31.519  18.760   0.645  1.00 20.00    -0.110 SA
ENDROOT
TORSDOF 0
ENDMDL
MODEL 4
REMARK VINA RESULT:      -4.0     12.166     12.678
REMARK  0 active torsions:
REMARK  status: ('A' for Active; 'I' for Inactive)
ROOT
HETATM    1  C1  UNL     1     -32.175  18.818   2.018  1.00 20.00     0.000 C 
HETATM    2  C2  UNL     1     -31.427  18.728   0.779  1.00 20.00     0.017 C 
HETATM    3  C3  UNL     1     -33.521  18.811   2.010  1.00 20.00     0.010 C 
HETATM    4  C4  UNL     1     -32.077  18.418  -0.354  1.00 20.00     0.092 C 
HETATM    5  C5  UNL     1     -35.398  17.084  -0.845  1.00 20.00     0.072 C 
HETATM    6  C6  UNL     1     -34.174  17.439  -1.281  1.00 20.00     0.015 C 
HETATM    7  C7  UNL     1     -34.283  18.769   0.714  1.00 20.00     0.178 C 
HETATM    8  C8  UNL     1     -33.600  16.985  -2.584  1.00 20.00     0.069 C 
HETATM    9  N9  UNL     1     -33.449  18.239  -0.392  1.00 20.00    -0.343 N 
HETATM   10  S10 UNL     1     -35.761  17.688   0.753  1.00 20.00    -0.110 SA
ENDROOT
TORSDOF 0
ENDMDL
MODEL 5
REMARK VINA RESULT:      -3.8     12.127     12.674
REMARK  0 active torsions:
REMARK  status: ('A' for Active; 'I' for Inactive)
ROOT
HETATM    1  C1  UNL     1     -33.658  16.273  -3.380  1.00 20.00     0.000 C 
HETATM    2  C2  UNL     1     -34.965  16.398  -2.765  1.00 20.00     0.017 C 
HETATM    3  C3  UNL     1     -33.421  15.324  -4.304  1.00 20.00     0.010 C 
HETATM    4  C4  UNL     1     -35.996  15.709  -3.280  1.00 20.00     0.092 C 
HETATM    5  C5  UNL     1     -36.303  13.991  -6.443  1.00 20.00     0.072 C 
HETATM    6  C6  UNL     1     -36.804  14.478  -5.293  1.00 20.00     0.015 C 
HETATM    7  C7  UNL     1     -34.487  14.334  -4.681  1.00 20.00     0.178 C 
HETATM    8  C8  UNL     1     -38.265  14.677  -5.050  1.00 20.00     0.069 C 
HETATM    9  N9  UNL     1     -35.842  14.834  -4.342  1.00 20.00    -0.343 N 
HETATM   10  S10 UNL     1     -34.557  13.958  -6.473  1.00 20.00    -0.110 SA
ENDROOT
TORSDOF 0
ENDMDL
MODEL 6
REMARK VINA RESULT:      -3.7     12.376     12.955
REMARK  0 active torsions:
REMARK  status: ('A' for Active; 'I' for Inactive)
ROOT
HETATM    1  C1  UNL     1     -34.708  16.380  -2.628  1.00 20.00     0.000 C 
HETATM    2  C2  UNL     1     -33.578  16.120  -3.499  1.00 20.00     0.017 C 
HETATM    3  C3  UNL     1     -35.967  16.303  -3.096  1.00 20.00     0.010 C 
HETATM    4  C4  UNL     1     -33.798  15.589  -4.712  1.00 20.00     0.092 C 
HETATM    5  C5  UNL     1     -36.758  14.021  -6.066  1.00 20.00     0.072 C 
HETATM    6  C6  UNL     1     -35.456  14.359  -6.112  1.00 20.00     0.015 C 
HETATM    7  C7  UNL     1     -36.233  16.002  -4.545  1.00 20.00     0.178 C 
HETATM    8  C8  UNL     1     -34.470  13.720  -7.037  1.00 20.00     0.069 C 
HETATM    9  N9  UNL     1     -35.074  15.335  -5.185  1.00 20.00    -0.343 N 
HETATM   10  S10 UNL     1     -37.646  14.869  -4.824  1.00 20.00    -0.110 SA
ENDROOT
TORSDOF 0
ENDMDL
MODEL 7
REMARK VINA RESULT:      -3.7      1.414      2.546
REMARK  0 active torsions:
REMARK  status: ('A' for Active; 'I' for Inactive)
ROOT
HETATM    1  C1  UNL     1     -33.724   3.943   3.260  1.00 20.00     0.000 C 
HETATM    2  C2  UNL     1     -34.467   4.140   4.490  1.00 20.00     0.017 C 
HETATM    3  C3  UNL     1     -33.237   4.995   2.576  1.00 20.00     0.010 C 
HETATM    4  C4  UNL     1     -34.479   5.357   5.057  1.00 20.00     0.092 C 
HETATM    5  C5  UNL     1     -32.403   8.244   4.420  1.00 20.00     0.072 C 
HETATM    6  C6  UNL     1     -33.328   7.568   5.127  1.00 20.00     0.015 C 
HETATM    7  C7  UNL     1     -33.501   6.401   3.036  1.00 20.00     0.178 C 
HETATM    8  C8  UNL     1     -33.737   7.939   6.515  1.00 20.00     0.069 C 
HETATM    9  N9  UNL     1     -33.854   6.447   4.476  1.00 20.00    -0.343 N 
HETATM   10  S10 UNL     1     -32.063   7.524   2.865  1.00 20.00    -0.110 SA
ENDROOT
TORSDOF 0
ENDMDL
MODEL 8
REMARK VINA RESULT:      -3.7     12.071     12.452
REMARK  0 active torsions:
REMARK  status: ('A' for Active; 'I' for Inactive)
ROOT
HETATM    1  C1  UNL     1     -35.452  17.620  -1.172  1.00 20.00     0.000 C 
HETATM    2  C2  UNL     1     -34.032  17.398  -1.366  1.00 20.00     0.017 C 
HETATM    3  C3  UNL     1     -36.332  17.323  -2.145  1.00 20.00     0.010 C 
HETATM    4  C4  UNL     1     -33.622  16.692  -2.431  1.00 20.00     0.092 C 
HETATM    5  C5  UNL     1     -35.497  14.598  -4.701  1.00 20.00     0.072 C 
HETATM    6  C6  UNL     1     -34.349  15.091  -4.200  1.00 20.00     0.015 C 
HETATM    7  C7  UNL     1     -35.863  16.808  -3.477  1.00 20.00     0.178 C 
HETATM    8  C8  UNL     1     -33.010  14.472  -4.442  1.00 20.00     0.069 C 
HETATM    9  N9  UNL     1     -34.505  16.219  -3.387  1.00 20.00    -0.343 N 
HETATM   10  S10 UNL     1     -36.911  15.476  -4.174  1.00 20.00    -0.110 SA
ENDROOT
TORSDOF 0
ENDMDL
MODEL 9
REMARK VINA RESULT:      -3.6     12.634     13.254
REMARK  0 active torsions:
REMARK  status: ('A' for Active; 'I' for Inactive)
ROOT
HETATM    1  C1  UNL     1     -37.444  15.340  -4.233  1.00 20.00     0.000 C 
HETATM    2  C2  UNL     1     -37.548  14.362  -5.299  1.00 20.00     0.017 C 
HETATM    3  C3  UNL     1     -36.242  15.770  -3.810  1.00 20.00     0.010 C 
HETATM    4  C4  UNL     1     -36.451  14.052  -6.008  1.00 20.00     0.092 C 
HETATM    5  C5  UNL     1     -33.253  15.722  -6.201  1.00 20.00     0.072 C 
HETATM    6  C6  UNL     1     -34.149  14.803  -6.606  1.00 20.00     0.015 C 
HETATM    7  C7  UNL     1     -34.975  15.205  -4.389  1.00 20.00     0.178 C 
HETATM    8  C8  UNL     1     -34.064  14.091  -7.918  1.00 20.00     0.069 C 
HETATM    9  N9  UNL     1     -35.209  14.591  -5.718  1.00 20.00    -0.343 N 
HETATM   10  S10 UNL     1     -33.661  16.452  -4.668  1.00 20.00    -0.110 SA
ENDROOT
TORSDOF 0
ENDMDL
