MODEL 1
REMARK VINA RESULT:      -5.5      0.000      0.000
REMARK  3 active torsions:
REMARK  status: ('A' for Active; 'I' for Inactive)
REMARK    1  A    between atoms: C2_2  and  C5_5 
REMARK    2  A    between atoms: C2_2  and  O10_10 
REMARK    3  A    between atoms: C7_7  and  O10_10 
ROOT
HETATM    1  C1  UNL     1     -32.366   9.404   1.376  1.00 20.00     0.065 C 
HETATM    2  C3  UNL     1     -31.756   8.028   3.409  1.00 20.00     0.036 A 
HETATM    3  C4  UNL     1     -32.146   8.113   1.959  1.00 20.00     0.107 A 
HETATM    4  C5  UNL     1     -33.133   7.600   2.981  1.00 20.00     0.104 A 
HETATM    5  N8  UNL     1     -32.544  10.448   0.905  1.00 20.00    -0.197 NA
ENDROOT
BRANCH   4   6
HETATM    6  C2  UNL     1     -33.477   6.172   2.990  1.00 20.00     0.264 C 
HETATM    7  O9  UNL     1     -32.717   5.282   2.633  1.00 20.00    -0.265 OA
BRANCH   6   8
HETATM    8  O10 UNL     1     -34.750   6.013   3.451  1.00 20.00    -0.322 OA
BRANCH   8   9
HETATM    9  C7  UNL     1     -34.911   5.037   4.486  1.00 20.00     0.174 C 
HETATM   10  C6  UNL     1     -34.471   5.637   5.803  1.00 20.00     0.034 C 
ENDBRANCH   8   9
ENDBRANCH   6   8
ENDBRANCH   4   6
TORSDOF 3
ENDMDL
MODEL 2
REMARK VINA RESULT:      -5.0      3.047      4.820
REMARK  3 active torsions:
REMARK  status: ('A' for Active; 'I' for Inactive)
REMARK    1  A    between atoms: C2_2  and  C5_5 
REMARK    2  A    between atoms: C2_2  and  O10_10 
REMARK    3  A    between atoms: C7_7  and  O10_10 
ROOT
HETATM    1  C1  UNL     1     -33.946   4.678   3.866  1.00 20.00     0.065 C 
HETATM    2  C3  UNL     1     -34.127   6.446   2.066  1.00 20.00     0.036 A 
HETATM    3  C4  UNL     1     -33.289   5.572   2.959  1.00 20.00     0.107 A 
HETATM    4  C5  UNL     1     -33.375   7.059   3.216  1.00 20.00     0.104 A 
HETATM    5  N8  UNL     1     -34.477   3.953   4.599  1.00 20.00    -0.197 NA
ENDROOT
BRANCH   4   6
HETATM    6  C2  UNL     1     -32.204   7.901   2.941  1.00 20.00     0.264 C 
HETATM    7  O9  UNL     1     -31.424   8.293   3.798  1.00 20.00    -0.265 OA
BRANCH   6   8
HETATM    8  O10 UNL     1     -32.138   8.164   1.604  1.00 20.00    -0.322 OA
BRANCH   8   9
HETATM    9  C7  UNL     1     -32.272   9.542   1.241  1.00 20.00     0.174 C 
HETATM   10  C6  UNL     1     -32.944   9.632  -0.112  1.00 20.00     0.034 C 
ENDBRANCH   8   9
ENDBRANCH   6   8
ENDBRANCH   4   6
TORSDOF 3
ENDMDL
MODEL 3
REMARK VINA RESULT:      -4.7      1.472      1.863
REMARK  3 active torsions:
REMARK  status: ('A' for Active; 'I' for Inactive)
REMARK    1  A    between atoms: C2_2  and  C5_5 
REMARK    2  A    between atoms: C2_2  and  O10_10 
REMARK    3  A    between atoms: C7_7  and  O10_10 
ROOT
HETATM    1  C1  UNL     1     -32.552   8.906   1.601  1.00 20.00     0.065 C 
HETATM    2  C3  UNL     1     -32.485   6.580   2.592  1.00 20.00     0.036 A 
HETATM    3  C4  UNL     1     -33.192   7.891   2.386  1.00 20.00     0.107 A 
HETATM    4  C5  UNL     1     -32.611   7.546   3.737  1.00 20.00     0.104 A 
HETATM    5  N8  UNL     1     -32.035   9.727   0.966  1.00 20.00    -0.197 NA
ENDROOT
BRANCH   4   6
HETATM    6  C2  UNL     1     -33.520   7.230   4.846  1.00 20.00     0.264 C 
HETATM    7  O9  UNL     1     -33.394   7.667   5.982  1.00 20.00    -0.265 OA
BRANCH   6   8
HETATM    8  O10 UNL     1     -34.500   6.390   4.406  1.00 20.00    -0.322 OA
BRANCH   8   9
HETATM    9  C7  UNL     1     -34.725   5.230   5.214  1.00 20.00     0.174 C 
HETATM   10  C6  UNL     1     -34.227   4.008   4.473  1.00 20.00     0.034 C 
ENDBRANCH   8   9
ENDBRANCH   6   8
ENDBRANCH   4   6
TORSDOF 3
ENDMDL
MODEL 4
REMARK VINA RESULT:      -4.2      1.616      2.360
REMARK  3 active torsions:
REMARK  status: ('A' for Active; 'I' for Inactive)
REMARK    1  A    between atoms: C2_2  and  C5_5 
REMARK    2  A    between atoms: C2_2  and  O10_10 
REMARK    3  A    between atoms: C7_7  and  O10_10 
ROOT
HETATM    1  C1  UNL     1     -32.562   7.579   2.367  1.00 20.00     0.065 C 
HETATM    2  C3  UNL     1     -32.983   5.102   2.074  1.00 20.00     0.036 A 
HETATM    3  C4  UNL     1     -33.462   6.469   2.481  1.00 20.00     0.107 A 
HETATM    4  C5  UNL     1     -33.187   5.418   3.531  1.00 20.00     0.104 A 
HETATM    5  N8  UNL     1     -31.834   8.477   2.274  1.00 20.00    -0.197 NA
ENDROOT
BRANCH   4   6
HETATM    6  C2  UNL     1     -34.316   4.809   4.246  1.00 20.00     0.264 C 
HETATM    7  O9  UNL     1     -34.565   3.612   4.243  1.00 20.00    -0.265 OA
BRANCH   6   8
HETATM    8  O10 UNL     1     -35.020   5.780   4.895  1.00 20.00    -0.322 OA
BRANCH   8   9
HETATM    9  C7  UNL     1     -34.480   6.193   6.155  1.00 20.00     0.174 C 
HETATM   10  C6  UNL     1     -33.724   7.491   5.966  1.00 20.00     0.034 C 
ENDBRANCH   8   9
ENDBRANCH   6   8
ENDBRANCH   4   6
TORSDOF 3
ENDMDL
MODEL 5
REMARK VINA RESULT:      -4.2      1.752      2.182
REMARK  3 active torsions:
REMARK  status: ('A' for Active; 'I' for Inactive)
REMARK    1  A    between atoms: C2_2  and  C5_5 
REMARK    2  A    between atoms: C2_2  and  O10_10 
REMARK    3  A    between atoms: C7_7  and  O10_10 
ROOT
HETATM    1  C1  UNL     1     -32.869   9.293  -0.209  1.00 20.00     0.065 C 
HETATM    2  C3  UNL     1     -32.272  10.154   2.093  1.00 20.00     0.036 A 
HETATM    3  C4  UNL     1     -32.086   9.156   0.983  1.00 20.00     0.107 A 
HETATM    4  C5  UNL     1     -32.778   8.748   2.263  1.00 20.00     0.104 A 
HETATM    5  N8  UNL     1     -33.503   9.405  -1.175  1.00 20.00    -0.197 NA
ENDROOT
BRANCH   4   6
HETATM    6  C2  UNL     1     -32.088   7.844   3.192  1.00 20.00     0.264 C 
HETATM    7  O9  UNL     1     -31.033   8.110   3.750  1.00 20.00    -0.265 OA
BRANCH   6   8
HETATM    8  O10 UNL     1     -32.806   6.692   3.323  1.00 20.00    -0.322 OA
BRANCH   8   9
HETATM    9  C7  UNL     1     -34.050   6.818   4.018  1.00 20.00     0.174 C 
HETATM   10  C6  UNL     1     -33.773   7.106   5.478  1.00 20.00     0.034 C 
ENDBRANCH   8   9
ENDBRANCH   6   8
ENDBRANCH   4   6
TORSDOF 3
ENDMDL
MODEL 6
REMARK VINA RESULT:      -4.2     10.655     11.499
REMARK  3 active torsions:
REMARK  status: ('A' for Active; 'I' for Inactive)
REMARK    1  A    between atoms: C2_2  and  C5_5 
REMARK    2  A    between atoms: C2_2  and  O10_10 
REMARK    3  A    between atoms: C7_7  and  O10_10 
ROOT
HETATM    1  C1  UNL     1     -35.243  13.636  -4.703  1.00 20.00     0.065 C 
HETATM    2  C3  UNL     1     -33.691  15.632  -4.629  1.00 20.00     0.036 A 
HETATM    3  C4  UNL     1     -34.392  14.496  -3.935  1.00 20.00     0.107 A 
HETATM    4  C5  UNL     1     -34.831  15.921  -3.691  1.00 20.00     0.104 A 
HETATM    5  N8  UNL     1     -35.931  12.939  -5.325  1.00 20.00    -0.197 NA
ENDROOT
BRANCH   4   6
HETATM    6  C2  UNL     1     -34.551  16.544  -2.391  1.00 20.00     0.264 C 
HETATM    7  O9  UNL     1     -35.368  16.638  -1.486  1.00 20.00    -0.265 OA
BRANCH   6   8
HETATM    8  O10 UNL     1     -33.261  16.986  -2.367  1.00 20.00    -0.322 OA
BRANCH   8   9
HETATM    9  C7  UNL     1     -33.088  18.357  -1.998  1.00 20.00     0.174 C 
HETATM   10  C6  UNL     1     -32.400  18.423  -0.651  1.00 20.00     0.034 C 
ENDBRANCH   8   9
ENDBRANCH   6   8
ENDBRANCH   4   6
TORSDOF 3
ENDMDL
MODEL 7
REMARK VINA RESULT:      -4.1     10.617     11.151
REMARK  3 active torsions:
REMARK  status: ('A' for Active; 'I' for Inactive)
REMARK    1  A    between atoms: C2_2  and  C5_5 
REMARK    2  A    between atoms: C2_2  and  O10_10 
REMARK    3  A    between atoms: C7_7  and  O10_10 
ROOT
HETATM    1  C1  UNL     1     -33.286  17.787  -2.649  1.00 20.00     0.065 C 
HETATM    2  C3  UNL     1     -35.217  16.187  -2.982  1.00 20.00     0.036 A 
HETATM    3  C4  UNL     1     -33.770  16.437  -2.657  1.00 20.00     0.107 A 
HETATM    4  C5  UNL     1     -34.154  15.813  -3.978  1.00 20.00     0.104 A 
HETATM    5  N8  UNL     1     -32.894  18.878  -2.641  1.00 20.00    -0.197 NA
ENDROOT
BRANCH   4   6
HETATM    6  C2  UNL     1     -33.857  14.394  -4.211  1.00 20.00     0.264 C 
HETATM    7  O9  UNL     1     -32.727  13.938  -4.319  1.00 20.00    -0.265 OA
BRANCH   6   8
HETATM    8  O10 UNL     1     -35.023  13.691  -4.284  1.00 20.00    -0.322 OA
BRANCH   8   9
HETATM    9  C7  UNL     1     -35.613  13.611  -5.585  1.00 20.00     0.174 C 
HETATM   10  C6  UNL     1     -37.052  14.072  -5.504  1.00 20.00     0.034 C 
ENDBRANCH   8   9
ENDBRANCH   6   8
ENDBRANCH   4   6
TORSDOF 3
ENDMDL
MODEL 8
REMARK VINA RESULT:      -4.1     10.495     11.122
REMARK  3 active torsions:
REMARK  status: ('A' for Active; 'I' for Inactive)
REMARK    1  A    between atoms: C2_2  and  C5_5 
REMARK    2  A    between atoms: C2_2  and  O10_10 
REMARK    3  A    between atoms: C7_7  and  O10_10 
ROOT
HETATM    1  C1  UNL     1     -34.465  16.170  -2.960  1.00 20.00     0.065 C 
HETATM    2  C3  UNL     1     -33.434  14.439  -4.489  1.00 20.00     0.036 A 
HETATM    3  C4  UNL     1     -34.495  15.467  -4.209  1.00 20.00     0.107 A 
HETATM    4  C5  UNL     1     -34.844  13.997  -4.206  1.00 20.00     0.104 A 
HETATM    5  N8  UNL     1     -34.441  16.739  -1.950  1.00 20.00    -0.197 NA
ENDROOT
BRANCH   4   6
HETATM    6  C2  UNL     1     -35.658  13.454  -5.301  1.00 20.00     0.264 C 
HETATM    7  O9  UNL     1     -35.204  13.076  -6.372  1.00 20.00    -0.265 OA
BRANCH   6   8
HETATM    8  O10 UNL     1     -36.970  13.442  -4.929  1.00 20.00    -0.322 OA
BRANCH   8   9
HETATM    9  C7  UNL     1     -37.795  14.432  -5.552  1.00 20.00     0.174 C 
HETATM   10  C6  UNL     1     -38.393  15.320  -4.482  1.00 20.00     0.034 C 
ENDBRANCH   8   9
ENDBRANCH   6   8
ENDBRANCH   4   6
TORSDOF 3
ENDMDL
MODEL 9
REMARK VINA RESULT:      -4.0     11.326     12.245
REMARK  3 active torsions:
REMARK  status: ('A' for Active; 'I' for Inactive)
REMARK    1  A    between atoms: C2_2  and  C5_5 
REMARK    2  A    between atoms: C2_2  and  O10_10 
REMARK    3  A    between atoms: C7_7  and  O10_10 
ROOT
HETATM    1  C1  UNL     1     -35.361  13.751  -4.746  1.00 20.00     0.065 C 
HETATM    2  C3  UNL     1     -33.275  15.158  -4.483  1.00 20.00     0.036 A 
HETATM    3  C4  UNL     1     -34.710  14.872  -4.134  1.00 20.00     0.107 A 
HETATM    4  C5  UNL     1     -34.362  16.065  -4.993  1.00 20.00     0.104 A 
HETATM    5  N8  UNL     1     -35.887  12.843  -5.240  1.00 20.00    -0.197 NA
ENDROOT
BRANCH   4   6
HETATM    6  C2  UNL     1     -34.493  17.414  -4.429  1.00 20.00     0.264 C 
HETATM    7  O9  UNL     1     -35.550  18.025  -4.348  1.00 20.00    -0.265 OA
BRANCH   6   8
HETATM    8  O10 UNL     1     -33.270  17.858  -4.020  1.00 20.00    -0.322 OA
BRANCH   8   9
HETATM    9  C7  UNL     1     -33.256  18.568  -2.778  1.00 20.00     0.174 C 
HETATM   10  C6  UNL     1     -33.293  17.573  -1.640  1.00 20.00     0.034 C 
ENDBRANCH   8   9
ENDBRANCH   6   8
ENDBRANCH   4   6
TORSDOF 3
ENDMDL
