MODEL 1
REMARK VINA RESULT:      -5.9      0.000      0.000
REMARK  0 active torsions:
REMARK  status: ('A' for Active; 'I' for Inactive)
ROOT
HETATM    1  C1  UNL     1     -34.048   4.268   4.777  1.00 20.00    -0.028 C 
HETATM    2  C2  UNL     1     -33.848   4.600   3.498  1.00 20.00    -0.023 C 
HETATM    3  C3  UNL     1     -32.583   7.500   3.778  1.00 20.00     0.259 C 
HETATM    4  C4  UNL     1     -34.666   5.385   5.553  1.00 20.00     0.060 C 
HETATM    5  C5  UNL     1     -33.271   6.896   2.591  1.00 20.00     0.122 C 
HETATM    6  C6  UNL     1     -34.316   5.996   3.206  1.00 20.00     0.047 C 
HETATM    7  C7  UNL     1     -34.526   6.571   4.599  1.00 20.00     0.143 C 
HETATM    8  O8  UNL     1     -31.528   8.115   3.744  1.00 20.00    -0.265 OA
HETATM    9  O9  UNL     1     -33.325   7.300   4.906  1.00 20.00    -0.315 OA
ENDROOT
TORSDOF 0
ENDMDL
MODEL 2
REMARK VINA RESULT:      -5.4      1.773      3.443
REMARK  0 active torsions:
REMARK  status: ('A' for Active; 'I' for Inactive)
ROOT
HETATM    1  C1  UNL     1     -32.146   7.752   3.929  1.00 20.00    -0.028 C 
HETATM    2  C2  UNL     1     -33.104   7.551   4.838  1.00 20.00    -0.023 C 
HETATM    3  C3  UNL     1     -34.113   4.637   4.078  1.00 20.00     0.259 C 
HETATM    4  C4  UNL     1     -32.583   7.342   2.559  1.00 20.00     0.060 C 
HETATM    5  C5  UNL     1     -34.837   5.701   4.847  1.00 20.00     0.122 C 
HETATM    6  C6  UNL     1     -34.349   6.986   4.220  1.00 20.00     0.047 C 
HETATM    7  C7  UNL     1     -33.870   6.565   2.839  1.00 20.00     0.143 C 
HETATM    8  O8  UNL     1     -34.040   3.461   4.400  1.00 20.00    -0.265 OA
HETATM    9  O9  UNL     1     -33.575   5.161   2.938  1.00 20.00    -0.315 OA
ENDROOT
TORSDOF 0
ENDMDL
MODEL 3
REMARK VINA RESULT:      -5.1      1.507      1.909
REMARK  0 active torsions:
REMARK  status: ('A' for Active; 'I' for Inactive)
ROOT
HETATM    1  C1  UNL     1     -33.184   4.337   3.211  1.00 20.00    -0.028 C 
HETATM    2  C2  UNL     1     -33.303   5.601   2.795  1.00 20.00    -0.023 C 
HETATM    3  C3  UNL     1     -33.807   7.134   5.530  1.00 20.00     0.259 C 
HETATM    4  C4  UNL     1     -34.247   3.973   4.197  1.00 20.00     0.060 C 
HETATM    5  C5  UNL     1     -34.147   7.577   4.139  1.00 20.00     0.122 C 
HETATM    6  C6  UNL     1     -34.478   6.287   3.427  1.00 20.00     0.047 C 
HETATM    7  C7  UNL     1     -34.855   5.331   4.548  1.00 20.00     0.143 C 
HETATM    8  O8  UNL     1     -33.266   7.827   6.379  1.00 20.00    -0.265 OA
HETATM    9  O9  UNL     1     -34.226   5.851   5.733  1.00 20.00    -0.315 OA
ENDROOT
TORSDOF 0
ENDMDL
MODEL 4
REMARK VINA RESULT:      -4.9      1.839      2.784
REMARK  0 active torsions:
REMARK  status: ('A' for Active; 'I' for Inactive)
ROOT
HETATM    1  C1  UNL     1     -33.592   7.195   5.905  1.00 20.00    -0.028 C 
HETATM    2  C2  UNL     1     -34.172   5.991   5.900  1.00 20.00    -0.023 C 
HETATM    3  C3  UNL     1     -33.323   4.879   3.048  1.00 20.00     0.259 C 
HETATM    4  C4  UNL     1     -33.808   7.923   4.618  1.00 20.00     0.060 C 
HETATM    5  C5  UNL     1     -34.472   4.450   3.909  1.00 20.00     0.122 C 
HETATM    6  C6  UNL     1     -34.887   5.723   4.608  1.00 20.00     0.047 C 
HETATM    7  C7  UNL     1     -34.362   6.829   3.705  1.00 20.00     0.143 C 
HETATM    8  O8  UNL     1     -32.544   4.125   2.484  1.00 20.00    -0.265 OA
HETATM    9  O9  UNL     1     -33.288   6.240   2.950  1.00 20.00    -0.315 OA
ENDROOT
TORSDOF 0
ENDMDL
MODEL 5
REMARK VINA RESULT:      -4.5      1.751      2.655
REMARK  0 active torsions:
REMARK  status: ('A' for Active; 'I' for Inactive)
ROOT
HETATM    1  C1  UNL     1     -34.489   6.734   4.447  1.00 20.00    -0.028 C 
HETATM    2  C2  UNL     1     -33.425   7.446   4.830  1.00 20.00    -0.023 C 
HETATM    3  C3  UNL     1     -32.422   8.644   2.065  1.00 20.00     0.259 C 
HETATM    4  C4  UNL     1     -34.203   5.917   3.229  1.00 20.00     0.060 C 
HETATM    5  C5  UNL     1     -31.646   8.457   3.334  1.00 20.00     0.122 C 
HETATM    6  C6  UNL     1     -32.244   7.208   3.935  1.00 20.00     0.047 C 
HETATM    7  C7  UNL     1     -32.869   6.488   2.750  1.00 20.00     0.143 C 
HETATM    8  O8  UNL     1     -32.421   9.655   1.379  1.00 20.00    -0.265 OA
HETATM    9  O9  UNL     1     -33.106   7.503   1.758  1.00 20.00    -0.315 OA
ENDROOT
TORSDOF 0
ENDMDL
MODEL 6
REMARK VINA RESULT:      -4.2     11.726     12.496
REMARK  0 active torsions:
REMARK  status: ('A' for Active; 'I' for Inactive)
ROOT
HETATM    1  C1  UNL     1     -34.399  17.199  -1.132  1.00 20.00    -0.028 C 
HETATM    2  C2  UNL     1     -35.536  16.846  -1.740  1.00 20.00    -0.023 C 
HETATM    3  C3  UNL     1     -34.488  14.785  -3.918  1.00 20.00     0.259 C 
HETATM    4  C4  UNL     1     -33.310  17.491  -2.113  1.00 20.00     0.060 C 
HETATM    5  C5  UNL     1     -35.769  15.563  -3.914  1.00 20.00     0.122 C 
HETATM    6  C6  UNL     1     -35.396  16.859  -3.234  1.00 20.00     0.047 C 
HETATM    7  C7  UNL     1     -33.889  16.955  -3.423  1.00 20.00     0.143 C 
HETATM    8  O8  UNL     1     -34.387  13.594  -4.169  1.00 20.00    -0.265 OA
HETATM    9  O9  UNL     1     -33.435  15.607  -3.637  1.00 20.00    -0.315 OA
ENDROOT
TORSDOF 0
ENDMDL
MODEL 7
REMARK VINA RESULT:      -4.2     12.012     12.663
REMARK  0 active torsions:
REMARK  status: ('A' for Active; 'I' for Inactive)
ROOT
HETATM    1  C1  UNL     1     -34.868  16.344  -2.549  1.00 20.00    -0.028 C 
HETATM    2  C2  UNL     1     -35.974  16.354  -3.298  1.00 20.00    -0.023 C 
HETATM    3  C3  UNL     1     -35.565  13.759  -5.083  1.00 20.00     0.259 C 
HETATM    4  C4  UNL     1     -33.646  16.065  -3.362  1.00 20.00     0.060 C 
HETATM    5  C5  UNL     1     -36.434  14.948  -5.357  1.00 20.00     0.122 C 
HETATM    6  C6  UNL     1     -35.669  16.097  -4.745  1.00 20.00     0.047 C 
HETATM    7  C7  UNL     1     -34.232  15.599  -4.695  1.00 20.00     0.143 C 
HETATM    8  O8  UNL     1     -35.906  12.592  -5.206  1.00 20.00    -0.265 OA
HETATM    9  O9  UNL     1     -34.315  14.163  -4.710  1.00 20.00    -0.315 OA
ENDROOT
TORSDOF 0
ENDMDL
MODEL 8
REMARK VINA RESULT:      -4.1     11.866     13.422
REMARK  0 active torsions:
REMARK  status: ('A' for Active; 'I' for Inactive)
ROOT
HETATM    1  C1  UNL     1     -33.684  16.586  -6.568  1.00 20.00    -0.028 C 
HETATM    2  C2  UNL     1     -33.159  15.829  -5.601  1.00 20.00    -0.023 C 
HETATM    3  C3  UNL     1     -35.538  13.812  -5.002  1.00 20.00     0.259 C 
HETATM    4  C4  UNL     1     -35.083  17.004  -6.252  1.00 20.00     0.060 C 
HETATM    5  C5  UNL     1     -34.389  14.184  -4.114  1.00 20.00     0.122 C 
HETATM    6  C6  UNL     1     -34.122  15.628  -4.467  1.00 20.00     0.047 C 
HETATM    7  C7  UNL     1     -35.436  16.114  -5.061  1.00 20.00     0.143 C 
HETATM    8  O8  UNL     1     -35.931  12.673  -5.206  1.00 20.00    -0.265 OA
HETATM    9  O9  UNL     1     -36.115  14.933  -5.524  1.00 20.00    -0.315 OA
ENDROOT
TORSDOF 0
ENDMDL
MODEL 9
REMARK VINA RESULT:      -4.0     11.832     12.910
REMARK  0 active torsions:
REMARK  status: ('A' for Active; 'I' for Inactive)
ROOT
HETATM    1  C1  UNL     1     -34.413  17.157  -4.311  1.00 20.00    -0.028 C 
HETATM    2  C2  UNL     1     -34.379  16.697  -5.565  1.00 20.00    -0.023 C 
HETATM    3  C3  UNL     1     -35.080  13.628  -5.145  1.00 20.00     0.259 C 
HETATM    4  C4  UNL     1     -33.694  16.250  -3.366  1.00 20.00     0.060 C 
HETATM    5  C5  UNL     1     -34.378  14.272  -6.302  1.00 20.00     0.122 C 
HETATM    6  C6  UNL     1     -33.615  15.410  -5.666  1.00 20.00     0.047 C 
HETATM    7  C7  UNL     1     -33.477  14.994  -4.210  1.00 20.00     0.143 C 
HETATM    8  O8  UNL     1     -35.982  12.809  -5.235  1.00 20.00    -0.265 OA
HETATM    9  O9  UNL     1     -34.542  14.058  -3.967  1.00 20.00    -0.315 OA
ENDROOT
TORSDOF 0
ENDMDL
