MODEL 1
REMARK VINA RESULT:      -4.8      0.000      0.000
REMARK  1 active torsions:
REMARK  status: ('A' for Active; 'I' for Inactive)
REMARK    1  A    between atoms: C9_9  and  C10_10 
ROOT
HETATM    1  C1  UNL     1     -35.284  16.863  -1.256  1.00 20.00     0.015 C 
HETATM    2  C2  UNL     1     -32.955  17.836  -1.596  1.00 20.00     0.015 C 
HETATM    3  C5  UNL     1     -35.701  17.940  -0.261  1.00 20.00     0.074 C 
HETATM    4  C6  UNL     1     -33.185  18.991  -0.628  1.00 20.00     0.074 C 
HETATM    5  C9  UNL     1     -34.243  17.350  -2.275  1.00 20.00    -0.009 C 
HETATM    6  S11 UNL     1     -34.297  18.526   0.728  1.00 20.00    -0.169 SA
ENDROOT
BRANCH   5   7
HETATM    7  C10 UNL     1     -33.923  16.234  -3.272  1.00 20.00    -0.009 C 
HETATM    8  C3  UNL     1     -35.150  15.334  -3.468  1.00 20.00     0.015 C 
HETATM    9  C7  UNL     1     -34.891  14.160  -4.405  1.00 20.00     0.074 C 
HETATM   10  S12 UNL     1     -34.431  14.713  -6.070  1.00 20.00    -0.169 SA
HETATM   11  C8  UNL     1     -33.035  15.782  -5.624  1.00 20.00     0.074 C 
HETATM   12  C4  UNL     1     -33.432  16.836  -4.597  1.00 20.00     0.015 C 
ENDBRANCH   5   7
TORSDOF 1
ENDMDL
MODEL 2
REMARK VINA RESULT:      -4.7      0.109      4.967
REMARK  1 active torsions:
REMARK  status: ('A' for Active; 'I' for Inactive)
REMARK    1  A    between atoms: C9_9  and  C10_10 
ROOT
HETATM    1  C1  UNL     1     -35.232  15.328  -3.578  1.00 20.00     0.015 C 
HETATM    2  C2  UNL     1     -33.399  16.760  -4.615  1.00 20.00     0.015 C 
HETATM    3  C5  UNL     1     -34.984  14.151  -4.514  1.00 20.00     0.074 C 
HETATM    4  C6  UNL     1     -33.004  15.698  -5.635  1.00 20.00     0.074 C 
HETATM    5  C9  UNL     1     -33.975  16.172  -3.319  1.00 20.00    -0.009 C 
HETATM    6  S11 UNL     1     -34.425  14.697  -6.152  1.00 20.00    -0.169 SA
ENDROOT
BRANCH   5   7
HETATM    7  C10 UNL     1     -34.290  17.292  -2.327  1.00 20.00    -0.009 C 
HETATM    8  C3  UNL     1     -35.366  16.831  -1.334  1.00 20.00     0.015 C 
HETATM    9  C7  UNL     1     -35.778  17.917  -0.346  1.00 20.00     0.074 C 
HETATM   10  S12 UNL     1     -34.384  18.464   0.677  1.00 20.00    -0.169 SA
HETATM   11  C8  UNL     1     -33.229  18.903  -0.651  1.00 20.00     0.074 C 
HETATM   12  C4  UNL     1     -33.005  17.744  -1.616  1.00 20.00     0.015 C 
ENDBRANCH   5   7
TORSDOF 1
ENDMDL
MODEL 3
REMARK VINA RESULT:      -4.6      1.208      2.315
REMARK  1 active torsions:
REMARK  status: ('A' for Active; 'I' for Inactive)
REMARK    1  A    between atoms: C9_9  and  C10_10 
ROOT
HETATM    1  C1  UNL     1     -33.296  17.759  -2.442  1.00 20.00     0.015 C 
HETATM    2  C2  UNL     1     -35.525  17.087  -1.411  1.00 20.00     0.015 C 
HETATM    3  C5  UNL     1     -32.741  18.312  -1.134  1.00 20.00     0.074 C 
HETATM    4  C6  UNL     1     -35.150  17.587  -0.020  1.00 20.00     0.074 C 
HETATM    5  C9  UNL     1     -34.316  16.629  -2.237  1.00 20.00    -0.009 C 
HETATM    6  S11 UNL     1     -34.046  19.025  -0.094  1.00 20.00    -0.169 SA
ENDROOT
BRANCH   5   7
HETATM    7  C10 UNL     1     -34.778  16.088  -3.591  1.00 20.00    -0.009 C 
HETATM    8  C3  UNL     1     -33.936  14.867  -3.988  1.00 20.00     0.015 C 
HETATM    9  C7  UNL     1     -34.298  14.306  -5.357  1.00 20.00     0.074 C 
HETATM   10  S12 UNL     1     -36.020  13.741  -5.423  1.00 20.00    -0.169 SA
HETATM   11  C8  UNL     1     -36.828  15.271  -4.879  1.00 20.00     0.074 C 
HETATM   12  C4  UNL     1     -36.278  15.762  -3.545  1.00 20.00     0.015 C 
ENDBRANCH   5   7
TORSDOF 1
ENDMDL
MODEL 4
REMARK VINA RESULT:      -4.6      1.199      5.304
REMARK  1 active torsions:
REMARK  status: ('A' for Active; 'I' for Inactive)
REMARK    1  A    between atoms: C9_9  and  C10_10 
ROOT
HETATM    1  C1  UNL     1     -33.923  14.921  -3.902  1.00 20.00     0.015 C 
HETATM    2  C2  UNL     1     -36.265  15.813  -3.454  1.00 20.00     0.015 C 
HETATM    3  C5  UNL     1     -34.285  14.366  -5.274  1.00 20.00     0.074 C 
HETATM    4  C6  UNL     1     -36.816  15.329  -4.791  1.00 20.00     0.074 C 
HETATM    5  C9  UNL     1     -34.766  16.139  -3.500  1.00 20.00    -0.009 C 
HETATM    6  S11 UNL     1     -36.008  13.801  -5.341  1.00 20.00    -0.169 SA
ENDROOT
BRANCH   5   7
HETATM    7  C10 UNL     1     -34.303  16.674  -2.143  1.00 20.00    -0.009 C 
HETATM    8  C3  UNL     1     -33.258  17.780  -2.340  1.00 20.00     0.015 C 
HETATM    9  C7  UNL     1     -32.702  18.323  -1.029  1.00 20.00     0.074 C 
HETATM   10  S12 UNL     1     -33.998  19.066  -0.001  1.00 20.00    -0.169 SA
HETATM   11  C8  UNL     1     -35.134  17.653   0.065  1.00 20.00     0.074 C 
HETATM   12  C4  UNL     1     -35.510  17.160  -1.327  1.00 20.00     0.015 C 
ENDBRANCH   5   7
TORSDOF 1
ENDMDL
MODEL 5
REMARK VINA RESULT:      -4.6      0.895      1.718
REMARK  1 active torsions:
REMARK  status: ('A' for Active; 'I' for Inactive)
REMARK    1  A    between atoms: C9_9  and  C10_10 
ROOT
HETATM    1  C1  UNL     1     -33.285  18.173  -2.825  1.00 20.00     0.015 C 
HETATM    2  C2  UNL     1     -35.071  16.690  -1.779  1.00 20.00     0.015 C 
HETATM    3  C5  UNL     1     -33.207  19.104  -1.621  1.00 20.00     0.074 C 
HETATM    4  C6  UNL     1     -35.137  17.502  -0.491  1.00 20.00     0.074 C 
HETATM    5  C9  UNL     1     -33.695  16.740  -2.457  1.00 20.00    -0.009 C 
HETATM    6  S11 UNL     1     -34.809  19.262  -0.784  1.00 20.00    -0.169 SA
ENDROOT
BRANCH   5   7
HETATM    7  C10 UNL     1     -33.692  15.856  -3.706  1.00 20.00    -0.009 C 
HETATM    8  C3  UNL     1     -35.016  15.088  -3.813  1.00 20.00     0.015 C 
HETATM    9  C7  UNL     1     -35.066  14.137  -5.003  1.00 20.00     0.074 C 
HETATM   10  S12 UNL     1     -34.893  15.017  -6.579  1.00 20.00    -0.169 SA
HETATM   11  C8  UNL     1     -33.338  15.885  -6.236  1.00 20.00     0.074 C 
HETATM   12  C4  UNL     1     -33.416  16.707  -4.955  1.00 20.00     0.015 C 
ENDBRANCH   5   7
TORSDOF 1
ENDMDL
MODEL 6
REMARK VINA RESULT:      -4.4      0.791      2.270
REMARK  1 active torsions:
REMARK  status: ('A' for Active; 'I' for Inactive)
REMARK    1  A    between atoms: C9_9  and  C10_10 
ROOT
HETATM    1  C1  UNL     1     -33.262  17.797  -2.342  1.00 20.00     0.015 C 
HETATM    2  C2  UNL     1     -35.563  17.030  -1.569  1.00 20.00     0.015 C 
HETATM    3  C5  UNL     1     -32.814  18.204  -0.943  1.00 20.00     0.074 C 
HETATM    4  C6  UNL     1     -35.301  17.375  -0.107  1.00 20.00     0.074 C 
HETATM    5  C9  UNL     1     -34.290  16.657  -2.341  1.00 20.00    -0.009 C 
HETATM    6  S11 UNL     1     -34.200  18.807   0.062  1.00 20.00    -0.169 SA
ENDROOT
BRANCH   5   7
HETATM    7  C10 UNL     1     -34.642  16.267  -3.778  1.00 20.00    -0.009 C 
HETATM    8  C3  UNL     1     -33.608  16.849  -4.752  1.00 20.00     0.015 C 
HETATM    9  C7  UNL     1     -33.924  16.553  -6.213  1.00 20.00     0.074 C 
HETATM   10  S12 UNL     1     -33.951  14.772  -6.551  1.00 20.00    -0.169 SA
HETATM   11  C8  UNL     1     -35.158  14.275  -5.292  1.00 20.00     0.074 C 
HETATM   12  C4  UNL     1     -34.751  14.739  -3.899  1.00 20.00     0.015 C 
ENDBRANCH   5   7
TORSDOF 1
ENDMDL
MODEL 7
REMARK VINA RESULT:      -4.4      0.955      5.293
REMARK  1 active torsions:
REMARK  status: ('A' for Active; 'I' for Inactive)
REMARK    1  A    between atoms: C9_9  and  C10_10 
ROOT
HETATM    1  C1  UNL     1     -33.934  17.311  -4.669  1.00 20.00     0.015 C 
HETATM    2  C2  UNL     1     -34.186  14.876  -3.968  1.00 20.00     0.015 C 
HETATM    3  C5  UNL     1     -34.264  17.031  -6.130  1.00 20.00     0.074 C 
HETATM    4  C6  UNL     1     -34.536  14.401  -5.373  1.00 20.00     0.074 C 
HETATM    5  C9  UNL     1     -34.604  16.328  -3.698  1.00 20.00    -0.009 C 
HETATM    6  S11 UNL     1     -33.701  15.386  -6.647  1.00 20.00    -0.169 SA
ENDROOT
BRANCH   5   7
HETATM    7  C10 UNL     1     -34.275  16.711  -2.254  1.00 20.00    -0.009 C 
HETATM    8  C3  UNL     1     -33.248  17.851  -2.230  1.00 20.00     0.015 C 
HETATM    9  C7  UNL     1     -32.823  18.249  -0.822  1.00 20.00     0.074 C 
HETATM   10  S12 UNL     1     -34.223  18.845   0.164  1.00 20.00    -0.169 SA
HETATM   11  C8  UNL     1     -35.322  17.415  -0.032  1.00 20.00     0.074 C 
HETATM   12  C4  UNL     1     -35.561  17.079  -1.499  1.00 20.00     0.015 C 
ENDBRANCH   5   7
TORSDOF 1
ENDMDL
MODEL 8
REMARK VINA RESULT:      -4.2      1.492      5.269
REMARK  1 active torsions:
REMARK  status: ('A' for Active; 'I' for Inactive)
REMARK    1  A    between atoms: C9_9  and  C10_10 
ROOT
HETATM    1  C1  UNL     1     -35.507  14.645  -4.275  1.00 20.00     0.015 C 
HETATM    2  C2  UNL     1     -33.819  15.668  -5.883  1.00 20.00     0.015 C 
HETATM    3  C5  UNL     1     -35.866  13.502  -5.216  1.00 20.00     0.074 C 
HETATM    4  C6  UNL     1     -34.043  14.607  -6.955  1.00 20.00     0.074 C 
HETATM    5  C9  UNL     1     -34.070  15.153  -4.459  1.00 20.00    -0.009 C 
HETATM    6  S11 UNL     1     -35.752  13.999  -6.958  1.00 20.00    -0.169 SA
ENDROOT
BRANCH   5   7
HETATM    7  C10 UNL     1     -33.767  16.254  -3.441  1.00 20.00    -0.009 C 
HETATM    8  C3  UNL     1     -33.586  17.600  -4.157  1.00 20.00     0.015 C 
HETATM    9  C7  UNL     1     -33.221  18.739  -3.212  1.00 20.00     0.074 C 
HETATM   10  S12 UNL     1     -34.512  19.027  -1.970  1.00 20.00    -0.169 SA
HETATM   11  C8  UNL     1     -34.616  17.347  -1.293  1.00 20.00     0.074 C 
HETATM   12  C4  UNL     1     -34.876  16.311  -2.380  1.00 20.00     0.015 C 
ENDBRANCH   5   7
TORSDOF 1
ENDMDL
MODEL 9
REMARK VINA RESULT:      -4.2      1.094      1.297
REMARK  1 active torsions:
REMARK  status: ('A' for Active; 'I' for Inactive)
REMARK    1  A    between atoms: C9_9  and  C10_10 
ROOT
HETATM    1  C1  UNL     1     -35.014  17.441  -0.317  1.00 20.00     0.015 C 
HETATM    2  C2  UNL     1     -32.645  18.315  -0.651  1.00 20.00     0.015 C 
HETATM    3  C5  UNL     1     -35.276  18.319   0.901  1.00 20.00     0.074 C 
HETATM    4  C6  UNL     1     -32.717  19.263   0.540  1.00 20.00     0.074 C 
HETATM    5  C9  UNL     1     -34.011  18.057  -1.303  1.00 20.00    -0.009 C 
HETATM    6  S11 UNL     1     -33.766  18.604   1.866  1.00 20.00    -0.169 SA
ENDROOT
BRANCH   5   7
HETATM    7  C10 UNL     1     -33.848  17.148  -2.523  1.00 20.00    -0.009 C 
HETATM    8  C3  UNL     1     -35.068  16.226  -2.660  1.00 20.00     0.015 C 
HETATM    9  C7  UNL     1     -34.953  15.245  -3.821  1.00 20.00     0.074 C 
HETATM   10  S12 UNL     1     -34.815  16.099  -5.416  1.00 20.00    -0.169 SA
HETATM   11  C8  UNL     1     -33.390  17.154  -5.036  1.00 20.00     0.074 C 
HETATM   12  C4  UNL     1     -33.620  17.993  -3.785  1.00 20.00     0.015 C 
ENDBRANCH   5   7
TORSDOF 1
ENDMDL
