MODEL 1
REMARK VINA RESULT:      -5.5      0.000      0.000
REMARK  0 active torsions:
REMARK  status: ('A' for Active; 'I' for Inactive)
ROOT
HETATM    1  C1  UNL     1     -32.549   7.803   4.258  1.00 20.00    -0.007 C 
HETATM    2  C2  UNL     1     -32.738   7.643   2.943  1.00 20.00     0.008 C 
HETATM    3  C3  UNL     1     -33.328   7.052   5.293  1.00 20.00     0.035 C 
HETATM    4  C4  UNL     1     -33.746   6.707   2.349  1.00 20.00     0.058 C 
HETATM    5  C5  UNL     1     -34.887   5.082   5.543  1.00 20.00     0.172 C 
HETATM    6  C6  UNL     1     -33.631   4.491   3.665  1.00 20.00     0.172 C 
HETATM    7  C7  UNL     1     -34.589   6.349   4.752  1.00 20.00     0.019 C 
HETATM    8  C8  UNL     1     -34.402   5.767   3.360  1.00 20.00     0.021 C 
HETATM    9  O9  UNL     1     -34.098   4.037   4.947  1.00 20.00    -0.390 OA
HETATM   10 CL10 UNL     1     -31.792   8.541   1.807  1.00 20.00    -0.089 Cl
ENDROOT
TORSDOF 0
ENDMDL
MODEL 2
REMARK VINA RESULT:      -4.7      2.795      4.105
REMARK  0 active torsions:
REMARK  status: ('A' for Active; 'I' for Inactive)
ROOT
HETATM    1  C1  UNL     1     -33.863   5.272   3.400  1.00 20.00    -0.007 C 
HETATM    2  C2  UNL     1     -34.086   5.750   4.629  1.00 20.00     0.008 C 
HETATM    3  C3  UNL     1     -33.390   6.125   2.263  1.00 20.00     0.035 C 
HETATM    4  C4  UNL     1     -33.899   7.185   5.016  1.00 20.00     0.058 C 
HETATM    5  C5  UNL     1     -32.418   8.404   1.782  1.00 20.00     0.172 C 
HETATM    6  C6  UNL     1     -31.690   8.001   3.965  1.00 20.00     0.172 C 
HETATM    7  C7  UNL     1     -33.512   7.641   2.515  1.00 20.00     0.019 C 
HETATM    8  C8  UNL     1     -33.211   8.038   3.952  1.00 20.00     0.021 C 
HETATM    9  O9  UNL     1     -31.267   8.395   2.647  1.00 20.00    -0.390 OA
HETATM   10 CL10 UNL     1     -34.624   4.699   5.892  1.00 20.00    -0.089 Cl
ENDROOT
TORSDOF 0
ENDMDL
MODEL 3
REMARK VINA RESULT:      -4.4      2.875      3.883
REMARK  0 active torsions:
REMARK  status: ('A' for Active; 'I' for Inactive)
ROOT
HETATM    1  C1  UNL     1     -33.795   6.935   5.156  1.00 20.00    -0.007 C 
HETATM    2  C2  UNL     1     -34.048   5.887   4.365  1.00 20.00     0.008 C 
HETATM    3  C3  UNL     1     -32.837   8.026   4.788  1.00 20.00     0.035 C 
HETATM    4  C4  UNL     1     -33.407   5.672   3.029  1.00 20.00     0.058 C 
HETATM    5  C5  UNL     1     -31.549   8.935   2.816  1.00 20.00     0.172 C 
HETATM    6  C6  UNL     1     -33.394   7.934   1.790  1.00 20.00     0.172 C 
HETATM    7  C7  UNL     1     -31.911   7.683   3.603  1.00 20.00     0.019 C 
HETATM    8  C8  UNL     1     -32.597   6.864   2.522  1.00 20.00     0.021 C 
HETATM    9  O9  UNL     1     -32.614   9.141   1.870  1.00 20.00    -0.390 OA
HETATM   10 CL10 UNL     1     -35.175   4.671   4.858  1.00 20.00    -0.089 Cl
ENDROOT
TORSDOF 0
ENDMDL
MODEL 4
REMARK VINA RESULT:      -4.1     11.259     12.268
REMARK  0 active torsions:
REMARK  status: ('A' for Active; 'I' for Inactive)
ROOT
HETATM    1  C1  UNL     1     -35.872  16.509  -2.712  1.00 20.00    -0.007 C 
HETATM    2  C2  UNL     1     -34.537  16.573  -2.654  1.00 20.00     0.008 C 
HETATM    3  C3  UNL     1     -36.610  15.801  -3.806  1.00 20.00     0.035 C 
HETATM    4  C4  UNL     1     -33.624  15.956  -3.669  1.00 20.00     0.058 C 
HETATM    5  C5  UNL     1     -36.239  14.181  -5.706  1.00 20.00     0.172 C 
HETATM    6  C6  UNL     1     -34.533  13.606  -4.218  1.00 20.00     0.172 C 
HETATM    7  C7  UNL     1     -35.745  15.454  -5.035  1.00 20.00     0.019 C 
HETATM    8  C8  UNL     1     -34.326  15.043  -4.673  1.00 20.00     0.021 C 
HETATM    9  O9  UNL     1     -35.617  13.086  -5.010  1.00 20.00    -0.390 OA
HETATM   10 CL10 UNL     1     -33.757  17.403  -1.353  1.00 20.00    -0.089 Cl
ENDROOT
TORSDOF 0
ENDMDL
MODEL 5
REMARK VINA RESULT:      -4.1     11.759     12.701
REMARK  0 active torsions:
REMARK  status: ('A' for Active; 'I' for Inactive)
ROOT
HETATM    1  C1  UNL     1     -36.155  16.321  -3.108  1.00 20.00    -0.007 C 
HETATM    2  C2  UNL     1     -35.069  16.595  -2.375  1.00 20.00     0.008 C 
HETATM    3  C3  UNL     1     -36.087  15.883  -4.538  1.00 20.00     0.035 C 
HETATM    4  C4  UNL     1     -33.666  16.506  -2.892  1.00 20.00     0.058 C 
HETATM    5  C5  UNL     1     -34.450  15.049  -6.269  1.00 20.00     0.172 C 
HETATM    6  C6  UNL     1     -33.473  14.335  -4.271  1.00 20.00     0.172 C 
HETATM    7  C7  UNL     1     -34.715  16.106  -5.206  1.00 20.00     0.019 C 
HETATM    8  C8  UNL     1     -33.544  15.855  -4.268  1.00 20.00     0.021 C 
HETATM    9  O9  UNL     1     -33.887  13.916  -5.584  1.00 20.00    -0.390 OA
HETATM   10 CL10 UNL     1     -35.229  17.087  -0.725  1.00 20.00    -0.089 Cl
ENDROOT
TORSDOF 0
ENDMDL
MODEL 6
REMARK VINA RESULT:      -4.0     12.154     12.823
REMARK  0 active torsions:
REMARK  status: ('A' for Active; 'I' for Inactive)
ROOT
HETATM    1  C1  UNL     1     -36.720  15.596  -3.962  1.00 20.00    -0.007 C 
HETATM    2  C2  UNL     1     -37.180  14.701  -4.844  1.00 20.00     0.008 C 
HETATM    3  C3  UNL     1     -35.269  15.742  -3.626  1.00 20.00     0.035 C 
HETATM    4  C4  UNL     1     -36.309  13.739  -5.592  1.00 20.00     0.058 C 
HETATM    5  C5  UNL     1     -32.979  15.045  -4.429  1.00 20.00     0.172 C 
HETATM    6  C6  UNL     1     -34.228  15.030  -6.403  1.00 20.00     0.172 C 
HETATM    7  C7  UNL     1     -34.387  14.569  -4.098  1.00 20.00     0.019 C 
HETATM    8  C8  UNL     1     -34.811  14.002  -5.444  1.00 20.00     0.021 C 
HETATM    9  O9  UNL     1     -33.018  15.510  -5.791  1.00 20.00    -0.390 OA
HETATM   10 CL10 UNL     1     -38.872  14.599  -5.186  1.00 20.00    -0.089 Cl
ENDROOT
TORSDOF 0
ENDMDL
MODEL 7
REMARK VINA RESULT:      -4.0     11.970     13.146
REMARK  0 active torsions:
REMARK  status: ('A' for Active; 'I' for Inactive)
ROOT
HETATM    1  C1  UNL     1     -33.486  16.039  -5.497  1.00 20.00    -0.007 C 
HETATM    2  C2  UNL     1     -33.952  15.625  -4.313  1.00 20.00     0.008 C 
HETATM    3  C3  UNL     1     -33.788  15.339  -6.786  1.00 20.00     0.035 C 
HETATM    4  C4  UNL     1     -34.820  14.418  -4.131  1.00 20.00     0.058 C 
HETATM    5  C5  UNL     1     -35.318  13.585  -7.764  1.00 20.00     0.172 C 
HETATM    6  C6  UNL     1     -36.595  14.435  -6.002  1.00 20.00     0.172 C 
HETATM    7  C7  UNL     1     -34.378  13.924  -6.616  1.00 20.00     0.019 C 
HETATM    8  C8  UNL     1     -35.329  13.808  -5.435  1.00 20.00     0.021 C 
HETATM    9  O9  UNL     1     -36.606  14.119  -7.406  1.00 20.00    -0.390 OA
HETATM   10 CL10 UNL     1     -33.565  16.493  -2.869  1.00 20.00    -0.089 Cl
ENDROOT
TORSDOF 0
ENDMDL
MODEL 8
REMARK VINA RESULT:      -4.0     12.150     12.664
REMARK  0 active torsions:
REMARK  status: ('A' for Active; 'I' for Inactive)
ROOT
HETATM    1  C1  UNL     1     -33.349  15.436  -3.901  1.00 20.00    -0.007 C 
HETATM    2  C2  UNL     1     -34.128  16.186  -3.113  1.00 20.00     0.008 C 
HETATM    3  C3  UNL     1     -33.890  14.437  -4.876  1.00 20.00     0.035 C 
HETATM    4  C4  UNL     1     -35.624  16.113  -3.103  1.00 20.00     0.058 C 
HETATM    5  C5  UNL     1     -36.047  13.731  -5.982  1.00 20.00     0.172 C 
HETATM    6  C6  UNL     1     -36.423  15.996  -5.552  1.00 20.00     0.172 C 
HETATM    7  C7  UNL     1     -35.376  14.082  -4.662  1.00 20.00     0.019 C 
HETATM    8  C8  UNL     1     -36.220  15.271  -4.230  1.00 20.00     0.021 C 
HETATM    9  O9  UNL     1     -36.470  14.976  -6.566  1.00 20.00    -0.390 OA
HETATM   10 CL10 UNL     1     -33.427  17.326  -2.018  1.00 20.00    -0.089 Cl
ENDROOT
TORSDOF 0
ENDMDL
MODEL 9
REMARK VINA RESULT:      -4.0     12.001     13.296
REMARK  0 active torsions:
REMARK  status: ('A' for Active; 'I' for Inactive)
ROOT
HETATM    1  C1  UNL     1     -34.745  16.871  -6.383  1.00 20.00    -0.007 C 
HETATM    2  C2  UNL     1     -33.851  16.887  -5.388  1.00 20.00     0.008 C 
HETATM    3  C3  UNL     1     -35.211  15.612  -7.045  1.00 20.00     0.035 C 
HETATM    4  C4  UNL     1     -33.206  15.659  -4.822  1.00 20.00     0.058 C 
HETATM    5  C5  UNL     1     -35.174  13.104  -6.755  1.00 20.00     0.172 C 
HETATM    6  C6  UNL     1     -35.038  13.864  -4.551  1.00 20.00     0.172 C 
HETATM    7  C7  UNL     1     -34.339  14.376  -6.742  1.00 20.00     0.019 C 
HETATM    8  C8  UNL     1     -33.814  14.347  -5.315  1.00 20.00     0.021 C 
HETATM    9  O9  UNL     1     -35.741  12.976  -5.438  1.00 20.00    -0.390 OA
HETATM   10 CL10 UNL     1     -33.369  18.384  -4.668  1.00 20.00    -0.089 Cl
ENDROOT
TORSDOF 0
ENDMDL
