MODEL 1
REMARK VINA RESULT:      -4.1      0.000      0.000
REMARK  0 active torsions:
REMARK  status: ('A' for Active; 'I' for Inactive)
ROOT
HETATM    1  C1  UNL     1     -34.485   5.654   3.801  1.00 20.00     0.089 A 
HETATM    2  C2  UNL     1     -33.675   6.907   5.781  1.00 20.00     0.089 A 
HETATM    3  C3  UNL     1     -33.577   6.632   3.478  1.00 20.00     0.109 A 
HETATM    4  C4  UNL     1     -33.094   7.328   4.611  1.00 20.00     0.109 A 
HETATM    5  C5  UNL     1     -32.499   8.144   2.130  1.00 20.00     0.202 C 
HETATM    6  C6  UNL     1     -31.508   8.321   3.285  1.00 20.00     0.202 C 
HETATM    7  O7  UNL     1     -33.182   6.881   2.207  1.00 20.00    -0.346 OA
HETATM    8  O8  UNL     1     -32.172   8.318   4.560  1.00 20.00    -0.346 OA
HETATM    9  S9  UNL     1     -34.781   5.622   5.495  1.00 20.00    -0.108 SA
ENDROOT
TORSDOF 0
ENDMDL
MODEL 2
REMARK VINA RESULT:      -4.1      0.029      2.061
REMARK  0 active torsions:
REMARK  status: ('A' for Active; 'I' for Inactive)
ROOT
HETATM    1  C1  UNL     1     -33.671   6.934   5.795  1.00 20.00     0.089 A 
HETATM    2  C2  UNL     1     -34.460   5.641   3.832  1.00 20.00     0.089 A 
HETATM    3  C3  UNL     1     -33.088   7.340   4.620  1.00 20.00     0.109 A 
HETATM    4  C4  UNL     1     -33.559   6.621   3.497  1.00 20.00     0.109 A 
HETATM    5  C5  UNL     1     -31.503   8.325   3.284  1.00 20.00     0.202 C 
HETATM    6  C6  UNL     1     -32.487   8.118   2.129  1.00 20.00     0.202 C 
HETATM    7  O7  UNL     1     -32.174   8.337   4.557  1.00 20.00    -0.346 OA
HETATM    8  O8  UNL     1     -33.161   6.851   2.223  1.00 20.00    -0.346 OA
HETATM    9  S9  UNL     1     -34.764   5.634   5.525  1.00 20.00    -0.108 SA
ENDROOT
TORSDOF 0
ENDMDL
MODEL 3
REMARK VINA RESULT:      -3.8      2.138      3.746
REMARK  0 active torsions:
REMARK  status: ('A' for Active; 'I' for Inactive)
ROOT
HETATM    1  C1  UNL     1     -32.332   8.189   4.191  1.00 20.00     0.089 A 
HETATM    2  C2  UNL     1     -33.112   6.791   2.299  1.00 20.00     0.089 A 
HETATM    3  C3  UNL     1     -33.188   7.190   4.585  1.00 20.00     0.109 A 
HETATM    4  C4  UNL     1     -33.611   6.376   3.509  1.00 20.00     0.109 A 
HETATM    5  C5  UNL     1     -34.695   6.122   5.945  1.00 20.00     0.202 C 
HETATM    6  C6  UNL     1     -34.528   4.913   5.020  1.00 20.00     0.202 C 
HETATM    7  O7  UNL     1     -33.564   7.006   5.873  1.00 20.00    -0.346 OA
HETATM    8  O8  UNL     1     -34.433   5.308   3.640  1.00 20.00    -0.346 OA
HETATM    9  S9  UNL     1     -32.085   8.156   2.490  1.00 20.00    -0.108 SA
ENDROOT
TORSDOF 0
ENDMDL
MODEL 4
REMARK VINA RESULT:      -3.8      2.168      3.222
REMARK  0 active torsions:
REMARK  status: ('A' for Active; 'I' for Inactive)
ROOT
HETATM    1  C1  UNL     1     -33.089   6.571   2.371  1.00 20.00     0.089 A 
HETATM    2  C2  UNL     1     -32.503   8.074   4.252  1.00 20.00     0.089 A 
HETATM    3  C3  UNL     1     -33.619   6.157   3.569  1.00 20.00     0.109 A 
HETATM    4  C4  UNL     1     -33.308   7.031   4.637  1.00 20.00     0.109 A 
HETATM    5  C5  UNL     1     -34.511   4.679   5.081  1.00 20.00     0.202 C 
HETATM    6  C6  UNL     1     -34.806   5.901   5.956  1.00 20.00     0.202 C 
HETATM    7  O7  UNL     1     -34.373   5.039   3.695  1.00 20.00    -0.346 OA
HETATM    8  O8  UNL     1     -33.735   6.859   5.910  1.00 20.00    -0.346 OA
HETATM    9  S9  UNL     1     -32.167   8.008   2.567  1.00 20.00    -0.108 SA
ENDROOT
TORSDOF 0
ENDMDL
MODEL 5
REMARK VINA RESULT:      -3.5     11.417     12.743
REMARK  0 active torsions:
REMARK  status: ('A' for Active; 'I' for Inactive)
ROOT
HETATM    1  C1  UNL     1     -34.425  14.645  -3.954  1.00 20.00     0.089 A 
HETATM    2  C2  UNL     1     -33.468  16.484  -5.312  1.00 20.00     0.089 A 
HETATM    3  C3  UNL     1     -34.459  14.385  -5.302  1.00 20.00     0.109 A 
HETATM    4  C4  UNL     1     -33.888  15.423  -6.075  1.00 20.00     0.109 A 
HETATM    5  C5  UNL     1     -35.177  13.383  -7.237  1.00 20.00     0.202 C 
HETATM    6  C6  UNL     1     -33.983  14.060  -7.917  1.00 20.00     0.202 C 
HETATM    7  O7  UNL     1     -34.973  13.245  -5.821  1.00 20.00    -0.346 OA
HETATM    8  O8  UNL     1     -33.776  15.395  -7.424  1.00 20.00    -0.346 OA
HETATM    9  S9  UNL     1     -33.733  16.187  -3.639  1.00 20.00    -0.108 SA
ENDROOT
TORSDOF 0
ENDMDL
MODEL 6
REMARK VINA RESULT:      -3.5     11.423     12.758
REMARK  0 active torsions:
REMARK  status: ('A' for Active; 'I' for Inactive)
ROOT
HETATM    1  C1  UNL     1     -33.444  16.466  -5.356  1.00 20.00     0.089 A 
HETATM    2  C2  UNL     1     -34.404  14.660  -3.956  1.00 20.00     0.089 A 
HETATM    3  C3  UNL     1     -33.894  15.400  -6.096  1.00 20.00     0.109 A 
HETATM    4  C4  UNL     1     -34.467  14.382  -5.299  1.00 20.00     0.109 A 
HETATM    5  C5  UNL     1     -34.046  14.014  -7.918  1.00 20.00     0.202 C 
HETATM    6  C6  UNL     1     -35.238  13.367  -7.206  1.00 20.00     0.202 C 
HETATM    7  O7  UNL     1     -33.809  15.352  -7.447  1.00 20.00    -0.346 OA
HETATM    8  O8  UNL     1     -35.009  13.243  -5.791  1.00 20.00    -0.346 OA
HETATM    9  S9  UNL     1     -33.680  16.194  -3.675  1.00 20.00    -0.108 SA
ENDROOT
TORSDOF 0
ENDMDL
MODEL 7
REMARK VINA RESULT:      -3.4     11.590     11.987
REMARK  0 active torsions:
REMARK  status: ('A' for Active; 'I' for Inactive)
ROOT
HETATM    1  C1  UNL     1     -35.630  16.511  -2.913  1.00 20.00     0.089 A 
HETATM    2  C2  UNL     1     -33.559  15.533  -3.859  1.00 20.00     0.089 A 
HETATM    3  C3  UNL     1     -35.880  15.512  -3.822  1.00 20.00     0.109 A 
HETATM    4  C4  UNL     1     -34.697  14.936  -4.341  1.00 20.00     0.109 A 
HETATM    5  C5  UNL     1     -37.098  14.310  -5.350  1.00 20.00     0.202 C 
HETATM    6  C6  UNL     1     -35.963  13.282  -5.302  1.00 20.00     0.202 C 
HETATM    7  O7  UNL     1     -37.130  15.121  -4.163  1.00 20.00    -0.346 OA
HETATM    8  O8  UNL     1     -34.674  13.916  -5.231  1.00 20.00    -0.346 OA
HETATM    9  S9  UNL     1     -33.941  16.773  -2.732  1.00 20.00    -0.108 SA
ENDROOT
TORSDOF 0
ENDMDL
MODEL 8
REMARK VINA RESULT:      -3.3     11.611     12.039
REMARK  0 active torsions:
REMARK  status: ('A' for Active; 'I' for Inactive)
ROOT
HETATM    1  C1  UNL     1     -37.038  15.816  -4.573  1.00 20.00     0.089 A 
HETATM    2  C2  UNL     1     -36.300  13.563  -5.295  1.00 20.00     0.089 A 
HETATM    3  C3  UNL     1     -35.692  15.615  -4.396  1.00 20.00     0.109 A 
HETATM    4  C4  UNL     1     -35.266  14.339  -4.834  1.00 20.00     0.109 A 
HETATM    5  C5  UNL     1     -33.608  15.969  -3.504  1.00 20.00     0.202 C 
HETATM    6  C6  UNL     1     -33.088  15.016  -4.585  1.00 20.00     0.202 C 
HETATM    7  O7  UNL     1     -34.868  16.554  -3.873  1.00 20.00    -0.346 OA
HETATM    8  O8  UNL     1     -33.983  13.910  -4.793  1.00 20.00    -0.346 OA
HETATM    9  S9  UNL     1     -37.790  14.418  -5.233  1.00 20.00    -0.108 SA
ENDROOT
TORSDOF 0
ENDMDL
MODEL 9
REMARK VINA RESULT:      -3.3     11.610     11.940
REMARK  0 active torsions:
REMARK  status: ('A' for Active; 'I' for Inactive)
ROOT
HETATM    1  C1  UNL     1     -36.294  13.557  -5.296  1.00 20.00     0.089 A 
HETATM    2  C2  UNL     1     -37.034  15.813  -4.584  1.00 20.00     0.089 A 
HETATM    3  C3  UNL     1     -35.261  14.336  -4.835  1.00 20.00     0.109 A 
HETATM    4  C4  UNL     1     -35.688  15.614  -4.403  1.00 20.00     0.109 A 
HETATM    5  C5  UNL     1     -33.084  15.014  -4.584  1.00 20.00     0.202 C 
HETATM    6  C6  UNL     1     -33.607  15.970  -3.508  1.00 20.00     0.202 C 
HETATM    7  O7  UNL     1     -33.978  13.907  -4.789  1.00 20.00    -0.346 OA
HETATM    8  O8  UNL     1     -34.866  16.555  -3.882  1.00 20.00    -0.346 OA
HETATM    9  S9  UNL     1     -37.785  14.413  -5.242  1.00 20.00    -0.108 SA
ENDROOT
TORSDOF 0
ENDMDL
