MODEL 1
REMARK VINA RESULT:      -4.4      0.000      0.000
REMARK  2 active torsions:
REMARK  status: ('A' for Active; 'I' for Inactive)
REMARK    1  A    between atoms: C5_5  and  C6_6 
REMARK    2  A    between atoms: C6_6  and  N8_8 
ROOT
HETATM    1  C1  UNL     1     -34.688   5.395   5.410  1.00 20.00     0.135 A 
HETATM    2  C2  UNL     1     -34.329   5.340   4.083  1.00 20.00     0.111 A 
HETATM    3  C3  UNL     1     -33.600   7.186   5.040  1.00 20.00     0.209 A 
HETATM    4  N7  UNL     1     -34.231   6.547   5.999  1.00 20.00    -0.255 NA
HETATM    5  N8  UNL     1     -33.632   6.494   3.861  1.00 20.00    -0.350 N 
ENDROOT
BRANCH   5   6
HETATM    6  C6  UNL     1     -33.034   6.913   2.598  1.00 20.00     0.129 C 
BRANCH   6   7
HETATM    7  C5  UNL     1     -32.088   8.098   2.774  1.00 20.00     0.016 C 
HETATM    8  C4  UNL     1     -32.145   9.034   1.578  1.00 20.00     0.006 C 
ENDBRANCH   6   7
ENDBRANCH   5   6
TORSDOF 2
ENDMDL
MODEL 2
REMARK VINA RESULT:      -4.4      0.952      1.350
REMARK  2 active torsions:
REMARK  status: ('A' for Active; 'I' for Inactive)
REMARK    1  A    between atoms: C5_5  and  C6_6 
REMARK    2  A    between atoms: C6_6  and  N8_8 
ROOT
HETATM    1  C1  UNL     1     -34.382   5.749   3.709  1.00 20.00     0.135 A 
HETATM    2  C2  UNL     1     -33.459   6.309   2.858  1.00 20.00     0.111 A 
HETATM    3  C3  UNL     1     -33.444   7.298   4.827  1.00 20.00     0.209 A 
HETATM    4  N7  UNL     1     -34.368   6.370   4.934  1.00 20.00    -0.255 NA
HETATM    5  N8  UNL     1     -32.866   7.300   3.589  1.00 20.00    -0.350 N 
ENDROOT
BRANCH   5   6
HETATM    6  C6  UNL     1     -31.809   8.196   3.131  1.00 20.00     0.129 C 
BRANCH   6   7
HETATM    7  C5  UNL     1     -31.877   8.443   1.625  1.00 20.00     0.016 C 
HETATM    8  C4  UNL     1     -32.487   9.799   1.313  1.00 20.00     0.006 C 
ENDBRANCH   6   7
ENDBRANCH   5   6
TORSDOF 2
ENDMDL
MODEL 3
REMARK VINA RESULT:      -4.1      1.382      3.789
REMARK  2 active torsions:
REMARK  status: ('A' for Active; 'I' for Inactive)
REMARK    1  A    between atoms: C5_5  and  C6_6 
REMARK    2  A    between atoms: C6_6  and  N8_8 
ROOT
HETATM    1  C1  UNL     1     -32.233   7.954   2.122  1.00 20.00     0.135 A 
HETATM    2  C2  UNL     1     -33.288   7.227   2.622  1.00 20.00     0.111 A 
HETATM    3  C3  UNL     1     -32.062   8.084   4.240  1.00 20.00     0.209 A 
HETATM    4  N7  UNL     1     -31.473   8.485   3.135  1.00 20.00    -0.255 NA
HETATM    5  N8  UNL     1     -33.165   7.319   3.979  1.00 20.00    -0.350 N 
ENDROOT
BRANCH   5   6
HETATM    6  C6  UNL     1     -34.048   6.713   4.970  1.00 20.00     0.129 C 
BRANCH   6   7
HETATM    7  C5  UNL     1     -34.961   5.654   4.355  1.00 20.00     0.016 C 
HETATM    8  C4  UNL     1     -34.411   4.255   4.575  1.00 20.00     0.006 C 
ENDBRANCH   6   7
ENDBRANCH   5   6
TORSDOF 2
ENDMDL
MODEL 4
REMARK VINA RESULT:      -4.0      1.279      3.972
REMARK  2 active torsions:
REMARK  status: ('A' for Active; 'I' for Inactive)
REMARK    1  A    between atoms: C5_5  and  C6_6 
REMARK    2  A    between atoms: C6_6  and  N8_8 
ROOT
HETATM    1  C1  UNL     1     -31.554   8.409   3.023  1.00 20.00     0.135 A 
HETATM    2  C2  UNL     1     -32.078   8.109   4.259  1.00 20.00     0.111 A 
HETATM    3  C3  UNL     1     -33.226   7.149   2.641  1.00 20.00     0.209 A 
HETATM    4  N7  UNL     1     -32.274   7.808   2.020  1.00 20.00    -0.255 NA
HETATM    5  N8  UNL     1     -33.148   7.300   3.998  1.00 20.00    -0.350 N 
ENDROOT
BRANCH   5   6
HETATM    6  C6  UNL     1     -34.044   6.708   4.986  1.00 20.00     0.129 C 
BRANCH   6   7
HETATM    7  C5  UNL     1     -34.960   5.652   4.371  1.00 20.00     0.016 C 
HETATM    8  C4  UNL     1     -34.424   4.250   4.608  1.00 20.00     0.006 C 
ENDBRANCH   6   7
ENDBRANCH   5   6
TORSDOF 2
ENDMDL
MODEL 5
REMARK VINA RESULT:      -3.5     11.363     12.081
REMARK  2 active torsions:
REMARK  status: ('A' for Active; 'I' for Inactive)
REMARK    1  A    between atoms: C5_5  and  C6_6 
REMARK    2  A    between atoms: C6_6  and  N8_8 
ROOT
HETATM    1  C1  UNL     1     -35.182  13.381  -6.670  1.00 20.00     0.135 A 
HETATM    2  C2  UNL     1     -34.285  14.385  -6.393  1.00 20.00     0.111 A 
HETATM    3  C3  UNL     1     -35.324  13.708  -4.571  1.00 20.00     0.209 A 
HETATM    4  N7  UNL     1     -35.826  12.963  -5.531  1.00 20.00    -0.255 NA
HETATM    5  N8  UNL     1     -34.387  14.584  -5.044  1.00 20.00    -0.350 N 
ENDROOT
BRANCH   5   6
HETATM    6  C6  UNL     1     -33.635  15.553  -4.254  1.00 20.00     0.129 C 
BRANCH   6   7
HETATM    7  C5  UNL     1     -34.455  16.109  -3.093  1.00 20.00     0.016 C 
HETATM    8  C4  UNL     1     -33.615  17.009  -2.202  1.00 20.00     0.006 C 
ENDBRANCH   6   7
ENDBRANCH   5   6
TORSDOF 2
ENDMDL
MODEL 6
REMARK VINA RESULT:      -3.5     11.225     11.827
REMARK  2 active torsions:
REMARK  status: ('A' for Active; 'I' for Inactive)
REMARK    1  A    between atoms: C5_5  and  C6_6 
REMARK    2  A    between atoms: C6_6  and  N8_8 
ROOT
HETATM    1  C1  UNL     1     -36.939  14.002  -5.243  1.00 20.00     0.135 A 
HETATM    2  C2  UNL     1     -36.563  15.168  -4.618  1.00 20.00     0.111 A 
HETATM    3  C3  UNL     1     -34.958  13.660  -4.544  1.00 20.00     0.209 A 
HETATM    4  N7  UNL     1     -35.935  13.067  -5.193  1.00 20.00    -0.255 NA
HETATM    5  N8  UNL     1     -35.291  14.933  -4.176  1.00 20.00    -0.350 N 
ENDROOT
BRANCH   5   6
HETATM    6  C6  UNL     1     -34.445  15.869  -3.444  1.00 20.00     0.129 C 
BRANCH   6   7
HETATM    7  C5  UNL     1     -35.181  16.516  -2.273  1.00 20.00     0.016 C 
HETATM    8  C4  UNL     1     -34.216  17.214  -1.330  1.00 20.00     0.006 C 
ENDBRANCH   6   7
ENDBRANCH   5   6
TORSDOF 2
ENDMDL
MODEL 7
REMARK VINA RESULT:      -3.3      2.307      4.678
REMARK  2 active torsions:
REMARK  status: ('A' for Active; 'I' for Inactive)
REMARK    1  A    between atoms: C5_5  and  C6_6 
REMARK    2  A    between atoms: C6_6  and  N8_8 
ROOT
HETATM    1  C1  UNL     1     -32.781  10.100   0.777  1.00 20.00     0.135 A 
HETATM    2  C2  UNL     1     -33.110   9.595   2.014  1.00 20.00     0.111 A 
HETATM    3  C3  UNL     1     -31.518   8.410   1.058  1.00 20.00     0.209 A 
HETATM    4  N7  UNL     1     -31.788   9.356   0.187  1.00 20.00    -0.255 NA
HETATM    5  N8  UNL     1     -32.293   8.513   2.179  1.00 20.00    -0.350 N 
ENDROOT
BRANCH   5   6
HETATM    6  C6  UNL     1     -32.254   7.629   3.339  1.00 20.00     0.129 C 
BRANCH   6   7
HETATM    7  C5  UNL     1     -33.653   7.245   3.817  1.00 20.00     0.016 C 
HETATM    8  C4  UNL     1     -33.721   7.178   5.334  1.00 20.00     0.006 C 
ENDBRANCH   6   7
ENDBRANCH   5   6
TORSDOF 2
ENDMDL
MODEL 8
REMARK VINA RESULT:      -3.2     11.436     12.139
REMARK  2 active torsions:
REMARK  status: ('A' for Active; 'I' for Inactive)
REMARK    1  A    between atoms: C5_5  and  C6_6 
REMARK    2  A    between atoms: C6_6  and  N8_8 
ROOT
HETATM    1  C1  UNL     1     -37.568  15.042  -4.499  1.00 20.00     0.135 A 
HETATM    2  C2  UNL     1     -36.325  15.451  -4.077  1.00 20.00     0.111 A 
HETATM    3  C3  UNL     1     -36.222  13.524  -5.142  1.00 20.00     0.209 A 
HETATM    4  N7  UNL     1     -37.497  13.842  -5.161  1.00 20.00    -0.255 NA
HETATM    5  N8  UNL     1     -35.473  14.468  -4.497  1.00 20.00    -0.350 N 
ENDROOT
BRANCH   5   6
HETATM    6  C6  UNL     1     -34.028  14.432  -4.292  1.00 20.00     0.129 C 
BRANCH   6   7
HETATM    7  C5  UNL     1     -33.347  15.709  -4.778  1.00 20.00     0.016 C 
HETATM    8  C4  UNL     1     -33.320  15.780  -6.295  1.00 20.00     0.006 C 
ENDBRANCH   6   7
ENDBRANCH   5   6
TORSDOF 2
ENDMDL
MODEL 9
REMARK VINA RESULT:      -3.1     11.362     12.209
REMARK  2 active torsions:
REMARK  status: ('A' for Active; 'I' for Inactive)
REMARK    1  A    between atoms: C5_5  and  C6_6 
REMARK    2  A    between atoms: C6_6  and  N8_8 
ROOT
HETATM    1  C1  UNL     1     -34.208  14.328  -6.172  1.00 20.00     0.135 A 
HETATM    2  C2  UNL     1     -33.770  15.540  -5.691  1.00 20.00     0.111 A 
HETATM    3  C3  UNL     1     -34.785  14.369  -4.124  1.00 20.00     0.209 A 
HETATM    4  N7  UNL     1     -34.839  13.604  -5.191  1.00 20.00    -0.255 NA
HETATM    5  N8  UNL     1     -34.147  15.551  -4.377  1.00 20.00    -0.350 N 
ENDROOT
BRANCH   5   6
HETATM    6  C6  UNL     1     -33.913  16.628  -3.421  1.00 20.00     0.129 C 
BRANCH   6   7
HETATM    7  C5  UNL     1     -34.816  16.514  -2.195  1.00 20.00     0.016 C 
HETATM    8  C4  UNL     1     -34.318  17.392  -1.058  1.00 20.00     0.006 C 
ENDBRANCH   6   7
ENDBRANCH   5   6
TORSDOF 2
ENDMDL
