MODEL 1
REMARK VINA RESULT:      -5.4      0.000      0.000
REMARK  0 active torsions:
REMARK  status: ('A' for Active; 'I' for Inactive)
ROOT
HETATM    1  C1  UNL     1     -33.766   6.822   5.033  1.00 20.00     0.226 C 
HETATM    2  C2  UNL     1     -33.156   5.800   2.948  1.00 20.00     0.043 C 
HETATM    3  C3  UNL     1     -32.443   7.143   3.089  1.00 20.00     0.081 C 
HETATM    4  C4  UNL     1     -34.260   5.793   4.027  1.00 20.00     0.035 C 
HETATM    5  C5  UNL     1     -32.867   8.174   2.053  1.00 20.00     0.032 C 
HETATM    6  C6  UNL     1     -34.390   4.417   4.680  1.00 20.00     0.025 C 
HETATM    7  C7  UNL     1     -35.614   6.240   3.470  1.00 20.00     0.025 C 
HETATM    8  N8  UNL     1     -32.764   7.567   4.427  1.00 20.00    -0.356 N 
HETATM    9  O9  UNL     1     -34.204   6.979   6.163  1.00 20.00    -0.273 OA
HETATM   10  H22 UNL     1     -32.294   8.349   4.888  1.00 20.00     0.162 HD
ENDROOT
TORSDOF 0
ENDMDL
MODEL 2
REMARK VINA RESULT:      -4.4     11.677     12.572
REMARK  0 active torsions:
REMARK  status: ('A' for Active; 'I' for Inactive)
ROOT
HETATM    1  C1  UNL     1     -35.104  13.626  -5.189  1.00 20.00     0.226 C 
HETATM    2  C2  UNL     1     -33.412  15.246  -5.717  1.00 20.00     0.043 C 
HETATM    3  C3  UNL     1     -33.423  14.987  -4.212  1.00 20.00     0.081 C 
HETATM    4  C4  UNL     1     -34.724  14.640  -6.258  1.00 20.00     0.035 C 
HETATM    5  C5  UNL     1     -33.825  16.199  -3.384  1.00 20.00     0.032 C 
HETATM    6  C6  UNL     1     -34.504  13.949  -7.604  1.00 20.00     0.025 C 
HETATM    7  C7  UNL     1     -35.836  15.685  -6.381  1.00 20.00     0.025 C 
HETATM    8  N8  UNL     1     -34.354  13.900  -4.054  1.00 20.00    -0.356 N 
HETATM    9  O9  UNL     1     -35.946  12.748  -5.307  1.00 20.00    -0.273 OA
HETATM   10  H22 UNL     1     -34.453  13.377  -3.180  1.00 20.00     0.162 HD
ENDROOT
TORSDOF 0
ENDMDL
MODEL 3
REMARK VINA RESULT:      -4.3      1.632      3.091
REMARK  0 active torsions:
REMARK  status: ('A' for Active; 'I' for Inactive)
ROOT
HETATM    1  C1  UNL     1     -32.976   7.085   3.754  1.00 20.00     0.226 C 
HETATM    2  C2  UNL     1     -35.046   5.871   3.655  1.00 20.00     0.043 C 
HETATM    3  C3  UNL     1     -34.727   6.225   5.106  1.00 20.00     0.081 C 
HETATM    4  C4  UNL     1     -33.742   6.116   2.865  1.00 20.00     0.035 C 
HETATM    5  C5  UNL     1     -34.468   5.014   5.990  1.00 20.00     0.032 C 
HETATM    6  C6  UNL     1     -34.027   6.743   1.501  1.00 20.00     0.025 C 
HETATM    7  C7  UNL     1     -32.922   4.834   2.692  1.00 20.00     0.025 C 
HETATM    8  N8  UNL     1     -33.568   7.073   5.009  1.00 20.00    -0.356 N 
HETATM    9  O9  UNL     1     -31.994   7.732   3.421  1.00 20.00    -0.273 OA
HETATM   10  H22 UNL     1     -33.212   7.619   5.799  1.00 20.00     0.162 HD
ENDROOT
TORSDOF 0
ENDMDL
MODEL 4
REMARK VINA RESULT:      -4.1      1.771      2.317
REMARK  0 active torsions:
REMARK  status: ('A' for Active; 'I' for Inactive)
ROOT
HETATM    1  C1  UNL     1     -33.368   5.443   3.283  1.00 20.00     0.226 C 
HETATM    2  C2  UNL     1     -33.965   7.769   3.299  1.00 20.00     0.043 C 
HETATM    3  C3  UNL     1     -32.566   7.602   2.710  1.00 20.00     0.081 C 
HETATM    4  C4  UNL     1     -34.299   6.425   3.980  1.00 20.00     0.035 C 
HETATM    5  C5  UNL     1     -31.469   8.243   3.546  1.00 20.00     0.032 C 
HETATM    6  C6  UNL     1     -35.760   6.035   3.758  1.00 20.00     0.025 C 
HETATM    7  C7  UNL     1     -33.983   6.443   5.478  1.00 20.00     0.025 C 
HETATM    8  N8  UNL     1     -32.399   6.176   2.612  1.00 20.00    -0.356 N 
HETATM    9  O9  UNL     1     -33.448   4.225   3.337  1.00 20.00    -0.273 OA
HETATM   10  H22 UNL     1     -31.632   5.742   2.092  1.00 20.00     0.162 HD
ENDROOT
TORSDOF 0
ENDMDL
MODEL 5
REMARK VINA RESULT:      -4.0     11.469     12.392
REMARK  0 active torsions:
REMARK  status: ('A' for Active; 'I' for Inactive)
ROOT
HETATM    1  C1  UNL     1     -34.024  14.214  -4.379  1.00 20.00     0.226 C 
HETATM    2  C2  UNL     1     -36.013  15.549  -4.214  1.00 20.00     0.043 C 
HETATM    3  C3  UNL     1     -36.349  14.204  -4.856  1.00 20.00     0.081 C 
HETATM    4  C4  UNL     1     -34.475  15.662  -4.254  1.00 20.00     0.035 C 
HETATM    5  C5  UNL     1     -36.821  14.312  -6.298  1.00 20.00     0.032 C 
HETATM    6  C6  UNL     1     -33.930  16.289  -2.971  1.00 20.00     0.025 C 
HETATM    7  C7  UNL     1     -33.985  16.450  -5.472  1.00 20.00     0.025 C 
HETATM    8  N8  UNL     1     -35.124  13.454  -4.750  1.00 20.00    -0.356 N 
HETATM    9  O9  UNL     1     -32.884  13.806  -4.212  1.00 20.00    -0.273 OA
HETATM   10  H22 UNL     1     -35.072  12.449  -4.932  1.00 20.00     0.162 HD
ENDROOT
TORSDOF 0
ENDMDL
MODEL 6
REMARK VINA RESULT:      -4.0     11.708     12.515
REMARK  0 active torsions:
REMARK  status: ('A' for Active; 'I' for Inactive)
ROOT
HETATM    1  C1  UNL     1     -35.567  13.724  -5.030  1.00 20.00     0.226 C 
HETATM    2  C2  UNL     1     -35.355  16.103  -5.279  1.00 20.00     0.043 C 
HETATM    3  C3  UNL     1     -34.292  15.592  -4.309  1.00 20.00     0.081 C 
HETATM    4  C4  UNL     1     -36.370  14.951  -5.438  1.00 20.00     0.035 C 
HETATM    5  C5  UNL     1     -34.456  16.110  -2.889  1.00 20.00     0.032 C 
HETATM    6  C6  UNL     1     -36.849  14.828  -6.884  1.00 20.00     0.025 C 
HETATM    7  C7  UNL     1     -37.569  15.105  -4.499  1.00 20.00     0.025 C 
HETATM    8  N8  UNL     1     -34.425  14.159  -4.373  1.00 20.00    -0.356 N 
HETATM    9  O9  UNL     1     -35.895  12.563  -5.224  1.00 20.00    -0.273 OA
HETATM   10  H22 UNL     1     -33.736  13.520  -3.969  1.00 20.00     0.162 HD
ENDROOT
TORSDOF 0
ENDMDL
MODEL 7
REMARK VINA RESULT:      -4.0      1.681      3.209
REMARK  0 active torsions:
REMARK  status: ('A' for Active; 'I' for Inactive)
ROOT
HETATM    1  C1  UNL     1     -32.226   7.732   4.076  1.00 20.00     0.226 C 
HETATM    2  C2  UNL     1     -34.524   7.122   3.735  1.00 20.00     0.043 C 
HETATM    3  C3  UNL     1     -34.202   7.098   5.228  1.00 20.00     0.081 C 
HETATM    4  C4  UNL     1     -33.162   7.178   3.011  1.00 20.00     0.035 C 
HETATM    5  C5  UNL     1     -34.296   5.714   5.853  1.00 20.00     0.032 C 
HETATM    6  C6  UNL     1     -33.213   8.107   1.799  1.00 20.00     0.025 C 
HETATM    7  C7  UNL     1     -32.677   5.789   2.587  1.00 20.00     0.025 C 
HETATM    8  N8  UNL     1     -32.866   7.628   5.304  1.00 20.00    -0.356 N 
HETATM    9  O9  UNL     1     -31.099   8.162   3.880  1.00 20.00    -0.273 OA
HETATM   10  H22 UNL     1     -32.428   7.904   6.186  1.00 20.00     0.162 HD
ENDROOT
TORSDOF 0
ENDMDL
MODEL 8
REMARK VINA RESULT:      -3.7     11.855     12.842
REMARK  0 active torsions:
REMARK  status: ('A' for Active; 'I' for Inactive)
ROOT
HETATM    1  C1  UNL     1     -33.598  14.518  -4.964  1.00 20.00     0.226 C 
HETATM    2  C2  UNL     1     -35.271  15.667  -6.247  1.00 20.00     0.043 C 
HETATM    3  C3  UNL     1     -33.902  16.287  -6.516  1.00 20.00     0.081 C 
HETATM    4  C4  UNL     1     -35.096  14.787  -4.991  1.00 20.00     0.035 C 
HETATM    5  C5  UNL     1     -33.778  17.729  -6.046  1.00 20.00     0.032 C 
HETATM    6  C6  UNL     1     -35.878  13.480  -5.115  1.00 20.00     0.025 C 
HETATM    7  C7  UNL     1     -35.501  15.521  -3.710  1.00 20.00     0.025 C 
HETATM    8  N8  UNL     1     -32.986  15.419  -5.823  1.00 20.00    -0.356 N 
HETATM    9  O9  UNL     1     -33.039  13.675  -4.278  1.00 20.00    -0.273 OA
HETATM   10  H22 UNL     1     -31.972  15.464  -5.953  1.00 20.00     0.162 HD
ENDROOT
TORSDOF 0
ENDMDL
MODEL 9
REMARK VINA RESULT:      -3.7     11.603     12.684
REMARK  0 active torsions:
REMARK  status: ('A' for Active; 'I' for Inactive)
ROOT
HETATM    1  C1  UNL     1     -35.860  13.727  -5.260  1.00 20.00     0.226 C 
HETATM    2  C2  UNL     1     -35.792  15.729  -3.934  1.00 20.00     0.043 C 
HETATM    3  C3  UNL     1     -37.239  15.400  -4.294  1.00 20.00     0.081 C 
HETATM    4  C4  UNL     1     -34.919  14.855  -4.859  1.00 20.00     0.035 C 
HETATM    5  C5  UNL     1     -37.900  16.438  -5.189  1.00 20.00     0.032 C 
HETATM    6  C6  UNL     1     -33.701  14.305  -4.118  1.00 20.00     0.025 C 
HETATM    7  C7  UNL     1     -34.472  15.610  -6.114  1.00 20.00     0.025 C 
HETATM    8  N8  UNL     1     -37.153  14.116  -4.940  1.00 20.00    -0.356 N 
HETATM    9  O9  UNL     1     -35.528  12.682  -5.798  1.00 20.00    -0.273 OA
HETATM   10  H22 UNL     1     -37.975  13.541  -5.144  1.00 20.00     0.162 HD
ENDROOT
TORSDOF 0
ENDMDL
