MODEL 1
REMARK VINA RESULT:      -5.2      0.000      0.000
REMARK  4 active torsions:
REMARK  status: ('A' for Active; 'I' for Inactive)
REMARK    1  A    between atoms: C1_1  and  C5_5 
REMARK    2  A    between atoms: C1_1  and  O9_9 
REMARK    3  A    between atoms: C5_5  and  C6_6 
REMARK    4  A    between atoms: C7_7  and  O9_9 
ROOT
HETATM    1  C1  UNL     1     -33.654   6.034   3.016  1.00 20.00     0.259 C 
HETATM    2  O8  UNL     1     -32.916   5.115   2.689  1.00 20.00    -0.265 OA
ENDROOT
BRANCH   1   3
HETATM    3  C5  UNL     1     -34.881   5.901   3.889  1.00 20.00     0.111 C 
BRANCH   3   4
HETATM    4  C6  UNL     1     -34.516   5.685   5.356  1.00 20.00     0.005 C 
HETATM    5  C2  UNL     1     -33.997   6.962   5.995  1.00 20.00     0.005 C 
ENDBRANCH   3   4
ENDBRANCH   1   3
BRANCH   1   6
HETATM    6  O9  UNL     1     -33.511   7.344   2.654  1.00 20.00    -0.317 OA
BRANCH   6   7
HETATM    7  C7  UNL     1     -32.172   7.763   2.370  1.00 20.00     0.123 C 
HETATM    8  C3  UNL     1     -32.202   8.847   1.305  1.00 20.00     0.040 C 
HETATM    9  C4  UNL     1     -31.514   8.246   3.653  1.00 20.00     0.040 C 
ENDBRANCH   6   7
ENDBRANCH   1   6
TORSDOF 4
ENDMDL
MODEL 2
REMARK VINA RESULT:      -5.1      1.317      4.164
REMARK  4 active torsions:
REMARK  status: ('A' for Active; 'I' for Inactive)
REMARK    1  A    between atoms: C1_1  and  C5_5 
REMARK    2  A    between atoms: C1_1  and  O9_9 
REMARK    3  A    between atoms: C5_5  and  C6_6 
REMARK    4  A    between atoms: C7_7  and  O9_9 
ROOT
HETATM    1  C1  UNL     1     -32.200   7.719   3.181  1.00 20.00     0.259 C 
HETATM    2  O8  UNL     1     -31.279   8.320   3.715  1.00 20.00    -0.265 OA
ENDROOT
BRANCH   1   3
HETATM    3  C5  UNL     1     -32.829   8.085   1.855  1.00 20.00     0.111 C 
BRANCH   3   4
HETATM    4  C6  UNL     1     -31.945   9.032   1.047  1.00 20.00     0.005 C 
HETATM    5  C2  UNL     1     -32.589  10.400   0.894  1.00 20.00     0.005 C 
ENDBRANCH   3   4
ENDBRANCH   1   3
BRANCH   1   6
HETATM    6  O9  UNL     1     -32.831   6.614   3.678  1.00 20.00    -0.317 OA
BRANCH   6   7
HETATM    7  C7  UNL     1     -34.067   6.862   4.356  1.00 20.00     0.123 C 
HETATM    8  C3  UNL     1     -34.958   5.635   4.239  1.00 20.00     0.040 C 
HETATM    9  C4  UNL     1     -33.781   7.219   5.806  1.00 20.00     0.040 C 
ENDBRANCH   6   7
ENDBRANCH   1   6
TORSDOF 4
ENDMDL
MODEL 3
REMARK VINA RESULT:      -4.9      1.342      4.368
REMARK  4 active torsions:
REMARK  status: ('A' for Active; 'I' for Inactive)
REMARK    1  A    between atoms: C1_1  and  C5_5 
REMARK    2  A    between atoms: C1_1  and  O9_9 
REMARK    3  A    between atoms: C5_5  and  C6_6 
REMARK    4  A    between atoms: C7_7  and  O9_9 
ROOT
HETATM    1  C1  UNL     1     -32.131   8.036   2.738  1.00 20.00     0.259 C 
HETATM    2  O8  UNL     1     -31.537   8.208   3.794  1.00 20.00    -0.265 OA
ENDROOT
BRANCH   1   3
HETATM    3  C5  UNL     1     -31.676   8.545   1.389  1.00 20.00     0.111 C 
BRANCH   3   4
HETATM    4  C6  UNL     1     -32.513   9.731   0.914  1.00 20.00     0.005 C 
HETATM    5  C2  UNL     1     -33.155   9.455  -0.435  1.00 20.00     0.005 C 
ENDBRANCH   3   4
ENDBRANCH   1   3
BRANCH   1   6
HETATM    6  O9  UNL     1     -33.307   7.361   2.581  1.00 20.00    -0.317 OA
BRANCH   6   7
HETATM    7  C7  UNL     1     -33.458   6.187   3.387  1.00 20.00     0.123 C 
HETATM    8  C3  UNL     1     -34.905   6.071   3.838  1.00 20.00     0.040 C 
HETATM    9  C4  UNL     1     -33.012   4.971   2.591  1.00 20.00     0.040 C 
ENDBRANCH   6   7
ENDBRANCH   1   6
TORSDOF 4
ENDMDL
MODEL 4
REMARK VINA RESULT:      -4.9      1.340      4.386
REMARK  4 active torsions:
REMARK  status: ('A' for Active; 'I' for Inactive)
REMARK    1  A    between atoms: C1_1  and  C5_5 
REMARK    2  A    between atoms: C1_1  and  O9_9 
REMARK    3  A    between atoms: C5_5  and  C6_6 
REMARK    4  A    between atoms: C7_7  and  O9_9 
ROOT
HETATM    1  C1  UNL     1     -32.036   8.130   2.977  1.00 20.00     0.259 C 
HETATM    2  O8  UNL     1     -31.151   8.207   3.818  1.00 20.00    -0.265 OA
ENDROOT
BRANCH   1   3
HETATM    3  C5  UNL     1     -31.855   8.371   1.495  1.00 20.00     0.111 C 
BRANCH   3   4
HETATM    4  C6  UNL     1     -32.539   9.657   1.039  1.00 20.00     0.005 C 
HETATM    5  C2  UNL     1     -33.132   9.509  -0.353  1.00 20.00     0.005 C 
ENDBRANCH   3   4
ENDBRANCH   1   3
BRANCH   1   6
HETATM    6  O9  UNL     1     -33.343   7.816   3.216  1.00 20.00    -0.317 OA
BRANCH   6   7
HETATM    7  C7  UNL     1     -33.562   6.722   4.112  1.00 20.00     0.123 C 
HETATM    8  C3  UNL     1     -33.789   7.261   5.515  1.00 20.00     0.040 C 
HETATM    9  C4  UNL     1     -34.743   5.900   3.621  1.00 20.00     0.040 C 
ENDBRANCH   6   7
ENDBRANCH   1   6
TORSDOF 4
ENDMDL
MODEL 5
REMARK VINA RESULT:      -4.9      1.771      2.793
REMARK  4 active torsions:
REMARK  status: ('A' for Active; 'I' for Inactive)
REMARK    1  A    between atoms: C1_1  and  C5_5 
REMARK    2  A    between atoms: C1_1  and  O9_9 
REMARK    3  A    between atoms: C5_5  and  C6_6 
REMARK    4  A    between atoms: C7_7  and  O9_9 
ROOT
HETATM    1  C1  UNL     1     -31.999   8.001   2.767  1.00 20.00     0.259 C 
HETATM    2  O8  UNL     1     -31.389   8.375   3.759  1.00 20.00    -0.265 OA
ENDROOT
BRANCH   1   3
HETATM    3  C5  UNL     1     -33.069   6.933   2.752  1.00 20.00     0.111 C 
BRANCH   3   4
HETATM    4  C6  UNL     1     -33.893   6.933   4.037  1.00 20.00     0.005 C 
HETATM    5  C2  UNL     1     -34.841   5.746   4.091  1.00 20.00     0.005 C 
ENDBRANCH   3   4
ENDBRANCH   1   3
BRANCH   1   6
HETATM    6  O9  UNL     1     -31.828   8.471   1.496  1.00 20.00    -0.317 OA
BRANCH   6   7
HETATM    7  C7  UNL     1     -32.860   9.338   1.015  1.00 20.00     0.123 C 
HETATM    8  C3  UNL     1     -32.556  10.765   1.442  1.00 20.00     0.040 C 
HETATM    9  C4  UNL     1     -32.961   9.208  -0.497  1.00 20.00     0.040 C 
ENDBRANCH   6   7
ENDBRANCH   1   6
TORSDOF 4
ENDMDL
MODEL 6
REMARK VINA RESULT:      -4.8      0.973      4.111
REMARK  4 active torsions:
REMARK  status: ('A' for Active; 'I' for Inactive)
REMARK    1  A    between atoms: C1_1  and  C5_5 
REMARK    2  A    between atoms: C1_1  and  O9_9 
REMARK    3  A    between atoms: C5_5  and  C6_6 
REMARK    4  A    between atoms: C7_7  and  O9_9 
ROOT
HETATM    1  C1  UNL     1     -32.724   7.192   2.773  1.00 20.00     0.259 C 
HETATM    2  O8  UNL     1     -32.540   6.113   2.227  1.00 20.00    -0.265 OA
ENDROOT
BRANCH   1   3
HETATM    3  C5  UNL     1     -31.904   8.441   2.537  1.00 20.00     0.111 C 
BRANCH   3   4
HETATM    4  C6  UNL     1     -32.027   8.941   1.100  1.00 20.00     0.005 C 
HETATM    5  C2  UNL     1     -32.714  10.295   1.039  1.00 20.00     0.005 C 
ENDBRANCH   3   4
ENDBRANCH   1   3
BRANCH   1   6
HETATM    6  O9  UNL     1     -33.695   7.470   3.693  1.00 20.00    -0.317 OA
BRANCH   6   7
HETATM    7  C7  UNL     1     -33.815   6.531   4.767  1.00 20.00     0.123 C 
HETATM    8  C3  UNL     1     -33.895   7.285   6.085  1.00 20.00     0.040 C 
HETATM    9  C4  UNL     1     -35.039   5.660   4.536  1.00 20.00     0.040 C 
ENDBRANCH   6   7
ENDBRANCH   1   6
TORSDOF 4
ENDMDL
MODEL 7
REMARK VINA RESULT:      -4.7      0.558      1.282
REMARK  4 active torsions:
REMARK  status: ('A' for Active; 'I' for Inactive)
REMARK    1  A    between atoms: C1_1  and  C5_5 
REMARK    2  A    between atoms: C1_1  and  O9_9 
REMARK    3  A    between atoms: C5_5  and  C6_6 
REMARK    4  A    between atoms: C7_7  and  O9_9 
ROOT
HETATM    1  C1  UNL     1     -33.371   5.937   2.829  1.00 20.00     0.259 C 
HETATM    2  O8  UNL     1     -32.860   4.830   2.925  1.00 20.00    -0.265 OA
ENDROOT
BRANCH   1   3
HETATM    3  C5  UNL     1     -34.546   6.430   3.643  1.00 20.00     0.111 C 
BRANCH   3   4
HETATM    4  C6  UNL     1     -34.439   6.011   5.108  1.00 20.00     0.005 C 
HETATM    5  C2  UNL     1     -33.874   7.130   5.967  1.00 20.00     0.005 C 
ENDBRANCH   3   4
ENDBRANCH   1   3
BRANCH   1   6
HETATM    6  O9  UNL     1     -32.981   6.927   1.973  1.00 20.00    -0.317 OA
BRANCH   6   7
HETATM    7  C7  UNL     1     -32.705   8.194   2.579  1.00 20.00     0.123 C 
HETATM    8  C3  UNL     1     -31.439   8.085   3.413  1.00 20.00     0.040 C 
HETATM    9  C4  UNL     1     -32.581   9.253   1.496  1.00 20.00     0.040 C 
ENDBRANCH   6   7
ENDBRANCH   1   6
TORSDOF 4
ENDMDL
MODEL 8
REMARK VINA RESULT:      -4.6      1.099      4.069
REMARK  4 active torsions:
REMARK  status: ('A' for Active; 'I' for Inactive)
REMARK    1  A    between atoms: C1_1  and  C5_5 
REMARK    2  A    between atoms: C1_1  and  O9_9 
REMARK    3  A    between atoms: C5_5  and  C6_6 
REMARK    4  A    between atoms: C7_7  and  O9_9 
ROOT
HETATM    1  C1  UNL     1     -32.957   7.161   2.681  1.00 20.00     0.259 C 
HETATM    2  O8  UNL     1     -33.686   6.745   1.791  1.00 20.00    -0.265 OA
ENDROOT
BRANCH   1   3
HETATM    3  C5  UNL     1     -31.998   8.322   2.552  1.00 20.00     0.111 C 
BRANCH   3   4
HETATM    4  C6  UNL     1     -31.981   8.894   1.137  1.00 20.00     0.005 C 
HETATM    5  C2  UNL     1     -32.689  10.237   1.070  1.00 20.00     0.005 C 
ENDBRANCH   3   4
ENDBRANCH   1   3
BRANCH   1   6
HETATM    6  O9  UNL     1     -32.873   6.658   3.948  1.00 20.00    -0.317 OA
BRANCH   6   7
HETATM    7  C7  UNL     1     -34.083   6.698   4.711  1.00 20.00     0.123 C 
HETATM    8  C3  UNL     1     -34.627   5.286   4.863  1.00 20.00     0.040 C 
HETATM    9  C4  UNL     1     -33.807   7.348   6.057  1.00 20.00     0.040 C 
ENDBRANCH   6   7
ENDBRANCH   1   6
TORSDOF 4
ENDMDL
MODEL 9
REMARK VINA RESULT:      -4.3      1.597      2.376
REMARK  4 active torsions:
REMARK  status: ('A' for Active; 'I' for Inactive)
REMARK    1  A    between atoms: C1_1  and  C5_5 
REMARK    2  A    between atoms: C1_1  and  O9_9 
REMARK    3  A    between atoms: C5_5  and  C6_6 
REMARK    4  A    between atoms: C7_7  and  O9_9 
ROOT
HETATM    1  C1  UNL     1     -33.889   7.123   5.066  1.00 20.00     0.259 C 
HETATM    2  O8  UNL     1     -33.265   7.458   6.063  1.00 20.00    -0.265 OA
ENDROOT
BRANCH   1   3
HETATM    3  C5  UNL     1     -34.966   6.062   5.026  1.00 20.00     0.111 C 
BRANCH   3   4
HETATM    4  C6  UNL     1     -34.459   4.715   5.536  1.00 20.00     0.005 C 
HETATM    5  C2  UNL     1     -34.101   3.785   4.388  1.00 20.00     0.005 C 
ENDBRANCH   3   4
ENDBRANCH   1   3
BRANCH   1   6
HETATM    6  O9  UNL     1     -33.732   7.638   3.811  1.00 20.00    -0.317 OA
BRANCH   6   7
HETATM    7  C7  UNL     1     -32.540   7.240   3.125  1.00 20.00     0.123 C 
HETATM    8  C3  UNL     1     -32.857   6.065   2.213  1.00 20.00     0.040 C 
HETATM    9  C4  UNL     1     -31.986   8.425   2.352  1.00 20.00     0.040 C 
ENDBRANCH   6   7
ENDBRANCH   1   6
TORSDOF 4
ENDMDL
