MODEL 1
REMARK VINA RESULT:      -4.5      0.000      0.000
REMARK  1 active torsions:
REMARK  status: ('A' for Active; 'I' for Inactive)
REMARK    1  A    between atoms: C3_3  and  O11_11 
ROOT
HETATM    1  C1  UNL     1     -34.604  14.812  -4.069  1.00 20.00    -0.019 A 
HETATM    2  C2  UNL     1     -34.781  15.988  -3.348  1.00 20.00    -0.029 A 
HETATM    3  C3  UNL     1     -35.693  14.221  -4.701  1.00 20.00     0.096 A 
HETATM    4  C4  UNL     1     -36.055  16.529  -3.291  1.00 20.00     0.037 A 
HETATM    5  C5  UNL     1     -36.926  14.840  -4.583  1.00 20.00     0.064 A 
HETATM    6  C6  UNL     1     -33.253  14.180  -4.167  1.00 20.00     0.052 C 
HETATM    7  C7  UNL     1     -33.632  16.646  -2.660  1.00 20.00     0.051 C 
HETATM    8  C8  UNL     1     -36.306  17.791  -2.533  1.00 20.00     0.071 C 
HETATM    9  C9  UNL     1     -38.129  14.247  -5.241  1.00 20.00     0.073 C 
HETATM   10  N10 UNL     1     -37.136  15.983  -3.892  1.00 20.00    -0.255 NA
ENDROOT
BRANCH   3  11
HETATM   11  O11 UNL     1     -35.551  13.071  -5.411  1.00 20.00    -0.358 OA
HETATM   12  H24 UNL     1     -36.252  12.996  -6.079  1.00 20.00     0.217 HD
ENDBRANCH   3  11
TORSDOF 1
ENDMDL
MODEL 2
REMARK VINA RESULT:      -4.2      3.943      5.570
REMARK  1 active torsions:
REMARK  status: ('A' for Active; 'I' for Inactive)
REMARK    1  A    between atoms: C3_3  and  O11_11 
ROOT
HETATM    1  C1  UNL     1     -34.993  17.887   0.329  1.00 20.00    -0.019 A 
HETATM    2  C2  UNL     1     -33.856  18.444   0.903  1.00 20.00    -0.029 A 
HETATM    3  C3  UNL     1     -34.928  17.360  -0.957  1.00 20.00     0.096 A 
HETATM    4  C4  UNL     1     -32.688  18.447   0.159  1.00 20.00     0.037 A 
HETATM    5  C5  UNL     1     -33.712  17.413  -1.619  1.00 20.00     0.064 A 
HETATM    6  C6  UNL     1     -36.283  17.855   1.083  1.00 20.00     0.052 C 
HETATM    7  C7  UNL     1     -33.894  19.017   2.280  1.00 20.00     0.051 C 
HETATM    8  C8  UNL     1     -31.434  19.030   0.723  1.00 20.00     0.071 C 
HETATM    9  C9  UNL     1     -33.587  16.861  -3.001  1.00 20.00     0.073 C 
HETATM   10  N10 UNL     1     -32.586  17.944  -1.092  1.00 20.00    -0.255 NA
ENDROOT
BRANCH   3  11
HETATM   11  O11 UNL     1     -36.024  16.811  -1.544  1.00 20.00    -0.358 OA
HETATM   12  H24 UNL     1     -36.237  17.279  -2.368  1.00 20.00     0.217 HD
ENDBRANCH   3  11
TORSDOF 1
ENDMDL
MODEL 3
REMARK VINA RESULT:      -4.2      1.595      1.684
REMARK  1 active torsions:
REMARK  status: ('A' for Active; 'I' for Inactive)
REMARK    1  A    between atoms: C3_3  and  O11_11 
ROOT
HETATM    1  C1  UNL     1     -34.239  14.788  -4.748  1.00 20.00    -0.019 A 
HETATM    2  C2  UNL     1     -35.035  15.673  -4.029  1.00 20.00    -0.029 A 
HETATM    3  C3  UNL     1     -34.696  14.279  -5.959  1.00 20.00     0.096 A 
HETATM    4  C4  UNL     1     -36.267  16.016  -4.561  1.00 20.00     0.037 A 
HETATM    5  C5  UNL     1     -35.944  14.683  -6.404  1.00 20.00     0.064 A 
HETATM    6  C6  UNL     1     -32.899  14.380  -4.226  1.00 20.00     0.052 C 
HETATM    7  C7  UNL     1     -34.572  16.237  -2.727  1.00 20.00     0.051 C 
HETATM    8  C8  UNL     1     -37.165  16.963  -3.834  1.00 20.00     0.071 C 
HETATM    9  C9  UNL     1     -36.482  14.167  -7.698  1.00 20.00     0.073 C 
HETATM   10  N10 UNL     1     -36.744  15.542  -5.733  1.00 20.00    -0.255 NA
ENDROOT
BRANCH   3  11
HETATM   11  O11 UNL     1     -33.940  13.411  -6.683  1.00 20.00    -0.358 OA
HETATM   12  H24 UNL     1     -33.558  13.858  -7.456  1.00 20.00     0.217 HD
ENDBRANCH   3  11
TORSDOF 1
ENDMDL
MODEL 4
REMARK VINA RESULT:      -4.2      5.552      7.041
REMARK  1 active torsions:
REMARK  status: ('A' for Active; 'I' for Inactive)
REMARK    1  A    between atoms: C3_3  and  O11_11 
ROOT
HETATM    1  C1  UNL     1     -31.974  18.717   1.736  1.00 20.00    -0.019 A 
HETATM    2  C2  UNL     1     -33.069  18.860   2.581  1.00 20.00    -0.029 A 
HETATM    3  C3  UNL     1     -32.175  18.454   0.385  1.00 20.00     0.096 A 
HETATM    4  C4  UNL     1     -34.334  18.733   2.030  1.00 20.00     0.037 A 
HETATM    5  C5  UNL     1     -33.480  18.345  -0.067  1.00 20.00     0.064 A 
HETATM    6  C6  UNL     1     -30.584  18.843   2.272  1.00 20.00     0.052 C 
HETATM    7  C7  UNL     1     -32.886  19.143   4.035  1.00 20.00     0.051 C 
HETATM    8  C8  UNL     1     -35.549  18.877   2.888  1.00 20.00     0.071 C 
HETATM    9  C9  UNL     1     -33.752  18.063  -1.508  1.00 20.00     0.073 C 
HETATM   10  N10 UNL     1     -34.569  18.478   0.724  1.00 20.00    -0.255 NA
ENDROOT
BRANCH   3  11
HETATM   11  O11 UNL     1     -31.124  18.309  -0.464  1.00 20.00    -0.358 OA
HETATM   12  H24 UNL     1     -31.207  17.483  -0.968  1.00 20.00     0.217 HD
ENDBRANCH   3  11
TORSDOF 1
ENDMDL
MODEL 5
REMARK VINA RESULT:      -4.2      1.645      2.506
REMARK  1 active torsions:
REMARK  status: ('A' for Active; 'I' for Inactive)
REMARK    1  A    between atoms: C3_3  and  O11_11 
ROOT
HETATM    1  C1  UNL     1     -34.792  15.268  -4.270  1.00 20.00    -0.019 A 
HETATM    2  C2  UNL     1     -36.118  15.592  -4.005  1.00 20.00    -0.029 A 
HETATM    3  C3  UNL     1     -34.493  14.346  -5.268  1.00 20.00     0.096 A 
HETATM    4  C4  UNL     1     -37.100  14.973  -4.761  1.00 20.00     0.037 A 
HETATM    5  C5  UNL     1     -35.548  13.783  -5.966  1.00 20.00     0.064 A 
HETATM    6  C6  UNL     1     -33.688  15.903  -3.487  1.00 20.00     0.052 C 
HETATM    7  C7  UNL     1     -36.470  16.577  -2.942  1.00 20.00     0.051 C 
HETATM    8  C8  UNL     1     -38.542  15.282  -4.524  1.00 20.00     0.071 C 
HETATM    9  C9  UNL     1     -35.284  12.787  -7.048  1.00 20.00     0.073 C 
HETATM   10  N10 UNL     1     -36.849  14.074  -5.738  1.00 20.00    -0.255 NA
ENDROOT
BRANCH   3  11
HETATM   11  O11 UNL     1     -33.207  14.009  -5.547  1.00 20.00    -0.358 OA
HETATM   12  H24 UNL     1     -32.630  14.222  -4.795  1.00 20.00     0.217 HD
ENDBRANCH   3  11
TORSDOF 1
ENDMDL
MODEL 6
REMARK VINA RESULT:      -4.1      1.665      2.943
REMARK  1 active torsions:
REMARK  status: ('A' for Active; 'I' for Inactive)
REMARK    1  A    between atoms: C3_3  and  O11_11 
ROOT
HETATM    1  C1  UNL     1     -36.000  16.589  -2.993  1.00 20.00    -0.019 A 
HETATM    2  C2  UNL     1     -34.687  16.164  -3.162  1.00 20.00    -0.029 A 
HETATM    3  C3  UNL     1     -37.020  15.981  -3.718  1.00 20.00     0.096 A 
HETATM    4  C4  UNL     1     -34.448  15.134  -4.058  1.00 20.00     0.037 A 
HETATM    5  C5  UNL     1     -36.676  14.961  -4.590  1.00 20.00     0.064 A 
HETATM    6  C6  UNL     1     -36.320  17.695  -2.040  1.00 20.00     0.052 C 
HETATM    7  C7  UNL     1     -33.571  16.796  -2.399  1.00 20.00     0.051 C 
HETATM    8  C8  UNL     1     -33.058  14.635  -4.281  1.00 20.00     0.071 C 
HETATM    9  C9  UNL     1     -37.733  14.274  -5.392  1.00 20.00     0.073 C 
HETATM   10  N10 UNL     1     -35.412  14.520  -4.779  1.00 20.00    -0.255 NA
ENDROOT
BRANCH   3  11
HETATM   11  O11 UNL     1     -38.312  16.376  -3.574  1.00 20.00    -0.358 OA
HETATM   12  H24 UNL     1     -38.565  16.975  -4.296  1.00 20.00     0.217 HD
ENDBRANCH   3  11
TORSDOF 1
ENDMDL
MODEL 7
REMARK VINA RESULT:      -4.1      1.392      2.081
REMARK  1 active torsions:
REMARK  status: ('A' for Active; 'I' for Inactive)
REMARK    1  A    between atoms: C3_3  and  O11_11 
ROOT
HETATM    1  C1  UNL     1     -35.954  14.258  -5.029  1.00 20.00    -0.019 A 
HETATM    2  C2  UNL     1     -34.989  14.881  -4.245  1.00 20.00    -0.029 A 
HETATM    3  C3  UNL     1     -37.269  14.708  -4.991  1.00 20.00     0.096 A 
HETATM    4  C4  UNL     1     -35.387  15.942  -3.448  1.00 20.00     0.037 A 
HETATM    5  C5  UNL     1     -37.565  15.776  -4.160  1.00 20.00     0.064 A 
HETATM    6  C6  UNL     1     -35.585  13.108  -5.910  1.00 20.00     0.052 C 
HETATM    7  C7  UNL     1     -33.570  14.421  -4.264  1.00 20.00     0.051 C 
HETATM    8  C8  UNL     1     -34.396  16.651  -2.584  1.00 20.00     0.071 C 
HETATM    9  C9  UNL     1     -38.962  16.299  -4.081  1.00 20.00     0.073 C 
HETATM   10  N10 UNL     1     -36.655  16.407  -3.384  1.00 20.00    -0.255 NA
ENDROOT
BRANCH   3  11
HETATM   11  O11 UNL     1     -38.233  14.118  -5.746  1.00 20.00    -0.358 OA
HETATM   12  H24 UNL     1     -38.262  14.517  -6.631  1.00 20.00     0.217 HD
ENDBRANCH   3  11
TORSDOF 1
ENDMDL
MODEL 8
REMARK VINA RESULT:      -4.1      1.867      3.066
REMARK  1 active torsions:
REMARK  status: ('A' for Active; 'I' for Inactive)
REMARK    1  A    between atoms: C3_3  and  O11_11 
ROOT
HETATM    1  C1  UNL     1     -35.008  15.774  -3.653  1.00 20.00    -0.019 A 
HETATM    2  C2  UNL     1     -34.419  14.977  -4.627  1.00 20.00    -0.029 A 
HETATM    3  C3  UNL     1     -36.393  15.898  -3.608  1.00 20.00     0.096 A 
HETATM    4  C4  UNL     1     -35.251  14.328  -5.525  1.00 20.00     0.037 A 
HETATM    5  C5  UNL     1     -37.136  15.209  -4.553  1.00 20.00     0.064 A 
HETATM    6  C6  UNL     1     -34.163  16.500  -2.655  1.00 20.00     0.052 C 
HETATM    7  C7  UNL     1     -32.936  14.823  -4.700  1.00 20.00     0.051 C 
HETATM    8  C8  UNL     1     -34.675  13.457  -6.593  1.00 20.00     0.071 C 
HETATM    9  C9  UNL     1     -38.627  15.308  -4.550  1.00 20.00     0.073 C 
HETATM   10  N10 UNL     1     -36.599  14.424  -5.513  1.00 20.00    -0.255 NA
ENDROOT
BRANCH   3  11
HETATM   11  O11 UNL     1     -36.997  16.672  -2.668  1.00 20.00    -0.358 OA
HETATM   12  H24 UNL     1     -36.416  17.405  -2.409  1.00 20.00     0.217 HD
ENDBRANCH   3  11
TORSDOF 1
ENDMDL
MODEL 9
REMARK VINA RESULT:      -4.0      1.563      3.263
REMARK  1 active torsions:
REMARK  status: ('A' for Active; 'I' for Inactive)
REMARK    1  A    between atoms: C3_3  and  O11_11 
ROOT
HETATM    1  C1  UNL     1     -34.633  14.980  -4.073  1.00 20.00    -0.019 A 
HETATM    2  C2  UNL     1     -35.788  14.506  -4.685  1.00 20.00    -0.029 A 
HETATM    3  C3  UNL     1     -34.712  16.049  -3.187  1.00 20.00     0.096 A 
HETATM    4  C4  UNL     1     -36.986  15.129  -4.380  1.00 20.00     0.037 A 
HETATM    5  C5  UNL     1     -35.958  16.604  -2.949  1.00 20.00     0.064 A 
HETATM    6  C6  UNL     1     -33.309  14.348  -4.362  1.00 20.00     0.052 C 
HETATM    7  C7  UNL     1     -35.736  13.360  -5.640  1.00 20.00     0.051 C 
HETATM    8  C8  UNL     1     -38.260  14.664  -5.006  1.00 20.00     0.071 C 
HETATM    9  C9  UNL     1     -36.099  17.754  -2.007  1.00 20.00     0.073 C 
HETATM   10  N10 UNL     1     -37.102  16.170  -3.525  1.00 20.00    -0.255 NA
ENDROOT
BRANCH   3  11
HETATM   11  O11 UNL     1     -33.599  16.534  -2.574  1.00 20.00    -0.358 OA
HETATM   12  H24 UNL     1     -33.066  15.806  -2.214  1.00 20.00     0.217 HD
ENDBRANCH   3  11
TORSDOF 1
ENDMDL
