MODEL 1
REMARK VINA RESULT:      -3.1      0.000      0.000
REMARK  1 active torsions:
REMARK  status: ('A' for Active; 'I' for Inactive)
REMARK    1  A    between atoms: C3_3  and  N6_6 
ROOT
HETATM    1  C1  UNL     1     -33.619  16.094  -5.950  1.00 20.00     0.123 C 
HETATM    2  C2  UNL     1     -34.851  14.453  -4.322  1.00 20.00     0.123 C 
HETATM    3  C3  UNL     1     -34.518  15.910  -4.709  1.00 20.00     0.242 C 
HETATM    4  S7  UNL     1     -34.414  15.577  -7.507  1.00 20.00    -0.084 SA
HETATM    5  S8  UNL     1     -35.900  13.597  -5.544  1.00 20.00    -0.084 SA
HETATM    6  S9  UNL     1     -34.627  13.577  -7.144  1.00 20.00    -0.025 SA
ENDROOT
BRANCH   3   7
HETATM    7  N6  UNL     1     -33.824  16.540  -3.574  1.00 20.00     0.086 N 
HETATM    8  C4  UNL     1     -34.670  16.506  -2.386  1.00 20.00     0.310 C 
HETATM    9  C5  UNL     1     -33.457  17.913  -3.909  1.00 20.00     0.310 C 
ENDBRANCH   3   7
TORSDOF 1
ENDMDL
MODEL 2
REMARK VINA RESULT:      -3.0      1.098      2.162
REMARK  1 active torsions:
REMARK  status: ('A' for Active; 'I' for Inactive)
REMARK    1  A    between atoms: C3_3  and  N6_6 
ROOT
HETATM    1  C1  UNL     1     -35.253  15.065  -4.777  1.00 20.00     0.123 C 
HETATM    2  C2  UNL     1     -33.731  15.706  -6.809  1.00 20.00     0.123 C 
HETATM    3  C3  UNL     1     -33.833  15.353  -5.310  1.00 20.00     0.242 C 
HETATM    4  S7  UNL     1     -35.993  13.546  -5.461  1.00 20.00    -0.084 SA
HETATM    5  S8  UNL     1     -34.158  14.319  -7.914  1.00 20.00    -0.084 SA
HETATM    6  S9  UNL     1     -36.129  14.080  -7.429  1.00 20.00    -0.025 SA
ENDROOT
BRANCH   3   7
HETATM    7  N6  UNL     1     -33.301  16.484  -4.534  1.00 20.00     0.086 N 
HETATM    8  C4  UNL     1     -33.763  16.407  -3.152  1.00 20.00     0.310 C 
HETATM    9  C5  UNL     1     -33.704  17.747  -5.145  1.00 20.00     0.310 C 
ENDBRANCH   3   7
TORSDOF 1
ENDMDL
MODEL 3
REMARK VINA RESULT:      -3.0      1.300      2.315
REMARK  1 active torsions:
REMARK  status: ('A' for Active; 'I' for Inactive)
REMARK    1  A    between atoms: C3_3  and  N6_6 
ROOT
HETATM    1  C1  UNL     1     -35.198  15.358  -3.553  1.00 20.00     0.123 C 
HETATM    2  C2  UNL     1     -33.528  16.877  -4.880  1.00 20.00     0.123 C 
HETATM    3  C3  UNL     1     -33.801  16.009  -3.633  1.00 20.00     0.242 C 
HETATM    4  S7  UNL     1     -35.484  14.090  -4.832  1.00 20.00    -0.084 SA
HETATM    5  S8  UNL     1     -33.470  15.923  -6.433  1.00 20.00    -0.084 SA
HETATM    6  S9  UNL     1     -35.402  15.259  -6.507  1.00 20.00    -0.025 SA
ENDROOT
BRANCH   3   7
HETATM    7  N6  UNL     1     -33.650  16.856  -2.440  1.00 20.00     0.086 N 
HETATM    8  C4  UNL     1     -34.875  16.832  -1.648  1.00 20.00     0.310 C 
HETATM    9  C5  UNL     1     -33.314  18.222  -2.833  1.00 20.00     0.310 C 
ENDBRANCH   3   7
TORSDOF 1
ENDMDL
MODEL 4
REMARK VINA RESULT:      -2.9     11.412     12.521
REMARK  1 active torsions:
REMARK  status: ('A' for Active; 'I' for Inactive)
REMARK    1  A    between atoms: C3_3  and  N6_6 
ROOT
HETATM    1  C1  UNL     1     -33.761   6.122   2.834  1.00 20.00     0.123 C 
HETATM    2  C2  UNL     1     -32.685   7.598   4.711  1.00 20.00     0.123 C 
HETATM    3  C3  UNL     1     -33.269   7.513   3.284  1.00 20.00     0.242 C 
HETATM    4  S7  UNL     1     -35.219   5.532   3.756  1.00 20.00    -0.084 SA
HETATM    5  S8  UNL     1     -33.921   7.311   6.021  1.00 20.00    -0.084 SA
HETATM    6  S9  UNL     1     -34.406   5.365   5.624  1.00 20.00    -0.025 SA
ENDROOT
BRANCH   3   7
HETATM    7  N6  UNL     1     -32.226   7.932   2.334  1.00 20.00     0.086 N 
HETATM    8  C4  UNL     1     -31.053   8.413   3.057  1.00 20.00     0.310 C 
HETATM    9  C5  UNL     1     -32.744   8.965   1.442  1.00 20.00     0.310 C 
ENDBRANCH   3   7
TORSDOF 1
ENDMDL
MODEL 5
REMARK VINA RESULT:      -2.9      3.111      3.951
REMARK  1 active torsions:
REMARK  status: ('A' for Active; 'I' for Inactive)
REMARK    1  A    between atoms: C3_3  and  N6_6 
ROOT
HETATM    1  C1  UNL     1     -34.723  15.033  -5.891  1.00 20.00     0.123 C 
HETATM    2  C2  UNL     1     -36.290  15.735  -3.914  1.00 20.00     0.123 C 
HETATM    3  C3  UNL     1     -35.769  14.613  -4.837  1.00 20.00     0.242 C 
HETATM    4  S7  UNL     1     -33.129  15.548  -5.169  1.00 20.00    -0.084 SA
HETATM    5  S8  UNL     1     -35.020  16.397  -2.784  1.00 20.00    -0.084 SA
HETATM    6  S9  UNL     1     -33.732  17.212  -4.147  1.00 20.00    -0.025 SA
ENDROOT
BRANCH   3   7
HETATM    7  N6  UNL     1     -36.915  14.048  -5.566  1.00 20.00     0.086 N 
HETATM    8  C4  UNL     1     -36.799  14.344  -6.990  1.00 20.00     0.310 C 
HETATM    9  C5  UNL     1     -38.164  14.576  -5.027  1.00 20.00     0.310 C 
ENDBRANCH   3   7
TORSDOF 1
ENDMDL
MODEL 6
REMARK VINA RESULT:      -2.9      1.236      2.037
REMARK  1 active torsions:
REMARK  status: ('A' for Active; 'I' for Inactive)
REMARK    1  A    between atoms: C3_3  and  N6_6 
ROOT
HETATM    1  C1  UNL     1     -36.184  15.462  -4.630  1.00 20.00     0.123 C 
HETATM    2  C2  UNL     1     -33.994  14.854  -5.930  1.00 20.00     0.123 C 
HETATM    3  C3  UNL     1     -34.733  14.939  -4.578  1.00 20.00     0.242 C 
HETATM    4  S7  UNL     1     -37.332  14.339  -5.493  1.00 20.00    -0.084 SA
HETATM    5  S8  UNL     1     -34.690  13.605  -7.063  1.00 20.00    -0.084 SA
HETATM    6  S9  UNL     1     -36.542  14.413  -7.376  1.00 20.00    -0.025 SA
ENDROOT
BRANCH   3   7
HETATM    7  N6  UNL     1     -33.978  15.844  -3.697  1.00 20.00     0.086 N 
HETATM    8  C4  UNL     1     -34.830  16.314  -2.610  1.00 20.00     0.310 C 
HETATM    9  C5  UNL     1     -33.451  16.969  -4.465  1.00 20.00     0.310 C 
ENDBRANCH   3   7
TORSDOF 1
ENDMDL
MODEL 7
REMARK VINA RESULT:      -2.9      1.334      1.692
REMARK  1 active torsions:
REMARK  status: ('A' for Active; 'I' for Inactive)
REMARK    1  A    between atoms: C3_3  and  N6_6 
ROOT
HETATM    1  C1  UNL     1     -33.571  15.217  -4.355  1.00 20.00     0.123 C 
HETATM    2  C2  UNL     1     -35.862  15.916  -3.295  1.00 20.00     0.123 C 
HETATM    3  C3  UNL     1     -34.465  16.344  -3.796  1.00 20.00     0.242 C 
HETATM    4  S7  UNL     1     -34.201  14.490  -5.904  1.00 20.00    -0.084 SA
HETATM    5  S8  UNL     1     -36.964  15.333  -4.626  1.00 20.00    -0.084 SA
HETATM    6  S9  UNL     1     -35.941  13.666  -5.221  1.00 20.00    -0.025 SA
ENDROOT
BRANCH   3   7
HETATM    7  N6  UNL     1     -33.740  16.953  -2.669  1.00 20.00     0.086 N 
HETATM    8  C4  UNL     1     -34.594  16.998  -1.487  1.00 20.00     0.310 C 
HETATM    9  C5  UNL     1     -33.284  18.292  -3.031  1.00 20.00     0.310 C 
ENDBRANCH   3   7
TORSDOF 1
ENDMDL
MODEL 8
REMARK VINA RESULT:      -2.9      3.271      4.312
REMARK  1 active torsions:
REMARK  status: ('A' for Active; 'I' for Inactive)
REMARK    1  A    between atoms: C3_3  and  N6_6 
ROOT
HETATM    1  C1  UNL     1     -36.307  15.391  -4.195  1.00 20.00     0.123 C 
HETATM    2  C2  UNL     1     -33.731  15.467  -3.733  1.00 20.00     0.123 C 
HETATM    3  C3  UNL     1     -34.874  15.389  -4.767  1.00 20.00     0.242 C 
HETATM    4  S7  UNL     1     -36.771  16.965  -3.401  1.00 20.00    -0.084 SA
HETATM    5  S8  UNL     1     -33.663  17.057  -2.842  1.00 20.00    -0.084 SA
HETATM    6  S9  UNL     1     -35.446  16.975  -1.845  1.00 20.00    -0.025 SA
ENDROOT
BRANCH   3   7
HETATM    7  N6  UNL     1     -34.716  14.143  -5.534  1.00 20.00     0.086 N 
HETATM    8  C4  UNL     1     -34.319  14.444  -6.905  1.00 20.00     0.310 C 
HETATM    9  C5  UNL     1     -35.959  13.377  -5.511  1.00 20.00     0.310 C 
ENDBRANCH   3   7
TORSDOF 1
ENDMDL
MODEL 9
REMARK VINA RESULT:      -2.9      2.265      3.136
REMARK  1 active torsions:
REMARK  status: ('A' for Active; 'I' for Inactive)
REMARK    1  A    between atoms: C3_3  and  N6_6 
ROOT
HETATM    1  C1  UNL     1     -36.418  14.030  -6.210  1.00 20.00     0.123 C 
HETATM    2  C2  UNL     1     -35.060  16.007  -5.157  1.00 20.00     0.123 C 
HETATM    3  C3  UNL     1     -35.926  14.748  -4.935  1.00 20.00     0.242 C 
HETATM    4  S7  UNL     1     -35.076  13.265  -7.178  1.00 20.00    -0.084 SA
HETATM    5  S8  UNL     1     -33.437  15.651  -5.910  1.00 20.00    -0.084 SA
HETATM    6  S9  UNL     1     -34.045  14.942  -7.729  1.00 20.00    -0.025 SA
ENDROOT
BRANCH   3   7
HETATM    7  N6  UNL     1     -37.121  15.141  -4.171  1.00 20.00     0.086 N 
HETATM    8  C4  UNL     1     -38.328  14.768  -4.901  1.00 20.00     0.310 C 
HETATM    9  C5  UNL     1     -37.098  16.576  -3.905  1.00 20.00     0.310 C 
ENDBRANCH   3   7
TORSDOF 1
ENDMDL
