MODEL 1
REMARK VINA RESULT:      -4.3      0.000      0.000
REMARK  0 active torsions:
REMARK  status: ('A' for Active; 'I' for Inactive)
ROOT
HETATM    1  C1  UNL     1     -33.618  17.190  -4.274  1.00 20.00    -0.024 C 
HETATM    2  C2  UNL     1     -34.122  16.438  -3.275  1.00 20.00    -0.083 C 
HETATM    3  C3  UNL     1     -33.457  16.619  -5.668  1.00 20.00     0.033 C 
HETATM    4  C4  UNL     1     -33.298  14.379  -4.475  1.00 20.00     0.015 C 
HETATM    5  C5  UNL     1     -34.467  15.017  -3.637  1.00 20.00     0.022 C 
HETATM    6  C6  UNL     1     -33.937  15.151  -5.677  1.00 20.00    -0.002 C 
HETATM    7  C7  UNL     1     -35.337  14.883  -4.967  1.00 20.00    -0.036 C 
HETATM    8  C8  UNL     1     -34.340  16.907  -1.877  1.00 20.00     0.043 C 
HETATM    9  C9  UNL     1     -36.455  15.907  -5.205  1.00 20.00     0.016 C 
HETATM   10  C10 UNL     1     -35.936  13.484  -5.210  1.00 20.00     0.016 C 
ENDROOT
TORSDOF 0
ENDMDL
MODEL 2
REMARK VINA RESULT:      -4.3      1.545      3.494
REMARK  0 active torsions:
REMARK  status: ('A' for Active; 'I' for Inactive)
ROOT
HETATM    1  C1  UNL     1     -33.525  16.881  -4.878  1.00 20.00    -0.024 C 
HETATM    2  C2  UNL     1     -33.707  15.764  -4.145  1.00 20.00    -0.083 C 
HETATM    3  C3  UNL     1     -34.283  18.152  -4.553  1.00 20.00     0.033 C 
HETATM    4  C4  UNL     1     -36.020  16.582  -3.561  1.00 20.00     0.015 C 
HETATM    5  C5  UNL     1     -34.721  15.870  -3.034  1.00 20.00     0.022 C 
HETATM    6  C6  UNL     1     -35.207  17.901  -3.342  1.00 20.00    -0.002 C 
HETATM    7  C7  UNL     1     -34.532  17.154  -2.108  1.00 20.00    -0.036 C 
HETATM    8  C8  UNL     1     -33.000  14.471  -4.364  1.00 20.00     0.043 C 
HETATM    9  C9  UNL     1     -33.103  17.568  -1.728  1.00 20.00     0.016 C 
HETATM   10  C10 UNL     1     -35.367  17.146  -0.812  1.00 20.00     0.016 C 
ENDROOT
TORSDOF 0
ENDMDL
MODEL 3
REMARK VINA RESULT:      -4.1      1.121      3.239
REMARK  0 active torsions:
REMARK  status: ('A' for Active; 'I' for Inactive)
ROOT
HETATM    1  C1  UNL     1     -35.166  14.576  -6.293  1.00 20.00    -0.024 C 
HETATM    2  C2  UNL     1     -34.276  15.584  -6.390  1.00 20.00    -0.083 C 
HETATM    3  C3  UNL     1     -35.388  13.863  -4.975  1.00 20.00     0.033 C 
HETATM    4  C4  UNL     1     -33.005  14.584  -4.455  1.00 20.00     0.015 C 
HETATM    5  C5  UNL     1     -33.517  15.910  -5.129  1.00 20.00     0.022 C 
HETATM    6  C6  UNL     1     -34.464  14.477  -3.901  1.00 20.00    -0.002 C 
HETATM    7  C7  UNL     1     -34.445  16.068  -3.841  1.00 20.00    -0.036 C 
HETATM    8  C8  UNL     1     -33.996  16.364  -7.629  1.00 20.00     0.043 C 
HETATM    9  C9  UNL     1     -35.786  16.797  -4.002  1.00 20.00     0.016 C 
HETATM   10  C10 UNL     1     -33.741  16.668  -2.608  1.00 20.00     0.016 C 
ENDROOT
TORSDOF 0
ENDMDL
MODEL 4
REMARK VINA RESULT:      -4.1      1.134      1.485
REMARK  0 active torsions:
REMARK  status: ('A' for Active; 'I' for Inactive)
ROOT
HETATM    1  C1  UNL     1     -33.479  16.009  -3.586  1.00 20.00    -0.024 C 
HETATM    2  C2  UNL     1     -34.770  16.022  -3.197  1.00 20.00    -0.083 C 
HETATM    3  C3  UNL     1     -33.069  15.350  -4.887  1.00 20.00     0.033 C 
HETATM    4  C4  UNL     1     -35.148  13.925  -4.546  1.00 20.00     0.015 C 
HETATM    5  C5  UNL     1     -35.736  15.319  -4.116  1.00 20.00     0.022 C 
HETATM    6  C6  UNL     1     -34.319  14.761  -5.577  1.00 20.00    -0.002 C 
HETATM    7  C7  UNL     1     -35.581  15.728  -5.649  1.00 20.00    -0.036 C 
HETATM    8  C8  UNL     1     -35.282  16.658  -1.951  1.00 20.00     0.043 C 
HETATM    9  C9  UNL     1     -35.323  17.203  -5.982  1.00 20.00     0.016 C 
HETATM   10  C10 UNL     1     -36.724  15.244  -6.566  1.00 20.00     0.016 C 
ENDROOT
TORSDOF 0
ENDMDL
MODEL 5
REMARK VINA RESULT:      -4.1      1.002      3.255
REMARK  0 active torsions:
REMARK  status: ('A' for Active; 'I' for Inactive)
ROOT
HETATM    1  C1  UNL     1     -34.793  14.112  -4.312  1.00 20.00    -0.024 C 
HETATM    2  C2  UNL     1     -35.674  15.102  -4.558  1.00 20.00    -0.083 C 
HETATM    3  C3  UNL     1     -33.302  14.358  -4.417  1.00 20.00     0.033 C 
HETATM    4  C4  UNL     1     -33.959  16.191  -6.053  1.00 20.00     0.015 C 
HETATM    5  C5  UNL     1     -35.075  16.423  -4.968  1.00 20.00     0.022 C 
HETATM    6  C6  UNL     1     -33.054  15.825  -4.829  1.00 20.00    -0.002 C 
HETATM    7  C7  UNL     1     -33.889  16.914  -4.021  1.00 20.00    -0.036 C 
HETATM    8  C8  UNL     1     -37.156  14.974  -4.465  1.00 20.00     0.043 C 
HETATM    9  C9  UNL     1     -34.040  16.709  -2.508  1.00 20.00     0.016 C 
HETATM   10  C10 UNL     1     -33.447  18.375  -4.244  1.00 20.00     0.016 C 
ENDROOT
TORSDOF 0
ENDMDL
MODEL 6
REMARK VINA RESULT:      -4.1      1.349      2.789
REMARK  0 active torsions:
REMARK  status: ('A' for Active; 'I' for Inactive)
ROOT
HETATM    1  C1  UNL     1     -35.066  16.603  -2.202  1.00 20.00    -0.024 C 
HETATM    2  C2  UNL     1     -33.905  17.199  -2.540  1.00 20.00    -0.083 C 
HETATM    3  C3  UNL     1     -35.989  16.045  -3.265  1.00 20.00     0.033 C 
HETATM    4  C4  UNL     1     -34.915  17.787  -4.775  1.00 20.00     0.015 C 
HETATM    5  C5  UNL     1     -33.626  17.294  -4.019  1.00 20.00     0.022 C 
HETATM    6  C6  UNL     1     -35.373  16.295  -4.659  1.00 20.00    -0.002 C 
HETATM    7  C7  UNL     1     -33.832  15.922  -4.803  1.00 20.00    -0.036 C 
HETATM    8  C8  UNL     1     -32.918  17.761  -1.576  1.00 20.00     0.043 C 
HETATM    9  C9  UNL     1     -33.353  14.627  -4.132  1.00 20.00     0.016 C 
HETATM   10  C10 UNL     1     -33.293  15.916  -6.248  1.00 20.00     0.016 C 
ENDROOT
TORSDOF 0
ENDMDL
MODEL 7
REMARK VINA RESULT:      -4.0      1.295      2.582
REMARK  0 active torsions:
REMARK  status: ('A' for Active; 'I' for Inactive)
ROOT
HETATM    1  C1  UNL     1     -32.948  15.663  -5.373  1.00 20.00    -0.024 C 
HETATM    2  C2  UNL     1     -34.000  16.369  -5.834  1.00 20.00    -0.083 C 
HETATM    3  C3  UNL     1     -33.154  14.487  -4.440  1.00 20.00     0.033 C 
HETATM    4  C4  UNL     1     -35.295  15.689  -3.779  1.00 20.00     0.015 C 
HETATM    5  C5  UNL     1     -35.352  15.930  -5.333  1.00 20.00     0.022 C 
HETATM    6  C6  UNL     1     -34.664  14.311  -4.166  1.00 20.00    -0.002 C 
HETATM    7  C7  UNL     1     -35.604  14.359  -5.449  1.00 20.00    -0.036 C 
HETATM    8  C8  UNL     1     -33.912  17.526  -6.768  1.00 20.00     0.043 C 
HETATM    9  C9  UNL     1     -35.112  13.640  -6.712  1.00 20.00     0.016 C 
HETATM   10  C10 UNL     1     -37.062  13.919  -5.209  1.00 20.00     0.016 C 
ENDROOT
TORSDOF 0
ENDMDL
MODEL 8
REMARK VINA RESULT:      -3.9      1.197      2.734
REMARK  0 active torsions:
REMARK  status: ('A' for Active; 'I' for Inactive)
ROOT
HETATM    1  C1  UNL     1     -35.861  16.434  -2.799  1.00 20.00    -0.024 C 
HETATM    2  C2  UNL     1     -36.378  15.859  -3.904  1.00 20.00    -0.083 C 
HETATM    3  C3  UNL     1     -34.363  16.479  -2.579  1.00 20.00     0.033 C 
HETATM    4  C4  UNL     1     -34.322  14.405  -4.050  1.00 20.00     0.015 C 
HETATM    5  C5  UNL     1     -35.377  15.251  -4.854  1.00 20.00     0.022 C 
HETATM    6  C6  UNL     1     -33.651  15.790  -3.763  1.00 20.00    -0.002 C 
HETATM    7  C7  UNL     1     -34.159  16.217  -5.211  1.00 20.00    -0.036 C 
HETATM    8  C8  UNL     1     -37.830  15.778  -4.228  1.00 20.00     0.043 C 
HETATM    9  C9  UNL     1     -34.459  17.704  -5.443  1.00 20.00     0.016 C 
HETATM   10  C10 UNL     1     -33.277  15.738  -6.381  1.00 20.00     0.016 C 
ENDROOT
TORSDOF 0
ENDMDL
MODEL 9
REMARK VINA RESULT:      -3.9      1.254      3.496
REMARK  0 active torsions:
REMARK  status: ('A' for Active; 'I' for Inactive)
ROOT
HETATM    1  C1  UNL     1     -35.950  15.595  -4.527  1.00 20.00    -0.024 C 
HETATM    2  C2  UNL     1     -35.940  16.944  -4.545  1.00 20.00    -0.083 C 
HETATM    3  C3  UNL     1     -34.770  14.819  -3.979  1.00 20.00     0.033 C 
HETATM    4  C4  UNL     1     -33.420  16.875  -4.629  1.00 20.00     0.015 C 
HETATM    5  C5  UNL     1     -34.683  17.594  -4.027  1.00 20.00     0.022 C 
HETATM    6  C6  UNL     1     -33.680  15.809  -3.512  1.00 20.00    -0.002 C 
HETATM    7  C7  UNL     1     -34.194  17.023  -2.620  1.00 20.00    -0.036 C 
HETATM    8  C8  UNL     1     -37.052  17.802  -5.041  1.00 20.00     0.043 C 
HETATM    9  C9  UNL     1     -35.257  16.718  -1.556  1.00 20.00     0.016 C 
HETATM   10  C10 UNL     1     -33.085  17.849  -1.938  1.00 20.00     0.016 C 
ENDROOT
TORSDOF 0
ENDMDL
