MODEL 1
REMARK VINA RESULT:      -4.8      0.000      0.000
REMARK  0 active torsions:
REMARK  status: ('A' for Active; 'I' for Inactive)
ROOT
HETATM    1  C1  UNL     1     -36.223  15.105  -5.317  1.00 20.00    -0.017 C 
HETATM    2  C2  UNL     1     -35.520  13.846  -4.906  1.00 20.00     0.155 C 
HETATM    3  C3  UNL     1     -37.290  15.087  -6.121  1.00 20.00     0.023 C 
HETATM    4  C4  UNL     1     -34.278  14.059  -4.045  1.00 20.00     0.089 C 
HETATM    5  C5  UNL     1     -35.336  16.228  -3.258  1.00 20.00     0.016 C 
HETATM    6  C6  UNL     1     -35.662  16.389  -4.785  1.00 20.00     0.030 C 
HETATM    7  C7  UNL     1     -34.016  15.548  -3.742  1.00 20.00     0.002 C 
HETATM    8  C8  UNL     1     -34.090  16.528  -4.991  1.00 20.00    -0.036 C 
HETATM    9  C9  UNL     1     -33.535  17.942  -4.733  1.00 20.00     0.016 C 
HETATM   10  C10 UNL     1     -33.491  16.026  -6.309  1.00 20.00     0.016 C 
HETATM   11  O11 UNL     1     -35.903  12.730  -5.238  1.00 20.00    -0.293 OA
ENDROOT
TORSDOF 0
ENDMDL
MODEL 2
REMARK VINA RESULT:      -4.6      1.529      2.412
REMARK  0 active torsions:
REMARK  status: ('A' for Active; 'I' for Inactive)
ROOT
HETATM    1  C1  UNL     1     -35.160  14.199  -5.355  1.00 20.00    -0.017 C 
HETATM    2  C2  UNL     1     -34.641  14.761  -6.645  1.00 20.00     0.155 C 
HETATM    3  C3  UNL     1     -36.208  13.372  -5.316  1.00 20.00     0.023 C 
HETATM    4  C4  UNL     1     -33.484  15.744  -6.495  1.00 20.00     0.089 C 
HETATM    5  C5  UNL     1     -32.893  14.542  -4.339  1.00 20.00     0.016 C 
HETATM    6  C6  UNL     1     -34.444  14.619  -4.107  1.00 20.00     0.030 C 
HETATM    7  C7  UNL     1     -33.056  15.935  -5.026  1.00 20.00     0.002 C 
HETATM    8  C8  UNL     1     -34.235  16.192  -3.994  1.00 20.00    -0.036 C 
HETATM    9  C9  UNL     1     -33.780  16.677  -2.604  1.00 20.00     0.016 C 
HETATM   10  C10 UNL     1     -35.380  17.103  -4.452  1.00 20.00     0.016 C 
HETATM   11  O11 UNL     1     -35.111  14.463  -7.738  1.00 20.00    -0.293 OA
ENDROOT
TORSDOF 0
ENDMDL
MODEL 3
REMARK VINA RESULT:      -4.6      1.346      2.205
REMARK  0 active torsions:
REMARK  status: ('A' for Active; 'I' for Inactive)
ROOT
HETATM    1  C1  UNL     1     -34.400  14.646  -6.739  1.00 20.00    -0.017 C 
HETATM    2  C2  UNL     1     -35.188  13.454  -6.285  1.00 20.00     0.155 C 
HETATM    3  C3  UNL     1     -33.759  14.664  -7.911  1.00 20.00     0.023 C 
HETATM    4  C4  UNL     1     -35.794  13.581  -4.890  1.00 20.00     0.089 C 
HETATM    5  C5  UNL     1     -35.805  16.094  -5.249  1.00 20.00     0.016 C 
HETATM    6  C6  UNL     1     -34.363  15.819  -5.805  1.00 20.00     0.030 C 
HETATM    7  C7  UNL     1     -35.495  14.946  -4.237  1.00 20.00     0.002 C 
HETATM    8  C8  UNL     1     -33.983  15.427  -4.311  1.00 20.00    -0.036 C 
HETATM    9  C9  UNL     1     -33.644  16.627  -3.404  1.00 20.00     0.016 C 
HETATM   10  C10 UNL     1     -32.899  14.364  -4.100  1.00 20.00     0.016 C 
HETATM   11  O11 UNL     1     -35.331  12.449  -6.972  1.00 20.00    -0.293 OA
ENDROOT
TORSDOF 0
ENDMDL
MODEL 4
REMARK VINA RESULT:      -4.4      2.482      4.024
REMARK  0 active torsions:
REMARK  status: ('A' for Active; 'I' for Inactive)
ROOT
HETATM    1  C1  UNL     1     -34.264  17.083  -2.586  1.00 20.00    -0.017 C 
HETATM    2  C2  UNL     1     -33.567  17.973  -3.570  1.00 20.00     0.155 C 
HETATM    3  C3  UNL     1     -34.062  17.191  -1.270  1.00 20.00     0.023 C 
HETATM    4  C4  UNL     1     -33.862  17.662  -5.035  1.00 20.00     0.089 C 
HETATM    5  C5  UNL     1     -36.089  16.718  -4.267  1.00 20.00     0.016 C 
HETATM    6  C6  UNL     1     -35.198  16.058  -3.155  1.00 20.00     0.030 C 
HETATM    7  C7  UNL     1     -34.859  16.499  -5.204  1.00 20.00     0.002 C 
HETATM    8  C8  UNL     1     -34.558  15.203  -4.335  1.00 20.00    -0.036 C 
HETATM    9  C9  UNL     1     -35.373  13.957  -4.735  1.00 20.00     0.016 C 
HETATM   10  C10 UNL     1     -33.092  14.777  -4.200  1.00 20.00     0.016 C 
HETATM   11  O11 UNL     1     -32.811  18.878  -3.232  1.00 20.00    -0.293 OA
ENDROOT
TORSDOF 0
ENDMDL
MODEL 5
REMARK VINA RESULT:      -4.3      1.346      2.039
REMARK  0 active torsions:
REMARK  status: ('A' for Active; 'I' for Inactive)
ROOT
HETATM    1  C1  UNL     1     -34.977  14.401  -6.596  1.00 20.00    -0.017 C 
HETATM    2  C2  UNL     1     -35.726  13.871  -5.410  1.00 20.00     0.155 C 
HETATM    3  C3  UNL     1     -34.438  13.589  -7.511  1.00 20.00     0.023 C 
HETATM    4  C4  UNL     1     -36.210  14.937  -4.431  1.00 20.00     0.089 C 
HETATM    5  C5  UNL     1     -36.245  16.554  -6.388  1.00 20.00     0.016 C 
HETATM    6  C6  UNL     1     -34.856  15.891  -6.701  1.00 20.00     0.030 C 
HETATM    7  C7  UNL     1     -35.853  16.366  -4.888  1.00 20.00     0.002 C 
HETATM    8  C8  UNL     1     -34.351  16.582  -5.359  1.00 20.00    -0.036 C 
HETATM    9  C9  UNL     1     -33.932  18.057  -5.520  1.00 20.00     0.016 C 
HETATM   10  C10 UNL     1     -33.256  15.872  -4.554  1.00 20.00     0.016 C 
HETATM   11  O11 UNL     1     -35.931  12.675  -5.231  1.00 20.00    -0.293 OA
ENDROOT
TORSDOF 0
ENDMDL
MODEL 6
REMARK VINA RESULT:      -4.3      2.084      3.474
REMARK  0 active torsions:
REMARK  status: ('A' for Active; 'I' for Inactive)
ROOT
HETATM    1  C1  UNL     1     -34.130  16.639  -2.709  1.00 20.00    -0.017 C 
HETATM    2  C2  UNL     1     -35.625  16.671  -2.598  1.00 20.00     0.155 C 
HETATM    3  C3  UNL     1     -33.344  17.277  -1.838  1.00 20.00     0.023 C 
HETATM    4  C4  UNL     1     -36.366  15.947  -3.720  1.00 20.00     0.089 C 
HETATM    5  C5  UNL     1     -34.309  14.482  -3.976  1.00 20.00     0.016 C 
HETATM    6  C6  UNL     1     -33.561  15.857  -3.855  1.00 20.00     0.030 C 
HETATM    7  C7  UNL     1     -35.408  15.292  -4.734  1.00 20.00     0.002 C 
HETATM    8  C8  UNL     1     -34.224  16.213  -5.257  1.00 20.00    -0.036 C 
HETATM    9  C9  UNL     1     -33.467  15.657  -6.480  1.00 20.00     0.016 C 
HETATM   10  C10 UNL     1     -34.555  17.682  -5.543  1.00 20.00     0.016 C 
HETATM   11  O11 UNL     1     -36.213  17.239  -1.685  1.00 20.00    -0.293 OA
ENDROOT
TORSDOF 0
ENDMDL
MODEL 7
REMARK VINA RESULT:      -4.3      1.760      3.192
REMARK  0 active torsions:
REMARK  status: ('A' for Active; 'I' for Inactive)
ROOT
HETATM    1  C1  UNL     1     -34.797  15.411  -4.032  1.00 20.00    -0.017 C 
HETATM    2  C2  UNL     1     -36.009  16.167  -4.491  1.00 20.00     0.155 C 
HETATM    3  C3  UNL     1     -34.718  14.081  -4.124  1.00 20.00     0.023 C 
HETATM    4  C4  UNL     1     -35.955  17.672  -4.244  1.00 20.00     0.089 C 
HETATM    5  C5  UNL     1     -33.426  17.485  -4.362  1.00 20.00     0.016 C 
HETATM    6  C6  UNL     1     -33.678  16.226  -3.458  1.00 20.00     0.030 C 
HETATM    7  C7  UNL     1     -34.630  18.118  -3.595  1.00 20.00     0.002 C 
HETATM    8  C8  UNL     1     -34.153  17.260  -2.345  1.00 20.00    -0.036 C 
HETATM    9  C9  UNL     1     -33.007  17.892  -1.531  1.00 20.00     0.016 C 
HETATM   10  C10 UNL     1     -35.232  16.806  -1.356  1.00 20.00     0.016 C 
HETATM   11  O11 UNL     1     -36.974  15.622  -5.016  1.00 20.00    -0.293 OA
ENDROOT
TORSDOF 0
ENDMDL
MODEL 8
REMARK VINA RESULT:      -4.2      1.085      2.742
REMARK  0 active torsions:
REMARK  status: ('A' for Active; 'I' for Inactive)
ROOT
HETATM    1  C1  UNL     1     -33.656  14.808  -4.435  1.00 20.00    -0.017 C 
HETATM    2  C2  UNL     1     -35.035  14.282  -4.699  1.00 20.00     0.155 C 
HETATM    3  C3  UNL     1     -32.628  13.995  -4.173  1.00 20.00     0.023 C 
HETATM    4  C4  UNL     1     -36.099  15.355  -4.908  1.00 20.00     0.089 C 
HETATM    5  C5  UNL     1     -34.240  16.879  -5.722  1.00 20.00     0.016 C 
HETATM    6  C6  UNL     1     -33.489  16.297  -4.472  1.00 20.00     0.030 C 
HETATM    7  C7  UNL     1     -35.523  16.783  -4.836  1.00 20.00     0.002 C 
HETATM    8  C8  UNL     1     -34.568  17.078  -3.602  1.00 20.00    -0.036 C 
HETATM    9  C9  UNL     1     -34.249  18.569  -3.377  1.00 20.00     0.016 C 
HETATM   10  C10 UNL     1     -34.969  16.479  -2.249  1.00 20.00     0.016 C 
HETATM   11  O11 UNL     1     -35.294  13.084  -4.739  1.00 20.00    -0.293 OA
ENDROOT
TORSDOF 0
ENDMDL
MODEL 9
REMARK VINA RESULT:      -4.1      1.968      3.330
REMARK  0 active torsions:
REMARK  status: ('A' for Active; 'I' for Inactive)
ROOT
HETATM    1  C1  UNL     1     -34.266  15.508  -3.902  1.00 20.00    -0.017 C 
HETATM    2  C2  UNL     1     -33.549  16.387  -4.883  1.00 20.00     0.155 C 
HETATM    3  C3  UNL     1     -34.457  14.206  -4.130  1.00 20.00     0.023 C 
HETATM    4  C4  UNL     1     -33.485  17.861  -4.493  1.00 20.00     0.089 C 
HETATM    5  C5  UNL     1     -33.648  17.110  -2.074  1.00 20.00     0.016 C 
HETATM    6  C6  UNL     1     -34.764  16.168  -2.652  1.00 20.00     0.030 C 
HETATM    7  C7  UNL     1     -34.151  18.143  -3.132  1.00 20.00     0.002 C 
HETATM    8  C8  UNL     1     -35.589  17.501  -2.924  1.00 20.00    -0.036 C 
HETATM    9  C9  UNL     1     -36.362  18.034  -1.701  1.00 20.00     0.016 C 
HETATM   10  C10 UNL     1     -36.544  17.522  -4.123  1.00 20.00     0.016 C 
HETATM   11  O11 UNL     1     -33.057  15.962  -5.923  1.00 20.00    -0.293 OA
ENDROOT
TORSDOF 0
ENDMDL
