MODEL 1
REMARK VINA RESULT:      -4.8      0.000      0.000
REMARK  1 active torsions:
REMARK  status: ('A' for Active; 'I' for Inactive)
REMARK    1  A    between atoms: C4_4  and  C6_6 
REMARK       I    between atoms: C4_4  and  N8_8 
ROOT
HETATM    1  C1  UNL     1     -31.560   8.453   2.988  1.00 20.00     0.135 A 
HETATM    2  C2  UNL     1     -32.117   8.211   4.221  1.00 20.00     0.120 A 
HETATM    3  C3  UNL     1     -33.103   7.036   2.650  1.00 20.00     0.216 A 
HETATM    4  C4  UNL     1     -33.993   6.715   4.932  1.00 20.00     0.228 C 
HETATM    5  N7  UNL     1     -32.177   7.718   2.015  1.00 20.00    -0.254 NA
HETATM    6  N8  UNL     1     -33.120   7.292   4.006  1.00 20.00    -0.286 N 
HETATM    7  O9  UNL     1     -33.903   7.026   6.112  1.00 20.00    -0.273 OA
ENDROOT
BRANCH   4   8
HETATM    8  C6  UNL     1     -34.981   5.739   4.371  1.00 20.00     0.099 C 
HETATM    9  C5  UNL     1     -34.511   4.320   4.610  1.00 20.00     0.014 C 
ENDBRANCH   4   8
TORSDOF 1
ENDMDL
MODEL 2
REMARK VINA RESULT:      -4.7      1.748      3.678
REMARK  1 active torsions:
REMARK  status: ('A' for Active; 'I' for Inactive)
REMARK    1  A    between atoms: C4_4  and  C6_6 
REMARK       I    between atoms: C4_4  and  N8_8 
ROOT
HETATM    1  C1  UNL     1     -34.595   5.935   5.544  1.00 20.00     0.135 A 
HETATM    2  C2  UNL     1     -33.545   6.814   5.426  1.00 20.00     0.120 A 
HETATM    3  C3  UNL     1     -34.309   6.208   3.459  1.00 20.00     0.216 A 
HETATM    4  C4  UNL     1     -32.413   7.790   3.419  1.00 20.00     0.228 C 
HETATM    5  N7  UNL     1     -35.067   5.563   4.317  1.00 20.00    -0.254 NA
HETATM    6  N8  UNL     1     -33.356   6.993   4.074  1.00 20.00    -0.286 N 
HETATM    7  O9  UNL     1     -31.620   8.444   4.082  1.00 20.00    -0.273 OA
ENDROOT
BRANCH   4   8
HETATM    8  C6  UNL     1     -32.470   7.767   1.923  1.00 20.00     0.099 C 
HETATM    9  C5  UNL     1     -32.145   9.134   1.362  1.00 20.00     0.014 C 
ENDBRANCH   4   8
TORSDOF 1
ENDMDL
MODEL 3
REMARK VINA RESULT:      -4.5      1.475      1.816
REMARK  1 active torsions:
REMARK  status: ('A' for Active; 'I' for Inactive)
REMARK    1  A    between atoms: C4_4  and  C6_6 
REMARK       I    between atoms: C4_4  and  N8_8 
ROOT
HETATM    1  C1  UNL     1     -31.841   8.369   2.055  1.00 20.00     0.135 A 
HETATM    2  C2  UNL     1     -32.978   7.597   2.075  1.00 20.00     0.120 A 
HETATM    3  C3  UNL     1     -32.171   7.892   4.096  1.00 20.00     0.216 A 
HETATM    4  C4  UNL     1     -34.221   6.520   3.962  1.00 20.00     0.228 C 
HETATM    5  N7  UNL     1     -31.344   8.549   3.315  1.00 20.00    -0.254 NA
HETATM    6  N8  UNL     1     -33.195   7.285   3.399  1.00 20.00    -0.286 N 
HETATM    7  O9  UNL     1     -35.074   6.036   3.231  1.00 20.00    -0.273 OA
ENDROOT
BRANCH   4   8
HETATM    8  C6  UNL     1     -34.174   6.367   5.451  1.00 20.00     0.099 C 
HETATM    9  C5  UNL     1     -34.613   4.976   5.850  1.00 20.00     0.014 C 
ENDBRANCH   4   8
TORSDOF 1
ENDMDL
MODEL 4
REMARK VINA RESULT:      -4.4      1.893      3.987
REMARK  1 active torsions:
REMARK  status: ('A' for Active; 'I' for Inactive)
REMARK    1  A    between atoms: C4_4  and  C6_6 
REMARK       I    between atoms: C4_4  and  N8_8 
ROOT
HETATM    1  C1  UNL     1     -34.746   5.841   5.736  1.00 20.00     0.135 A 
HETATM    2  C2  UNL     1     -34.448   5.664   4.406  1.00 20.00     0.120 A 
HETATM    3  C3  UNL     1     -33.383   7.392   5.244  1.00 20.00     0.216 A 
HETATM    4  C4  UNL     1     -32.954   6.939   2.854  1.00 20.00     0.228 C 
HETATM    5  N7  UNL     1     -34.080   6.917   6.252  1.00 20.00    -0.254 NA
HETATM    6  N8  UNL     1     -33.564   6.669   4.083  1.00 20.00    -0.286 N 
HETATM    7  O9  UNL     1     -33.197   6.218   1.897  1.00 20.00    -0.273 OA
ENDROOT
BRANCH   4   8
HETATM    8  C6  UNL     1     -32.033   8.119   2.832  1.00 20.00     0.099 C 
HETATM    9  C5  UNL     1     -32.072   8.791   1.477  1.00 20.00     0.014 C 
ENDBRANCH   4   8
TORSDOF 1
ENDMDL
MODEL 5
REMARK VINA RESULT:      -4.0     11.749     12.433
REMARK  1 active torsions:
REMARK  status: ('A' for Active; 'I' for Inactive)
REMARK    1  A    between atoms: C4_4  and  C6_6 
REMARK       I    between atoms: C4_4  and  N8_8 
ROOT
HETATM    1  C1  UNL     1     -35.182  13.173  -6.735  1.00 20.00     0.135 A 
HETATM    2  C2  UNL     1     -34.374  14.270  -6.548  1.00 20.00     0.120 A 
HETATM    3  C3  UNL     1     -35.506  13.786  -4.729  1.00 20.00     0.216 A 
HETATM    4  C4  UNL     1     -34.003  15.739  -4.556  1.00 20.00     0.228 C 
HETATM    5  N7  UNL     1     -35.883  12.877  -5.600  1.00 20.00    -0.254 NA
HETATM    6  N8  UNL     1     -34.582  14.670  -5.247  1.00 20.00    -0.286 N 
HETATM    7  O9  UNL     1     -33.191  16.451  -5.130  1.00 20.00    -0.273 OA
ENDROOT
BRANCH   4   8
HETATM    8  C6  UNL     1     -34.445  15.908  -3.135  1.00 20.00     0.099 C 
HETATM    9  C5  UNL     1     -33.593  16.947  -2.440  1.00 20.00     0.014 C 
ENDBRANCH   4   8
TORSDOF 1
ENDMDL
MODEL 6
REMARK VINA RESULT:      -3.8     11.456     12.036
REMARK  1 active torsions:
REMARK  status: ('A' for Active; 'I' for Inactive)
REMARK    1  A    between atoms: C4_4  and  C6_6 
REMARK       I    between atoms: C4_4  and  N8_8 
ROOT
HETATM    1  C1  UNL     1     -36.287  13.704  -5.284  1.00 20.00     0.135 A 
HETATM    2  C2  UNL     1     -36.710  14.842  -4.639  1.00 20.00     0.120 A 
HETATM    3  C3  UNL     1     -34.619  14.375  -4.156  1.00 20.00     0.216 A 
HETATM    4  C4  UNL     1     -35.532  16.398  -3.072  1.00 20.00     0.228 C 
HETATM    5  N7  UNL     1     -34.986  13.420  -4.981  1.00 20.00    -0.254 NA
HETATM    6  N8  UNL     1     -35.630  15.280  -3.906  1.00 20.00    -0.286 N 
HETATM    7  O9  UNL     1     -36.505  17.127  -2.935  1.00 20.00    -0.273 OA
ENDROOT
BRANCH   4   8
HETATM    8  C6  UNL     1     -34.204  16.600  -2.411  1.00 20.00     0.099 C 
HETATM    9  C5  UNL     1     -34.377  17.333  -1.099  1.00 20.00     0.014 C 
ENDBRANCH   4   8
TORSDOF 1
ENDMDL
MODEL 7
REMARK VINA RESULT:      -3.7     11.543     12.571
REMARK  1 active torsions:
REMARK  status: ('A' for Active; 'I' for Inactive)
REMARK    1  A    between atoms: C4_4  and  C6_6 
REMARK       I    between atoms: C4_4  and  N8_8 
ROOT
HETATM    1  C1  UNL     1     -33.633  15.865  -3.753  1.00 20.00     0.135 A 
HETATM    2  C2  UNL     1     -34.453  14.769  -3.878  1.00 20.00     0.120 A 
HETATM    3  C3  UNL     1     -33.874  15.565  -5.840  1.00 20.00     0.216 A 
HETATM    4  C4  UNL     1     -35.353  13.588  -5.892  1.00 20.00     0.228 C 
HETATM    5  N7  UNL     1     -33.276  16.355  -4.977  1.00 20.00    -0.254 NA
HETATM    6  N8  UNL     1     -34.612  14.572  -5.231  1.00 20.00    -0.286 N 
HETATM    7  O9  UNL     1     -35.965  12.758  -5.234  1.00 20.00    -0.273 OA
ENDROOT
BRANCH   4   8
HETATM    8  C6  UNL     1     -35.321  13.647  -7.388  1.00 20.00     0.099 C 
HETATM    9  C5  UNL     1     -36.604  14.249  -7.918  1.00 20.00     0.014 C 
ENDBRANCH   4   8
TORSDOF 1
ENDMDL
MODEL 8
REMARK VINA RESULT:      -3.7     11.896     12.536
REMARK  1 active torsions:
REMARK  status: ('A' for Active; 'I' for Inactive)
REMARK    1  A    between atoms: C4_4  and  C6_6 
REMARK       I    between atoms: C4_4  and  N8_8 
ROOT
HETATM    1  C1  UNL     1     -32.978  15.582  -4.992  1.00 20.00     0.135 A 
HETATM    2  C2  UNL     1     -33.685  14.405  -4.919  1.00 20.00     0.120 A 
HETATM    3  C3  UNL     1     -34.911  16.028  -5.749  1.00 20.00     0.216 A 
HETATM    4  C4  UNL     1     -36.040  13.840  -5.551  1.00 20.00     0.228 C 
HETATM    5  N7  UNL     1     -33.746  16.587  -5.510  1.00 20.00    -0.254 NA
HETATM    6  N8  UNL     1     -34.940  14.691  -5.409  1.00 20.00    -0.286 N 
HETATM    7  O9  UNL     1     -35.936  12.669  -5.213  1.00 20.00    -0.273 OA
ENDROOT
BRANCH   4   8
HETATM    8  C6  UNL     1     -37.274  14.465  -6.124  1.00 20.00     0.099 C 
HETATM    9  C5  UNL     1     -38.343  14.589  -5.060  1.00 20.00     0.014 C 
ENDBRANCH   4   8
TORSDOF 1
ENDMDL
MODEL 9
REMARK VINA RESULT:      -3.6     11.495     12.552
REMARK  1 active torsions:
REMARK  status: ('A' for Active; 'I' for Inactive)
REMARK    1  A    between atoms: C4_4  and  C6_6 
REMARK       I    between atoms: C4_4  and  N8_8 
ROOT
HETATM    1  C1  UNL     1     -38.760  15.427  -4.903  1.00 20.00     0.135 A 
HETATM    2  C2  UNL     1     -37.983  14.360  -5.285  1.00 20.00     0.120 A 
HETATM    3  C3  UNL     1     -36.852  15.771  -4.040  1.00 20.00     0.216 A 
HETATM    4  C4  UNL     1     -35.592  13.791  -4.812  1.00 20.00     0.228 C 
HETATM    5  N7  UNL     1     -38.051  16.301  -4.128  1.00 20.00    -0.254 NA
HETATM    6  N8  UNL     1     -36.744  14.580  -4.727  1.00 20.00    -0.286 N 
HETATM    7  O9  UNL     1     -35.627  12.751  -5.453  1.00 20.00    -0.273 OA
ENDROOT
BRANCH   4   8
HETATM    8  C6  UNL     1     -34.393  14.315  -4.083  1.00 20.00     0.099 C 
HETATM    9  C5  UNL     1     -33.395  14.894  -5.062  1.00 20.00     0.014 C 
ENDBRANCH   4   8
TORSDOF 1
ENDMDL
