MODEL 1
REMARK VINA RESULT:      -5.3      0.000      0.000
REMARK  2 active torsions:
REMARK  status: ('A' for Active; 'I' for Inactive)
REMARK    1  A    between atoms: C3_3  and  C10_10 
REMARK    2  A    between atoms: C5_5  and  C10_10 
ROOT
HETATM    1  C1  UNL     1     -33.920   6.750   5.948  1.00 20.00    -0.023 C 
HETATM    2  C2  UNL     1     -34.157   5.717   5.129  1.00 20.00    -0.079 C 
HETATM    3  C4  UNL     1     -33.807   8.040   5.203  1.00 20.00     0.033 C 
HETATM    4  C5  UNL     1     -33.579   7.576   3.750  1.00 20.00     0.007 C 
HETATM    5  C6  UNL     1     -34.248   6.162   3.680  1.00 20.00    -0.021 C 
HETATM    6  C7  UNL     1     -34.371   4.307   5.557  1.00 20.00     0.044 C 
HETATM    7  C8  UNL     1     -35.729   6.300   3.274  1.00 20.00     0.020 C 
HETATM    8  C9  UNL     1     -33.558   5.196   2.707  1.00 20.00     0.020 C 
ENDROOT
BRANCH   4   9
HETATM    9  C10 UNL     1     -32.078   7.600   3.429  1.00 20.00     0.075 C 
BRANCH   9  10
HETATM   10  C3  UNL     1     -31.761   8.440   2.220  1.00 20.00     0.231 C 
HETATM   11  O11 UNL     1     -32.567   9.151   1.627  1.00 20.00    -0.307 OA
ENDBRANCH   9  10
ENDBRANCH   4   9
TORSDOF 2
ENDMDL
MODEL 2
REMARK VINA RESULT:      -4.2     11.570     12.414
REMARK  2 active torsions:
REMARK  status: ('A' for Active; 'I' for Inactive)
REMARK    1  A    between atoms: C3_3  and  C10_10 
REMARK    2  A    between atoms: C5_5  and  C10_10 
ROOT
HETATM    1  C1  UNL     1     -33.665  16.127  -3.010  1.00 20.00    -0.023 C 
HETATM    2  C2  UNL     1     -34.943  16.469  -2.798  1.00 20.00    -0.079 C 
HETATM    3  C4  UNL     1     -33.419  15.733  -4.429  1.00 20.00     0.033 C 
HETATM    4  C5  UNL     1     -34.842  15.468  -4.962  1.00 20.00     0.007 C 
HETATM    5  C6  UNL     1     -35.768  16.361  -4.069  1.00 20.00    -0.021 C 
HETATM    6  C7  UNL     1     -35.505  16.957  -1.508  1.00 20.00     0.044 C 
HETATM    7  C8  UNL     1     -35.922  17.758  -4.704  1.00 20.00     0.020 C 
HETATM    8  C9  UNL     1     -37.163  15.769  -3.834  1.00 20.00     0.020 C 
ENDROOT
BRANCH   4   9
HETATM    9  C10 UNL     1     -35.143  13.964  -4.906  1.00 20.00     0.075 C 
BRANCH   9  10
HETATM   10  C3  UNL     1     -35.520  13.402  -6.251  1.00 20.00     0.231 C 
HETATM   11  O11 UNL     1     -35.121  12.334  -6.704  1.00 20.00    -0.307 OA
ENDBRANCH   9  10
ENDBRANCH   4   9
TORSDOF 2
ENDMDL
MODEL 3
REMARK VINA RESULT:      -4.1     11.494     12.681
REMARK  2 active torsions:
REMARK  status: ('A' for Active; 'I' for Inactive)
REMARK    1  A    between atoms: C3_3  and  C10_10 
REMARK    2  A    between atoms: C5_5  and  C10_10 
ROOT
HETATM    1  C1  UNL     1     -36.608  17.335  -4.362  1.00 20.00    -0.023 C 
HETATM    2  C2  UNL     1     -35.565  17.802  -3.662  1.00 20.00    -0.079 C 
HETATM    3  C4  UNL     1     -36.933  15.922  -4.006  1.00 20.00     0.033 C 
HETATM    4  C5  UNL     1     -35.653  15.447  -3.289  1.00 20.00     0.007 C 
HETATM    5  C6  UNL     1     -35.022  16.755  -2.705  1.00 20.00    -0.021 C 
HETATM    6  C7  UNL     1     -35.019  19.185  -3.744  1.00 20.00     0.044 C 
HETATM    7  C8  UNL     1     -35.570  17.017  -1.289  1.00 20.00     0.020 C 
HETATM    8  C9  UNL     1     -33.489  16.732  -2.645  1.00 20.00     0.020 C 
ENDROOT
BRANCH   4   9
HETATM    9  C10 UNL     1     -34.762  14.682  -4.278  1.00 20.00     0.075 C 
BRANCH   9  10
HETATM   10  C3  UNL     1     -35.560  13.884  -5.274  1.00 20.00     0.231 C 
HETATM   11  O11 UNL     1     -35.852  12.698  -5.153  1.00 20.00    -0.307 OA
ENDBRANCH   9  10
ENDBRANCH   4   9
TORSDOF 2
ENDMDL
MODEL 4
REMARK VINA RESULT:      -4.0     11.686     12.747
REMARK  2 active torsions:
REMARK  status: ('A' for Active; 'I' for Inactive)
REMARK    1  A    between atoms: C3_3  and  C10_10 
REMARK    2  A    between atoms: C5_5  and  C10_10 
ROOT
HETATM    1  C1  UNL     1     -33.591  15.757  -3.610  1.00 20.00    -0.023 C 
HETATM    2  C2  UNL     1     -34.381  16.618  -2.955  1.00 20.00    -0.079 C 
HETATM    3  C4  UNL     1     -34.008  15.586  -5.033  1.00 20.00     0.033 C 
HETATM    4  C5  UNL     1     -35.445  16.147  -5.037  1.00 20.00     0.007 C 
HETATM    5  C6  UNL     1     -35.469  17.175  -3.857  1.00 20.00    -0.021 C 
HETATM    6  C7  UNL     1     -34.206  17.046  -1.539  1.00 20.00     0.044 C 
HETATM    7  C8  UNL     1     -35.054  18.569  -4.365  1.00 20.00     0.020 C 
HETATM    8  C9  UNL     1     -36.830  17.288  -3.159  1.00 20.00     0.020 C 
ENDROOT
BRANCH   4   9
HETATM    9  C10 UNL     1     -36.451  14.993  -4.913  1.00 20.00     0.075 C 
BRANCH   9  10
HETATM   10  C3  UNL     1     -36.014  13.765  -5.668  1.00 20.00     0.231 C 
HETATM   11  O11 UNL     1     -35.888  12.647  -5.179  1.00 20.00    -0.307 OA
ENDBRANCH   9  10
ENDBRANCH   4   9
TORSDOF 2
ENDMDL
MODEL 5
REMARK VINA RESULT:      -4.0     11.474     12.456
REMARK  2 active torsions:
REMARK  status: ('A' for Active; 'I' for Inactive)
REMARK    1  A    between atoms: C3_3  and  C10_10 
REMARK    2  A    between atoms: C5_5  and  C10_10 
ROOT
HETATM    1  C1  UNL     1     -36.185  16.008  -4.256  1.00 20.00    -0.023 C 
HETATM    2  C2  UNL     1     -35.348  15.036  -4.644  1.00 20.00    -0.079 C 
HETATM    3  C4  UNL     1     -35.478  17.309  -4.058  1.00 20.00     0.033 C 
HETATM    4  C5  UNL     1     -33.999  16.883  -3.965  1.00 20.00     0.007 C 
HETATM    5  C6  UNL     1     -33.924  15.546  -4.776  1.00 20.00    -0.021 C 
HETATM    6  C7  UNL     1     -35.742  13.638  -4.973  1.00 20.00     0.044 C 
HETATM    7  C8  UNL     1     -33.617  15.845  -6.256  1.00 20.00     0.020 C 
HETATM    8  C9  UNL     1     -32.878  14.556  -4.245  1.00 20.00     0.020 C 
ENDROOT
BRANCH   4   9
HETATM    9  C10 UNL     1     -33.585  16.772  -2.491  1.00 20.00     0.075 C 
BRANCH   9  10
HETATM   10  C3  UNL     1     -33.128  18.088  -1.921  1.00 20.00     0.231 C 
HETATM   11  O11 UNL     1     -32.113  18.250  -1.251  1.00 20.00    -0.307 OA
ENDBRANCH   9  10
ENDBRANCH   4   9
TORSDOF 2
ENDMDL
MODEL 6
REMARK VINA RESULT:      -3.9     11.193     12.568
REMARK  2 active torsions:
REMARK  status: ('A' for Active; 'I' for Inactive)
REMARK    1  A    between atoms: C3_3  and  C10_10 
REMARK    2  A    between atoms: C5_5  and  C10_10 
ROOT
HETATM    1  C1  UNL     1     -33.617  17.037  -5.398  1.00 20.00    -0.023 C 
HETATM    2  C2  UNL     1     -33.881  15.763  -5.720  1.00 20.00    -0.079 C 
HETATM    3  C4  UNL     1     -33.544  17.236  -3.920  1.00 20.00     0.033 C 
HETATM    4  C5  UNL     1     -34.235  15.972  -3.370  1.00 20.00     0.007 C 
HETATM    5  C6  UNL     1     -34.023  14.892  -4.484  1.00 20.00    -0.021 C 
HETATM    6  C7  UNL     1     -33.971  15.223  -7.105  1.00 20.00     0.044 C 
HETATM    7  C8  UNL     1     -32.706  14.131  -4.235  1.00 20.00     0.020 C 
HETATM    8  C9  UNL     1     -35.168  13.877  -4.590  1.00 20.00     0.020 C 
ENDROOT
BRANCH   4   9
HETATM    9  C10 UNL     1     -35.702  16.286  -3.042  1.00 20.00     0.075 C 
BRANCH   9  10
HETATM   10  C3  UNL     1     -35.844  17.171  -1.832  1.00 20.00     0.231 C 
HETATM   11  O11 UNL     1     -35.292  16.982  -0.753  1.00 20.00    -0.307 OA
ENDBRANCH   9  10
ENDBRANCH   4   9
TORSDOF 2
ENDMDL
MODEL 7
REMARK VINA RESULT:      -3.9     11.581     13.260
REMARK  2 active torsions:
REMARK  status: ('A' for Active; 'I' for Inactive)
REMARK    1  A    between atoms: C3_3  and  C10_10 
REMARK    2  A    between atoms: C5_5  and  C10_10 
ROOT
HETATM    1  C1  UNL     1     -34.828  14.068  -4.621  1.00 20.00    -0.023 C 
HETATM    2  C2  UNL     1     -34.266  14.919  -5.490  1.00 20.00    -0.079 C 
HETATM    3  C4  UNL     1     -36.000  13.356  -5.212  1.00 20.00     0.033 C 
HETATM    4  C5  UNL     1     -36.340  14.221  -6.442  1.00 20.00     0.007 C 
HETATM    5  C6  UNL     1     -34.985  14.905  -6.828  1.00 20.00    -0.021 C 
HETATM    6  C7  UNL     1     -33.054  15.744  -5.231  1.00 20.00     0.044 C 
HETATM    7  C8  UNL     1     -34.211  14.016  -7.820  1.00 20.00     0.020 C 
HETATM    8  C9  UNL     1     -35.147  16.302  -7.440  1.00 20.00     0.020 C 
ENDROOT
BRANCH   4   9
HETATM    9  C10 UNL     1     -37.479  15.190  -6.094  1.00 20.00     0.075 C 
BRANCH   9  10
HETATM   10  C3  UNL     1     -38.521  14.559  -5.209  1.00 20.00     0.231 C 
HETATM   11  O11 UNL     1     -38.900  15.015  -4.134  1.00 20.00    -0.307 OA
ENDBRANCH   9  10
ENDBRANCH   4   9
TORSDOF 2
ENDMDL
MODEL 8
REMARK VINA RESULT:      -3.9     11.492     12.597
REMARK  2 active torsions:
REMARK  status: ('A' for Active; 'I' for Inactive)
REMARK    1  A    between atoms: C3_3  and  C10_10 
REMARK    2  A    between atoms: C5_5  and  C10_10 
ROOT
HETATM    1  C1  UNL     1     -33.353  15.510  -5.646  1.00 20.00    -0.023 C 
HETATM    2  C2  UNL     1     -34.619  15.462  -6.083  1.00 20.00    -0.079 C 
HETATM    3  C4  UNL     1     -33.231  15.044  -4.233  1.00 20.00     0.033 C 
HETATM    4  C5  UNL     1     -34.685  15.112  -3.724  1.00 20.00     0.007 C 
HETATM    5  C6  UNL     1     -35.560  14.940  -5.011  1.00 20.00    -0.021 C 
HETATM    6  C7  UNL     1     -35.072  15.809  -7.458  1.00 20.00     0.044 C 
HETATM    7  C8  UNL     1     -35.845  13.446  -5.257  1.00 20.00     0.020 C 
HETATM    8  C9  UNL     1     -36.894  15.696  -4.960  1.00 20.00     0.020 C 
ENDROOT
BRANCH   4   9
HETATM    9  C10 UNL     1     -34.905  16.426  -2.961  1.00 20.00     0.075 C 
BRANCH   9  10
HETATM   10  C3  UNL     1     -33.644  16.934  -2.313  1.00 20.00     0.231 C 
HETATM   11  O11 UNL     1     -33.578  17.420  -1.188  1.00 20.00    -0.307 OA
ENDBRANCH   9  10
ENDBRANCH   4   9
TORSDOF 2
ENDMDL
MODEL 9
REMARK VINA RESULT:      -3.9     11.601     12.734
REMARK  2 active torsions:
REMARK  status: ('A' for Active; 'I' for Inactive)
REMARK    1  A    between atoms: C3_3  and  C10_10 
REMARK    2  A    between atoms: C5_5  and  C10_10 
ROOT
HETATM    1  C1  UNL     1     -33.437  18.293  -3.593  1.00 20.00    -0.023 C 
HETATM    2  C2  UNL     1     -34.049  17.438  -4.424  1.00 20.00    -0.079 C 
HETATM    3  C4  UNL     1     -33.251  17.712  -2.230  1.00 20.00     0.033 C 
HETATM    4  C5  UNL     1     -34.235  16.524  -2.228  1.00 20.00     0.007 C 
HETATM    5  C6  UNL     1     -34.369  16.123  -3.735  1.00 20.00    -0.021 C 
HETATM    6  C7  UNL     1     -34.339  17.690  -5.863  1.00 20.00     0.044 C 
HETATM    7  C8  UNL     1     -33.298  15.076  -4.099  1.00 20.00     0.020 C 
HETATM    8  C9  UNL     1     -35.749  15.567  -4.109  1.00 20.00     0.020 C 
ENDROOT
BRANCH   4   9
HETATM    9  C10 UNL     1     -35.547  16.942  -1.548  1.00 20.00     0.075 C 
BRANCH   9  10
HETATM   10  C3  UNL     1     -35.317  17.667  -0.249  1.00 20.00     0.231 C 
HETATM   11  O11 UNL     1     -35.749  17.309   0.843  1.00 20.00    -0.307 OA
ENDBRANCH   9  10
ENDBRANCH   4   9
TORSDOF 2
ENDMDL
