MODEL 1
REMARK VINA RESULT:      -4.3      0.000      0.000
REMARK  2 active torsions:
REMARK  status: ('A' for Active; 'I' for Inactive)
REMARK    1  A    between atoms: C2_2  and  C4_4 
REMARK    2  A    between atoms: C4_4  and  O5_5 
ROOT
HETATM    1  C1  UNL     1     -34.888   6.410   3.341  1.00 20.00     0.052 A 
HETATM    2  C2  UNL     1     -33.404   6.165   3.291  1.00 20.00     0.051 A 
HETATM    3  C3  UNL     1     -34.171   5.907   4.569  1.00 20.00     0.119 A 
HETATM    4 CL6  UNL     1     -34.016   6.996   5.939  1.00 20.00    -0.101 Cl
HETATM    5 CL7  UNL     1     -34.430   4.228   5.041  1.00 20.00    -0.101 Cl
ENDROOT
BRANCH   2   6
HETATM    6  C4  UNL     1     -32.467   7.313   3.129  1.00 20.00     0.172 C 
BRANCH   6   7
HETATM    7  O5  UNL     1     -32.810   8.061   1.962  1.00 20.00    -0.400 OA
HETATM    8  H13 UNL     1     -33.215   8.884   2.274  1.00 20.00     0.209 HD
ENDBRANCH   6   7
ENDBRANCH   2   6
TORSDOF 2
ENDMDL
MODEL 2
REMARK VINA RESULT:      -4.3      2.183      2.629
REMARK  2 active torsions:
REMARK  status: ('A' for Active; 'I' for Inactive)
REMARK    1  A    between atoms: C2_2  and  C4_4 
REMARK    2  A    between atoms: C4_4  and  O5_5 
ROOT
HETATM    1  C1  UNL     1     -35.108   6.192   3.453  1.00 20.00     0.052 A 
HETATM    2  C2  UNL     1     -33.895   6.675   4.199  1.00 20.00     0.051 A 
HETATM    3  C3  UNL     1     -33.969   5.241   3.724  1.00 20.00     0.119 A 
HETATM    4 CL6  UNL     1     -34.238   3.934   4.869  1.00 20.00    -0.101 Cl
HETATM    5 CL7  UNL     1     -32.946   4.776   2.365  1.00 20.00    -0.101 Cl
ENDROOT
BRANCH   2   6
HETATM    6  C4  UNL     1     -34.008   7.058   5.636  1.00 20.00     0.172 C 
BRANCH   6   7
HETATM    7  O5  UNL     1     -32.829   7.748   6.049  1.00 20.00    -0.400 OA
HETATM    8  H13 UNL     1     -33.115   8.425   6.680  1.00 20.00     0.209 HD
ENDBRANCH   6   7
ENDBRANCH   2   6
TORSDOF 2
ENDMDL
MODEL 3
REMARK VINA RESULT:      -4.3      2.657      3.304
REMARK  2 active torsions:
REMARK  status: ('A' for Active; 'I' for Inactive)
REMARK    1  A    between atoms: C2_2  and  C4_4 
REMARK    2  A    between atoms: C4_4  and  O5_5 
ROOT
HETATM    1  C1  UNL     1     -32.907   5.524   3.044  1.00 20.00     0.052 A 
HETATM    2  C2  UNL     1     -34.317   6.048   3.035  1.00 20.00     0.051 A 
HETATM    3  C3  UNL     1     -33.163   6.986   3.310  1.00 20.00     0.119 A 
HETATM    4 CL6  UNL     1     -32.872   7.594   4.934  1.00 20.00    -0.101 Cl
HETATM    5 CL7  UNL     1     -32.728   8.139   2.048  1.00 20.00    -0.101 Cl
ENDROOT
BRANCH   2   6
HETATM    6  C4  UNL     1     -35.277   5.618   4.092  1.00 20.00     0.172 C 
BRANCH   6   7
HETATM    7  O5  UNL     1     -34.968   4.291   4.518  1.00 20.00    -0.400 OA
HETATM    8  H13 UNL     1     -34.528   4.374   5.376  1.00 20.00     0.209 HD
ENDBRANCH   6   7
ENDBRANCH   2   6
TORSDOF 2
ENDMDL
MODEL 4
REMARK VINA RESULT:      -4.2      2.784      3.512
REMARK  2 active torsions:
REMARK  status: ('A' for Active; 'I' for Inactive)
REMARK    1  A    between atoms: C2_2  and  C4_4 
REMARK    2  A    between atoms: C4_4  and  O5_5 
ROOT
HETATM    1  C1  UNL     1     -35.117   6.300   3.314  1.00 20.00     0.052 A 
HETATM    2  C2  UNL     1     -34.289   6.323   4.569  1.00 20.00     0.051 A 
HETATM    3  C3  UNL     1     -33.613   6.248   3.218  1.00 20.00     0.119 A 
HETATM    4 CL6  UNL     1     -32.871   4.751   2.672  1.00 20.00    -0.101 Cl
HETATM    5 CL7  UNL     1     -32.776   7.689   2.642  1.00 20.00    -0.101 Cl
ENDROOT
BRANCH   2   6
HETATM    6  C4  UNL     1     -34.337   5.169   5.513  1.00 20.00     0.172 C 
BRANCH   6   7
HETATM    7  O5  UNL     1     -35.228   4.171   5.015  1.00 20.00    -0.400 OA
HETATM    8  H13 UNL     1     -35.934   4.082   5.672  1.00 20.00     0.209 HD
ENDBRANCH   6   7
ENDBRANCH   2   6
TORSDOF 2
ENDMDL
MODEL 5
REMARK VINA RESULT:      -3.9      3.108      3.573
REMARK  2 active torsions:
REMARK  status: ('A' for Active; 'I' for Inactive)
REMARK    1  A    between atoms: C2_2  and  C4_4 
REMARK    2  A    between atoms: C4_4  and  O5_5 
ROOT
HETATM    1  C1  UNL     1     -32.964   6.233   2.902  1.00 20.00     0.052 A 
HETATM    2  C2  UNL     1     -33.811   7.194   3.692  1.00 20.00     0.051 A 
HETATM    3  C3  UNL     1     -32.617   7.701   2.915  1.00 20.00     0.119 A 
HETATM    4 CL6  UNL     1     -31.152   8.196   3.751  1.00 20.00    -0.101 Cl
HETATM    5 CL7  UNL     1     -32.930   8.632   1.450  1.00 20.00    -0.101 Cl
ENDROOT
BRANCH   2   6
HETATM    6  C4  UNL     1     -33.833   7.116   5.181  1.00 20.00     0.172 C 
BRANCH   6   7
HETATM    7  O5  UNL     1     -34.476   5.910   5.595  1.00 20.00    -0.400 OA
HETATM    8  H13 UNL     1     -33.784   5.236   5.650  1.00 20.00     0.209 HD
ENDBRANCH   6   7
ENDBRANCH   2   6
TORSDOF 2
ENDMDL
MODEL 6
REMARK VINA RESULT:      -3.8      1.798      2.213
REMARK  2 active torsions:
REMARK  status: ('A' for Active; 'I' for Inactive)
REMARK    1  A    between atoms: C2_2  and  C4_4 
REMARK    2  A    between atoms: C4_4  and  O5_5 
ROOT
HETATM    1  C1  UNL     1     -33.277   7.000   4.680  1.00 20.00     0.052 A 
HETATM    2  C2  UNL     1     -33.518   7.646   3.342  1.00 20.00     0.051 A 
HETATM    3  C3  UNL     1     -33.932   6.210   3.574  1.00 20.00     0.119 A 
HETATM    4 CL6  UNL     1     -33.022   4.890   2.852  1.00 20.00    -0.101 Cl
HETATM    5 CL7  UNL     1     -35.656   5.869   3.718  1.00 20.00    -0.101 Cl
ENDROOT
BRANCH   2   6
HETATM    6  C4  UNL     1     -32.362   8.024   2.480  1.00 20.00     0.172 C 
BRANCH   6   7
HETATM    7  O5  UNL     1     -31.231   8.337   3.294  1.00 20.00    -0.400 OA
HETATM    8  H13 UNL     1     -31.506   8.191   4.212  1.00 20.00     0.209 HD
ENDBRANCH   6   7
ENDBRANCH   2   6
TORSDOF 2
ENDMDL
MODEL 7
REMARK VINA RESULT:      -3.6      2.055      2.979
REMARK  2 active torsions:
REMARK  status: ('A' for Active; 'I' for Inactive)
REMARK    1  A    between atoms: C2_2  and  C4_4 
REMARK    2  A    between atoms: C4_4  and  O5_5 
ROOT
HETATM    1  C1  UNL     1     -31.455   8.054   3.512  1.00 20.00     0.052 A 
HETATM    2  C2  UNL     1     -32.591   8.646   2.725  1.00 20.00     0.051 A 
HETATM    3  C3  UNL     1     -32.784   7.343   3.468  1.00 20.00     0.119 A 
HETATM    4 CL6  UNL     1     -32.879   5.821   2.593  1.00 20.00    -0.101 Cl
HETATM    5 CL7  UNL     1     -33.780   7.372   4.923  1.00 20.00    -0.101 Cl
ENDROOT
BRANCH   2   6
HETATM    6  C4  UNL     1     -32.506   8.723   1.238  1.00 20.00     0.172 C 
BRANCH   6   7
HETATM    7  O5  UNL     1     -32.535  10.089   0.820  1.00 20.00    -0.400 OA
HETATM    8  H13 UNL     1     -31.644  10.298   0.504  1.00 20.00     0.209 HD
ENDBRANCH   6   7
ENDBRANCH   2   6
TORSDOF 2
ENDMDL
MODEL 8
REMARK VINA RESULT:      -3.6      4.272      4.864
REMARK  2 active torsions:
REMARK  status: ('A' for Active; 'I' for Inactive)
REMARK    1  A    between atoms: C2_2  and  C4_4 
REMARK    2  A    between atoms: C4_4  and  O5_5 
ROOT
HETATM    1  C1  UNL     1     -31.151   8.771   0.799  1.00 20.00     0.052 A 
HETATM    2  C2  UNL     1     -32.303   8.189   1.572  1.00 20.00     0.051 A 
HETATM    3  C3  UNL     1     -32.482   9.480   0.806  1.00 20.00     0.119 A 
HETATM    4 CL6  UNL     1     -32.596  11.015   1.655  1.00 20.00    -0.101 Cl
HETATM    5 CL7  UNL     1     -33.448   9.428  -0.669  1.00 20.00    -0.101 Cl
ENDROOT
BRANCH   2   6
HETATM    6  C4  UNL     1     -32.247   8.135   3.061  1.00 20.00     0.172 C 
BRANCH   6   7
HETATM    7  O5  UNL     1     -32.918   6.965   3.530  1.00 20.00    -0.400 OA
HETATM    8  H13 UNL     1     -32.991   6.368   2.770  1.00 20.00     0.209 HD
ENDBRANCH   6   7
ENDBRANCH   2   6
TORSDOF 2
ENDMDL
MODEL 9
REMARK VINA RESULT:      -3.5      1.774      1.811
REMARK  2 active torsions:
REMARK  status: ('A' for Active; 'I' for Inactive)
REMARK    1  A    between atoms: C2_2  and  C4_4 
REMARK    2  A    between atoms: C4_4  and  O5_5 
ROOT
HETATM    1  C1  UNL     1     -35.417   6.038   3.843  1.00 20.00     0.052 A 
HETATM    2  C2  UNL     1     -34.187   5.187   3.679  1.00 20.00     0.051 A 
HETATM    3  C3  UNL     1     -34.419   5.940   4.970  1.00 20.00     0.119 A 
HETATM    4 CL6  UNL     1     -33.467   7.365   5.357  1.00 20.00    -0.101 Cl
HETATM    5 CL7  UNL     1     -34.877   5.002   6.392  1.00 20.00    -0.101 Cl
ENDROOT
BRANCH   2   6
HETATM    6  C4  UNL     1     -33.138   5.578   2.694  1.00 20.00     0.172 C 
BRANCH   6   7
HETATM    7  O5  UNL     1     -32.646   4.417   2.022  1.00 20.00    -0.400 OA
HETATM    8  H13 UNL     1     -32.993   4.457   1.118  1.00 20.00     0.209 HD
ENDBRANCH   6   7
ENDBRANCH   2   6
TORSDOF 2
ENDMDL
