MODEL 1
REMARK VINA RESULT:      -4.9      0.000      0.000
REMARK  1 active torsions:
REMARK  status: ('A' for Active; 'I' for Inactive)
REMARK    1  A    between atoms: C11_11  and  C12_12 
ROOT
HETATM    1  C1  UNL     1     -37.793  14.376  -5.681  1.00 20.00     0.059 C 
HETATM    2  C12 UNL     1     -36.703  14.553  -6.630  1.00 20.00     0.133 C 
HETATM    3  N13 UNL     1     -38.680  14.223  -4.950  1.00 20.00    -0.197 NA
ENDROOT
BRANCH   2   4
HETATM    4  C11 UNL     1     -35.548  15.084  -5.777  1.00 20.00    -0.027 C 
HETATM    5  C5  UNL     1     -34.278  15.263  -6.643  1.00 20.00     0.015 C 
HETATM    6  C8  UNL     1     -33.115  15.797  -5.789  1.00 20.00    -0.013 C 
HETATM    7  C2  UNL     1     -33.513  17.152  -5.181  1.00 20.00     0.009 C 
HETATM    8  C3  UNL     1     -32.822  14.800  -4.655  1.00 20.00     0.009 C 
HETATM    9  C9  UNL     1     -34.763  16.988  -4.301  1.00 20.00    -0.013 C 
HETATM   10  C4  UNL     1     -34.461  15.986  -3.174  1.00 20.00     0.009 C 
HETATM   11  C6  UNL     1     -35.922  16.452  -5.159  1.00 20.00     0.015 C 
HETATM   12  C10 UNL     1     -34.068  14.624  -3.771  1.00 20.00    -0.013 C 
HETATM   13  C7  UNL     1     -35.228  14.094  -4.631  1.00 20.00     0.015 C 
ENDBRANCH   2   4
TORSDOF 1
ENDMDL
MODEL 2
REMARK VINA RESULT:      -4.9      0.018      2.086
REMARK  1 active torsions:
REMARK  status: ('A' for Active; 'I' for Inactive)
REMARK    1  A    between atoms: C11_11  and  C12_12 
ROOT
HETATM    1  C1  UNL     1     -37.797  14.370  -5.671  1.00 20.00     0.059 C 
HETATM    2  C12 UNL     1     -36.708  14.536  -6.624  1.00 20.00     0.133 C 
HETATM    3  N13 UNL     1     -38.684  14.225  -4.937  1.00 20.00    -0.197 NA
ENDROOT
BRANCH   2   4
HETATM    4  C11 UNL     1     -35.552  15.075  -5.777  1.00 20.00    -0.027 C 
HETATM    5  C5  UNL     1     -35.924  16.451  -5.175  1.00 20.00     0.015 C 
HETATM    6  C8  UNL     1     -34.764  16.996  -4.323  1.00 20.00    -0.013 C 
HETATM    7  C2  UNL     1     -34.462  16.007  -3.186  1.00 20.00     0.009 C 
HETATM    8  C3  UNL     1     -33.515  17.147  -5.208  1.00 20.00     0.009 C 
HETATM    9  C9  UNL     1     -34.072  14.637  -3.767  1.00 20.00    -0.013 C 
HETATM   10  C4  UNL     1     -32.825  14.801  -4.654  1.00 20.00     0.009 C 
HETATM   11  C6  UNL     1     -35.234  14.099  -4.620  1.00 20.00     0.015 C 
HETATM   12  C10 UNL     1     -33.119  15.784  -5.799  1.00 20.00    -0.013 C 
HETATM   13  C7  UNL     1     -34.282  15.243  -6.647  1.00 20.00     0.015 C 
ENDBRANCH   2   4
TORSDOF 1
ENDMDL
MODEL 3
REMARK VINA RESULT:      -4.9      0.015      2.096
REMARK  1 active torsions:
REMARK  status: ('A' for Active; 'I' for Inactive)
REMARK    1  A    between atoms: C11_11  and  C12_12 
ROOT
HETATM    1  C1  UNL     1     -37.796  14.377  -5.680  1.00 20.00     0.059 C 
HETATM    2  C12 UNL     1     -36.705  14.541  -6.631  1.00 20.00     0.133 C 
HETATM    3  N13 UNL     1     -38.684  14.234  -4.948  1.00 20.00    -0.197 NA
ENDROOT
BRANCH   2   4
HETATM    4  C11 UNL     1     -35.547  15.073  -5.782  1.00 20.00    -0.027 C 
HETATM    5  C5  UNL     1     -35.231  14.089  -4.630  1.00 20.00     0.015 C 
HETATM    6  C8  UNL     1     -34.068  14.620  -3.774  1.00 20.00    -0.013 C 
HETATM    7  C2  UNL     1     -32.822  14.785  -4.659  1.00 20.00     0.009 C 
HETATM    8  C3  UNL     1     -34.456  15.986  -3.184  1.00 20.00     0.009 C 
HETATM    9  C9  UNL     1     -33.112  15.776  -5.799  1.00 20.00    -0.013 C 
HETATM   10  C4  UNL     1     -33.504  17.137  -5.199  1.00 20.00     0.009 C 
HETATM   11  C6  UNL     1     -34.278  15.242  -6.650  1.00 20.00     0.015 C 
HETATM   12  C10 UNL     1     -34.755  16.983  -4.317  1.00 20.00    -0.013 C 
HETATM   13  C7  UNL     1     -35.916  16.447  -5.171  1.00 20.00     0.015 C 
ENDBRANCH   2   4
TORSDOF 1
ENDMDL
MODEL 4
REMARK VINA RESULT:      -4.8      1.663      2.021
REMARK  1 active torsions:
REMARK  status: ('A' for Active; 'I' for Inactive)
REMARK    1  A    between atoms: C11_11  and  C12_12 
ROOT
HETATM    1  C1  UNL     1     -35.799  13.208  -6.073  1.00 20.00     0.059 C 
HETATM    2  C12 UNL     1     -36.722  13.971  -5.244  1.00 20.00     0.133 C 
HETATM    3  N13 UNL     1     -35.089  12.579  -6.741  1.00 20.00    -0.197 NA
ENDROOT
BRANCH   2   4
HETATM    4  C11 UNL     1     -35.878  15.135  -4.721  1.00 20.00    -0.027 C 
HETATM    5  C5  UNL     1     -35.487  16.080  -5.882  1.00 20.00     0.015 C 
HETATM    6  C8  UNL     1     -34.638  17.252  -5.359  1.00 20.00    -0.013 C 
HETATM    7  C2  UNL     1     -35.447  18.037  -4.313  1.00 20.00     0.009 C 
HETATM    8  C3  UNL     1     -33.362  16.699  -4.703  1.00 20.00     0.009 C 
HETATM    9  C9  UNL     1     -35.827  17.116  -3.141  1.00 20.00    -0.013 C 
HETATM   10  C4  UNL     1     -34.545  16.564  -2.495  1.00 20.00     0.009 C 
HETATM   11  C6  UNL     1     -36.673  15.945  -3.670  1.00 20.00     0.015 C 
HETATM   12  C10 UNL     1     -33.731  15.772  -3.532  1.00 20.00    -0.013 C 
HETATM   13  C7  UNL     1     -34.582  14.604  -4.060  1.00 20.00     0.015 C 
ENDBRANCH   2   4
TORSDOF 1
ENDMDL
MODEL 5
REMARK VINA RESULT:      -4.8      1.661      2.419
REMARK  1 active torsions:
REMARK  status: ('A' for Active; 'I' for Inactive)
REMARK    1  A    between atoms: C11_11  and  C12_12 
ROOT
HETATM    1  C1  UNL     1     -35.804  13.207  -6.079  1.00 20.00     0.059 C 
HETATM    2  C12 UNL     1     -36.724  13.970  -5.247  1.00 20.00     0.133 C 
HETATM    3  N13 UNL     1     -35.098  12.577  -6.749  1.00 20.00    -0.197 NA
ENDROOT
BRANCH   2   4
HETATM    4  C11 UNL     1     -35.876  15.132  -4.724  1.00 20.00    -0.027 C 
HETATM    5  C5  UNL     1     -34.581  14.598  -4.066  1.00 20.00     0.015 C 
HETATM    6  C8  UNL     1     -33.725  15.764  -3.539  1.00 20.00    -0.013 C 
HETATM    7  C2  UNL     1     -33.357  16.691  -4.709  1.00 20.00     0.009 C 
HETATM    8  C3  UNL     1     -34.536  16.557  -2.500  1.00 20.00     0.009 C 
HETATM    9  C9  UNL     1     -34.633  17.246  -5.364  1.00 20.00    -0.013 C 
HETATM   10  C4  UNL     1     -35.438  18.033  -4.316  1.00 20.00     0.009 C 
HETATM   11  C6  UNL     1     -35.485  16.077  -5.886  1.00 20.00     0.015 C 
HETATM   12  C10 UNL     1     -35.817  17.113  -3.143  1.00 20.00    -0.013 C 
HETATM   13  C7  UNL     1     -36.667  15.944  -3.670  1.00 20.00     0.015 C 
ENDBRANCH   2   4
TORSDOF 1
ENDMDL
MODEL 6
REMARK VINA RESULT:      -4.8      1.659      2.956
REMARK  1 active torsions:
REMARK  status: ('A' for Active; 'I' for Inactive)
REMARK    1  A    between atoms: C11_11  and  C12_12 
ROOT
HETATM    1  C1  UNL     1     -35.806  13.210  -6.081  1.00 20.00     0.059 C 
HETATM    2  C12 UNL     1     -36.722  13.974  -5.246  1.00 20.00     0.133 C 
HETATM    3  N13 UNL     1     -35.102  12.580  -6.753  1.00 20.00    -0.197 NA
ENDROOT
BRANCH   2   4
HETATM    4  C11 UNL     1     -35.871  15.135  -4.725  1.00 20.00    -0.027 C 
HETATM    5  C5  UNL     1     -36.659  15.947  -3.669  1.00 20.00     0.015 C 
HETATM    6  C8  UNL     1     -35.805  17.115  -3.143  1.00 20.00    -0.013 C 
HETATM    7  C2  UNL     1     -34.523  16.557  -2.504  1.00 20.00     0.009 C 
HETATM    8  C3  UNL     1     -35.428  18.035  -4.317  1.00 20.00     0.009 C 
HETATM    9  C9  UNL     1     -33.717  15.762  -3.545  1.00 20.00    -0.013 C 
HETATM   10  C4  UNL     1     -33.350  16.690  -4.716  1.00 20.00     0.009 C 
HETATM   11  C6  UNL     1     -34.576  14.599  -4.070  1.00 20.00     0.015 C 
HETATM   12  C10 UNL     1     -34.627  17.248  -5.367  1.00 20.00    -0.013 C 
HETATM   13  C7  UNL     1     -35.482  16.081  -5.887  1.00 20.00     0.015 C 
ENDBRANCH   2   4
TORSDOF 1
ENDMDL
MODEL 7
REMARK VINA RESULT:      -4.7      1.615      3.204
REMARK  1 active torsions:
REMARK  status: ('A' for Active; 'I' for Inactive)
REMARK    1  A    between atoms: C11_11  and  C12_12 
ROOT
HETATM    1  C1  UNL     1     -35.442  13.891  -5.546  1.00 20.00     0.059 C 
HETATM    2  C12 UNL     1     -34.931  15.145  -6.081  1.00 20.00     0.133 C 
HETATM    3  N13 UNL     1     -35.845  12.878  -5.150  1.00 20.00    -0.197 NA
ENDROOT
BRANCH   2   4
HETATM    4  C11 UNL     1     -34.911  16.084  -4.873  1.00 20.00    -0.027 C 
HETATM    5  C5  UNL     1     -36.301  16.116  -4.193  1.00 20.00     0.015 C 
HETATM    6  C8  UNL     1     -36.284  17.059  -2.978  1.00 20.00    -0.013 C 
HETATM    7  C2  UNL     1     -35.234  16.566  -1.968  1.00 20.00     0.009 C 
HETATM    8  C3  UNL     1     -35.912  18.477  -3.443  1.00 20.00     0.009 C 
HETATM    9  C9  UNL     1     -33.842  16.547  -2.622  1.00 20.00    -0.013 C 
HETATM   10  C4  UNL     1     -33.482  17.968  -3.088  1.00 20.00     0.009 C 
HETATM   11  C6  UNL     1     -33.866  15.605  -3.838  1.00 20.00     0.015 C 
HETATM   12  C10 UNL     1     -34.523  18.469  -4.104  1.00 20.00    -0.013 C 
HETATM   13  C7  UNL     1     -34.545  17.522  -5.316  1.00 20.00     0.015 C 
ENDBRANCH   2   4
TORSDOF 1
ENDMDL
MODEL 8
REMARK VINA RESULT:      -4.7      1.597      2.521
REMARK  1 active torsions:
REMARK  status: ('A' for Active; 'I' for Inactive)
REMARK    1  A    between atoms: C11_11  and  C12_12 
ROOT
HETATM    1  C1  UNL     1     -35.289  13.840  -5.531  1.00 20.00     0.059 C 
HETATM    2  C12 UNL     1     -34.616  15.032  -6.027  1.00 20.00     0.133 C 
HETATM    3  N13 UNL     1     -35.819  12.874  -5.167  1.00 20.00    -0.197 NA
ENDROOT
BRANCH   2   4
HETATM    4  C11 UNL     1     -34.698  16.018  -4.859  1.00 20.00    -0.027 C 
HETATM    5  C5  UNL     1     -34.357  17.449  -5.339  1.00 20.00     0.015 C 
HETATM    6  C8  UNL     1     -34.439  18.443  -4.167  1.00 20.00    -0.013 C 
HETATM    7  C2  UNL     1     -35.862  18.426  -3.586  1.00 20.00     0.009 C 
HETATM    8  C3  UNL     1     -33.441  18.021  -3.076  1.00 20.00     0.009 C 
HETATM    9  C9  UNL     1     -36.210  17.014  -3.086  1.00 20.00    -0.013 C 
HETATM   10  C4  UNL     1     -35.204  16.600  -1.999  1.00 20.00     0.009 C 
HETATM   11  C6  UNL     1     -36.125  16.025  -4.260  1.00 20.00     0.015 C 
HETATM   12  C10 UNL     1     -33.776  16.608  -2.572  1.00 20.00    -0.013 C 
HETATM   13  C7  UNL     1     -33.697  15.619  -3.748  1.00 20.00     0.015 C 
ENDBRANCH   2   4
TORSDOF 1
ENDMDL
MODEL 9
REMARK VINA RESULT:      -4.6      1.745      3.560
REMARK  1 active torsions:
REMARK  status: ('A' for Active; 'I' for Inactive)
REMARK    1  A    between atoms: C11_11  and  C12_12 
ROOT
HETATM    1  C1  UNL     1     -34.648  16.560  -2.331  1.00 20.00     0.059 C 
HETATM    2  C12 UNL     1     -33.558  16.381  -3.281  1.00 20.00     0.133 C 
HETATM    3  N13 UNL     1     -35.494  16.716  -1.553  1.00 20.00    -0.197 NA
ENDROOT
BRANCH   2   4
HETATM    4  C11 UNL     1     -34.241  15.817  -4.529  1.00 20.00    -0.027 C 
HETATM    5  C5  UNL     1     -34.792  14.399  -4.246  1.00 20.00     0.015 C 
HETATM    6  C8  UNL     1     -35.480  13.830  -5.499  1.00 20.00    -0.013 C 
HETATM    7  C2  UNL     1     -36.638  14.755  -5.907  1.00 20.00     0.009 C 
HETATM    8  C3  UNL     1     -34.460  13.760  -6.648  1.00 20.00     0.009 C 
HETATM    9  C9  UNL     1     -36.106  16.165  -6.211  1.00 20.00    -0.013 C 
HETATM   10  C4  UNL     1     -35.083  16.084  -7.357  1.00 20.00     0.009 C 
HETATM   11  C6  UNL     1     -35.417  16.728  -4.956  1.00 20.00     0.015 C 
HETATM   12  C10 UNL     1     -33.916  15.165  -6.957  1.00 20.00    -0.013 C 
HETATM   13  C7  UNL     1     -33.233  15.731  -5.700  1.00 20.00     0.015 C 
ENDBRANCH   2   4
TORSDOF 1
ENDMDL
