MODEL 1
REMARK VINA RESULT:      -5.1      0.000      0.000
REMARK  1 active torsions:
REMARK  status: ('A' for Active; 'I' for Inactive)
REMARK    1  A    between atoms: C1_1  and  C10_10 
ROOT
HETATM    1  C2  UNL     1     -33.598  17.203  -5.089  1.00 20.00     0.009 C 
HETATM    2  C3  UNL     1     -32.973  14.851  -4.421  1.00 20.00     0.010 C 
HETATM    3  C4  UNL     1     -34.565  16.125  -3.024  1.00 20.00     0.010 C 
HETATM    4  C5  UNL     1     -34.381  15.107  -6.260  1.00 20.00     0.022 C 
HETATM    5  C6  UNL     1     -35.975  16.383  -4.863  1.00 20.00     0.022 C 
HETATM    6  C7  UNL     1     -33.179  15.794  -5.607  1.00 20.00    -0.013 C 
HETATM    7  C8  UNL     1     -34.838  17.123  -4.151  1.00 20.00    -0.013 C 
HETATM    8  C9  UNL     1     -34.388  14.824  -3.824  1.00 20.00     0.002 C 
HETATM    9  C10 UNL     1     -35.335  15.005  -5.062  1.00 20.00     0.024 C 
ENDROOT
BRANCH   9  10
HETATM   10  C1  UNL     1     -36.332  13.904  -5.218  1.00 20.00     0.132 C 
HETATM   11  C11 UNL     1     -37.775  14.312  -5.359  1.00 20.00     0.091 C 
HETATM   12  O12 UNL     1     -35.992  12.723  -5.232  1.00 20.00    -0.298 OA
ENDBRANCH   9  10
TORSDOF 1
ENDMDL
MODEL 2
REMARK VINA RESULT:      -5.1      0.775      1.525
REMARK  1 active torsions:
REMARK  status: ('A' for Active; 'I' for Inactive)
REMARK    1  A    between atoms: C1_1  and  C10_10 
ROOT
HETATM    1  C2  UNL     1     -33.603  17.199  -4.673  1.00 20.00     0.009 C 
HETATM    2  C3  UNL     1     -33.517  15.624  -6.642  1.00 20.00     0.010 C 
HETATM    3  C4  UNL     1     -32.902  14.791  -4.397  1.00 20.00     0.010 C 
HETATM    4  C5  UNL     1     -35.620  16.230  -5.842  1.00 20.00     0.022 C 
HETATM    5  C6  UNL     1     -35.005  15.397  -3.594  1.00 20.00     0.022 C 
HETATM    6  C7  UNL     1     -34.232  16.840  -6.052  1.00 20.00    -0.013 C 
HETATM    7  C8  UNL     1     -33.591  15.973  -3.712  1.00 20.00    -0.013 C 
HETATM    8  C9  UNL     1     -33.846  14.555  -5.588  1.00 20.00     0.002 C 
HETATM    9  C10 UNL     1     -35.258  14.969  -5.043  1.00 20.00     0.024 C 
ENDROOT
BRANCH   9  10
HETATM   10  C1  UNL     1     -36.288  13.895  -5.174  1.00 20.00     0.132 C 
HETATM   11  C11 UNL     1     -37.726  14.337  -5.213  1.00 20.00     0.091 C 
HETATM   12  O12 UNL     1     -35.976  12.708  -5.248  1.00 20.00    -0.298 OA
ENDBRANCH   9  10
TORSDOF 1
ENDMDL
MODEL 3
REMARK VINA RESULT:      -5.0      1.128      2.754
REMARK  1 active torsions:
REMARK  status: ('A' for Active; 'I' for Inactive)
REMARK    1  A    between atoms: C1_1  and  C10_10 
ROOT
HETATM    1  C2  UNL     1     -34.785  15.978  -3.070  1.00 20.00     0.009 C 
HETATM    2  C3  UNL     1     -35.928  16.639  -5.220  1.00 20.00     0.010 C 
HETATM    3  C4  UNL     1     -33.458  16.644  -5.110  1.00 20.00     0.010 C 
HETATM    4  C5  UNL     1     -35.949  14.382  -4.642  1.00 20.00     0.022 C 
HETATM    5  C6  UNL     1     -33.477  14.386  -4.531  1.00 20.00     0.022 C 
HETATM    6  C7  UNL     1     -36.033  15.757  -3.976  1.00 20.00    -0.013 C 
HETATM    7  C8  UNL     1     -33.459  15.763  -3.860  1.00 20.00    -0.013 C 
HETATM    8  C9  UNL     1     -34.661  16.067  -5.874  1.00 20.00     0.002 C 
HETATM    9  C10 UNL     1     -34.671  14.548  -5.477  1.00 20.00     0.024 C 
ENDROOT
BRANCH   9  10
HETATM   10  C1  UNL     1     -34.629  13.623  -6.649  1.00 20.00     0.132 C 
HETATM   11  C11 UNL     1     -34.027  14.165  -7.918  1.00 20.00     0.091 C 
HETATM   12  O12 UNL     1     -35.064  12.475  -6.580  1.00 20.00    -0.298 OA
ENDBRANCH   9  10
TORSDOF 1
ENDMDL
MODEL 4
REMARK VINA RESULT:      -4.9      0.805      2.310
REMARK  1 active torsions:
REMARK  status: ('A' for Active; 'I' for Inactive)
REMARK    1  A    between atoms: C1_1  and  C10_10 
ROOT
HETATM    1  C2  UNL     1     -33.707  16.615  -3.121  1.00 20.00     0.009 C 
HETATM    2  C3  UNL     1     -35.300  17.321  -4.947  1.00 20.00     0.010 C 
HETATM    3  C4  UNL     1     -33.362  15.895  -5.514  1.00 20.00     0.010 C 
HETATM    4  C5  UNL     1     -36.043  15.710  -3.436  1.00 20.00     0.022 C 
HETATM    5  C6  UNL     1     -34.102  14.282  -4.002  1.00 20.00     0.022 C 
HETATM    6  C7  UNL     1     -35.184  16.977  -3.462  1.00 20.00    -0.013 C 
HETATM    7  C8  UNL     1     -33.163  15.491  -4.052  1.00 20.00    -0.013 C 
HETATM    8  C9  UNL     1     -34.895  15.984  -5.586  1.00 20.00     0.002 C 
HETATM    9  C10 UNL     1     -35.388  14.900  -4.564  1.00 20.00     0.024 C 
ENDROOT
BRANCH   9  10
HETATM   10  C1  UNL     1     -36.318  13.895  -5.160  1.00 20.00     0.132 C 
HETATM   11  C11 UNL     1     -37.679  14.390  -5.568  1.00 20.00     0.091 C 
HETATM   12  O12 UNL     1     -35.986  12.720  -5.313  1.00 20.00    -0.298 OA
ENDBRANCH   9  10
TORSDOF 1
ENDMDL
MODEL 5
REMARK VINA RESULT:      -4.9      1.138      2.106
REMARK  1 active torsions:
REMARK  status: ('A' for Active; 'I' for Inactive)
REMARK    1  A    between atoms: C1_1  and  C10_10 
ROOT
HETATM    1  C2  UNL     1     -33.382  17.051  -4.524  1.00 20.00     0.009 C 
HETATM    2  C3  UNL     1     -35.286  15.942  -3.296  1.00 20.00     0.010 C 
HETATM    3  C4  UNL     1     -35.722  17.041  -5.466  1.00 20.00     0.010 C 
HETATM    4  C5  UNL     1     -33.712  14.557  -4.313  1.00 20.00     0.022 C 
HETATM    5  C6  UNL     1     -34.147  15.658  -6.486  1.00 20.00     0.022 C 
HETATM    6  C7  UNL     1     -33.782  15.890  -3.565  1.00 20.00    -0.013 C 
HETATM    7  C8  UNL     1     -34.235  17.037  -5.827  1.00 20.00    -0.013 C 
HETATM    8  C9  UNL     1     -35.841  15.708  -4.709  1.00 20.00     0.002 C 
HETATM    9  C10 UNL     1     -34.776  14.783  -5.396  1.00 20.00     0.024 C 
ENDROOT
BRANCH   9  10
HETATM   10  C1  UNL     1     -35.343  13.503  -5.916  1.00 20.00     0.132 C 
HETATM   11  C11 UNL     1     -35.122  13.208  -7.376  1.00 20.00     0.091 C 
HETATM   12  O12 UNL     1     -35.959  12.727  -5.188  1.00 20.00    -0.298 OA
ENDBRANCH   9  10
TORSDOF 1
ENDMDL
MODEL 6
REMARK VINA RESULT:      -4.8      0.928      1.728
REMARK  1 active torsions:
REMARK  status: ('A' for Active; 'I' for Inactive)
REMARK    1  A    between atoms: C1_1  and  C10_10 
ROOT
HETATM    1  C2  UNL     1     -33.582  17.112  -4.398  1.00 20.00     0.009 C 
HETATM    2  C3  UNL     1     -35.140  16.227  -2.622  1.00 20.00     0.010 C 
HETATM    3  C4  UNL     1     -36.074  17.480  -4.537  1.00 20.00     0.010 C 
HETATM    4  C5  UNL     1     -34.198  14.683  -4.091  1.00 20.00     0.022 C 
HETATM    5  C6  UNL     1     -35.131  15.937  -6.009  1.00 20.00     0.022 C 
HETATM    6  C7  UNL     1     -33.825  15.975  -3.360  1.00 20.00    -0.013 C 
HETATM    7  C8  UNL     1     -34.797  17.282  -5.357  1.00 20.00    -0.013 C 
HETATM    8  C9  UNL     1     -36.144  16.143  -3.782  1.00 20.00     0.002 C 
HETATM    9  C10 UNL     1     -35.505  15.110  -4.775  1.00 20.00     0.024 C 
ENDROOT
BRANCH   9  10
HETATM   10  C1  UNL     1     -36.393  13.949  -5.084  1.00 20.00     0.132 C 
HETATM   11  C11 UNL     1     -37.858  14.246  -5.260  1.00 20.00     0.091 C 
HETATM   12  O12 UNL     1     -35.948  12.808  -5.193  1.00 20.00    -0.298 OA
ENDBRANCH   9  10
TORSDOF 1
ENDMDL
MODEL 7
REMARK VINA RESULT:      -4.7      2.152      3.489
REMARK  1 active torsions:
REMARK  status: ('A' for Active; 'I' for Inactive)
REMARK    1  A    between atoms: C1_1  and  C10_10 
ROOT
HETATM    1  C2  UNL     1     -35.318  15.674  -6.033  1.00 20.00     0.009 C 
HETATM    2  C3  UNL     1     -34.622  14.081  -4.204  1.00 20.00     0.010 C 
HETATM    3  C4  UNL     1     -32.941  15.598  -5.195  1.00 20.00     0.010 C 
HETATM    4  C5  UNL     1     -35.919  15.917  -3.593  1.00 20.00     0.022 C 
HETATM    5  C6  UNL     1     -34.237  17.437  -4.585  1.00 20.00     0.022 C 
HETATM    6  C7  UNL     1     -35.777  14.922  -4.747  1.00 20.00    -0.013 C 
HETATM    7  C8  UNL     1     -34.025  16.504  -5.781  1.00 20.00    -0.013 C 
HETATM    8  C9  UNL     1     -33.598  15.176  -3.870  1.00 20.00     0.002 C 
HETATM    9  C10 UNL     1     -34.473  16.415  -3.467  1.00 20.00     0.024 C 
ENDROOT
BRANCH   9  10
HETATM   10  C1  UNL     1     -34.167  16.945  -2.105  1.00 20.00     0.132 C 
HETATM   11  C11 UNL     1     -35.305  16.978  -1.120  1.00 20.00     0.091 C 
HETATM   12  O12 UNL     1     -33.040  17.333  -1.801  1.00 20.00    -0.298 OA
ENDBRANCH   9  10
TORSDOF 1
ENDMDL
MODEL 8
REMARK VINA RESULT:      -4.6      1.790      3.423
REMARK  1 active torsions:
REMARK  status: ('A' for Active; 'I' for Inactive)
REMARK    1  A    between atoms: C1_1  and  C10_10 
ROOT
HETATM    1  C2  UNL     1     -34.600  15.675  -6.429  1.00 20.00     0.009 C 
HETATM    2  C3  UNL     1     -35.266  14.097  -4.576  1.00 20.00     0.010 C 
HETATM    3  C4  UNL     1     -32.903  14.792  -4.785  1.00 20.00     0.010 C 
HETATM    4  C5  UNL     1     -35.904  16.328  -4.368  1.00 20.00     0.022 C 
HETATM    5  C6  UNL     1     -33.539  17.026  -4.578  1.00 20.00     0.022 C 
HETATM    6  C7  UNL     1     -35.739  15.258  -5.451  1.00 20.00    -0.013 C 
HETATM    7  C8  UNL     1     -33.276  15.983  -5.669  1.00 20.00    -0.013 C 
HETATM    8  C9  UNL     1     -34.101  14.758  -3.822  1.00 20.00     0.002 C 
HETATM    9  C10 UNL     1     -34.528  16.262  -3.691  1.00 20.00     0.024 C 
ENDROOT
BRANCH   9  10
HETATM   10  C1  UNL     1     -34.561  16.753  -2.281  1.00 20.00     0.132 C 
HETATM   11  C11 UNL     1     -33.320  17.437  -1.772  1.00 20.00     0.091 C 
HETATM   12  O12 UNL     1     -35.555  16.608  -1.571  1.00 20.00    -0.298 OA
ENDBRANCH   9  10
TORSDOF 1
ENDMDL
MODEL 9
REMARK VINA RESULT:      -4.5      1.077      2.045
REMARK  1 active torsions:
REMARK  status: ('A' for Active; 'I' for Inactive)
REMARK    1  A    between atoms: C1_1  and  C10_10 
ROOT
HETATM    1  C2  UNL     1     -33.025  15.311  -5.073  1.00 20.00     0.009 C 
HETATM    2  C3  UNL     1     -34.755  15.842  -3.315  1.00 20.00     0.010 C 
HETATM    3  C4  UNL     1     -34.679  17.189  -5.386  1.00 20.00     0.010 C 
HETATM    4  C5  UNL     1     -35.068  13.912  -4.582  1.00 20.00     0.022 C 
HETATM    5  C6  UNL     1     -34.991  15.259  -6.656  1.00 20.00     0.022 C 
HETATM    6  C7  UNL     1     -33.932  14.722  -3.952  1.00 20.00    -0.013 C 
HETATM    7  C8  UNL     1     -33.852  16.126  -6.111  1.00 20.00    -0.013 C 
HETATM    8  C9  UNL     1     -35.591  16.307  -4.517  1.00 20.00     0.002 C 
HETATM    9  C10 UNL     1     -35.794  15.008  -5.374  1.00 20.00     0.024 C 
ENDROOT
BRANCH   9  10
HETATM   10  C1  UNL     1     -37.228  14.677  -5.627  1.00 20.00     0.132 C 
HETATM   11  C11 UNL     1     -37.921  15.454  -6.714  1.00 20.00     0.091 C 
HETATM   12  O12 UNL     1     -37.813  13.810  -4.980  1.00 20.00    -0.298 OA
ENDBRANCH   9  10
TORSDOF 1
ENDMDL
