MODEL 1
REMARK VINA RESULT:      -5.0      0.000      0.000
REMARK  1 active torsions:
REMARK  status: ('A' for Active; 'I' for Inactive)
REMARK    1  A    between atoms: C5_5  and  C6_6 
ROOT
HETATM    1  C1  UNL     1     -33.702   7.367   6.079  1.00 20.00     0.014 C 
HETATM    2  C2  UNL     1     -33.967   6.628   5.171  1.00 20.00    -0.091 C 
HETATM    3  C4  UNL     1     -34.334   4.271   4.576  1.00 20.00     0.046 C 
HETATM    4  C6  UNL     1     -34.290   5.714   4.060  1.00 20.00     0.095 C 
HETATM    5 CL7  UNL     1     -35.935   6.144   3.481  1.00 20.00    -0.105 Cl
ENDROOT
BRANCH   4   6
HETATM    6  C5  UNL     1     -33.264   5.828   2.914  1.00 20.00     0.034 C 
HETATM    7  C3  UNL     1     -32.765   7.238   2.607  1.00 20.00     0.008 C 
ENDBRANCH   4   6
TORSDOF 1
ENDMDL
MODEL 2
REMARK VINA RESULT:      -4.7      1.357      2.718
REMARK  1 active torsions:
REMARK  status: ('A' for Active; 'I' for Inactive)
REMARK    1  A    between atoms: C5_5  and  C6_6 
ROOT
HETATM    1  C1  UNL     1     -32.500   7.254   2.814  1.00 20.00     0.014 C 
HETATM    2  C2  UNL     1     -33.298   6.597   3.424  1.00 20.00    -0.091 C 
HETATM    3  C4  UNL     1     -35.683   6.026   3.589  1.00 20.00     0.046 C 
HETATM    4  C6  UNL     1     -34.284   5.793   4.170  1.00 20.00     0.095 C 
HETATM    5 CL7  UNL     1     -33.861   4.066   3.918  1.00 20.00    -0.105 Cl
ENDROOT
BRANCH   4   6
HETATM    6  C5  UNL     1     -34.278   6.140   5.674  1.00 20.00     0.034 C 
HETATM    7  C3  UNL     1     -33.643   7.478   6.044  1.00 20.00     0.008 C 
ENDBRANCH   4   6
TORSDOF 1
ENDMDL
MODEL 3
REMARK VINA RESULT:      -4.4      1.553      2.976
REMARK  1 active torsions:
REMARK  status: ('A' for Active; 'I' for Inactive)
REMARK    1  A    between atoms: C5_5  and  C6_6 
ROOT
HETATM    1  C1  UNL     1     -32.862   4.541   2.270  1.00 20.00     0.014 C 
HETATM    2  C2  UNL     1     -33.504   5.116   3.106  1.00 20.00    -0.091 C 
HETATM    3  C4  UNL     1     -35.692   6.135   3.573  1.00 20.00     0.046 C 
HETATM    4  C6  UNL     1     -34.296   5.826   4.127  1.00 20.00     0.095 C 
HETATM    5 CL7  UNL     1     -34.488   4.709   5.520  1.00 20.00    -0.105 Cl
ENDROOT
BRANCH   4   6
HETATM    6  C5  UNL     1     -33.609   7.134   4.571  1.00 20.00     0.034 C 
HETATM    7  C3  UNL     1     -33.632   7.420   6.071  1.00 20.00     0.008 C 
ENDBRANCH   4   6
TORSDOF 1
ENDMDL
MODEL 4
REMARK VINA RESULT:      -4.2      1.561      2.348
REMARK  1 active torsions:
REMARK  status: ('A' for Active; 'I' for Inactive)
REMARK    1  A    between atoms: C5_5  and  C6_6 
ROOT
HETATM    1  C1  UNL     1     -33.726   7.340   6.001  1.00 20.00     0.014 C 
HETATM    2  C2  UNL     1     -33.804   6.896   4.889  1.00 20.00    -0.091 C 
HETATM    3  C4  UNL     1     -35.353   6.459   3.032  1.00 20.00     0.046 C 
HETATM    4  C6  UNL     1     -33.906   6.348   3.524  1.00 20.00     0.095 C 
HETATM    5 CL7  UNL     1     -32.881   7.374   2.463  1.00 20.00    -0.105 Cl
ENDROOT
BRANCH   4   6
HETATM    6  C5  UNL     1     -33.445   4.877   3.465  1.00 20.00     0.034 C 
HETATM    7  C3  UNL     1     -34.157   3.920   4.419  1.00 20.00     0.008 C 
ENDBRANCH   4   6
TORSDOF 1
ENDMDL
MODEL 5
REMARK VINA RESULT:      -4.0      0.938      2.037
REMARK  1 active torsions:
REMARK  status: ('A' for Active; 'I' for Inactive)
REMARK    1  A    between atoms: C5_5  and  C6_6 
ROOT
HETATM    1  C1  UNL     1     -32.564   7.759   3.173  1.00 20.00     0.014 C 
HETATM    2  C2  UNL     1     -33.312   6.938   3.628  1.00 20.00    -0.091 C 
HETATM    3  C4  UNL     1     -34.315   6.111   5.714  1.00 20.00     0.046 C 
HETATM    4  C6  UNL     1     -34.228   5.930   4.195  1.00 20.00     0.095 C 
HETATM    5 CL7  UNL     1     -35.856   6.247   3.506  1.00 20.00    -0.105 Cl
ENDROOT
BRANCH   4   6
HETATM    6  C5  UNL     1     -33.768   4.495   3.864  1.00 20.00     0.034 C 
HETATM    7  C3  UNL     1     -33.013   4.326   2.548  1.00 20.00     0.008 C 
ENDBRANCH   4   6
TORSDOF 1
ENDMDL
MODEL 6
REMARK VINA RESULT:      -3.8      0.954      2.988
REMARK  1 active torsions:
REMARK  status: ('A' for Active; 'I' for Inactive)
REMARK    1  A    between atoms: C5_5  and  C6_6 
ROOT
HETATM    1  C1  UNL     1     -32.914   4.307   2.544  1.00 20.00     0.014 C 
HETATM    2  C2  UNL     1     -33.485   5.189   3.125  1.00 20.00    -0.091 C 
HETATM    3  C4  UNL     1     -33.606   7.628   3.400  1.00 20.00     0.046 C 
HETATM    4  C6  UNL     1     -34.182   6.276   3.837  1.00 20.00     0.095 C 
HETATM    5 CL7  UNL     1     -35.905   6.221   3.333  1.00 20.00    -0.105 Cl
ENDROOT
BRANCH   4   6
HETATM    6  C5  UNL     1     -34.057   6.125   5.367  1.00 20.00     0.034 C 
HETATM    7  C3  UNL     1     -33.649   7.384   6.128  1.00 20.00     0.008 C 
ENDBRANCH   4   6
TORSDOF 1
ENDMDL
MODEL 7
REMARK VINA RESULT:      -3.8      1.656      2.401
REMARK  1 active torsions:
REMARK  status: ('A' for Active; 'I' for Inactive)
REMARK    1  A    between atoms: C5_5  and  C6_6 
ROOT
HETATM    1  C1  UNL     1     -33.975   3.575   4.438  1.00 20.00     0.014 C 
HETATM    2  C2  UNL     1     -34.043   4.747   4.187  1.00 20.00    -0.091 C 
HETATM    3  C4  UNL     1     -35.544   6.518   3.379  1.00 20.00     0.046 C 
HETATM    4  C6  UNL     1     -34.132   6.185   3.874  1.00 20.00     0.095 C 
HETATM    5 CL7  UNL     1     -33.859   7.080   5.408  1.00 20.00    -0.105 Cl
ENDROOT
BRANCH   4   6
HETATM    6  C5  UNL     1     -33.094   6.601   2.811  1.00 20.00     0.034 C 
HETATM    7  C3  UNL     1     -32.230   7.809   3.163  1.00 20.00     0.008 C 
ENDBRANCH   4   6
TORSDOF 1
ENDMDL
MODEL 8
REMARK VINA RESULT:      -3.7      2.080      2.790
REMARK  1 active torsions:
REMARK  status: ('A' for Active; 'I' for Inactive)
REMARK    1  A    between atoms: C5_5  and  C6_6 
ROOT
HETATM    1  C1  UNL     1     -33.857   7.280   5.752  1.00 20.00     0.014 C 
HETATM    2  C2  UNL     1     -33.341   7.339   4.670  1.00 20.00    -0.091 C 
HETATM    3  C4  UNL     1     -31.254   7.892   3.495  1.00 20.00     0.046 C 
HETATM    4  C6  UNL     1     -32.703   7.418   3.342  1.00 20.00     0.095 C 
HETATM    5 CL7  UNL     1     -32.673   5.753   2.670  1.00 20.00    -0.105 Cl
ENDROOT
BRANCH   4   6
HETATM    6  C5  UNL     1     -33.468   8.370   2.400  1.00 20.00     0.034 C 
HETATM    7  C3  UNL     1     -32.603   9.233   1.483  1.00 20.00     0.008 C 
ENDBRANCH   4   6
TORSDOF 1
ENDMDL
MODEL 9
REMARK VINA RESULT:      -3.7      1.939      3.477
REMARK  1 active torsions:
REMARK  status: ('A' for Active; 'I' for Inactive)
REMARK    1  A    between atoms: C5_5  and  C6_6 
ROOT
HETATM    1  C1  UNL     1     -32.931   4.865   2.588  1.00 20.00     0.014 C 
HETATM    2  C2  UNL     1     -32.943   6.033   2.868  1.00 20.00    -0.091 C 
HETATM    3  C4  UNL     1     -31.570   7.878   3.735  1.00 20.00     0.046 C 
HETATM    4  C6  UNL     1     -32.952   7.465   3.217  1.00 20.00     0.095 C 
HETATM    5 CL7  UNL     1     -33.271   8.378   1.703  1.00 20.00    -0.105 Cl
ENDROOT
BRANCH   4   6
HETATM    6  C5  UNL     1     -34.025   7.785   4.280  1.00 20.00     0.034 C 
HETATM    7  C3  UNL     1     -33.758   7.234   5.679  1.00 20.00     0.008 C 
ENDBRANCH   4   6
TORSDOF 1
ENDMDL
