MODEL 1
REMARK VINA RESULT:      -4.4      0.000      0.000
REMARK  0 active torsions:
REMARK  status: ('A' for Active; 'I' for Inactive)
ROOT
HETATM    1  C1  UNL     1     -35.416  14.488  -4.806  1.00 20.00    -0.080 C 
HETATM    2  C2  UNL     1     -36.234  13.543  -5.282  1.00 20.00     0.015 C 
HETATM    3  C3  UNL     1     -34.141  14.212  -4.038  1.00 20.00     0.039 C 
HETATM    4  C4  UNL     1     -34.608  16.275  -2.726  1.00 20.00     0.007 C 
HETATM    5  C5  UNL     1     -35.902  16.511  -3.530  1.00 20.00     0.015 C 
HETATM    6  C6  UNL     1     -33.655  15.656  -3.777  1.00 20.00    -0.002 C 
HETATM    7  C7  UNL     1     -35.530  16.010  -4.951  1.00 20.00    -0.014 C 
HETATM    8  C8  UNL     1     -34.029  16.410  -5.084  1.00 20.00    -0.033 C 
HETATM    9  C9  UNL     1     -36.462  16.532  -6.032  1.00 20.00     0.021 C 
HETATM   10  C10 UNL     1     -33.740  17.925  -5.030  1.00 20.00     0.016 C 
HETATM   11  C11 UNL     1     -33.319  15.880  -6.349  1.00 20.00     0.016 C 
ENDROOT
TORSDOF 0
ENDMDL
MODEL 2
REMARK VINA RESULT:      -4.3      0.946      2.529
REMARK  0 active torsions:
REMARK  status: ('A' for Active; 'I' for Inactive)
ROOT
HETATM    1  C1  UNL     1     -34.312  14.663  -6.531  1.00 20.00    -0.080 C 
HETATM    2  C2  UNL     1     -34.271  13.837  -7.581  1.00 20.00     0.015 C 
HETATM    3  C3  UNL     1     -33.494  15.930  -6.403  1.00 20.00     0.039 C 
HETATM    4  C4  UNL     1     -33.371  15.480  -3.957  1.00 20.00     0.007 C 
HETATM    5  C5  UNL     1     -34.202  14.194  -4.138  1.00 20.00     0.015 C 
HETATM    6  C6  UNL     1     -33.971  16.432  -5.020  1.00 20.00    -0.002 C 
HETATM    7  C7  UNL     1     -35.188  14.569  -5.276  1.00 20.00    -0.014 C 
HETATM    8  C8  UNL     1     -35.484  16.075  -5.004  1.00 20.00    -0.033 C 
HETATM    9  C9  UNL     1     -36.397  13.650  -5.346  1.00 20.00     0.021 C 
HETATM   10  C10 UNL     1     -36.179  16.382  -3.661  1.00 20.00     0.016 C 
HETATM   11  C11 UNL     1     -36.316  16.786  -6.093  1.00 20.00     0.016 C 
ENDROOT
TORSDOF 0
ENDMDL
MODEL 3
REMARK VINA RESULT:      -4.3      1.118      3.165
REMARK  0 active torsions:
REMARK  status: ('A' for Active; 'I' for Inactive)
ROOT
HETATM    1  C1  UNL     1     -35.112  15.881  -3.898  1.00 20.00    -0.080 C 
HETATM    2  C2  UNL     1     -34.781  16.306  -2.674  1.00 20.00     0.015 C 
HETATM    3  C3  UNL     1     -36.247  16.448  -4.725  1.00 20.00     0.039 C 
HETATM    4  C4  UNL     1     -36.599  14.153  -5.624  1.00 20.00     0.007 C 
HETATM    5  C5  UNL     1     -35.440  13.620  -4.758  1.00 20.00     0.015 C 
HETATM    6  C6  UNL     1     -36.125  15.578  -5.998  1.00 20.00    -0.002 C 
HETATM    7  C7  UNL     1     -34.434  14.802  -4.750  1.00 20.00    -0.014 C 
HETATM    8  C8  UNL     1     -34.590  15.407  -6.178  1.00 20.00    -0.033 C 
HETATM    9  C9  UNL     1     -33.029  14.387  -4.346  1.00 20.00     0.021 C 
HETATM   10  C10 UNL     1     -34.203  14.469  -7.341  1.00 20.00     0.016 C 
HETATM   11  C11 UNL     1     -33.827  16.728  -6.417  1.00 20.00     0.016 C 
ENDROOT
TORSDOF 0
ENDMDL
MODEL 4
REMARK VINA RESULT:      -4.3      1.123      2.296
REMARK  0 active torsions:
REMARK  status: ('A' for Active; 'I' for Inactive)
ROOT
HETATM    1  C1  UNL     1     -35.136  15.516  -6.078  1.00 20.00    -0.080 C 
HETATM    2  C2  UNL     1     -36.120  15.366  -6.971  1.00 20.00     0.015 C 
HETATM    3  C3  UNL     1     -33.688  15.781  -6.431  1.00 20.00     0.039 C 
HETATM    4  C4  UNL     1     -33.062  14.426  -4.439  1.00 20.00     0.007 C 
HETATM    5  C5  UNL     1     -34.551  14.178  -4.122  1.00 20.00     0.015 C 
HETATM    6  C6  UNL     1     -33.066  15.861  -5.018  1.00 20.00    -0.002 C 
HETATM    7  C7  UNL     1     -35.228  15.508  -4.548  1.00 20.00    -0.014 C 
HETATM    8  C8  UNL     1     -34.158  16.581  -4.178  1.00 20.00    -0.033 C 
HETATM    9  C9  UNL     1     -36.607  15.698  -3.938  1.00 20.00     0.021 C 
HETATM   10  C10 UNL     1     -33.817  16.687  -2.677  1.00 20.00     0.016 C 
HETATM   11  C11 UNL     1     -34.480  18.016  -4.650  1.00 20.00     0.016 C 
ENDROOT
TORSDOF 0
ENDMDL
MODEL 5
REMARK VINA RESULT:      -4.3      1.240      2.562
REMARK  0 active torsions:
REMARK  status: ('A' for Active; 'I' for Inactive)
ROOT
HETATM    1  C1  UNL     1     -34.549  14.640  -6.685  1.00 20.00    -0.080 C 
HETATM    2  C2  UNL     1     -34.033  14.613  -7.918  1.00 20.00     0.015 C 
HETATM    3  C3  UNL     1     -35.152  13.443  -5.979  1.00 20.00     0.039 C 
HETATM    4  C4  UNL     1     -36.760  15.014  -4.910  1.00 20.00     0.007 C 
HETATM    5  C5  UNL     1     -36.118  16.202  -5.656  1.00 20.00     0.015 C 
HETATM    6  C6  UNL     1     -35.552  14.087  -4.631  1.00 20.00    -0.002 C 
HETATM    7  C7  UNL     1     -34.615  15.816  -5.704  1.00 20.00    -0.014 C 
HETATM    8  C8  UNL     1     -34.395  15.084  -4.344  1.00 20.00    -0.033 C 
HETATM    9  C9  UNL     1     -33.703  17.000  -5.984  1.00 20.00     0.021 C 
HETATM   10  C10 UNL     1     -34.618  15.946  -3.084  1.00 20.00     0.016 C 
HETATM   11  C11 UNL     1     -33.011  14.421  -4.174  1.00 20.00     0.016 C 
ENDROOT
TORSDOF 0
ENDMDL
MODEL 6
REMARK VINA RESULT:      -4.2      1.131      2.812
REMARK  0 active torsions:
REMARK  status: ('A' for Active; 'I' for Inactive)
ROOT
HETATM    1  C1  UNL     1     -35.491  16.143  -4.383  1.00 20.00    -0.080 C 
HETATM    2  C2  UNL     1     -36.379  16.992  -3.856  1.00 20.00     0.015 C 
HETATM    3  C3  UNL     1     -34.570  15.253  -3.574  1.00 20.00     0.039 C 
HETATM    4  C4  UNL     1     -32.869  15.562  -5.366  1.00 20.00     0.007 C 
HETATM    5  C5  UNL     1     -33.839  16.468  -6.150  1.00 20.00     0.015 C 
HETATM    6  C6  UNL     1     -33.816  14.526  -4.712  1.00 20.00    -0.002 C 
HETATM    7  C7  UNL     1     -35.226  15.834  -5.860  1.00 20.00    -0.014 C 
HETATM    8  C8  UNL     1     -34.909  14.308  -5.795  1.00 20.00    -0.033 C 
HETATM    9  C9  UNL     1     -36.295  16.255  -6.855  1.00 20.00     0.021 C 
HETATM   10  C10 UNL     1     -34.372  13.687  -7.101  1.00 20.00     0.016 C 
HETATM   11  C11 UNL     1     -36.084  13.414  -5.342  1.00 20.00     0.016 C 
ENDROOT
TORSDOF 0
ENDMDL
MODEL 7
REMARK VINA RESULT:      -4.2      1.569      3.568
REMARK  0 active torsions:
REMARK  status: ('A' for Active; 'I' for Inactive)
ROOT
HETATM    1  C1  UNL     1     -34.096  14.565  -5.141  1.00 20.00    -0.080 C 
HETATM    2  C2  UNL     1     -33.037  14.822  -4.366  1.00 20.00     0.015 C 
HETATM    3  C3  UNL     1     -35.240  13.651  -4.756  1.00 20.00     0.039 C 
HETATM    4  C4  UNL     1     -35.399  13.010  -7.156  1.00 20.00     0.007 C 
HETATM    5  C5  UNL     1     -34.225  13.949  -7.499  1.00 20.00     0.015 C 
HETATM    6  C6  UNL     1     -36.126  13.766  -6.018  1.00 20.00    -0.002 C 
HETATM    7  C7  UNL     1     -34.429  15.138  -6.523  1.00 20.00    -0.014 C 
HETATM    8  C8  UNL     1     -35.981  15.257  -6.432  1.00 20.00    -0.033 C 
HETATM    9  C9  UNL     1     -33.683  16.393  -6.946  1.00 20.00     0.021 C 
HETATM   10  C10 UNL     1     -36.697  15.607  -7.753  1.00 20.00     0.016 C 
HETATM   11  C11 UNL     1     -36.500  16.263  -5.381  1.00 20.00     0.016 C 
ENDROOT
TORSDOF 0
ENDMDL
MODEL 8
REMARK VINA RESULT:      -4.1      1.070      2.870
REMARK  0 active torsions:
REMARK  status: ('A' for Active; 'I' for Inactive)
ROOT
HETATM    1  C1  UNL     1     -34.671  15.794  -3.833  1.00 20.00    -0.080 C 
HETATM    2  C2  UNL     1     -34.830  16.291  -2.602  1.00 20.00     0.015 C 
HETATM    3  C3  UNL     1     -33.791  14.610  -4.174  1.00 20.00     0.039 C 
HETATM    4  C4  UNL     1     -33.303  15.730  -6.343  1.00 20.00     0.007 C 
HETATM    5  C5  UNL     1     -34.204  16.917  -5.949  1.00 20.00     0.015 C 
HETATM    6  C6  UNL     1     -34.024  14.520  -5.700  1.00 20.00    -0.002 C 
HETATM    7  C7  UNL     1     -35.341  16.242  -5.137  1.00 20.00    -0.014 C 
HETATM    8  C8  UNL     1     -35.528  14.874  -5.862  1.00 20.00    -0.033 C 
HETATM    9  C9  UNL     1     -36.582  17.110  -5.011  1.00 20.00     0.021 C 
HETATM   10  C10 UNL     1     -35.990  14.962  -7.332  1.00 20.00     0.016 C 
HETATM   11  C11 UNL     1     -36.492  13.890  -5.165  1.00 20.00     0.016 C 
ENDROOT
TORSDOF 0
ENDMDL
MODEL 9
REMARK VINA RESULT:      -4.1      1.383      3.049
REMARK  0 active torsions:
REMARK  status: ('A' for Active; 'I' for Inactive)
ROOT
HETATM    1  C1  UNL     1     -35.061  16.647  -4.728  1.00 20.00    -0.080 C 
HETATM    2  C2  UNL     1     -35.366  17.937  -4.547  1.00 20.00     0.015 C 
HETATM    3  C3  UNL     1     -35.424  15.535  -3.767  1.00 20.00     0.039 C 
HETATM    4  C4  UNL     1     -33.285  14.431  -4.398  1.00 20.00     0.007 C 
HETATM    5  C5  UNL     1     -32.954  15.590  -5.361  1.00 20.00     0.015 C 
HETATM    6  C6  UNL     1     -34.825  14.319  -4.508  1.00 20.00    -0.002 C 
HETATM    7  C7  UNL     1     -34.345  15.994  -5.916  1.00 20.00    -0.014 C 
HETATM    8  C8  UNL     1     -35.098  14.632  -6.006  1.00 20.00    -0.033 C 
HETATM    9  C9  UNL     1     -34.264  16.802  -7.201  1.00 20.00     0.021 C 
HETATM   10  C10 UNL     1     -34.487  13.600  -6.977  1.00 20.00     0.016 C 
HETATM   11  C11 UNL     1     -36.595  14.734  -6.371  1.00 20.00     0.016 C 
ENDROOT
TORSDOF 0
ENDMDL
