MODEL 1
REMARK VINA RESULT:      -4.1      0.000      0.000
REMARK  2 active torsions:
REMARK  status: ('A' for Active; 'I' for Inactive)
REMARK    1  A    between atoms: C1_1  and  C7_7 
REMARK    2  A    between atoms: C7_7  and  S10_10 
ROOT
HETATM    1  C1  UNL     1     -35.869  15.233  -4.378  1.00 20.00     0.009 A 
HETATM    2  C2  UNL     1     -34.918  14.225  -4.614  1.00 20.00     0.068 A 
HETATM    3  C3  UNL     1     -37.059  14.639  -4.706  1.00 20.00     0.084 A 
HETATM    4  C4  UNL     1     -33.459  14.296  -4.431  1.00 20.00     0.073 C 
HETATM    5  C5  UNL     1     -38.457  15.090  -4.707  1.00 20.00     0.079 C 
HETATM    6  N8  UNL     1     -35.475  13.094  -5.055  1.00 20.00    -0.133 NA
HETATM    7  O9  UNL     1     -36.837  13.363  -5.113  1.00 20.00    -0.217 OA
ENDROOT
BRANCH   1   8
HETATM    8  C7  UNL     1     -35.641  16.634  -3.881  1.00 20.00     0.116 C 
BRANCH   8   9
HETATM    9  S10 UNL     1     -35.431  16.696  -2.086  1.00 20.00    -0.169 SA
HETATM   10  C6  UNL     1     -33.678  17.135  -2.035  1.00 20.00     0.090 C 
ENDBRANCH   8   9
ENDBRANCH   1   8
TORSDOF 2
ENDMDL
MODEL 2
REMARK VINA RESULT:      -4.0      0.695      2.559
REMARK  2 active torsions:
REMARK  status: ('A' for Active; 'I' for Inactive)
REMARK    1  A    between atoms: C1_1  and  C7_7 
REMARK    2  A    between atoms: C7_7  and  S10_10 
ROOT
HETATM    1  C1  UNL     1     -35.624  15.204  -4.385  1.00 20.00     0.009 A 
HETATM    2  C2  UNL     1     -36.746  14.455  -4.778  1.00 20.00     0.068 A 
HETATM    3  C3  UNL     1     -34.576  14.344  -4.579  1.00 20.00     0.084 A 
HETATM    4  C4  UNL     1     -38.158  14.872  -4.784  1.00 20.00     0.073 C 
HETATM    5  C5  UNL     1     -33.124  14.446  -4.382  1.00 20.00     0.079 C 
HETATM    6  N8  UNL     1     -36.419  13.225  -5.185  1.00 20.00    -0.133 NA
HETATM    7  O9  UNL     1     -35.037  13.160  -5.056  1.00 20.00    -0.217 OA
ENDROOT
BRANCH   1   8
HETATM    8  C7  UNL     1     -35.578  16.617  -3.871  1.00 20.00     0.116 C 
BRANCH   8   9
HETATM    9  S10 UNL     1     -35.436  16.684  -2.070  1.00 20.00    -0.169 SA
HETATM   10  C6  UNL     1     -33.699  17.174  -1.955  1.00 20.00     0.090 C 
ENDBRANCH   8   9
ENDBRANCH   1   8
TORSDOF 2
ENDMDL
MODEL 3
REMARK VINA RESULT:      -3.9     11.373     12.036
REMARK  2 active torsions:
REMARK  status: ('A' for Active; 'I' for Inactive)
REMARK    1  A    between atoms: C1_1  and  C7_7 
REMARK    2  A    between atoms: C7_7  and  S10_10 
ROOT
HETATM    1  C1  UNL     1     -33.158   6.543   3.822  1.00 20.00     0.009 A 
HETATM    2  C2  UNL     1     -33.882   6.576   5.027  1.00 20.00     0.068 A 
HETATM    3  C3  UNL     1     -33.527   5.352   3.255  1.00 20.00     0.084 A 
HETATM    4  C4  UNL     1     -33.882   7.629   6.056  1.00 20.00     0.073 C 
HETATM    5  C5  UNL     1     -33.171   4.664   2.007  1.00 20.00     0.079 C 
HETATM    6  N8  UNL     1     -34.640   5.489   5.194  1.00 20.00    -0.133 NA
HETATM    7  O9  UNL     1     -34.410   4.713   4.064  1.00 20.00    -0.217 OA
ENDROOT
BRANCH   1   8
HETATM    8  C7  UNL     1     -32.204   7.570   3.279  1.00 20.00     0.116 C 
BRANCH   8   9
HETATM    9  S10 UNL     1     -32.916   8.503   1.903  1.00 20.00    -0.169 SA
HETATM   10  C6  UNL     1     -31.414   8.727   0.923  1.00 20.00     0.090 C 
ENDBRANCH   8   9
ENDBRANCH   1   8
TORSDOF 2
ENDMDL
MODEL 4
REMARK VINA RESULT:      -3.8     11.356     11.973
REMARK  2 active torsions:
REMARK  status: ('A' for Active; 'I' for Inactive)
REMARK    1  A    between atoms: C1_1  and  C7_7 
REMARK    2  A    between atoms: C7_7  and  S10_10 
ROOT
HETATM    1  C1  UNL     1     -33.151   6.602   3.863  1.00 20.00     0.009 A 
HETATM    2  C2  UNL     1     -33.589   5.375   3.336  1.00 20.00     0.068 A 
HETATM    3  C3  UNL     1     -33.825   6.704   5.052  1.00 20.00     0.084 A 
HETATM    4  C4  UNL     1     -33.195   4.741   2.067  1.00 20.00     0.073 C 
HETATM    5  C5  UNL     1     -33.861   7.711   6.120  1.00 20.00     0.079 C 
HETATM    6  N8  UNL     1     -34.467   4.763   4.136  1.00 20.00    -0.133 NA
HETATM    7  O9  UNL     1     -34.614   5.613   5.225  1.00 20.00    -0.217 OA
ENDROOT
BRANCH   1   8
HETATM    8  C7  UNL     1     -32.173   7.577   3.269  1.00 20.00     0.116 C 
BRANCH   8   9
HETATM    9  S10 UNL     1     -32.903   8.545   1.928  1.00 20.00    -0.169 SA
HETATM   10  C6  UNL     1     -31.435   8.712   0.885  1.00 20.00     0.090 C 
ENDBRANCH   8   9
ENDBRANCH   1   8
TORSDOF 2
ENDMDL
MODEL 5
REMARK VINA RESULT:      -3.8      2.699      3.748
REMARK  2 active torsions:
REMARK  status: ('A' for Active; 'I' for Inactive)
REMARK    1  A    between atoms: C1_1  and  C7_7 
REMARK    2  A    between atoms: C7_7  and  S10_10 
ROOT
HETATM    1  C1  UNL     1     -34.377  14.735  -6.167  1.00 20.00     0.009 A 
HETATM    2  C2  UNL     1     -35.204  13.668  -6.557  1.00 20.00     0.068 A 
HETATM    3  C3  UNL     1     -34.254  14.573  -4.813  1.00 20.00     0.084 A 
HETATM    4  C4  UNL     1     -35.677  13.335  -7.911  1.00 20.00     0.073 C 
HETATM    5  C5  UNL     1     -33.546  15.311  -3.758  1.00 20.00     0.079 C 
HETATM    6  N8  UNL     1     -35.566  12.903  -5.524  1.00 20.00    -0.133 NA
HETATM    7  O9  UNL     1     -34.960  13.484  -4.416  1.00 20.00    -0.217 OA
ENDROOT
BRANCH   1   8
HETATM    8  C7  UNL     1     -33.766  15.806  -7.029  1.00 20.00     0.116 C 
BRANCH   8   9
HETATM    9  S10 UNL     1     -34.558  17.412  -6.786  1.00 20.00    -0.169 SA
HETATM   10  C6  UNL     1     -36.085  17.102  -7.704  1.00 20.00     0.090 C 
ENDBRANCH   8   9
ENDBRANCH   1   8
TORSDOF 2
ENDMDL
MODEL 6
REMARK VINA RESULT:      -3.7      1.495      2.876
REMARK  2 active torsions:
REMARK  status: ('A' for Active; 'I' for Inactive)
REMARK    1  A    between atoms: C1_1  and  C7_7 
REMARK    2  A    between atoms: C7_7  and  S10_10 
ROOT
HETATM    1  C1  UNL     1     -35.734  15.139  -4.414  1.00 20.00     0.009 A 
HETATM    2  C2  UNL     1     -36.813  14.361  -4.868  1.00 20.00     0.068 A 
HETATM    3  C3  UNL     1     -34.648  14.322  -4.591  1.00 20.00     0.084 A 
HETATM    4  C4  UNL     1     -38.238  14.729  -4.915  1.00 20.00     0.073 C 
HETATM    5  C5  UNL     1     -33.209  14.470  -4.337  1.00 20.00     0.079 C 
HETATM    6  N8  UNL     1     -36.427  13.155  -5.293  1.00 20.00    -0.133 NA
HETATM    7  O9  UNL     1     -35.049  13.135  -5.114  1.00 20.00    -0.217 OA
ENDROOT
BRANCH   1   8
HETATM    8  C7  UNL     1     -35.758  16.538  -3.864  1.00 20.00     0.116 C 
BRANCH   8   9
HETATM    9  S10 UNL     1     -35.310  17.769  -5.110  1.00 20.00    -0.169 SA
HETATM   10  C6  UNL     1     -33.651  18.169  -4.510  1.00 20.00     0.090 C 
ENDBRANCH   8   9
ENDBRANCH   1   8
TORSDOF 2
ENDMDL
MODEL 7
REMARK VINA RESULT:      -3.7     11.369     12.061
REMARK  2 active torsions:
REMARK  status: ('A' for Active; 'I' for Inactive)
REMARK    1  A    between atoms: C1_1  and  C7_7 
REMARK    2  A    between atoms: C7_7  and  S10_10 
ROOT
HETATM    1  C1  UNL     1     -33.079   7.292   3.393  1.00 20.00     0.009 A 
HETATM    2  C2  UNL     1     -32.088   8.099   2.807  1.00 20.00     0.068 A 
HETATM    3  C3  UNL     1     -33.007   7.607   4.725  1.00 20.00     0.084 A 
HETATM    4  C4  UNL     1     -31.711   8.183   1.386  1.00 20.00     0.073 C 
HETATM    5  C5  UNL     1     -33.734   7.156   5.919  1.00 20.00     0.079 C 
HETATM    6  N8  UNL     1     -31.451   8.855   3.705  1.00 20.00    -0.133 NA
HETATM    7  O9  UNL     1     -32.039   8.538   4.924  1.00 20.00    -0.217 OA
ENDROOT
BRANCH   1   8
HETATM    8  C7  UNL     1     -34.003   6.314   2.723  1.00 20.00     0.116 C 
BRANCH   8   9
HETATM    9  S10 UNL     1     -33.378   4.619   2.803  1.00 20.00    -0.169 SA
HETATM   10  C6  UNL     1     -34.251   4.080   4.292  1.00 20.00     0.090 C 
ENDBRANCH   8   9
ENDBRANCH   1   8
TORSDOF 2
ENDMDL
MODEL 8
REMARK VINA RESULT:      -3.7      5.778      7.341
REMARK  2 active torsions:
REMARK  status: ('A' for Active; 'I' for Inactive)
REMARK    1  A    between atoms: C1_1  and  C7_7 
REMARK    2  A    between atoms: C7_7  and  S10_10 
ROOT
HETATM    1  C1  UNL     1     -32.920  18.874   0.671  1.00 20.00     0.009 A 
HETATM    2  C2  UNL     1     -32.312  18.432  -0.516  1.00 20.00     0.068 A 
HETATM    3  C3  UNL     1     -31.897  18.870   1.581  1.00 20.00     0.084 A 
HETATM    4  C4  UNL     1     -32.935  18.240  -1.837  1.00 20.00     0.073 C 
HETATM    5  C5  UNL     1     -31.798  19.209   3.007  1.00 20.00     0.079 C 
HETATM    6  N8  UNL     1     -31.012  18.174  -0.355  1.00 20.00    -0.133 NA
HETATM    7  O9  UNL     1     -30.752  18.453   0.981  1.00 20.00    -0.217 OA
ENDROOT
BRANCH   1   8
HETATM    8  C7  UNL     1     -34.356  19.262   0.897  1.00 20.00     0.116 C 
BRANCH   8   9
HETATM    9  S10 UNL     1     -35.439  17.821   1.033  1.00 20.00    -0.169 SA
HETATM   10  C6  UNL     1     -36.571  18.205  -0.325  1.00 20.00     0.090 C 
ENDBRANCH   8   9
ENDBRANCH   1   8
TORSDOF 2
ENDMDL
MODEL 9
REMARK VINA RESULT:      -3.6     11.340     12.111
REMARK  2 active torsions:
REMARK  status: ('A' for Active; 'I' for Inactive)
REMARK    1  A    between atoms: C1_1  and  C7_7 
REMARK    2  A    between atoms: C7_7  and  S10_10 
ROOT
HETATM    1  C1  UNL     1     -33.075   7.316   3.358  1.00 20.00     0.009 A 
HETATM    2  C2  UNL     1     -32.949   7.680   4.709  1.00 20.00     0.068 A 
HETATM    3  C3  UNL     1     -32.137   8.088   2.725  1.00 20.00     0.084 A 
HETATM    4  C4  UNL     1     -33.709   7.167   5.861  1.00 20.00     0.073 C 
HETATM    5  C5  UNL     1     -31.715   8.236   1.326  1.00 20.00     0.079 C 
HETATM    6  N8  UNL     1     -32.006   8.607   4.900  1.00 20.00    -0.133 NA
HETATM    7  O9  UNL     1     -31.494   8.864   3.634  1.00 20.00    -0.217 OA
ENDROOT
BRANCH   1   8
HETATM    8  C7  UNL     1     -34.014   6.314   2.745  1.00 20.00     0.116 C 
BRANCH   8   9
HETATM    9  S10 UNL     1     -33.369   4.627   2.838  1.00 20.00    -0.169 SA
HETATM   10  C6  UNL     1     -34.250   4.084   4.321  1.00 20.00     0.090 C 
ENDBRANCH   8   9
ENDBRANCH   1   8
TORSDOF 2
ENDMDL
