MODEL 1
REMARK VINA RESULT:      -5.4      0.000      0.000
REMARK  1 active torsions:
REMARK  status: ('A' for Active; 'I' for Inactive)
REMARK    1  A    between atoms: C5_5  and  C7_7 
ROOT
HETATM    1  C1  UNL     1     -33.730   6.922   5.305  1.00 20.00     0.010 C 
HETATM    2  C2  UNL     1     -34.605   5.637   5.421  1.00 20.00    -0.004 A 
HETATM    3  C3  UNL     1     -33.469   6.946   3.769  1.00 20.00    -0.004 A 
HETATM    4  C4  UNL     1     -35.397   5.500   4.135  1.00 20.00    -0.000 A 
HETATM    5  C5  UNL     1     -34.163   4.678   4.331  1.00 20.00    -0.000 A 
HETATM    6  C6  UNL     1     -34.675   6.331   3.085  1.00 20.00    -0.000 A 
HETATM    7  C7  UNL     1     -33.441   5.508   3.282  1.00 20.00    -0.000 A 
ENDROOT
TORSDOF 1
ENDMDL
MODEL 2
REMARK VINA RESULT:      -5.4      0.013      2.059
REMARK  1 active torsions:
REMARK  status: ('A' for Active; 'I' for Inactive)
REMARK    1  A    between atoms: C5_5  and  C7_7 
ROOT
HETATM    1  C1  UNL     1     -33.740   6.912   5.319  1.00 20.00     0.010 C 
HETATM    2  C2  UNL     1     -33.474   6.950   3.784  1.00 20.00    -0.004 A 
HETATM    3  C3  UNL     1     -34.612   5.625   5.421  1.00 20.00    -0.004 A 
HETATM    4  C4  UNL     1     -33.442   5.518   3.285  1.00 20.00    -0.000 A 
HETATM    5  C5  UNL     1     -34.677   6.339   3.091  1.00 20.00    -0.000 A 
HETATM    6  C6  UNL     1     -34.166   4.676   4.324  1.00 20.00    -0.000 A 
HETATM    7  C7  UNL     1     -35.401   5.497   4.130  1.00 20.00    -0.000 A 
ENDROOT
TORSDOF 1
ENDMDL
MODEL 3
REMARK VINA RESULT:      -5.1      0.710      1.885
REMARK  1 active torsions:
REMARK  status: ('A' for Active; 'I' for Inactive)
REMARK    1  A    between atoms: C5_5  and  C7_7 
ROOT
HETATM    1  C1  UNL     1     -33.908   4.043   4.234  1.00 20.00     0.010 C 
HETATM    2  C2  UNL     1     -34.781   5.121   4.945  1.00 20.00    -0.004 A 
HETATM    3  C3  UNL     1     -33.350   4.877   3.041  1.00 20.00    -0.004 A 
HETATM    4  C4  UNL     1     -34.129   6.471   4.713  1.00 20.00    -0.000 A 
HETATM    5  C5  UNL     1     -35.304   6.067   3.881  1.00 20.00    -0.000 A 
HETATM    6  C6  UNL     1     -33.221   6.316   3.503  1.00 20.00    -0.000 A 
HETATM    7  C7  UNL     1     -34.396   5.912   2.671  1.00 20.00    -0.000 A 
ENDROOT
TORSDOF 1
ENDMDL
MODEL 4
REMARK VINA RESULT:      -5.1      0.697      2.264
REMARK  1 active torsions:
REMARK  status: ('A' for Active; 'I' for Inactive)
REMARK    1  A    between atoms: C5_5  and  C7_7 
ROOT
HETATM    1  C1  UNL     1     -33.911   4.063   4.215  1.00 20.00     0.010 C 
HETATM    2  C2  UNL     1     -33.352   4.913   3.033  1.00 20.00    -0.004 A 
HETATM    3  C3  UNL     1     -34.792   5.129   4.934  1.00 20.00    -0.004 A 
HETATM    4  C4  UNL     1     -34.402   5.947   2.671  1.00 20.00    -0.000 A 
HETATM    5  C5  UNL     1     -33.232   6.347   3.512  1.00 20.00    -0.000 A 
HETATM    6  C6  UNL     1     -35.316   6.084   3.879  1.00 20.00    -0.000 A 
HETATM    7  C7  UNL     1     -34.145   6.485   4.719  1.00 20.00    -0.000 A 
ENDROOT
TORSDOF 1
ENDMDL
MODEL 5
REMARK VINA RESULT:      -5.0      0.582      1.850
REMARK  1 active torsions:
REMARK  status: ('A' for Active; 'I' for Inactive)
REMARK    1  A    between atoms: C5_5  and  C7_7 
ROOT
HETATM    1  C1  UNL     1     -33.269   4.639   3.229  1.00 20.00     0.010 C 
HETATM    2  C2  UNL     1     -34.389   4.545   4.309  1.00 20.00    -0.004 A 
HETATM    3  C3  UNL     1     -33.235   6.179   2.995  1.00 20.00    -0.004 A 
HETATM    4  C4  UNL     1     -34.342   5.816   5.136  1.00 20.00    -0.000 A 
HETATM    5  C5  UNL     1     -35.369   5.675   4.058  1.00 20.00    -0.000 A 
HETATM    6  C6  UNL     1     -33.610   6.855   4.301  1.00 20.00    -0.000 A 
HETATM    7  C7  UNL     1     -34.637   6.713   3.223  1.00 20.00    -0.000 A 
ENDROOT
TORSDOF 1
ENDMDL
MODEL 6
REMARK VINA RESULT:      -4.0     16.014     16.947
REMARK  1 active torsions:
REMARK  status: ('A' for Active; 'I' for Inactive)
REMARK    1  A    between atoms: C5_5  and  C7_7 
ROOT
HETATM    1  C1  UNL     1     -25.584  17.130  11.621  1.00 20.00     0.010 C 
HETATM    2  C2  UNL     1     -24.323  16.610  10.867  1.00 20.00    -0.004 A 
HETATM    3  C3  UNL     1     -25.410  18.666  11.432  1.00 20.00    -0.004 A 
HETATM    4  C4  UNL     1     -24.018  17.586   9.747  1.00 20.00    -0.000 A 
HETATM    5  C5  UNL     1     -23.232  17.653  11.018  1.00 20.00    -0.000 A 
HETATM    6  C6  UNL     1     -24.708  18.893  10.106  1.00 20.00    -0.000 A 
HETATM    7  C7  UNL     1     -23.921  18.960  11.377  1.00 20.00    -0.000 A 
ENDROOT
TORSDOF 1
ENDMDL
MODEL 7
REMARK VINA RESULT:      -4.0     16.016     16.974
REMARK  1 active torsions:
REMARK  status: ('A' for Active; 'I' for Inactive)
REMARK    1  A    between atoms: C5_5  and  C7_7 
ROOT
HETATM    1  C1  UNL     1     -25.584  17.129  11.627  1.00 20.00     0.010 C 
HETATM    2  C2  UNL     1     -25.407  18.667  11.437  1.00 20.00    -0.004 A 
HETATM    3  C3  UNL     1     -24.326  16.607  10.872  1.00 20.00    -0.004 A 
HETATM    4  C4  UNL     1     -23.920  18.957  11.378  1.00 20.00    -0.000 A 
HETATM    5  C5  UNL     1     -24.709  18.891  10.109  1.00 20.00    -0.000 A 
HETATM    6  C6  UNL     1     -23.232  17.649  11.018  1.00 20.00    -0.000 A 
HETATM    7  C7  UNL     1     -24.022  17.583   9.749  1.00 20.00    -0.000 A 
ENDROOT
TORSDOF 1
ENDMDL
MODEL 8
REMARK VINA RESULT:      -3.7      8.173      9.257
REMARK  1 active torsions:
REMARK  status: ('A' for Active; 'I' for Inactive)
REMARK    1  A    between atoms: C5_5  and  C7_7 
ROOT
HETATM    1  C1  UNL     1     -41.199   7.726  -0.702  1.00 20.00     0.010 C 
HETATM    2  C2  UNL     1     -42.732   7.781  -0.424  1.00 20.00    -0.004 A 
HETATM    3  C3  UNL     1     -40.896   6.248  -0.310  1.00 20.00    -0.004 A 
HETATM    4  C4  UNL     1     -43.300   6.399  -0.689  1.00 20.00    -0.000 A 
HETATM    5  C5  UNL     1     -43.028   6.828   0.719  1.00 20.00    -0.000 A 
HETATM    6  C6  UNL     1     -42.133   5.425  -0.616  1.00 20.00    -0.000 A 
HETATM    7  C7  UNL     1     -41.863   5.854   0.792  1.00 20.00    -0.000 A 
ENDROOT
TORSDOF 1
ENDMDL
MODEL 9
REMARK VINA RESULT:      -3.7      8.174      9.261
REMARK  1 active torsions:
REMARK  status: ('A' for Active; 'I' for Inactive)
REMARK    1  A    between atoms: C5_5  and  C7_7 
ROOT
HETATM    1  C1  UNL     1     -41.200   7.730  -0.707  1.00 20.00     0.010 C 
HETATM    2  C2  UNL     1     -40.895   6.253  -0.313  1.00 20.00    -0.004 A 
HETATM    3  C3  UNL     1     -42.732   7.784  -0.425  1.00 20.00    -0.004 A 
HETATM    4  C4  UNL     1     -41.858   5.860   0.791  1.00 20.00    -0.000 A 
HETATM    5  C5  UNL     1     -42.132   5.429  -0.615  1.00 20.00    -0.000 A 
HETATM    6  C6  UNL     1     -43.025   6.832   0.719  1.00 20.00    -0.000 A 
HETATM    7  C7  UNL     1     -43.299   6.400  -0.687  1.00 20.00    -0.000 A 
ENDROOT
TORSDOF 1
ENDMDL
