MODEL 1
REMARK VINA RESULT:      -6.2      0.000      0.000
REMARK  2 active torsions:
REMARK  status: ('A' for Active; 'I' for Inactive)
REMARK    1  A    between atoms: C1_1  and  C6_6 
REMARK    2  A    between atoms: C7_7  and  C9_9 
ROOT
HETATM    1  C2  UNL     1     -34.428   7.238   4.676  1.00 20.00     0.015 C 
HETATM    2  C3  UNL     1     -34.230   5.757   2.606  1.00 20.00     0.015 C 
HETATM    3  C4  UNL     1     -32.918   7.475   4.632  1.00 20.00     0.005 C 
HETATM    4  C5  UNL     1     -32.722   6.008   2.592  1.00 20.00     0.005 C 
HETATM    5  C6  UNL     1     -34.869   5.957   3.978  1.00 20.00     0.087 C 
HETATM    6  C7  UNL     1     -32.326   7.348   3.224  1.00 20.00    -0.015 C 
ENDROOT
BRANCH   5   7
HETATM    7  C1  UNL     1     -34.534   4.761   4.854  1.00 20.00     0.177 C 
HETATM    8  O10 UNL     1     -34.314   3.684   4.235  1.00 20.00    -0.648 OA
HETATM    9  O11 UNL     1     -34.519   5.000   6.094  1.00 20.00    -0.648 OA
ENDBRANCH   5   7
BRANCH   6  10
HETATM   10  C9  UNL     1     -32.715   8.533   2.335  1.00 20.00     0.000 C 
HETATM   11  C8  UNL     1     -31.764   8.702   1.195  1.00 20.00     0.005 C 
ENDBRANCH   6  10
TORSDOF 2
ENDMDL
MODEL 2
REMARK VINA RESULT:      -4.8     11.348     12.711
REMARK  2 active torsions:
REMARK  status: ('A' for Active; 'I' for Inactive)
REMARK    1  A    between atoms: C1_1  and  C6_6 
REMARK    2  A    between atoms: C7_7  and  C9_9 
ROOT
HETATM    1  C2  UNL     1     -35.683  14.212  -4.879  1.00 20.00     0.015 C 
HETATM    2  C3  UNL     1     -34.425  15.890  -6.335  1.00 20.00     0.015 C 
HETATM    3  C4  UNL     1     -34.474  14.141  -3.944  1.00 20.00     0.005 C 
HETATM    4  C5  UNL     1     -33.231  15.793  -5.385  1.00 20.00     0.005 C 
HETATM    5  C6  UNL     1     -35.339  14.669  -6.292  1.00 20.00     0.087 C 
HETATM    6  C7  UNL     1     -33.626  15.417  -3.952  1.00 20.00    -0.015 C 
ENDROOT
BRANCH   5   7
HETATM    7  C1  UNL     1     -34.672  13.529  -7.045  1.00 20.00     0.177 C 
HETATM    8  O10 UNL     1     -35.040  12.371  -6.707  1.00 20.00    -0.648 OA
HETATM    9  O11 UNL     1     -33.832  13.891  -7.917  1.00 20.00    -0.648 OA
ENDBRANCH   5   7
BRANCH   6  10
HETATM   10  C9  UNL     1     -34.333  16.573  -3.237  1.00 20.00     0.000 C 
HETATM   11  C8  UNL     1     -33.505  17.118  -2.119  1.00 20.00     0.005 C 
ENDBRANCH   6  10
TORSDOF 2
ENDMDL
MODEL 3
REMARK VINA RESULT:      -4.7     11.471     12.283
REMARK  2 active torsions:
REMARK  status: ('A' for Active; 'I' for Inactive)
REMARK    1  A    between atoms: C1_1  and  C6_6 
REMARK    2  A    between atoms: C7_7  and  C9_9 
ROOT
HETATM    1  C2  UNL     1     -36.404  16.173  -4.636  1.00 20.00     0.015 C 
HETATM    2  C3  UNL     1     -34.379  14.829  -5.416  1.00 20.00     0.015 C 
HETATM    3  C4  UNL     1     -35.890  16.083  -3.198  1.00 20.00     0.005 C 
HETATM    4  C5  UNL     1     -33.894  14.751  -3.969  1.00 20.00     0.005 C 
HETATM    5  C6  UNL     1     -35.880  15.067  -5.545  1.00 20.00     0.087 C 
HETATM    6  C7  UNL     1     -34.369  15.928  -3.107  1.00 20.00    -0.015 C 
ENDROOT
BRANCH   5   7
HETATM    7  C1  UNL     1     -36.610  13.769  -5.238  1.00 20.00     0.177 C 
HETATM    8  O10 UNL     1     -35.906  12.725  -5.306  1.00 20.00    -0.648 OA
HETATM    9  O11 UNL     1     -37.833  13.905  -4.951  1.00 20.00    -0.648 OA
ENDBRANCH   5   7
BRANCH   6  10
HETATM   10  C9  UNL     1     -33.643  17.227  -3.471  1.00 20.00     0.000 C 
HETATM   11  C8  UNL     1     -33.200  17.971  -2.254  1.00 20.00     0.005 C 
ENDBRANCH   6  10
TORSDOF 2
ENDMDL
MODEL 4
REMARK VINA RESULT:      -4.6      2.599      4.124
REMARK  2 active torsions:
REMARK  status: ('A' for Active; 'I' for Inactive)
REMARK    1  A    between atoms: C1_1  and  C6_6 
REMARK    2  A    between atoms: C7_7  and  C9_9 
ROOT
HETATM    1  C2  UNL     1     -32.503   7.722   4.527  1.00 20.00     0.015 C 
HETATM    2  C3  UNL     1     -32.867   6.072   2.613  1.00 20.00     0.015 C 
HETATM    3  C4  UNL     1     -34.012   7.743   4.776  1.00 20.00     0.005 C 
HETATM    4  C5  UNL     1     -34.371   6.119   2.882  1.00 20.00     0.005 C 
HETATM    5  C6  UNL     1     -32.120   7.306   3.112  1.00 20.00     0.087 C 
HETATM    6  C7  UNL     1     -34.716   6.453   4.338  1.00 20.00    -0.015 C 
ENDROOT
BRANCH   5   7
HETATM    7  C1  UNL     1     -32.383   8.458   2.156  1.00 20.00     0.177 C 
HETATM    8  O10 UNL     1     -32.951   8.143   1.074  1.00 20.00    -0.648 OA
HETATM    9  O11 UNL     1     -31.997   9.588   2.570  1.00 20.00    -0.648 OA
ENDBRANCH   5   7
BRANCH   6  10
HETATM   10  C9  UNL     1     -34.400   5.286   5.279  1.00 20.00     0.000 C 
HETATM   11  C8  UNL     1     -34.331   3.988   4.543  1.00 20.00     0.005 C 
ENDBRANCH   6  10
TORSDOF 2
ENDMDL
MODEL 5
REMARK VINA RESULT:      -4.4     11.453     12.450
REMARK  2 active torsions:
REMARK  status: ('A' for Active; 'I' for Inactive)
REMARK    1  A    between atoms: C1_1  and  C6_6 
REMARK    2  A    between atoms: C7_7  and  C9_9 
ROOT
HETATM    1  C2  UNL     1     -34.370  13.961  -4.134  1.00 20.00     0.015 C 
HETATM    2  C3  UNL     1     -36.721  14.850  -4.583  1.00 20.00     0.015 C 
HETATM    3  C4  UNL     1     -33.826  15.386  -4.253  1.00 20.00     0.005 C 
HETATM    4  C5  UNL     1     -36.146  16.262  -4.702  1.00 20.00     0.005 C 
HETATM    5  C6  UNL     1     -35.698  13.750  -4.852  1.00 20.00     0.087 C 
HETATM    6  C7  UNL     1     -34.857  16.461  -3.894  1.00 20.00    -0.015 C 
ENDROOT
BRANCH   5   7
HETATM    7  C1  UNL     1     -35.456  13.661  -6.350  1.00 20.00     0.177 C 
HETATM    8  O10 UNL     1     -34.331  13.201  -6.688  1.00 20.00    -0.648 OA
HETATM    9  O11 UNL     1     -36.417  14.060  -7.066  1.00 20.00    -0.648 OA
ENDBRANCH   5   7
BRANCH   6  10
HETATM   10  C9  UNL     1     -35.133  16.504  -2.388  1.00 20.00     0.000 C 
HETATM   11  C8  UNL     1     -33.996  17.115  -1.637  1.00 20.00     0.005 C 
ENDBRANCH   6  10
TORSDOF 2
ENDMDL
MODEL 6
REMARK VINA RESULT:      -4.3     11.695     13.087
REMARK  2 active torsions:
REMARK  status: ('A' for Active; 'I' for Inactive)
REMARK    1  A    between atoms: C1_1  and  C6_6 
REMARK    2  A    between atoms: C7_7  and  C9_9 
ROOT
HETATM    1  C2  UNL     1     -33.789  16.862  -5.529  1.00 20.00     0.015 C 
HETATM    2  C3  UNL     1     -33.234  14.570  -4.554  1.00 20.00     0.015 C 
HETATM    3  C4  UNL     1     -35.124  16.839  -4.783  1.00 20.00     0.005 C 
HETATM    4  C5  UNL     1     -34.577  14.573  -3.825  1.00 20.00     0.005 C 
HETATM    5  C6  UNL     1     -33.202  15.478  -5.779  1.00 20.00     0.087 C 
HETATM    6  C7  UNL     1     -35.093  15.983  -3.512  1.00 20.00    -0.015 C 
ENDROOT
BRANCH   5   7
HETATM    7  C1  UNL     1     -33.960  14.803  -6.911  1.00 20.00     0.177 C 
HETATM    8  O10 UNL     1     -34.155  13.565  -6.765  1.00 20.00    -0.648 OA
HETATM    9  O11 UNL     1     -34.298  15.571  -7.854  1.00 20.00    -0.648 OA
ENDBRANCH   5   7
BRANCH   6  10
HETATM   10  C9  UNL     1     -34.282  16.650  -2.398  1.00 20.00     0.000 C 
HETATM   11  C8  UNL     1     -35.140  17.007  -1.229  1.00 20.00     0.005 C 
ENDBRANCH   6  10
TORSDOF 2
ENDMDL
MODEL 7
REMARK VINA RESULT:      -4.3     12.150     13.030
REMARK  2 active torsions:
REMARK  status: ('A' for Active; 'I' for Inactive)
REMARK    1  A    between atoms: C1_1  and  C6_6 
REMARK    2  A    between atoms: C7_7  and  C9_9 
ROOT
HETATM    1  C2  UNL     1     -33.111  18.408  -2.067  1.00 20.00     0.015 C 
HETATM    2  C3  UNL     1     -34.574  19.068  -0.082  1.00 20.00     0.015 C 
HETATM    3  C4  UNL     1     -33.649  16.979  -1.969  1.00 20.00     0.005 C 
HETATM    4  C5  UNL     1     -35.089  17.631  -0.005  1.00 20.00     0.005 C 
HETATM    5  C6  UNL     1     -33.216  19.194  -0.766  1.00 20.00     0.087 C 
HETATM    6  C7  UNL     1     -35.051  16.901  -1.354  1.00 20.00    -0.015 C 
ENDROOT
BRANCH   5   7
HETATM    7  C1  UNL     1     -32.137  18.726   0.198  1.00 20.00     0.177 C 
HETATM    8  O10 UNL     1     -32.419  18.842   1.422  1.00 20.00    -0.648 OA
HETATM    9  O11 UNL     1     -31.092  18.278  -0.354  1.00 20.00    -0.648 OA
ENDBRANCH   5   7
BRANCH   6  10
HETATM   10  C9  UNL     1     -36.123  17.426  -2.313  1.00 20.00     0.000 C 
HETATM   11  C8  UNL     1     -36.311  16.515  -3.482  1.00 20.00     0.005 C 
ENDBRANCH   6  10
TORSDOF 2
ENDMDL
MODEL 8
REMARK VINA RESULT:      -4.0     11.558     12.770
REMARK  2 active torsions:
REMARK  status: ('A' for Active; 'I' for Inactive)
REMARK    1  A    between atoms: C1_1  and  C6_6 
REMARK    2  A    between atoms: C7_7  and  C9_9 
ROOT
HETATM    1  C2  UNL     1     -33.400  14.647  -4.607  1.00 20.00     0.015 C 
HETATM    2  C3  UNL     1     -35.671  15.603  -3.939  1.00 20.00     0.015 C 
HETATM    3  C4  UNL     1     -33.267  15.744  -5.665  1.00 20.00     0.005 C 
HETATM    4  C5  UNL     1     -35.512  16.684  -5.008  1.00 20.00     0.005 C 
HETATM    5  C6  UNL     1     -34.841  14.351  -4.208  1.00 20.00     0.087 C 
HETATM    6  C7  UNL     1     -34.047  17.017  -5.319  1.00 20.00    -0.015 C 
ENDROOT
BRANCH   5   7
HETATM    7  C1  UNL     1     -35.515  13.543  -5.305  1.00 20.00     0.177 C 
HETATM    8  O10 UNL     1     -34.737  13.049  -6.167  1.00 20.00    -0.648 OA
HETATM    9  O11 UNL     1     -36.773  13.468  -5.211  1.00 20.00    -0.648 OA
ENDBRANCH   5   7
BRANCH   6  10
HETATM   10  C9  UNL     1     -33.388  17.795  -4.176  1.00 20.00     0.000 C 
HETATM   11  C8  UNL     1     -34.132  19.051  -3.862  1.00 20.00     0.005 C 
ENDBRANCH   6  10
TORSDOF 2
ENDMDL
MODEL 9
REMARK VINA RESULT:      -3.9     11.609     12.587
REMARK  2 active torsions:
REMARK  status: ('A' for Active; 'I' for Inactive)
REMARK    1  A    between atoms: C1_1  and  C6_6 
REMARK    2  A    between atoms: C7_7  and  C9_9 
ROOT
HETATM    1  C2  UNL     1     -33.661  16.806  -4.847  1.00 20.00     0.015 C 
HETATM    2  C3  UNL     1     -35.824  15.591  -4.246  1.00 20.00     0.015 C 
HETATM    3  C4  UNL     1     -32.951  15.456  -4.957  1.00 20.00     0.005 C 
HETATM    4  C5  UNL     1     -35.085  14.257  -4.358  1.00 20.00     0.005 C 
HETATM    5  C6  UNL     1     -34.905  16.776  -3.966  1.00 20.00     0.087 C 
HETATM    6  C7  UNL     1     -33.893  14.304  -5.322  1.00 20.00    -0.015 C 
ENDROOT
BRANCH   5   7
HETATM    7  C1  UNL     1     -34.489  16.739  -2.504  1.00 20.00     0.177 C 
HETATM    8  O10 UNL     1     -33.268  16.966  -2.284  1.00 20.00    -0.648 OA
HETATM    9  O11 UNL     1     -35.425  16.487  -1.694  1.00 20.00    -0.648 OA
ENDBRANCH   5   7
BRANCH   6  10
HETATM   10  C9  UNL     1     -34.347  14.382  -6.782  1.00 20.00     0.000 C 
HETATM   11  C8  UNL     1     -35.089  13.153  -7.195  1.00 20.00     0.005 C 
ENDBRANCH   6  10
TORSDOF 2
ENDMDL
