MODEL 1
REMARK VINA RESULT:      -6.5      0.000      0.000
REMARK  1 active torsions:
REMARK  status: ('A' for Active; 'I' for Inactive)
REMARK    1  A    between atoms: C4_4  and  C7_7 
ROOT
HETATM    1  C1  UNL     1     -33.031   6.693   1.881  1.00 20.00     0.015 A 
HETATM    2  C2  UNL     1     -33.807   5.688   2.461  1.00 20.00     0.008 A 
HETATM    3  C3  UNL     1     -32.893   7.875   4.004  1.00 20.00     0.022 A 
HETATM    4  C4  UNL     1     -32.577   7.778   2.647  1.00 20.00     0.002 A 
HETATM    5  C5  UNL     1     -34.105   5.784   3.809  1.00 20.00    -0.052 A 
HETATM    6  C6  UNL     1     -33.653   6.867   4.573  1.00 20.00    -0.051 A 
HETATM    7  C8  UNL     1     -34.941   4.861   4.638  1.00 20.00     0.039 C 
HETATM    8  C9  UNL     1     -34.146   6.768   5.982  1.00 20.00     0.039 C 
HETATM    9  C10 UNL     1     -34.536   5.284   6.057  1.00 20.00     0.009 C 
ENDROOT
BRANCH   4  10
HETATM   10  C7  UNL     1     -31.776   8.818   2.019  1.00 20.00     0.269 C 
HETATM   11  O11 UNL     1     -31.430   8.778   0.835  1.00 20.00    -0.301 OA
ENDBRANCH   4  10
TORSDOF 1
ENDMDL
MODEL 2
REMARK VINA RESULT:      -6.0      0.758      1.991
REMARK  1 active torsions:
REMARK  status: ('A' for Active; 'I' for Inactive)
REMARK    1  A    between atoms: C4_4  and  C7_7 
ROOT
HETATM    1  C1  UNL     1     -32.497   8.411   4.084  1.00 20.00     0.015 A 
HETATM    2  C2  UNL     1     -33.138   7.777   5.150  1.00 20.00     0.008 A 
HETATM    3  C3  UNL     1     -32.937   6.512   2.629  1.00 20.00     0.022 A 
HETATM    4  C4  UNL     1     -32.397   7.784   2.833  1.00 20.00     0.002 A 
HETATM    5  C5  UNL     1     -33.682   6.523   4.936  1.00 20.00    -0.052 A 
HETATM    6  C6  UNL     1     -33.583   5.896   3.688  1.00 20.00    -0.051 A 
HETATM    7  C8  UNL     1     -34.378   5.638   5.921  1.00 20.00     0.039 C 
HETATM    8  C9  UNL     1     -34.201   4.534   3.724  1.00 20.00     0.039 C 
HETATM    9  C10 UNL     1     -35.070   4.637   4.986  1.00 20.00     0.009 C 
ENDROOT
BRANCH   4  10
HETATM   10  C7  UNL     1     -31.717   8.461   1.740  1.00 20.00     0.269 C 
HETATM   11  O11 UNL     1     -32.106   9.531   1.265  1.00 20.00    -0.301 OA
ENDBRANCH   4  10
TORSDOF 1
ENDMDL
MODEL 3
REMARK VINA RESULT:      -5.2     11.543     11.868
REMARK  1 active torsions:
REMARK  status: ('A' for Active; 'I' for Inactive)
REMARK    1  A    between atoms: C4_4  and  C7_7 
ROOT
HETATM    1  C1  UNL     1     -33.970  14.964  -4.690  1.00 20.00     0.015 A 
HETATM    2  C2  UNL     1     -33.203  15.814  -3.892  1.00 20.00     0.008 A 
HETATM    3  C3  UNL     1     -35.971  15.494  -3.411  1.00 20.00     0.022 A 
HETATM    4  C4  UNL     1     -35.344  14.805  -4.452  1.00 20.00     0.002 A 
HETATM    5  C5  UNL     1     -33.834  16.503  -2.870  1.00 20.00    -0.052 A 
HETATM    6  C6  UNL     1     -35.204  16.344  -2.632  1.00 20.00    -0.051 A 
HETATM    7  C8  UNL     1     -33.224  17.432  -1.869  1.00 20.00     0.039 C 
HETATM    8  C9  UNL     1     -35.637  17.151  -1.449  1.00 20.00     0.039 C 
HETATM    9  C10 UNL     1     -34.471  18.143  -1.324  1.00 20.00     0.009 C 
ENDROOT
BRANCH   4  10
HETATM   10  C7  UNL     1     -36.122  13.907  -5.292  1.00 20.00     0.269 C 
HETATM   11  O11 UNL     1     -35.967  12.683  -5.293  1.00 20.00    -0.301 OA
ENDBRANCH   4  10
TORSDOF 1
ENDMDL
MODEL 4
REMARK VINA RESULT:      -5.0      2.255      4.579
REMARK  1 active torsions:
REMARK  status: ('A' for Active; 'I' for Inactive)
REMARK    1  A    between atoms: C4_4  and  C7_7 
ROOT
HETATM    1  C1  UNL     1     -33.622   6.803   5.298  1.00 20.00     0.015 A 
HETATM    2  C2  UNL     1     -32.865   7.919   4.937  1.00 20.00     0.008 A 
HETATM    3  C3  UNL     1     -33.784   6.103   2.974  1.00 20.00     0.022 A 
HETATM    4  C4  UNL     1     -34.078   5.901   4.324  1.00 20.00     0.002 A 
HETATM    5  C5  UNL     1     -32.568   8.105   3.597  1.00 20.00    -0.052 A 
HETATM    6  C6  UNL     1     -33.023   7.205   2.626  1.00 20.00    -0.051 A 
HETATM    7  C8  UNL     1     -31.813   9.232   2.967  1.00 20.00     0.039 C 
HETATM    8  C9  UNL     1     -32.616   7.649   1.256  1.00 20.00     0.039 C 
HETATM    9  C10 UNL     1     -31.490   8.640   1.588  1.00 20.00     0.009 C 
ENDROOT
BRANCH   4  10
HETATM   10  C7  UNL     1     -34.871   4.750   4.725  1.00 20.00     0.269 C 
HETATM   11  O11 UNL     1     -34.560   3.588   4.448  1.00 20.00    -0.301 OA
ENDBRANCH   4  10
TORSDOF 1
ENDMDL
MODEL 5
REMARK VINA RESULT:      -5.0     11.508     11.982
REMARK  1 active torsions:
REMARK  status: ('A' for Active; 'I' for Inactive)
REMARK    1  A    between atoms: C4_4  and  C7_7 
ROOT
HETATM    1  C1  UNL     1     -35.477  16.744  -1.613  1.00 20.00     0.015 A 
HETATM    2  C2  UNL     1     -35.498  17.404  -0.383  1.00 20.00     0.008 A 
HETATM    3  C3  UNL     1     -33.150  17.365  -1.958  1.00 20.00     0.022 A 
HETATM    4  C4  UNL     1     -34.311  16.725  -2.395  1.00 20.00     0.002 A 
HETATM    5  C5  UNL     1     -34.339  18.025   0.049  1.00 20.00    -0.052 A 
HETATM    6  C6  UNL     1     -33.177  18.007  -0.731  1.00 20.00    -0.051 A 
HETATM    7  C8  UNL     1     -34.128  18.818   1.300  1.00 20.00     0.039 C 
HETATM    8  C9  UNL     1     -32.082  18.787  -0.075  1.00 20.00     0.039 C 
HETATM    9  C10 UNL     1     -32.595  18.860   1.371  1.00 20.00     0.009 C 
ENDROOT
BRANCH   4  10
HETATM   10  C7  UNL     1     -34.316  16.038  -3.677  1.00 20.00     0.269 C 
HETATM   11  O11 UNL     1     -34.575  14.837  -3.797  1.00 20.00    -0.301 OA
ENDBRANCH   4  10
TORSDOF 1
ENDMDL
MODEL 6
REMARK VINA RESULT:      -5.0     11.675     12.163
REMARK  1 active torsions:
REMARK  status: ('A' for Active; 'I' for Inactive)
REMARK    1  A    between atoms: C4_4  and  C7_7 
ROOT
HETATM    1  C1  UNL     1     -34.535  17.892  -0.233  1.00 20.00     0.015 A 
HETATM    2  C2  UNL     1     -35.488  17.193  -0.975  1.00 20.00     0.008 A 
HETATM    3  C3  UNL     1     -32.855  17.519  -1.953  1.00 20.00     0.022 A 
HETATM    4  C4  UNL     1     -33.228  18.054  -0.718  1.00 20.00     0.002 A 
HETATM    5  C5  UNL     1     -35.114  16.676  -2.203  1.00 20.00    -0.052 A 
HETATM    6  C6  UNL     1     -33.810  16.837  -2.687  1.00 20.00    -0.051 A 
HETATM    7  C8  UNL     1     -35.939  15.867  -3.153  1.00 20.00     0.039 C 
HETATM    8  C9  UNL     1     -33.642  16.149  -4.005  1.00 20.00     0.039 C 
HETATM    9  C10 UNL     1     -35.106  15.977  -4.439  1.00 20.00     0.009 C 
ENDROOT
BRANCH   4  10
HETATM   10  C7  UNL     1     -32.249  18.780   0.077  1.00 20.00     0.269 C 
HETATM   11  O11 UNL     1     -31.045  18.513   0.070  1.00 20.00    -0.301 OA
ENDBRANCH   4  10
TORSDOF 1
ENDMDL
MODEL 7
REMARK VINA RESULT:      -4.9     11.679     12.311
REMARK  1 active torsions:
REMARK  status: ('A' for Active; 'I' for Inactive)
REMARK    1  A    between atoms: C4_4  and  C7_7 
ROOT
HETATM    1  C1  UNL     1     -32.348  18.903   0.769  1.00 20.00     0.015 A 
HETATM    2  C2  UNL     1     -32.215  18.474  -0.553  1.00 20.00     0.008 A 
HETATM    3  C3  UNL     1     -34.647  18.112   0.843  1.00 20.00     0.022 A 
HETATM    4  C4  UNL     1     -33.555  18.723   1.462  1.00 20.00     0.002 A 
HETATM    5  C5  UNL     1     -33.298  17.857  -1.155  1.00 20.00    -0.052 A 
HETATM    6  C6  UNL     1     -34.503  17.679  -0.464  1.00 20.00    -0.051 A 
HETATM    7  C8  UNL     1     -33.409  17.351  -2.558  1.00 20.00     0.039 C 
HETATM    8  C9  UNL     1     -35.531  17.038  -1.342  1.00 20.00     0.039 C 
HETATM    9  C10 UNL     1     -34.648  16.449  -2.452  1.00 20.00     0.009 C 
ENDROOT
BRANCH   4  10
HETATM   10  C7  UNL     1     -33.672  19.186   2.837  1.00 20.00     0.269 C 
HETATM   11  O11 UNL     1     -33.748  18.420   3.800  1.00 20.00    -0.301 OA
ENDBRANCH   4  10
TORSDOF 1
ENDMDL
MODEL 8
REMARK VINA RESULT:      -4.9      2.427      4.268
REMARK  1 active torsions:
REMARK  status: ('A' for Active; 'I' for Inactive)
REMARK    1  A    between atoms: C4_4  and  C7_7 
ROOT
HETATM    1  C1  UNL     1     -34.580   5.804   3.492  1.00 20.00     0.015 A 
HETATM    2  C2  UNL     1     -34.022   6.279   2.304  1.00 20.00     0.008 A 
HETATM    3  C3  UNL     1     -33.147   7.269   4.804  1.00 20.00     0.022 A 
HETATM    4  C4  UNL     1     -34.146   6.296   4.733  1.00 20.00     0.002 A 
HETATM    5  C5  UNL     1     -33.041   7.252   2.382  1.00 20.00    -0.052 A 
HETATM    6  C6  UNL     1     -32.608   7.743   3.620  1.00 20.00    -0.051 A 
HETATM    7  C8  UNL     1     -32.276   7.883   1.262  1.00 20.00     0.039 C 
HETATM    8  C9  UNL     1     -31.512   8.745   3.442  1.00 20.00     0.039 C 
HETATM    9  C10 UNL     1     -31.686   9.117   1.962  1.00 20.00     0.009 C 
ENDROOT
BRANCH   4  10
HETATM   10  C7  UNL     1     -34.737   5.780   5.959  1.00 20.00     0.269 C 
HETATM   11  O11 UNL     1     -34.777   4.578   6.232  1.00 20.00    -0.301 OA
ENDBRANCH   4  10
TORSDOF 1
ENDMDL
MODEL 9
REMARK VINA RESULT:      -4.9     11.559     12.172
REMARK  1 active torsions:
REMARK  status: ('A' for Active; 'I' for Inactive)
REMARK    1  A    between atoms: C4_4  and  C7_7 
ROOT
HETATM    1  C1  UNL     1     -33.250  18.449  -0.065  1.00 20.00     0.015 A 
HETATM    2  C2  UNL     1     -32.824  17.983  -1.310  1.00 20.00     0.008 A 
HETATM    3  C3  UNL     1     -35.427  17.406  -0.368  1.00 20.00     0.022 A 
HETATM    4  C4  UNL     1     -34.542  18.163   0.403  1.00 20.00     0.002 A 
HETATM    5  C5  UNL     1     -33.703  17.223  -2.062  1.00 20.00    -0.052 A 
HETATM    6  C6  UNL     1     -34.992  16.937  -1.596  1.00 20.00    -0.051 A 
HETATM    7  C8  UNL     1     -33.492  16.648  -3.427  1.00 20.00     0.039 C 
HETATM    8  C9  UNL     1     -35.762  16.147  -2.606  1.00 20.00     0.039 C 
HETATM    9  C10 UNL     1     -34.627  15.617  -3.496  1.00 20.00     0.009 C 
ENDROOT
BRANCH   4  10
HETATM   10  C7  UNL     1     -34.965  18.667   1.700  1.00 20.00     0.269 C 
HETATM   11  O11 UNL     1     -34.341  18.452   2.742  1.00 20.00    -0.301 OA
ENDBRANCH   4  10
TORSDOF 1
ENDMDL
