MODEL 1
REMARK VINA RESULT:      -4.8      0.000      0.000
REMARK  2 active torsions:
REMARK  status: ('A' for Active; 'I' for Inactive)
REMARK    1  A    between atoms: C3_3  and  C9_9 
REMARK    2  A    between atoms: C4_4  and  C10_10 
ROOT
HETATM    1  C1  UNL     1     -31.352   8.593   2.967  1.00 20.00     0.009 A 
HETATM    2  C2  UNL     1     -31.831   7.668   3.794  1.00 20.00     0.009 A 
HETATM    3  C3  UNL     1     -32.157   8.626   1.711  1.00 20.00     0.076 A 
HETATM    4  C4  UNL     1     -33.005   6.985   3.176  1.00 20.00     0.076 A 
HETATM    5  C5  UNL     1     -31.319   8.258   0.490  1.00 20.00     0.050 C 
HETATM    6  C6  UNL     1     -32.745   5.497   2.955  1.00 20.00     0.050 C 
HETATM    7  O11 UNL     1     -33.175   7.611   1.881  1.00 20.00    -0.362 OA
ENDROOT
BRANCH   3   8
HETATM    8  C9  UNL     1     -32.853   9.970   1.518  1.00 20.00     0.037 C 
HETATM    9  C7  UNL     1     -33.195  10.214   0.084  1.00 20.00     0.008 C 
ENDBRANCH   3   8
BRANCH   4  10
HETATM   10  C10 UNL     1     -34.280   7.208   3.983  1.00 20.00     0.037 C 
HETATM   11  C8  UNL     1     -34.055   6.991   5.444  1.00 20.00     0.008 C 
ENDBRANCH   4  10
TORSDOF 2
ENDMDL
MODEL 2
REMARK VINA RESULT:      -4.8      0.750      4.127
REMARK  2 active torsions:
REMARK  status: ('A' for Active; 'I' for Inactive)
REMARK    1  A    between atoms: C3_3  and  C9_9 
REMARK    2  A    between atoms: C4_4  and  C10_10 
ROOT
HETATM    1  C1  UNL     1     -31.673   7.820   3.490  1.00 20.00     0.009 A 
HETATM    2  C2  UNL     1     -31.335   8.825   2.686  1.00 20.00     0.009 A 
HETATM    3  C3  UNL     1     -33.023   7.301   3.123  1.00 20.00     0.076 A 
HETATM    4  C4  UNL     1     -32.424   9.082   1.700  1.00 20.00     0.076 A 
HETATM    5  C5  UNL     1     -34.028   7.480   4.257  1.00 20.00     0.050 C 
HETATM    6  C6  UNL     1     -33.020  10.478   1.863  1.00 20.00     0.050 C 
HETATM    7  O11 UNL     1     -33.455   8.112   2.004  1.00 20.00    -0.362 OA
ENDROOT
BRANCH   3   8
HETATM    8  C9  UNL     1     -32.966   5.847   2.661  1.00 20.00     0.037 C 
HETATM    9  C7  UNL     1     -33.863   4.974   3.475  1.00 20.00     0.008 C 
ENDBRANCH   3   8
BRANCH   4  10
HETATM   10  C10 UNL     1     -31.958   8.846   0.266  1.00 20.00     0.037 C 
HETATM   11  C8  UNL     1     -33.018   9.202  -0.725  1.00 20.00     0.008 C 
ENDBRANCH   4  10
TORSDOF 2
ENDMDL
MODEL 3
REMARK VINA RESULT:      -4.2      1.965      4.411
REMARK  2 active torsions:
REMARK  status: ('A' for Active; 'I' for Inactive)
REMARK    1  A    between atoms: C3_3  and  C9_9 
REMARK    2  A    between atoms: C4_4  and  C10_10 
ROOT
HETATM    1  C1  UNL     1     -35.484   5.922   3.933  1.00 20.00     0.009 A 
HETATM    2  C2  UNL     1     -34.969   6.215   2.742  1.00 20.00     0.009 A 
HETATM    3  C3  UNL     1     -34.394   5.753   4.937  1.00 20.00     0.076 A 
HETATM    4  C4  UNL     1     -33.481   6.270   2.826  1.00 20.00     0.076 A 
HETATM    5  C5  UNL     1     -34.358   4.336   5.504  1.00 20.00     0.050 C 
HETATM    6  C6  UNL     1     -32.822   5.207   1.951  1.00 20.00     0.050 C 
HETATM    7  O11 UNL     1     -33.163   5.978   4.208  1.00 20.00    -0.362 OA
ENDROOT
BRANCH   3   8
HETATM    8  C9  UNL     1     -34.483   6.791   6.052  1.00 20.00     0.037 C 
HETATM    9  C7  UNL     1     -33.283   7.680   6.077  1.00 20.00     0.008 C 
ENDBRANCH   3   8
BRANCH   4  10
HETATM   10  C10 UNL     1     -32.946   7.661   2.499  1.00 20.00     0.037 C 
HETATM   11  C8  UNL     1     -31.588   7.883   3.082  1.00 20.00     0.008 C 
ENDBRANCH   4  10
TORSDOF 2
ENDMDL
MODEL 4
REMARK VINA RESULT:      -4.1      1.362      2.774
REMARK  2 active torsions:
REMARK  status: ('A' for Active; 'I' for Inactive)
REMARK    1  A    between atoms: C3_3  and  C9_9 
REMARK    2  A    between atoms: C4_4  and  C10_10 
ROOT
HETATM    1  C1  UNL     1     -32.553   6.149   2.490  1.00 20.00     0.009 A 
HETATM    2  C2  UNL     1     -33.501   5.442   3.100  1.00 20.00     0.009 A 
HETATM    3  C3  UNL     1     -32.711   7.598   2.804  1.00 20.00     0.076 A 
HETATM    4  C4  UNL     1     -34.392   6.347   3.882  1.00 20.00     0.076 A 
HETATM    5  C5  UNL     1     -32.999   8.423   1.553  1.00 20.00     0.050 C 
HETATM    6  C6  UNL     1     -35.829   6.317   3.367  1.00 20.00     0.050 C 
HETATM    7  O11 UNL     1     -33.866   7.680   3.673  1.00 20.00    -0.362 OA
ENDROOT
BRANCH   3   8
HETATM    8  C9  UNL     1     -31.506   8.150   3.562  1.00 20.00     0.037 C 
HETATM    9  C7  UNL     1     -31.904   8.749   4.871  1.00 20.00     0.008 C 
ENDBRANCH   3   8
BRANCH   4  10
HETATM   10  C10 UNL     1     -34.337   6.044   5.377  1.00 20.00     0.037 C 
HETATM   11  C8  UNL     1     -34.502   4.584   5.651  1.00 20.00     0.008 C 
ENDBRANCH   4  10
TORSDOF 2
ENDMDL
MODEL 5
REMARK VINA RESULT:      -4.1      9.924     10.898
REMARK  2 active torsions:
REMARK  status: ('A' for Active; 'I' for Inactive)
REMARK    1  A    between atoms: C3_3  and  C9_9 
REMARK    2  A    between atoms: C4_4  and  C10_10 
ROOT
HETATM    1  C1  UNL     1     -33.598  15.509  -3.754  1.00 20.00     0.009 A 
HETATM    2  C2  UNL     1     -33.729  14.363  -4.417  1.00 20.00     0.009 A 
HETATM    3  C3  UNL     1     -34.577  16.512  -4.265  1.00 20.00     0.076 A 
HETATM    4  C4  UNL     1     -34.806  14.482  -5.441  1.00 20.00     0.076 A 
HETATM    5  C5  UNL     1     -33.880  17.723  -4.879  1.00 20.00     0.050 C 
HETATM    6  C6  UNL     1     -34.267  14.307  -6.858  1.00 20.00     0.050 C 
HETATM    7  O11 UNL     1     -35.310  15.834  -5.314  1.00 20.00    -0.362 OA
ENDROOT
BRANCH   3   8
HETATM    8  C9  UNL     1     -35.571  16.936  -3.188  1.00 20.00     0.037 C 
HETATM    9  C7  UNL     1     -35.024  16.719  -1.815  1.00 20.00     0.008 C 
ENDBRANCH   3   8
BRANCH   4  10
HETATM   10  C10 UNL     1     -35.958  13.519  -5.168  1.00 20.00     0.037 C 
HETATM   11  C8  UNL     1     -37.282  14.211  -5.219  1.00 20.00     0.008 C 
ENDBRANCH   4  10
TORSDOF 2
ENDMDL
MODEL 6
REMARK VINA RESULT:      -4.1      9.542     11.156
REMARK  2 active torsions:
REMARK  status: ('A' for Active; 'I' for Inactive)
REMARK    1  A    between atoms: C3_3  and  C9_9 
REMARK    2  A    between atoms: C4_4  and  C10_10 
ROOT
HETATM    1  C1  UNL     1     -33.790  16.194  -6.645  1.00 20.00     0.009 A 
HETATM    2  C2  UNL     1     -33.293  16.266  -5.413  1.00 20.00     0.009 A 
HETATM    3  C3  UNL     1     -34.619  14.963  -6.793  1.00 20.00     0.076 A 
HETATM    4  C4  UNL     1     -33.736  15.089  -4.611  1.00 20.00     0.076 A 
HETATM    5  C5  UNL     1     -34.043  14.013  -7.840  1.00 20.00     0.050 C 
HETATM    6  C6  UNL     1     -32.558  14.226  -4.168  1.00 20.00     0.050 C 
HETATM    7  O11 UNL     1     -34.561  14.303  -5.506  1.00 20.00    -0.362 OA
ENDROOT
BRANCH   3   8
HETATM    8  C9  UNL     1     -36.078  15.294  -7.093  1.00 20.00     0.037 C 
HETATM    9  C7  UNL     1     -37.012  14.448  -6.290  1.00 20.00     0.008 C 
ENDBRANCH   3   8
BRANCH   4  10
HETATM   10  C10 UNL     1     -34.593  15.506  -3.419  1.00 20.00     0.037 C 
HETATM   11  C8  UNL     1     -33.976  16.638  -2.664  1.00 20.00     0.008 C 
ENDBRANCH   4  10
TORSDOF 2
ENDMDL
MODEL 7
REMARK VINA RESULT:      -4.0      9.754     11.363
REMARK  2 active torsions:
REMARK  status: ('A' for Active; 'I' for Inactive)
REMARK    1  A    between atoms: C3_3  and  C9_9 
REMARK    2  A    between atoms: C4_4  and  C10_10 
ROOT
HETATM    1  C1  UNL     1     -35.586  13.535  -4.900  1.00 20.00     0.009 A 
HETATM    2  C2  UNL     1     -34.587  14.074  -4.206  1.00 20.00     0.009 A 
HETATM    3  C3  UNL     1     -36.423  14.608  -5.512  1.00 20.00     0.076 A 
HETATM    4  C4  UNL     1     -34.654  15.562  -4.279  1.00 20.00     0.076 A 
HETATM    5  C5  UNL     1     -37.853  14.585  -4.980  1.00 20.00     0.050 C 
HETATM    6  C6  UNL     1     -34.877  16.190  -2.906  1.00 20.00     0.050 C 
HETATM    7  O11 UNL     1     -35.810  15.854  -5.102  1.00 20.00    -0.362 OA
ENDROOT
BRANCH   3   8
HETATM    8  C9  UNL     1     -36.400  14.546  -7.036  1.00 20.00     0.037 C 
HETATM    9  C7  UNL     1     -35.466  13.492  -7.533  1.00 20.00     0.008 C 
ENDBRANCH   3   8
BRANCH   4  10
HETATM   10  C10 UNL     1     -33.424  16.152  -4.961  1.00 20.00     0.037 C 
HETATM   11  C8  UNL     1     -33.798  17.091  -6.062  1.00 20.00     0.008 C 
ENDBRANCH   4  10
TORSDOF 2
ENDMDL
MODEL 8
REMARK VINA RESULT:      -4.0      9.537     11.271
REMARK  2 active torsions:
REMARK  status: ('A' for Active; 'I' for Inactive)
REMARK    1  A    between atoms: C3_3  and  C9_9 
REMARK    2  A    between atoms: C4_4  and  C10_10 
ROOT
HETATM    1  C1  UNL     1     -34.872  14.113  -4.233  1.00 20.00     0.009 A 
HETATM    2  C2  UNL     1     -35.545  13.995  -5.374  1.00 20.00     0.009 A 
HETATM    3  C3  UNL     1     -33.630  14.911  -4.450  1.00 20.00     0.076 A 
HETATM    4  C4  UNL     1     -34.822  14.699  -6.473  1.00 20.00     0.076 A 
HETATM    5  C5  UNL     1     -32.373  14.093  -4.168  1.00 20.00     0.050 C 
HETATM    6  C6  UNL     1     -34.379  13.735  -7.571  1.00 20.00     0.050 C 
HETATM    7  O11 UNL     1     -33.636  15.256  -5.856  1.00 20.00    -0.362 OA
ENDROOT
BRANCH   3   8
HETATM    8  C9  UNL     1     -33.637  16.205  -3.643  1.00 20.00     0.037 C 
HETATM    9  C7  UNL     1     -34.786  16.255  -2.690  1.00 20.00     0.008 C 
ENDBRANCH   3   8
BRANCH   4  10
HETATM   10  C10 UNL     1     -35.644  15.849  -7.047  1.00 20.00     0.037 C 
HETATM   11  C8  UNL     1     -34.843  17.107  -7.144  1.00 20.00     0.008 C 
ENDBRANCH   4  10
TORSDOF 2
ENDMDL
MODEL 9
REMARK VINA RESULT:      -4.0      9.769     11.257
REMARK  2 active torsions:
REMARK  status: ('A' for Active; 'I' for Inactive)
REMARK    1  A    between atoms: C3_3  and  C9_9 
REMARK    2  A    between atoms: C4_4  and  C10_10 
ROOT
HETATM    1  C1  UNL     1     -35.319  17.536  -3.765  1.00 20.00     0.009 A 
HETATM    2  C2  UNL     1     -35.214  16.634  -4.738  1.00 20.00     0.009 A 
HETATM    3  C3  UNL     1     -34.370  17.213  -2.661  1.00 20.00     0.076 A 
HETATM    4  C4  UNL     1     -34.186  15.614  -4.383  1.00 20.00     0.076 A 
HETATM    5  C5  UNL     1     -35.100  16.909  -1.355  1.00 20.00     0.050 C 
HETATM    6  C6  UNL     1     -34.790  14.218  -4.254  1.00 20.00     0.050 C 
HETATM    7  O11 UNL     1     -33.683  16.011  -3.084  1.00 20.00    -0.362 OA
ENDROOT
BRANCH   3   8
HETATM    8  C9  UNL     1     -33.329  18.312  -2.467  1.00 20.00     0.037 C 
HETATM    9  C7  UNL     1     -32.635  18.189  -1.150  1.00 20.00     0.008 C 
ENDBRANCH   3   8
BRANCH   4  10
HETATM   10  C10 UNL     1     -33.018  15.620  -5.366  1.00 20.00     0.037 C 
HETATM   11  C8  UNL     1     -33.486  15.749  -6.779  1.00 20.00     0.008 C 
ENDBRANCH   4  10
TORSDOF 2
ENDMDL
