MODEL 1
REMARK VINA RESULT:      -3.9      0.000      0.000
REMARK  1 active torsions:
REMARK  status: ('A' for Active; 'I' for Inactive)
REMARK    1  A    between atoms: C1_1  and  C5_5 
ROOT
HETATM    1  C2  UNL     1     -35.660   6.142   3.586  1.00 20.00     0.022 C 
HETATM    2  C3  UNL     1     -33.355   5.313   3.042  1.00 20.00     0.022 C 
HETATM    3  C4  UNL     1     -34.445   4.656   5.205  1.00 20.00     0.022 C 
HETATM    4  C5  UNL     1     -34.291   5.770   4.165  1.00 20.00     0.002 C 
ENDROOT
BRANCH   4   5
HETATM    5  C1  UNL     1     -33.731   6.998   4.871  1.00 20.00     0.239 C 
HETATM    6  O6  UNL     1     -33.867   7.238   6.066  1.00 20.00    -0.306 OA
ENDBRANCH   4   5
TORSDOF 1
ENDMDL
MODEL 2
REMARK VINA RESULT:      -3.9      0.059      1.770
REMARK  1 active torsions:
REMARK  status: ('A' for Active; 'I' for Inactive)
REMARK    1  A    between atoms: C1_1  and  C5_5 
ROOT
HETATM    1  C2  UNL     1     -33.357   5.343   3.027  1.00 20.00     0.022 C 
HETATM    2  C3  UNL     1     -34.440   4.643   5.179  1.00 20.00     0.022 C 
HETATM    3  C4  UNL     1     -35.675   6.133   3.581  1.00 20.00     0.022 C 
HETATM    4  C5  UNL     1     -34.301   5.773   4.155  1.00 20.00     0.002 C 
ENDROOT
BRANCH   4   5
HETATM    5  C1  UNL     1     -33.720   7.023   4.803  1.00 20.00     0.239 C 
HETATM    6  O6  UNL     1     -33.788   7.285   5.999  1.00 20.00    -0.306 OA
ENDBRANCH   4   5
TORSDOF 1
ENDMDL
MODEL 3
REMARK VINA RESULT:      -3.9      0.050      1.786
REMARK  1 active torsions:
REMARK  status: ('A' for Active; 'I' for Inactive)
REMARK    1  A    between atoms: C1_1  and  C5_5 
ROOT
HETATM    1  C2  UNL     1     -34.432   4.648   5.155  1.00 20.00     0.022 C 
HETATM    2  C3  UNL     1     -35.689   6.129   3.566  1.00 20.00     0.022 C 
HETATM    3  C4  UNL     1     -33.349   5.406   3.020  1.00 20.00     0.022 C 
HETATM    4  C5  UNL     1     -34.311   5.795   4.146  1.00 20.00     0.002 C 
ENDROOT
BRANCH   4   5
HETATM    5  C1  UNL     1     -33.723   6.999   4.872  1.00 20.00     0.239 C 
HETATM    6  O6  UNL     1     -33.873   7.235   6.066  1.00 20.00    -0.306 OA
ENDBRANCH   4   5
TORSDOF 1
ENDMDL
MODEL 4
REMARK VINA RESULT:      -3.8      1.473      2.474
REMARK  1 active torsions:
REMARK  status: ('A' for Active; 'I' for Inactive)
REMARK    1  A    between atoms: C1_1  and  C5_5 
ROOT
HETATM    1  C2  UNL     1     -34.345   4.280   4.724  1.00 20.00     0.022 C 
HETATM    2  C3  UNL     1     -34.024   6.660   5.454  1.00 20.00     0.022 C 
HETATM    3  C4  UNL     1     -35.644   6.121   3.615  1.00 20.00     0.022 C 
HETATM    4  C5  UNL     1     -34.309   5.741   4.262  1.00 20.00     0.002 C 
ENDROOT
BRANCH   4   5
HETATM    5  C1  UNL     1     -33.220   5.872   3.205  1.00 20.00     0.239 C 
HETATM    6  O6  UNL     1     -32.711   6.932   2.856  1.00 20.00    -0.306 OA
ENDBRANCH   4   5
TORSDOF 1
ENDMDL
MODEL 5
REMARK VINA RESULT:      -3.8      1.478      2.043
REMARK  1 active torsions:
REMARK  status: ('A' for Active; 'I' for Inactive)
REMARK    1  A    between atoms: C1_1  and  C5_5 
ROOT
HETATM    1  C2  UNL     1     -35.658   6.130   3.603  1.00 20.00     0.022 C 
HETATM    2  C3  UNL     1     -34.327   4.311   4.706  1.00 20.00     0.022 C 
HETATM    3  C4  UNL     1     -34.013   6.699   5.413  1.00 20.00     0.022 C 
HETATM    4  C5  UNL     1     -34.309   5.768   4.233  1.00 20.00     0.002 C 
ENDROOT
BRANCH   4   5
HETATM    5  C1  UNL     1     -33.227   5.982   3.182  1.00 20.00     0.239 C 
HETATM    6  O6  UNL     1     -32.836   7.079   2.798  1.00 20.00    -0.306 OA
ENDBRANCH   4   5
TORSDOF 1
ENDMDL
MODEL 6
REMARK VINA RESULT:      -3.8      1.453      2.167
REMARK  1 active torsions:
REMARK  status: ('A' for Active; 'I' for Inactive)
REMARK    1  A    between atoms: C1_1  and  C5_5 
ROOT
HETATM    1  C2  UNL     1     -34.032   6.624   5.468  1.00 20.00     0.022 C 
HETATM    2  C3  UNL     1     -35.638   6.126   3.605  1.00 20.00     0.022 C 
HETATM    3  C4  UNL     1     -34.289   4.272   4.627  1.00 20.00     0.022 C 
HETATM    4  C5  UNL     1     -34.292   5.753   4.235  1.00 20.00     0.002 C 
ENDROOT
BRANCH   4   5
HETATM    5  C1  UNL     1     -33.153   5.980   3.250  1.00 20.00     0.239 C 
HETATM    6  O6  UNL     1     -32.688   7.078   2.963  1.00 20.00    -0.306 OA
ENDBRANCH   4   5
TORSDOF 1
ENDMDL
MODEL 7
REMARK VINA RESULT:      -3.7      1.738      2.559
REMARK  1 active torsions:
REMARK  status: ('A' for Active; 'I' for Inactive)
REMARK    1  A    between atoms: C1_1  and  C5_5 
ROOT
HETATM    1  C2  UNL     1     -35.617   6.200   3.520  1.00 20.00     0.022 C 
HETATM    2  C3  UNL     1     -33.930   7.100   5.145  1.00 20.00     0.022 C 
HETATM    3  C4  UNL     1     -33.163   5.995   3.027  1.00 20.00     0.022 C 
HETATM    4  C5  UNL     1     -34.226   5.993   4.129  1.00 20.00     0.002 C 
ENDROOT
BRANCH   4   5
HETATM    5  C1  UNL     1     -34.206   4.625   4.799  1.00 20.00     0.239 C 
HETATM    6  O6  UNL     1     -34.355   3.558   4.211  1.00 20.00    -0.306 OA
ENDBRANCH   4   5
TORSDOF 1
ENDMDL
MODEL 8
REMARK VINA RESULT:      -3.7      1.783      2.485
REMARK  1 active torsions:
REMARK  status: ('A' for Active; 'I' for Inactive)
REMARK    1  A    between atoms: C1_1  and  C5_5 
ROOT
HETATM    1  C2  UNL     1     -34.063   6.950   5.500  1.00 20.00     0.022 C 
HETATM    2  C3  UNL     1     -33.174   6.260   3.257  1.00 20.00     0.022 C 
HETATM    3  C4  UNL     1     -35.637   6.131   3.723  1.00 20.00     0.022 C 
HETATM    4  C5  UNL     1     -34.237   5.982   4.325  1.00 20.00     0.002 C 
ENDROOT
BRANCH   4   5
HETATM    5  C1  UNL     1     -34.105   4.563   4.862  1.00 20.00     0.239 C 
HETATM    6  O6  UNL     1     -34.353   3.548   4.220  1.00 20.00    -0.306 OA
ENDBRANCH   4   5
TORSDOF 1
ENDMDL
MODEL 9
REMARK VINA RESULT:      -3.6      1.872      2.563
REMARK  1 active torsions:
REMARK  status: ('A' for Active; 'I' for Inactive)
REMARK    1  A    between atoms: C1_1  and  C5_5 
ROOT
HETATM    1  C2  UNL     1     -33.187   6.836   3.192  1.00 20.00     0.022 C 
HETATM    2  C3  UNL     1     -35.579   6.196   3.597  1.00 20.00     0.022 C 
HETATM    3  C4  UNL     1     -34.048   6.616   5.540  1.00 20.00     0.022 C 
HETATM    4  C5  UNL     1     -34.143   6.070   4.113  1.00 20.00     0.002 C 
ENDROOT
BRANCH   4   5
HETATM    5  C1  UNL     1     -33.702   4.612   4.137  1.00 20.00     0.239 C 
HETATM    6  O6  UNL     1     -34.451   3.660   4.329  1.00 20.00    -0.306 OA
ENDBRANCH   4   5
TORSDOF 1
ENDMDL
