MODEL 1
REMARK VINA RESULT:      -4.7      0.000      0.000
REMARK  0 active torsions:
REMARK  status: ('A' for Active; 'I' for Inactive)
ROOT
HETATM    1  C1  UNL     1     -35.322  13.730  -5.323  1.00 20.00     0.128 C 
HETATM    2  C2  UNL     1     -34.826  14.301  -6.633  1.00 20.00     0.087 C 
HETATM    3  C3  UNL     1     -35.060  14.514  -4.057  1.00 20.00     0.087 C 
HETATM    4  C4  UNL     1     -33.863  16.335  -5.406  1.00 20.00     0.018 C 
HETATM    5  C5  UNL     1     -34.710  15.832  -6.608  1.00 20.00    -0.041 C 
HETATM    6  C6  UNL     1     -33.817  15.410  -4.159  1.00 20.00    -0.041 C 
HETATM    7  C7  UNL     1     -34.037  16.293  -7.918  1.00 20.00     0.015 C 
HETATM    8  C8  UNL     1     -36.116  16.469  -6.572  1.00 20.00     0.015 C 
HETATM    9  C9  UNL     1     -32.539  14.542  -4.187  1.00 20.00     0.015 C 
HETATM   10  C10 UNL     1     -33.741  16.287  -2.891  1.00 20.00     0.015 C 
HETATM   11  O11 UNL     1     -35.925  12.657  -5.289  1.00 20.00    -0.298 OA
ENDROOT
TORSDOF 0
ENDMDL
MODEL 2
REMARK VINA RESULT:      -4.6      0.038      3.338
REMARK  0 active torsions:
REMARK  status: ('A' for Active; 'I' for Inactive)
ROOT
HETATM    1  C1  UNL     1     -35.330  13.706  -5.326  1.00 20.00     0.128 C 
HETATM    2  C2  UNL     1     -35.090  14.497  -4.060  1.00 20.00     0.087 C 
HETATM    3  C3  UNL     1     -34.826  14.276  -6.632  1.00 20.00     0.087 C 
HETATM    4  C4  UNL     1     -33.898  16.326  -5.405  1.00 20.00     0.018 C 
HETATM    5  C5  UNL     1     -33.855  15.407  -4.152  1.00 20.00    -0.041 C 
HETATM    6  C6  UNL     1     -34.726  15.809  -6.613  1.00 20.00    -0.041 C 
HETATM    7  C7  UNL     1     -33.802  16.289  -2.888  1.00 20.00     0.015 C 
HETATM    8  C8  UNL     1     -32.569  14.552  -4.164  1.00 20.00     0.015 C 
HETATM    9  C9  UNL     1     -36.140  16.431  -6.595  1.00 20.00     0.015 C 
HETATM   10  C10 UNL     1     -34.044  16.271  -7.918  1.00 20.00     0.015 C 
HETATM   11  O11 UNL     1     -35.918  12.624  -5.294  1.00 20.00    -0.298 OA
ENDROOT
TORSDOF 0
ENDMDL
MODEL 3
REMARK VINA RESULT:      -4.4      1.356      3.327
REMARK  0 active torsions:
REMARK  status: ('A' for Active; 'I' for Inactive)
ROOT
HETATM    1  C1  UNL     1     -35.701  13.846  -5.150  1.00 20.00     0.128 C 
HETATM    2  C2  UNL     1     -34.881  14.437  -4.025  1.00 20.00     0.087 C 
HETATM    3  C3  UNL     1     -36.371  14.793  -6.119  1.00 20.00     0.087 C 
HETATM    4  C4  UNL     1     -35.414  16.804  -4.851  1.00 20.00     0.018 C 
HETATM    5  C5  UNL     1     -34.311  15.822  -4.368  1.00 20.00    -0.041 C 
HETATM    6  C6  UNL     1     -36.673  16.165  -5.499  1.00 20.00    -0.041 C 
HETATM    7  C7  UNL     1     -33.646  16.404  -3.104  1.00 20.00     0.015 C 
HETATM    8  C8  UNL     1     -33.209  15.689  -5.441  1.00 20.00     0.015 C 
HETATM    9  C9  UNL     1     -37.802  16.035  -4.452  1.00 20.00     0.015 C 
HETATM   10  C10 UNL     1     -37.192  17.101  -6.610  1.00 20.00     0.015 C 
HETATM   11  O11 UNL     1     -35.817  12.626  -5.275  1.00 20.00    -0.298 OA
ENDROOT
TORSDOF 0
ENDMDL
MODEL 4
REMARK VINA RESULT:      -4.4      1.358      1.812
REMARK  0 active torsions:
REMARK  status: ('A' for Active; 'I' for Inactive)
ROOT
HETATM    1  C1  UNL     1     -35.702  13.845  -5.142  1.00 20.00     0.128 C 
HETATM    2  C2  UNL     1     -36.392  14.793  -6.097  1.00 20.00     0.087 C 
HETATM    3  C3  UNL     1     -34.874  14.434  -4.022  1.00 20.00     0.087 C 
HETATM    4  C4  UNL     1     -35.436  16.802  -4.824  1.00 20.00     0.018 C 
HETATM    5  C5  UNL     1     -36.698  16.158  -5.462  1.00 20.00    -0.041 C 
HETATM    6  C6  UNL     1     -34.321  15.826  -4.361  1.00 20.00    -0.041 C 
HETATM    7  C7  UNL     1     -37.237  17.098  -6.560  1.00 20.00     0.015 C 
HETATM    8  C8  UNL     1     -37.813  16.011  -4.404  1.00 20.00     0.015 C 
HETATM    9  C9  UNL     1     -33.228  15.710  -5.447  1.00 20.00     0.015 C 
HETATM   10  C10 UNL     1     -33.645  16.404  -3.099  1.00 20.00     0.015 C 
HETATM   11  O11 UNL     1     -35.813  12.625  -5.271  1.00 20.00    -0.298 OA
ENDROOT
TORSDOF 0
ENDMDL
MODEL 5
REMARK VINA RESULT:      -4.4      1.689      3.218
REMARK  0 active torsions:
REMARK  status: ('A' for Active; 'I' for Inactive)
ROOT
HETATM    1  C1  UNL     1     -33.443  14.410  -4.637  1.00 20.00     0.128 C 
HETATM    2  C2  UNL     1     -34.903  14.058  -4.461  1.00 20.00     0.087 C 
HETATM    3  C3  UNL     1     -33.094  15.619  -5.474  1.00 20.00     0.087 C 
HETATM    4  C4  UNL     1     -35.581  16.062  -5.908  1.00 20.00     0.018 C 
HETATM    5  C5  UNL     1     -35.828  15.278  -4.590  1.00 20.00    -0.041 C 
HETATM    6  C6  UNL     1     -34.163  15.940  -6.530  1.00 20.00    -0.041 C 
HETATM    7  C7  UNL     1     -37.290  14.787  -4.568  1.00 20.00     0.015 C 
HETATM    8  C8  UNL     1     -35.644  16.211  -3.373  1.00 20.00     0.015 C 
HETATM    9  C9  UNL     1     -34.156  14.860  -7.634  1.00 20.00     0.015 C 
HETATM   10  C10 UNL     1     -33.798  17.280  -7.204  1.00 20.00     0.015 C 
HETATM   11  O11 UNL     1     -32.561  13.730  -4.111  1.00 20.00    -0.298 OA
ENDROOT
TORSDOF 0
ENDMDL
MODEL 6
REMARK VINA RESULT:      -4.4      1.689      2.568
REMARK  0 active torsions:
REMARK  status: ('A' for Active; 'I' for Inactive)
ROOT
HETATM    1  C1  UNL     1     -33.437  14.411  -4.635  1.00 20.00     0.128 C 
HETATM    2  C2  UNL     1     -33.091  15.621  -5.472  1.00 20.00     0.087 C 
HETATM    3  C3  UNL     1     -34.896  14.057  -4.459  1.00 20.00     0.087 C 
HETATM    4  C4  UNL     1     -35.579  16.059  -5.906  1.00 20.00     0.018 C 
HETATM    5  C5  UNL     1     -34.160  15.940  -6.528  1.00 20.00    -0.041 C 
HETATM    6  C6  UNL     1     -35.823  15.274  -4.588  1.00 20.00    -0.041 C 
HETATM    7  C7  UNL     1     -33.798  17.279  -7.202  1.00 20.00     0.015 C 
HETATM    8  C8  UNL     1     -34.152  14.860  -7.632  1.00 20.00     0.015 C 
HETATM    9  C9  UNL     1     -35.642  16.208  -3.371  1.00 20.00     0.015 C 
HETATM   10  C10 UNL     1     -37.286  14.781  -4.566  1.00 20.00     0.015 C 
HETATM   11  O11 UNL     1     -32.554  13.729  -4.113  1.00 20.00    -0.298 OA
ENDROOT
TORSDOF 0
ENDMDL
MODEL 7
REMARK VINA RESULT:      -4.2      2.470      3.702
REMARK  0 active torsions:
REMARK  status: ('A' for Active; 'I' for Inactive)
ROOT
HETATM    1  C1  UNL     1     -35.812  17.833  -4.107  1.00 20.00     0.128 C 
HETATM    2  C2  UNL     1     -35.791  16.351  -4.406  1.00 20.00     0.087 C 
HETATM    3  C3  UNL     1     -34.718  18.402  -3.233  1.00 20.00     0.087 C 
HETATM    4  C4  UNL     1     -33.668  16.076  -2.997  1.00 20.00     0.018 C 
HETATM    5  C5  UNL     1     -34.379  15.750  -4.340  1.00 20.00    -0.041 C 
HETATM    6  C6  UNL     1     -34.131  17.364  -2.264  1.00 20.00    -0.041 C 
HETATM    7  C7  UNL     1     -34.492  14.219  -4.485  1.00 20.00     0.015 C 
HETATM    8  C8  UNL     1     -33.533  16.258  -5.527  1.00 20.00     0.015 C 
HETATM    9  C9  UNL     1     -35.169  17.013  -1.174  1.00 20.00     0.015 C 
HETATM   10  C10 UNL     1     -32.918  17.994  -1.548  1.00 20.00     0.015 C 
HETATM   11  O11 UNL     1     -36.694  18.559  -4.567  1.00 20.00    -0.298 OA
ENDROOT
TORSDOF 0
ENDMDL
MODEL 8
REMARK VINA RESULT:      -4.1      2.514      4.337
REMARK  0 active torsions:
REMARK  status: ('A' for Active; 'I' for Inactive)
ROOT
HETATM    1  C1  UNL     1     -35.738  17.944  -4.157  1.00 20.00     0.128 C 
HETATM    2  C2  UNL     1     -34.667  18.448  -3.215  1.00 20.00     0.087 C 
HETATM    3  C3  UNL     1     -35.766  16.469  -4.484  1.00 20.00     0.087 C 
HETATM    4  C4  UNL     1     -33.732  16.074  -2.975  1.00 20.00     0.018 C 
HETATM    5  C5  UNL     1     -34.177  17.368  -2.239  1.00 20.00    -0.041 C 
HETATM    6  C6  UNL     1     -34.386  15.805  -4.358  1.00 20.00    -0.041 C 
HETATM    7  C7  UNL     1     -32.977  17.930  -1.450  1.00 20.00     0.015 C 
HETATM    8  C8  UNL     1     -35.283  17.042  -1.212  1.00 20.00     0.015 C 
HETATM    9  C9  UNL     1     -33.458  16.297  -5.491  1.00 20.00     0.015 C 
HETATM   10  C10 UNL     1     -34.557  14.282  -4.541  1.00 20.00     0.015 C 
HETATM   11  O11 UNL     1     -36.567  18.715  -4.642  1.00 20.00    -0.298 OA
ENDROOT
TORSDOF 0
ENDMDL
MODEL 9
REMARK VINA RESULT:      -4.1      1.897      3.692
REMARK  0 active torsions:
REMARK  status: ('A' for Active; 'I' for Inactive)
ROOT
HETATM    1  C1  UNL     1     -34.335  16.427  -6.441  1.00 20.00     0.128 C 
HETATM    2  C2  UNL     1     -33.207  15.623  -5.834  1.00 20.00     0.087 C 
HETATM    3  C3  UNL     1     -35.755  16.046  -6.089  1.00 20.00     0.087 C 
HETATM    4  C4  UNL     1     -34.898  14.148  -4.595  1.00 20.00     0.018 C 
HETATM    5  C5  UNL     1     -33.590  14.980  -4.493  1.00 20.00    -0.041 C 
HETATM    6  C6  UNL     1     -35.897  14.565  -5.709  1.00 20.00    -0.041 C 
HETATM    7  C7  UNL     1     -32.441  14.051  -4.050  1.00 20.00     0.015 C 
HETATM    8  C8  UNL     1     -33.736  16.069  -3.408  1.00 20.00     0.015 C 
HETATM    9  C9  UNL     1     -35.701  13.678  -6.959  1.00 20.00     0.015 C 
HETATM   10  C10 UNL     1     -37.335  14.325  -5.204  1.00 20.00     0.015 C 
HETATM   11  O11 UNL     1     -34.103  17.368  -7.201  1.00 20.00    -0.298 OA
ENDROOT
TORSDOF 0
ENDMDL
