MODEL 1
REMARK VINA RESULT:      -4.6      0.000      0.000
REMARK  1 active torsions:
REMARK  status: ('A' for Active; 'I' for Inactive)
REMARK    1  A    between atoms: C1_1  and  C6_6 
ROOT
HETATM    1  C3  UNL     1     -33.363   5.069   2.897  1.00 20.00     0.022 C 
HETATM    2  C4  UNL     1     -35.579   6.113   3.471  1.00 20.00     0.022 C 
HETATM    3  C5  UNL     1     -34.407   4.669   5.134  1.00 20.00     0.022 C 
HETATM    4  C6  UNL     1     -34.203   5.702   4.012  1.00 20.00     0.009 C 
ENDROOT
BRANCH   4   5
HETATM    5  C1  UNL     1     -33.450   6.924   4.571  1.00 20.00     0.130 C 
HETATM    6  C2  UNL     1     -33.737   7.362   5.987  1.00 20.00     0.091 C 
HETATM    7  O7  UNL     1     -32.640   7.558   3.889  1.00 20.00    -0.298 OA
ENDBRANCH   4   5
TORSDOF 1
ENDMDL
MODEL 2
REMARK VINA RESULT:      -4.6      1.455      2.321
REMARK  1 active torsions:
REMARK  status: ('A' for Active; 'I' for Inactive)
REMARK    1  A    between atoms: C1_1  and  C6_6 
ROOT
HETATM    1  C3  UNL     1     -35.682   6.123   3.645  1.00 20.00     0.022 C 
HETATM    2  C4  UNL     1     -34.001   6.774   5.400  1.00 20.00     0.022 C 
HETATM    3  C5  UNL     1     -34.391   4.367   4.872  1.00 20.00     0.022 C 
HETATM    4  C6  UNL     1     -34.326   5.783   4.274  1.00 20.00     0.009 C 
ENDROOT
BRANCH   4   5
HETATM    5  C1  UNL     1     -33.244   5.828   3.178  1.00 20.00     0.130 C 
HETATM    6  C2  UNL     1     -32.633   7.162   2.822  1.00 20.00     0.091 C 
HETATM    7  O7  UNL     1     -32.882   4.813   2.578  1.00 20.00    -0.298 OA
ENDBRANCH   4   5
TORSDOF 1
ENDMDL
MODEL 3
REMARK VINA RESULT:      -4.6      0.041      1.645
REMARK  1 active torsions:
REMARK  status: ('A' for Active; 'I' for Inactive)
REMARK    1  A    between atoms: C1_1  and  C6_6 
ROOT
HETATM    1  C3  UNL     1     -34.427   4.692   5.181  1.00 20.00     0.022 C 
HETATM    2  C4  UNL     1     -33.414   5.007   2.900  1.00 20.00     0.022 C 
HETATM    3  C5  UNL     1     -35.574   6.115   3.473  1.00 20.00     0.022 C 
HETATM    4  C6  UNL     1     -34.207   5.679   4.028  1.00 20.00     0.009 C 
ENDROOT
BRANCH   4   5
HETATM    5  C1  UNL     1     -33.455   6.912   4.565  1.00 20.00     0.130 C 
HETATM    6  C2  UNL     1     -33.731   7.366   5.978  1.00 20.00     0.091 C 
HETATM    7  O7  UNL     1     -32.655   7.542   3.867  1.00 20.00    -0.298 OA
ENDBRANCH   4   5
TORSDOF 1
ENDMDL
MODEL 4
REMARK VINA RESULT:      -4.6      1.429      2.527
REMARK  1 active torsions:
REMARK  status: ('A' for Active; 'I' for Inactive)
REMARK    1  A    between atoms: C1_1  and  C6_6 
ROOT
HETATM    1  C3  UNL     1     -34.013   6.799   5.382  1.00 20.00     0.022 C 
HETATM    2  C4  UNL     1     -34.398   4.370   4.849  1.00 20.00     0.022 C 
HETATM    3  C5  UNL     1     -35.678   6.136   3.637  1.00 20.00     0.022 C 
HETATM    4  C6  UNL     1     -34.318   5.789   4.270  1.00 20.00     0.009 C 
ENDROOT
BRANCH   4   5
HETATM    5  C1  UNL     1     -33.216   5.880   3.198  1.00 20.00     0.130 C 
HETATM    6  C2  UNL     1     -32.577   7.222   2.933  1.00 20.00     0.091 C 
HETATM    7  O7  UNL     1     -32.859   4.896   2.544  1.00 20.00    -0.298 OA
ENDBRANCH   4   5
TORSDOF 1
ENDMDL
MODEL 5
REMARK VINA RESULT:      -4.6      0.060      1.621
REMARK  1 active torsions:
REMARK  status: ('A' for Active; 'I' for Inactive)
REMARK    1  A    between atoms: C1_1  and  C6_6 
ROOT
HETATM    1  C3  UNL     1     -35.541   6.167   3.402  1.00 20.00     0.022 C 
HETATM    2  C4  UNL     1     -34.463   4.682   5.123  1.00 20.00     0.022 C 
HETATM    3  C5  UNL     1     -33.382   5.009   2.899  1.00 20.00     0.022 C 
HETATM    4  C6  UNL     1     -34.210   5.695   4.000  1.00 20.00     0.009 C 
ENDROOT
BRANCH   4   5
HETATM    5  C1  UNL     1     -33.440   6.920   4.532  1.00 20.00     0.130 C 
HETATM    6  C2  UNL     1     -33.706   7.379   5.945  1.00 20.00     0.091 C 
HETATM    7  O7  UNL     1     -32.635   7.538   3.831  1.00 20.00    -0.298 OA
ENDBRANCH   4   5
TORSDOF 1
ENDMDL
MODEL 6
REMARK VINA RESULT:      -4.6      1.465      2.209
REMARK  1 active torsions:
REMARK  status: ('A' for Active; 'I' for Inactive)
REMARK    1  A    between atoms: C1_1  and  C6_6 
ROOT
HETATM    1  C3  UNL     1     -34.385   4.354   4.840  1.00 20.00     0.022 C 
HETATM    2  C4  UNL     1     -35.704   6.128   3.639  1.00 20.00     0.022 C 
HETATM    3  C5  UNL     1     -34.006   6.774   5.350  1.00 20.00     0.022 C 
HETATM    4  C6  UNL     1     -34.339   5.763   4.238  1.00 20.00     0.009 C 
ENDROOT
BRANCH   4   5
HETATM    5  C1  UNL     1     -33.240   5.808   3.159  1.00 20.00     0.130 C 
HETATM    6  C2  UNL     1     -32.611   7.140   2.826  1.00 20.00     0.091 C 
HETATM    7  O7  UNL     1     -32.879   4.796   2.554  1.00 20.00    -0.298 OA
ENDBRANCH   4   5
TORSDOF 1
ENDMDL
MODEL 7
REMARK VINA RESULT:      -4.2      1.603      2.376
REMARK  1 active torsions:
REMARK  status: ('A' for Active; 'I' for Inactive)
REMARK    1  A    between atoms: C1_1  and  C6_6 
ROOT
HETATM    1  C3  UNL     1     -35.518   6.226   3.241  1.00 20.00     0.022 C 
HETATM    2  C4  UNL     1     -33.472   4.761   3.249  1.00 20.00     0.022 C 
HETATM    3  C5  UNL     1     -33.233   7.244   3.253  1.00 20.00     0.022 C 
HETATM    4  C6  UNL     1     -34.085   6.070   3.765  1.00 20.00     0.009 C 
ENDROOT
BRANCH   4   5
HETATM    5  C1  UNL     1     -34.113   6.090   5.305  1.00 20.00     0.130 C 
HETATM    6  C2  UNL     1     -33.662   7.343   6.017  1.00 20.00     0.091 C 
HETATM    7  O7  UNL     1     -34.473   5.111   5.963  1.00 20.00    -0.298 OA
ENDBRANCH   4   5
TORSDOF 1
ENDMDL
MODEL 8
REMARK VINA RESULT:      -4.2      1.619      2.091
REMARK  1 active torsions:
REMARK  status: ('A' for Active; 'I' for Inactive)
REMARK    1  A    between atoms: C1_1  and  C6_6 
ROOT
HETATM    1  C3  UNL     1     -33.589   4.644   3.341  1.00 20.00     0.022 C 
HETATM    2  C4  UNL     1     -33.141   7.117   3.224  1.00 20.00     0.022 C 
HETATM    3  C5  UNL     1     -35.486   6.267   3.197  1.00 20.00     0.022 C 
HETATM    4  C6  UNL     1     -34.078   6.032   3.771  1.00 20.00     0.009 C 
ENDROOT
BRANCH   4   5
HETATM    5  C1  UNL     1     -34.136   6.086   5.310  1.00 20.00     0.130 C 
HETATM    6  C2  UNL     1     -33.709   7.357   6.003  1.00 20.00     0.091 C 
HETATM    7  O7  UNL     1     -34.501   5.118   5.982  1.00 20.00    -0.298 OA
ENDBRANCH   4   5
TORSDOF 1
ENDMDL
MODEL 9
REMARK VINA RESULT:      -4.2      1.601      1.883
REMARK  1 active torsions:
REMARK  status: ('A' for Active; 'I' for Inactive)
REMARK    1  A    between atoms: C1_1  and  C6_6 
ROOT
HETATM    1  C3  UNL     1     -33.229   7.266   3.263  1.00 20.00     0.022 C 
HETATM    2  C4  UNL     1     -35.526   6.242   3.196  1.00 20.00     0.022 C 
HETATM    3  C5  UNL     1     -33.506   4.780   3.261  1.00 20.00     0.022 C 
HETATM    4  C6  UNL     1     -34.104   6.108   3.757  1.00 20.00     0.009 C 
ENDROOT
BRANCH   4   5
HETATM    5  C1  UNL     1     -34.122   6.118   5.297  1.00 20.00     0.130 C 
HETATM    6  C2  UNL     1     -33.654   7.362   6.015  1.00 20.00     0.091 C 
HETATM    7  O7  UNL     1     -34.487   5.138   5.952  1.00 20.00    -0.298 OA
ENDBRANCH   4   5
TORSDOF 1
ENDMDL
