MODEL 1
REMARK VINA RESULT:      -6.3      0.000      0.000
REMARK  1 active torsions:
REMARK  status: ('A' for Active; 'I' for Inactive)
REMARK    1  A    between atoms: C6_6  and  C9_9 
ROOT
HETATM    1  C1  UNL     1     -34.524   5.674   5.283  1.00 20.00     0.127 C 
HETATM    2  C2  UNL     1     -34.896   5.507   3.827  1.00 20.00     0.079 C 
HETATM    3  C3  UNL     1     -34.034   7.042   5.701  1.00 20.00     0.079 C 
HETATM    4  C4  UNL     1     -33.784   6.028   2.925  1.00 20.00     0.012 C 
HETATM    5  C5  UNL     1     -32.940   7.531   4.762  1.00 20.00     0.012 C 
HETATM    6  C6  UNL     1     -33.378   7.463   3.291  1.00 20.00    -0.010 C 
HETATM    7  O10 UNL     1     -34.707   4.776   6.103  1.00 20.00    -0.298 OA
ENDROOT
BRANCH   6   8
HETATM    8  C9  UNL     1     -32.260   7.956   2.373  1.00 20.00    -0.019 C 
HETATM    9  C7  UNL     1     -32.756   9.097   1.488  1.00 20.00     0.010 C 
HETATM   10  C8  UNL     1     -31.051   8.399   3.193  1.00 20.00     0.010 C 
ENDBRANCH   6   8
TORSDOF 1
ENDMDL
MODEL 2
REMARK VINA RESULT:      -5.3      2.180      4.307
REMARK  1 active torsions:
REMARK  status: ('A' for Active; 'I' for Inactive)
REMARK    1  A    between atoms: C6_6  and  C9_9 
ROOT
HETATM    1  C1  UNL     1     -31.967   8.039   3.373  1.00 20.00     0.127 C 
HETATM    2  C2  UNL     1     -32.690   8.299   4.674  1.00 20.00     0.079 C 
HETATM    3  C3  UNL     1     -32.747   7.311   2.302  1.00 20.00     0.079 C 
HETATM    4  C4  UNL     1     -33.339   7.022   5.194  1.00 20.00     0.012 C 
HETATM    5  C5  UNL     1     -33.395   6.054   2.869  1.00 20.00     0.012 C 
HETATM    6  C6  UNL     1     -34.221   6.356   4.127  1.00 20.00    -0.010 C 
HETATM    7  O10 UNL     1     -30.841   8.485   3.159  1.00 20.00    -0.298 OA
ENDROOT
BRANCH   6   8
HETATM    8  C9  UNL     1     -34.854   5.078   4.675  1.00 20.00    -0.019 C 
HETATM    9  C7  UNL     1     -34.171   3.846   4.088  1.00 20.00     0.010 C 
HETATM   10  C8  UNL     1     -34.784   5.057   6.200  1.00 20.00     0.010 C 
ENDBRANCH   6   8
TORSDOF 1
ENDMDL
MODEL 3
REMARK VINA RESULT:      -5.1      2.416      4.188
REMARK  1 active torsions:
REMARK  status: ('A' for Active; 'I' for Inactive)
REMARK    1  A    between atoms: C6_6  and  C9_9 
ROOT
HETATM    1  C1  UNL     1     -32.183   8.495   2.229  1.00 20.00     0.127 C 
HETATM    2  C2  UNL     1     -32.736   7.294   1.496  1.00 20.00     0.079 C 
HETATM    3  C3  UNL     1     -31.780   8.278   3.670  1.00 20.00     0.079 C 
HETATM    4  C4  UNL     1     -33.835   6.625   2.313  1.00 20.00     0.012 C 
HETATM    5  C5  UNL     1     -32.897   7.590   4.443  1.00 20.00     0.012 C 
HETATM    6  C6  UNL     1     -33.370   6.308   3.741  1.00 20.00    -0.010 C 
HETATM    7  O10 UNL     1     -31.975   9.562   1.655  1.00 20.00    -0.298 OA
ENDROOT
BRANCH   6   8
HETATM    8  C9  UNL     1     -34.492   5.642   4.536  1.00 20.00    -0.019 C 
HETATM    9  C7  UNL     1     -34.354   4.122   4.492  1.00 20.00     0.010 C 
HETATM   10  C8  UNL     1     -34.493   6.139   5.980  1.00 20.00     0.010 C 
ENDBRANCH   6   8
TORSDOF 1
ENDMDL
MODEL 4
REMARK VINA RESULT:      -4.8     11.355     11.869
REMARK  1 active torsions:
REMARK  status: ('A' for Active; 'I' for Inactive)
REMARK    1  A    between atoms: C6_6  and  C9_9 
ROOT
HETATM    1  C1  UNL     1     -35.475  13.916  -4.931  1.00 20.00     0.127 C 
HETATM    2  C2  UNL     1     -34.031  14.297  -5.161  1.00 20.00     0.079 C 
HETATM    3  C3  UNL     1     -36.395  15.017  -4.452  1.00 20.00     0.079 C 
HETATM    4  C4  UNL     1     -33.471  15.038  -3.953  1.00 20.00     0.012 C 
HETATM    5  C5  UNL     1     -35.788  15.743  -3.259  1.00 20.00     0.012 C 
HETATM    6  C6  UNL     1     -34.359  16.224  -3.550  1.00 20.00    -0.010 C 
HETATM    7  O10 UNL     1     -35.902  12.799  -5.217  1.00 20.00    -0.298 OA
ENDROOT
BRANCH   6   8
HETATM    8  C9  UNL     1     -33.775  16.944  -2.336  1.00 20.00    -0.019 C 
HETATM    9  C7  UNL     1     -33.233  18.315  -2.733  1.00 20.00     0.010 C 
HETATM   10  C8  UNL     1     -34.827  17.080  -1.238  1.00 20.00     0.010 C 
ENDBRANCH   6   8
TORSDOF 1
ENDMDL
MODEL 5
REMARK VINA RESULT:      -4.7      1.151      2.215
REMARK  1 active torsions:
REMARK  status: ('A' for Active; 'I' for Inactive)
REMARK    1  A    between atoms: C6_6  and  C9_9 
ROOT
HETATM    1  C1  UNL     1     -34.285   5.917   4.075  1.00 20.00     0.127 C 
HETATM    2  C2  UNL     1     -33.707   7.034   4.912  1.00 20.00     0.079 C 
HETATM    3  C3  UNL     1     -33.464   5.471   2.886  1.00 20.00     0.079 C 
HETATM    4  C4  UNL     1     -33.280   8.201   4.031  1.00 20.00     0.012 C 
HETATM    5  C5  UNL     1     -33.041   6.669   2.045  1.00 20.00     0.012 C 
HETATM    6  C6  UNL     1     -32.352   7.747   2.895  1.00 20.00    -0.010 C 
HETATM    7  O10 UNL     1     -35.316   5.332   4.402  1.00 20.00    -0.298 OA
ENDROOT
BRANCH   6   8
HETATM    8  C9  UNL     1     -31.944   8.936   2.026  1.00 20.00    -0.019 C 
HETATM    9  C7  UNL     1     -31.348   8.457   0.705  1.00 20.00     0.010 C 
HETATM   10  C8  UNL     1     -33.139   9.852   1.776  1.00 20.00     0.010 C 
ENDBRANCH   6   8
TORSDOF 1
ENDMDL
MODEL 6
REMARK VINA RESULT:      -4.6      1.526      2.896
REMARK  1 active torsions:
REMARK  status: ('A' for Active; 'I' for Inactive)
REMARK    1  A    between atoms: C6_6  and  C9_9 
ROOT
HETATM    1  C1  UNL     1     -33.164   7.153   4.156  1.00 20.00     0.127 C 
HETATM    2  C2  UNL     1     -31.915   8.002   4.222  1.00 20.00     0.079 C 
HETATM    3  C3  UNL     1     -33.477   6.518   2.820  1.00 20.00     0.079 C 
HETATM    4  C4  UNL     1     -31.888   9.009   3.079  1.00 20.00     0.012 C 
HETATM    5  C5  UNL     1     -33.419   7.554   1.705  1.00 20.00     0.012 C 
HETATM    6  C6  UNL     1     -32.093   8.330   1.717  1.00 20.00    -0.010 C 
HETATM    7  O10 UNL     1     -33.832   6.908   5.159  1.00 20.00    -0.298 OA
ENDROOT
BRANCH   6   8
HETATM    8  C9  UNL     1     -32.065   9.364   0.592  1.00 20.00    -0.019 C 
HETATM    9  C7  UNL     1     -32.979   8.935  -0.554  1.00 20.00     0.010 C 
HETATM   10  C8  UNL     1     -32.471  10.738   1.118  1.00 20.00     0.010 C 
ENDBRANCH   6   8
TORSDOF 1
ENDMDL
MODEL 7
REMARK VINA RESULT:      -4.5     11.465     12.351
REMARK  1 active torsions:
REMARK  status: ('A' for Active; 'I' for Inactive)
REMARK    1  A    between atoms: C6_6  and  C9_9 
ROOT
HETATM    1  C1  UNL     1     -34.112  14.636  -5.678  1.00 20.00     0.127 C 
HETATM    2  C2  UNL     1     -34.637  14.102  -4.365  1.00 20.00     0.079 C 
HETATM    3  C3  UNL     1     -33.018  15.677  -5.593  1.00 20.00     0.079 C 
HETATM    4  C4  UNL     1     -34.995  15.246  -3.424  1.00 20.00     0.012 C 
HETATM    5  C5  UNL     1     -33.407  16.788  -4.627  1.00 20.00     0.012 C 
HETATM    6  C6  UNL     1     -33.830  16.233  -3.259  1.00 20.00    -0.010 C 
HETATM    7  O10 UNL     1     -34.480  14.174  -6.756  1.00 20.00    -0.298 OA
ENDROOT
BRANCH   6   8
HETATM    8  C9  UNL     1     -34.219  17.369  -2.314  1.00 20.00    -0.019 C 
HETATM    9  C7  UNL     1     -35.299  16.911  -1.337  1.00 20.00     0.010 C 
HETATM   10  C8  UNL     1     -32.994  17.881  -1.560  1.00 20.00     0.010 C 
ENDBRANCH   6   8
TORSDOF 1
ENDMDL
MODEL 8
REMARK VINA RESULT:      -4.4      2.574      4.581
REMARK  1 active torsions:
REMARK  status: ('A' for Active; 'I' for Inactive)
REMARK    1  A    between atoms: C6_6  and  C9_9 
ROOT
HETATM    1  C1  UNL     1     -31.877   8.427   1.526  1.00 20.00     0.127 C 
HETATM    2  C2  UNL     1     -31.676   8.981   2.917  1.00 20.00     0.079 C 
HETATM    3  C3  UNL     1     -33.212   7.773   1.247  1.00 20.00     0.079 C 
HETATM    4  C4  UNL     1     -32.045   7.942   3.968  1.00 20.00     0.012 C 
HETATM    5  C5  UNL     1     -33.550   6.758   2.331  1.00 20.00     0.012 C 
HETATM    6  C6  UNL     1     -33.452   7.371   3.736  1.00 20.00    -0.010 C 
HETATM    7  O10 UNL     1     -31.042   8.591   0.638  1.00 20.00    -0.298 OA
ENDROOT
BRANCH   6   8
HETATM    8  C9  UNL     1     -33.792   6.330   4.802  1.00 20.00    -0.019 C 
HETATM    9  C7  UNL     1     -34.000   6.999   6.159  1.00 20.00     0.010 C 
HETATM   10  C8  UNL     1     -35.032   5.536   4.398  1.00 20.00     0.010 C 
ENDBRANCH   6   8
TORSDOF 1
ENDMDL
MODEL 9
REMARK VINA RESULT:      -4.2     11.443     12.060
REMARK  1 active torsions:
REMARK  status: ('A' for Active; 'I' for Inactive)
REMARK    1  A    between atoms: C6_6  and  C9_9 
ROOT
HETATM    1  C1  UNL     1     -34.483  18.152   0.388  1.00 20.00     0.127 C 
HETATM    2  C2  UNL     1     -35.666  17.647  -0.405  1.00 20.00     0.079 C 
HETATM    3  C3  UNL     1     -33.334  18.728  -0.408  1.00 20.00     0.079 C 
HETATM    4  C4  UNL     1     -35.207  16.717  -1.521  1.00 20.00     0.012 C 
HETATM    5  C5  UNL     1     -32.922  17.777  -1.524  1.00 20.00     0.012 C 
HETATM    6  C6  UNL     1     -34.120  17.363  -2.391  1.00 20.00    -0.010 C 
HETATM    7  O10 UNL     1     -34.497  18.188   1.617  1.00 20.00    -0.298 OA
ENDROOT
BRANCH   6   8
HETATM    8  C9  UNL     1     -33.678  16.407  -3.498  1.00 20.00    -0.019 C 
HETATM    9  C7  UNL     1     -34.690  15.276  -3.667  1.00 20.00     0.010 C 
HETATM   10  C8  UNL     1     -33.489  17.160  -4.812  1.00 20.00     0.010 C 
ENDBRANCH   6   8
TORSDOF 1
ENDMDL
