MODEL 1
REMARK VINA RESULT:      -3.6      0.000      0.000
REMARK  3 active torsions:
REMARK  status: ('A' for Active; 'I' for Inactive)
REMARK    1  A    between atoms: C3_3  and  C4_4 
REMARK    2  A    between atoms: C3_3  and  S7_7 
REMARK    3  A    between atoms: C4_4  and  S8_8 
ROOT
HETATM    1  C1  UNL     1     -32.284   9.300   1.592  1.00 20.00     0.133 C 
HETATM    2  N5  UNL     1     -32.522  10.186   0.881  1.00 20.00    -0.184 NA
HETATM    3  S7  UNL     1     -31.926   8.015   2.629  1.00 20.00    -0.050 SA
ENDROOT
BRANCH   3   4
HETATM    4  C3  UNL     1     -33.536   7.175   2.573  1.00 20.00     0.101 C 
BRANCH   4   5
HETATM    5  C4  UNL     1     -33.377   5.709   2.951  1.00 20.00     0.101 C 
BRANCH   5   6
HETATM    6  S8  UNL     1     -34.565   5.263   4.251  1.00 20.00    -0.050 SA
HETATM    7  C2  UNL     1     -34.169   6.466   5.369  1.00 20.00     0.133 C 
HETATM    8  N6  UNL     1     -33.902   7.289   6.142  1.00 20.00    -0.184 NA
ENDBRANCH   5   6
ENDBRANCH   4   5
ENDBRANCH   3   4
TORSDOF 3
ENDMDL
MODEL 2
REMARK VINA RESULT:      -3.6      0.054      4.574
REMARK  3 active torsions:
REMARK  status: ('A' for Active; 'I' for Inactive)
REMARK    1  A    between atoms: C3_3  and  C4_4 
REMARK    2  A    between atoms: C3_3  and  S7_7 
REMARK    3  A    between atoms: C4_4  and  S8_8 
ROOT
HETATM    1  C1  UNL     1     -34.177   6.453   5.364  1.00 20.00     0.133 C 
HETATM    2  N5  UNL     1     -33.934   7.285   6.135  1.00 20.00    -0.184 NA
HETATM    3  S7  UNL     1     -34.541   5.236   4.249  1.00 20.00    -0.050 SA
ENDROOT
BRANCH   3   4
HETATM    4  C3  UNL     1     -33.354   5.703   2.954  1.00 20.00     0.101 C 
BRANCH   4   5
HETATM    5  C4  UNL     1     -33.528   7.171   2.587  1.00 20.00     0.101 C 
BRANCH   5   6
HETATM    6  S8  UNL     1     -31.931   8.034   2.673  1.00 20.00    -0.050 SA
HETATM    7  C2  UNL     1     -32.257   9.264   1.561  1.00 20.00     0.133 C 
HETATM    8  N6  UNL     1     -32.472  10.111   0.799  1.00 20.00    -0.184 NA
ENDBRANCH   5   6
ENDBRANCH   4   5
ENDBRANCH   3   4
TORSDOF 3
ENDMDL
MODEL 3
REMARK VINA RESULT:      -3.6      1.794      4.916
REMARK  3 active torsions:
REMARK  status: ('A' for Active; 'I' for Inactive)
REMARK    1  A    between atoms: C3_3  and  C4_4 
REMARK    2  A    between atoms: C3_3  and  S7_7 
REMARK    3  A    between atoms: C4_4  and  S8_8 
ROOT
HETATM    1  C1  UNL     1     -34.352   4.909   4.879  1.00 20.00     0.133 C 
HETATM    2  N5  UNL     1     -34.487   3.843   4.440  1.00 20.00    -0.184 NA
HETATM    3  S7  UNL     1     -34.155   6.455   5.531  1.00 20.00    -0.050 SA
ENDROOT
BRANCH   3   4
HETATM    4  C3  UNL     1     -34.069   7.388   3.973  1.00 20.00     0.101 C 
BRANCH   4   5
HETATM    5  C4  UNL     1     -32.885   6.913   3.142  1.00 20.00     0.101 C 
BRANCH   5   6
HETATM    6  S8  UNL     1     -31.634   8.226   3.025  1.00 20.00    -0.050 SA
HETATM    7  C2  UNL     1     -32.062   8.838   1.509  1.00 20.00     0.133 C 
HETATM    8  N6  UNL     1     -32.349   9.263   0.469  1.00 20.00    -0.184 NA
ENDBRANCH   5   6
ENDBRANCH   4   5
ENDBRANCH   3   4
TORSDOF 3
ENDMDL
MODEL 4
REMARK VINA RESULT:      -3.5      1.744      1.816
REMARK  3 active torsions:
REMARK  status: ('A' for Active; 'I' for Inactive)
REMARK    1  A    between atoms: C3_3  and  C4_4 
REMARK    2  A    between atoms: C3_3  and  S7_7 
REMARK    3  A    between atoms: C4_4  and  S8_8 
ROOT
HETATM    1  C1  UNL     1     -32.178   9.053   1.610  1.00 20.00     0.133 C 
HETATM    2  N5  UNL     1     -32.561   9.600   0.661  1.00 20.00    -0.184 NA
HETATM    3  S7  UNL     1     -31.611   8.264   2.993  1.00 20.00    -0.050 SA
ENDROOT
BRANCH   3   4
HETATM    4  C3  UNL     1     -32.839   6.926   3.055  1.00 20.00     0.101 C 
BRANCH   4   5
HETATM    5  C4  UNL     1     -34.050   7.361   3.869  1.00 20.00     0.101 C 
BRANCH   5   6
HETATM    6  S8  UNL     1     -34.081   6.488   5.462  1.00 20.00    -0.050 SA
HETATM    7  C2  UNL     1     -34.351   4.924   4.880  1.00 20.00     0.133 C 
HETATM    8  N6  UNL     1     -34.537   3.849   4.489  1.00 20.00    -0.184 NA
ENDBRANCH   5   6
ENDBRANCH   4   5
ENDBRANCH   3   4
TORSDOF 3
ENDMDL
MODEL 5
REMARK VINA RESULT:      -3.3      1.716      1.772
REMARK  3 active torsions:
REMARK  status: ('A' for Active; 'I' for Inactive)
REMARK    1  A    between atoms: C3_3  and  C4_4 
REMARK    2  A    between atoms: C3_3  and  S7_7 
REMARK    3  A    between atoms: C4_4  and  S8_8 
ROOT
HETATM    1  C1  UNL     1     -32.898   9.384   0.237  1.00 20.00     0.133 C 
HETATM    2  N5  UNL     1     -33.293   9.253  -0.847  1.00 20.00    -0.184 NA
HETATM    3  S7  UNL     1     -32.324   9.587   1.813  1.00 20.00    -0.050 SA
ENDROOT
BRANCH   3   4
HETATM    4  C3  UNL     1     -32.140   7.834   2.254  1.00 20.00     0.101 C 
BRANCH   4   5
HETATM    5  C4  UNL     1     -33.107   7.469   3.373  1.00 20.00     0.101 C 
BRANCH   5   6
HETATM    6  S8  UNL     1     -33.929   5.891   3.003  1.00 20.00    -0.050 SA
HETATM    7  C2  UNL     1     -34.383   5.476   4.577  1.00 20.00     0.133 C 
HETATM    8  N6  UNL     1     -34.697   5.183   5.654  1.00 20.00    -0.184 NA
ENDBRANCH   5   6
ENDBRANCH   4   5
ENDBRANCH   3   4
TORSDOF 3
ENDMDL
MODEL 6
REMARK VINA RESULT:      -3.3      1.886      5.131
REMARK  3 active torsions:
REMARK  status: ('A' for Active; 'I' for Inactive)
REMARK    1  A    between atoms: C3_3  and  C4_4 
REMARK    2  A    between atoms: C3_3  and  S7_7 
REMARK    3  A    between atoms: C4_4  and  S8_8 
ROOT
HETATM    1  C1  UNL     1     -34.379   5.123   4.527  1.00 20.00     0.133 C 
HETATM    2  N5  UNL     1     -34.403   3.975   4.357  1.00 20.00    -0.184 NA
HETATM    3  S7  UNL     1     -34.356   6.793   4.781  1.00 20.00    -0.050 SA
ENDROOT
BRANCH   3   4
HETATM    4  C3  UNL     1     -32.785   7.164   3.947  1.00 20.00     0.101 C 
BRANCH   4   5
HETATM    5  C4  UNL     1     -33.034   7.500   2.483  1.00 20.00     0.101 C 
BRANCH   5   6
HETATM    6  S8  UNL     1     -31.840   8.746   1.913  1.00 20.00    -0.050 SA
HETATM    7  C2  UNL     1     -32.643   9.229   0.506  1.00 20.00     0.133 C 
HETATM    8  N6  UNL     1     -33.187   9.565  -0.461  1.00 20.00    -0.184 NA
ENDBRANCH   5   6
ENDBRANCH   4   5
ENDBRANCH   3   4
TORSDOF 3
ENDMDL
MODEL 7
REMARK VINA RESULT:      -3.3     11.304     11.790
REMARK  3 active torsions:
REMARK  status: ('A' for Active; 'I' for Inactive)
REMARK    1  A    between atoms: C3_3  and  C4_4 
REMARK    2  A    between atoms: C3_3  and  S7_7 
REMARK    3  A    between atoms: C4_4  and  S8_8 
ROOT
HETATM    1  C1  UNL     1     -34.645  13.539  -6.823  1.00 20.00     0.133 C 
HETATM    2  N5  UNL     1     -35.036  12.447  -6.849  1.00 20.00    -0.184 NA
HETATM    3  S7  UNL     1     -34.079  15.131  -6.797  1.00 20.00    -0.050 SA
ENDROOT
BRANCH   3   4
HETATM    4  C3  UNL     1     -33.532  15.188  -5.065  1.00 20.00     0.101 C 
BRANCH   4   5
HETATM    5  C4  UNL     1     -34.623  14.645  -4.152  1.00 20.00     0.101 C 
BRANCH   5   6
HETATM    6  S8  UNL     1     -36.008  15.818  -4.063  1.00 20.00    -0.050 SA
HETATM    7  C2  UNL     1     -37.236  14.788  -4.602  1.00 20.00     0.133 C 
HETATM    8  N6  UNL     1     -38.083  14.089  -4.972  1.00 20.00    -0.184 NA
ENDBRANCH   5   6
ENDBRANCH   4   5
ENDBRANCH   3   4
TORSDOF 3
ENDMDL
MODEL 8
REMARK VINA RESULT:      -3.3     11.419     12.272
REMARK  3 active torsions:
REMARK  status: ('A' for Active; 'I' for Inactive)
REMARK    1  A    between atoms: C3_3  and  C4_4 
REMARK    2  A    between atoms: C3_3  and  S7_7 
REMARK    3  A    between atoms: C4_4  and  S8_8 
ROOT
HETATM    1  C1  UNL     1     -35.690  13.286  -6.353  1.00 20.00     0.133 C 
HETATM    2  N5  UNL     1     -35.950  12.855  -5.307  1.00 20.00    -0.184 NA
HETATM    3  S7  UNL     1     -35.320  13.907  -7.881  1.00 20.00    -0.050 SA
ENDROOT
BRANCH   3   4
HETATM    4  C3  UNL     1     -34.095  15.148  -7.370  1.00 20.00     0.101 C 
BRANCH   4   5
HETATM    5  C4  UNL     1     -34.701  16.092  -6.341  1.00 20.00     0.101 C 
BRANCH   5   6
HETATM    6  S8  UNL     1     -33.458  16.541  -5.093  1.00 20.00    -0.050 SA
HETATM    7  C2  UNL     1     -33.042  14.983  -4.590  1.00 20.00     0.133 C 
HETATM    8  N6  UNL     1     -32.752  13.916  -4.238  1.00 20.00    -0.184 NA
ENDBRANCH   5   6
ENDBRANCH   4   5
ENDBRANCH   3   4
TORSDOF 3
ENDMDL
MODEL 9
REMARK VINA RESULT:      -3.2     11.348     12.095
REMARK  3 active torsions:
REMARK  status: ('A' for Active; 'I' for Inactive)
REMARK    1  A    between atoms: C3_3  and  C4_4 
REMARK    2  A    between atoms: C3_3  and  S7_7 
REMARK    3  A    between atoms: C4_4  and  S8_8 
ROOT
HETATM    1  C1  UNL     1     -37.290  14.795  -4.665  1.00 20.00     0.133 C 
HETATM    2  N5  UNL     1     -38.146  14.075  -4.973  1.00 20.00    -0.184 NA
HETATM    3  S7  UNL     1     -36.051  15.854  -4.217  1.00 20.00    -0.050 SA
ENDROOT
BRANCH   3   4
HETATM    4  C3  UNL     1     -34.692  14.650  -4.140  1.00 20.00     0.101 C 
BRANCH   4   5
HETATM    5  C4  UNL     1     -33.547  15.094  -5.040  1.00 20.00     0.101 C 
BRANCH   5   6
HETATM    6  S8  UNL     1     -34.075  15.085  -6.779  1.00 20.00    -0.050 SA
HETATM    7  C2  UNL     1     -34.661  13.502  -6.849  1.00 20.00     0.133 C 
HETATM    8  N6  UNL     1     -35.064  12.416  -6.907  1.00 20.00    -0.184 NA
ENDBRANCH   5   6
ENDBRANCH   4   5
ENDBRANCH   3   4
TORSDOF 3
ENDMDL
