MODEL 1
REMARK VINA RESULT:      -4.1      0.000      0.000
REMARK  2 active torsions:
REMARK  status: ('A' for Active; 'I' for Inactive)
REMARK    1  A    between atoms: C2_2  and  C4_4 
REMARK    2  A    between atoms: C3_3  and  C4_4 
ROOT
HETATM    1  C4  UNL     1     -33.722   7.254   3.777  1.00 20.00     0.127 C 
HETATM    2 CL7  UNL     1     -34.670   5.884   3.124  1.00 20.00    -0.121 Cl
ENDROOT
BRANCH   1   3
HETATM    3  C2  UNL     1     -32.362   7.309   3.092  1.00 20.00     0.164 A 
HETATM    4  C1  UNL     1     -31.982   8.464   2.210  1.00 20.00     0.201 A 
HETATM    5  O5  UNL     1     -31.503   8.355   3.559  1.00 20.00    -0.380 OA
ENDBRANCH   1   3
BRANCH   1   6
HETATM    6  C3  UNL     1     -33.641   7.186   5.302  1.00 20.00     0.137 C 
HETATM    7 CL6  UNL     1     -34.469   5.771   6.001  1.00 20.00    -0.129 Cl
ENDBRANCH   1   6
TORSDOF 2
ENDMDL
MODEL 2
REMARK VINA RESULT:      -4.0      2.892      3.807
REMARK  2 active torsions:
REMARK  status: ('A' for Active; 'I' for Inactive)
REMARK    1  A    between atoms: C2_2  and  C4_4 
REMARK    2  A    between atoms: C3_3  and  C4_4 
ROOT
HETATM    1  C4  UNL     1     -34.081   6.892   4.181  1.00 20.00     0.127 C 
HETATM    2 CL7  UNL     1     -33.464   7.370   5.792  1.00 20.00    -0.121 Cl
ENDROOT
BRANCH   1   3
HETATM    3  C2  UNL     1     -34.923   5.629   4.308  1.00 20.00     0.164 A 
HETATM    4  C1  UNL     1     -34.282   4.274   4.408  1.00 20.00     0.201 A 
HETATM    5  O5  UNL     1     -34.796   4.954   5.564  1.00 20.00    -0.380 OA
ENDBRANCH   1   3
BRANCH   1   6
HETATM    6  C3  UNL     1     -32.939   6.771   3.171  1.00 20.00     0.137 C 
HETATM    7 CL6  UNL     1     -31.726   8.070   3.302  1.00 20.00    -0.129 Cl
ENDBRANCH   1   6
TORSDOF 2
ENDMDL
MODEL 3
REMARK VINA RESULT:      -3.9      1.565      1.977
REMARK  2 active torsions:
REMARK  status: ('A' for Active; 'I' for Inactive)
REMARK    1  A    between atoms: C2_2  and  C4_4 
REMARK    2  A    between atoms: C3_3  and  C4_4 
ROOT
HETATM    1  C4  UNL     1     -33.483   6.694   4.380  1.00 20.00     0.127 C 
HETATM    2 CL7  UNL     1     -33.820   7.393   5.993  1.00 20.00    -0.121 Cl
ENDROOT
BRANCH   1   3
HETATM    3  C2  UNL     1     -33.135   7.809   3.401  1.00 20.00     0.164 A 
HETATM    4  C1  UNL     1     -31.708   8.205   3.147  1.00 20.00     0.201 A 
HETATM    5  O5  UNL     1     -32.437   7.375   2.229  1.00 20.00    -0.380 OA
ENDBRANCH   1   3
BRANCH   1   6
HETATM    6  C3  UNL     1     -34.637   5.806   3.916  1.00 20.00     0.137 C 
HETATM    7 CL6  UNL     1     -34.521   4.122   4.489  1.00 20.00    -0.129 Cl
ENDBRANCH   1   6
TORSDOF 2
ENDMDL
MODEL 4
REMARK VINA RESULT:      -3.7      2.494      3.498
REMARK  2 active torsions:
REMARK  status: ('A' for Active; 'I' for Inactive)
REMARK    1  A    between atoms: C2_2  and  C4_4 
REMARK    2  A    between atoms: C3_3  and  C4_4 
ROOT
HETATM    1  C4  UNL     1     -33.099   6.190   3.555  1.00 20.00     0.127 C 
HETATM    2 CL7  UNL     1     -33.097   4.731   2.519  1.00 20.00    -0.121 Cl
ENDROOT
BRANCH   1   3
HETATM    3  C2  UNL     1     -34.388   6.241   4.367  1.00 20.00     0.164 A 
HETATM    4  C1  UNL     1     -34.581   5.368   5.575  1.00 20.00     0.201 A 
HETATM    5  O5  UNL     1     -34.235   6.757   5.693  1.00 20.00    -0.380 OA
ENDBRANCH   1   3
BRANCH   1   6
HETATM    6  C3  UNL     1     -32.844   7.450   2.727  1.00 20.00     0.137 C 
HETATM    7 CL6  UNL     1     -31.442   8.400   3.280  1.00 20.00    -0.129 Cl
ENDBRANCH   1   6
TORSDOF 2
ENDMDL
MODEL 5
REMARK VINA RESULT:      -3.7      2.649      3.763
REMARK  2 active torsions:
REMARK  status: ('A' for Active; 'I' for Inactive)
REMARK    1  A    between atoms: C2_2  and  C4_4 
REMARK    2  A    between atoms: C3_3  and  C4_4 
ROOT
HETATM    1  C4  UNL     1     -33.617   7.281   4.007  1.00 20.00     0.127 C 
HETATM    2 CL7  UNL     1     -33.559   7.344   5.795  1.00 20.00    -0.121 Cl
ENDROOT
BRANCH   1   3
HETATM    3  C2  UNL     1     -34.156   5.927   3.559  1.00 20.00     0.164 A 
HETATM    4  C1  UNL     1     -34.614   4.903   4.559  1.00 20.00     0.201 A 
HETATM    5  O5  UNL     1     -35.546   5.721   3.833  1.00 20.00    -0.380 OA
ENDBRANCH   1   3
BRANCH   1   6
HETATM    6  C3  UNL     1     -32.257   7.632   3.402  1.00 20.00     0.137 C 
HETATM    7 CL6  UNL     1     -32.364   8.410   1.803  1.00 20.00    -0.129 Cl
ENDBRANCH   1   6
TORSDOF 2
ENDMDL
MODEL 6
REMARK VINA RESULT:      -3.6      1.445      1.458
REMARK  2 active torsions:
REMARK  status: ('A' for Active; 'I' for Inactive)
REMARK    1  A    between atoms: C2_2  and  C4_4 
REMARK    2  A    between atoms: C3_3  and  C4_4 
ROOT
HETATM    1  C4  UNL     1     -33.717   6.183   3.024  1.00 20.00     0.127 C 
HETATM    2 CL7  UNL     1     -32.929   4.638   2.584  1.00 20.00    -0.121 Cl
ENDROOT
BRANCH   1   3
HETATM    3  C2  UNL     1     -32.659   7.263   3.214  1.00 20.00     0.164 A 
HETATM    4  C1  UNL     1     -32.072   7.992   2.040  1.00 20.00     0.201 A 
HETATM    5  O5  UNL     1     -33.087   8.583   2.866  1.00 20.00    -0.380 OA
ENDBRANCH   1   3
BRANCH   1   6
HETATM    6  C3  UNL     1     -34.638   6.004   4.232  1.00 20.00     0.137 C 
HETATM    7 CL6  UNL     1     -34.049   6.812   5.707  1.00 20.00    -0.129 Cl
ENDBRANCH   1   6
TORSDOF 2
ENDMDL
MODEL 7
REMARK VINA RESULT:      -3.4      3.008      4.034
REMARK  2 active torsions:
REMARK  status: ('A' for Active; 'I' for Inactive)
REMARK    1  A    between atoms: C2_2  and  C4_4 
REMARK    2  A    between atoms: C3_3  and  C4_4 
ROOT
HETATM    1  C4  UNL     1     -32.679   7.972   2.782  1.00 20.00     0.127 C 
HETATM    2 CL7  UNL     1     -31.333   8.398   3.882  1.00 20.00    -0.121 Cl
ENDROOT
BRANCH   1   3
HETATM    3  C2  UNL     1     -32.943   6.473   2.851  1.00 20.00     0.164 A 
HETATM    4  C1  UNL     1     -34.029   5.914   3.725  1.00 20.00     0.201 A 
HETATM    5  O5  UNL     1     -34.202   6.065   2.307  1.00 20.00    -0.380 OA
ENDBRANCH   1   3
BRANCH   1   6
HETATM    6  C3  UNL     1     -32.413   8.486   1.367  1.00 20.00     0.137 C 
HETATM    7 CL6  UNL     1     -32.686  10.236   1.176  1.00 20.00    -0.129 Cl
ENDBRANCH   1   6
TORSDOF 2
ENDMDL
MODEL 8
REMARK VINA RESULT:      -3.3      2.511      3.311
REMARK  2 active torsions:
REMARK  status: ('A' for Active; 'I' for Inactive)
REMARK    1  A    between atoms: C2_2  and  C4_4 
REMARK    2  A    between atoms: C3_3  and  C4_4 
ROOT
HETATM    1  C4  UNL     1     -33.492   7.237   3.511  1.00 20.00     0.127 C 
HETATM    2 CL7  UNL     1     -32.017   8.008   2.853  1.00 20.00    -0.121 Cl
ENDROOT
BRANCH   1   3
HETATM    3  C2  UNL     1     -33.238   6.784   4.943  1.00 20.00     0.164 A 
HETATM    4  C1  UNL     1     -33.923   7.450   6.103  1.00 20.00     0.201 A 
HETATM    5  O5  UNL     1     -34.369   6.186   5.587  1.00 20.00    -0.380 OA
ENDBRANCH   1   3
BRANCH   1   6
HETATM    6  C3  UNL     1     -33.983   6.119   2.590  1.00 20.00     0.137 C 
HETATM    7 CL6  UNL     1     -32.959   4.661   2.624  1.00 20.00    -0.129 Cl
ENDBRANCH   1   6
TORSDOF 2
ENDMDL
MODEL 9
REMARK VINA RESULT:      -3.2      2.596      3.078
REMARK  2 active torsions:
REMARK  status: ('A' for Active; 'I' for Inactive)
REMARK    1  A    between atoms: C2_2  and  C4_4 
REMARK    2  A    between atoms: C3_3  and  C4_4 
ROOT
HETATM    1  C4  UNL     1     -33.120   6.747   3.603  1.00 20.00     0.127 C 
HETATM    2 CL7  UNL     1     -32.475   7.559   2.144  1.00 20.00    -0.121 Cl
ENDROOT
BRANCH   1   3
HETATM    3  C2  UNL     1     -34.020   5.589   3.190  1.00 20.00     0.164 A 
HETATM    4  C1  UNL     1     -34.215   4.398   4.085  1.00 20.00     0.201 A 
HETATM    5  O5  UNL     1     -35.199   5.440   3.987  1.00 20.00    -0.380 OA
ENDBRANCH   1   3
BRANCH   1   6
HETATM    6  C3  UNL     1     -33.799   7.753   4.534  1.00 20.00     0.137 C 
HETATM    7 CL6  UNL     1     -33.695   7.316   6.258  1.00 20.00    -0.129 Cl
ENDBRANCH   1   6
TORSDOF 2
ENDMDL
