MODEL 1
REMARK VINA RESULT:      -3.6      0.000      0.000
REMARK  1 active torsions:
REMARK  status: ('A' for Active; 'I' for Inactive)
REMARK    1  A    between atoms: C1_1  and  C3_3 
ROOT
HETATM    1  C1  UNL     1     -33.984   6.190   3.242  1.00 20.00     0.000 C 
HETATM    2  C2  UNL     1     -33.214   7.233   3.563  1.00 20.00     0.081 C 
HETATM    3 CL4  UNL     1     -32.125   7.965   2.462  1.00 20.00    -0.097 Cl
ENDROOT
BRANCH   1   4
HETATM    4  C3  UNL     1     -34.940   5.554   4.195  1.00 20.00     0.142 C 
HETATM    5 CL5  UNL     1     -34.437   5.880   5.868  1.00 20.00    -0.126 Cl
ENDBRANCH   1   4
TORSDOF 1
ENDMDL
MODEL 2
REMARK VINA RESULT:      -3.5      1.039      3.351
REMARK  1 active torsions:
REMARK  status: ('A' for Active; 'I' for Inactive)
REMARK    1  A    between atoms: C1_1  and  C3_3 
ROOT
HETATM    1  C1  UNL     1     -33.498   6.477   3.412  1.00 20.00     0.000 C 
HETATM    2  C2  UNL     1     -33.975   6.665   4.645  1.00 20.00     0.081 C 
HETATM    3 CL4  UNL     1     -34.670   5.410   5.580  1.00 20.00    -0.097 Cl
ENDROOT
BRANCH   1   4
HETATM    4  C3  UNL     1     -32.884   7.565   2.596  1.00 20.00     0.142 C 
HETATM    5 CL5  UNL     1     -31.479   8.243   3.449  1.00 20.00    -0.126 Cl
ENDBRANCH   1   4
TORSDOF 1
ENDMDL
MODEL 3
REMARK VINA RESULT:      -3.4      1.369      3.750
REMARK  1 active torsions:
REMARK  status: ('A' for Active; 'I' for Inactive)
REMARK    1  A    between atoms: C1_1  and  C3_3 
ROOT
HETATM    1  C1  UNL     1     -33.012   6.963   3.105  1.00 20.00     0.000 C 
HETATM    2  C2  UNL     1     -33.862   6.848   4.128  1.00 20.00     0.081 C 
HETATM    3 CL4  UNL     1     -35.088   5.654   4.195  1.00 20.00    -0.097 Cl
ENDROOT
BRANCH   1   4
HETATM    4  C3  UNL     1     -31.937   7.997   3.045  1.00 20.00     0.142 C 
HETATM    5 CL5  UNL     1     -31.855   8.690   1.410  1.00 20.00    -0.126 Cl
ENDBRANCH   1   4
TORSDOF 1
ENDMDL
MODEL 4
REMARK VINA RESULT:      -3.3      2.390      4.384
REMARK  1 active torsions:
REMARK  status: ('A' for Active; 'I' for Inactive)
REMARK    1  A    between atoms: C1_1  and  C3_3 
ROOT
HETATM    1  C1  UNL     1     -32.009   8.410   2.531  1.00 20.00     0.000 C 
HETATM    2  C2  UNL     1     -33.004   7.605   2.912  1.00 20.00     0.081 C 
HETATM    3 CL4  UNL     1     -33.306   7.202   4.549  1.00 20.00    -0.097 Cl
ENDROOT
BRANCH   1   4
HETATM    4  C3  UNL     1     -31.746   8.771   1.107  1.00 20.00     0.142 C 
HETATM    5 CL5  UNL     1     -32.548  10.308   0.714  1.00 20.00    -0.126 Cl
ENDBRANCH   1   4
TORSDOF 1
ENDMDL
MODEL 5
REMARK VINA RESULT:      -3.3      1.735      2.026
REMARK  1 active torsions:
REMARK  status: ('A' for Active; 'I' for Inactive)
REMARK    1  A    between atoms: C1_1  and  C3_3 
ROOT
HETATM    1  C1  UNL     1     -32.816   7.317   2.604  1.00 20.00     0.000 C 
HETATM    2  C2  UNL     1     -32.214   8.465   2.284  1.00 20.00     0.081 C 
HETATM    3 CL4  UNL     1     -31.467   8.739   0.768  1.00 20.00    -0.097 Cl
ENDROOT
BRANCH   1   4
HETATM    4  C3  UNL     1     -33.476   7.075   3.920  1.00 20.00     0.142 C 
HETATM    5 CL5  UNL     1     -34.884   6.011   3.706  1.00 20.00    -0.126 Cl
ENDBRANCH   1   4
TORSDOF 1
ENDMDL
MODEL 6
REMARK VINA RESULT:      -3.2      2.932      3.398
REMARK  1 active torsions:
REMARK  status: ('A' for Active; 'I' for Inactive)
REMARK    1  A    between atoms: C1_1  and  C3_3 
ROOT
HETATM    1  C1  UNL     1     -32.114   8.325   1.861  1.00 20.00     0.000 C 
HETATM    2  C2  UNL     1     -32.512   9.471   1.303  1.00 20.00     0.081 C 
HETATM    3 CL4  UNL     1     -33.033   9.588  -0.324  1.00 20.00    -0.097 Cl
ENDROOT
BRANCH   1   4
HETATM    4  C3  UNL     1     -31.667   8.215   3.281  1.00 20.00     0.142 C 
HETATM    5 CL5  UNL     1     -32.939   7.451   4.259  1.00 20.00    -0.126 Cl
ENDBRANCH   1   4
TORSDOF 1
ENDMDL
MODEL 7
REMARK VINA RESULT:      -3.2      1.957      2.166
REMARK  1 active torsions:
REMARK  status: ('A' for Active; 'I' for Inactive)
REMARK    1  A    between atoms: C1_1  and  C3_3 
ROOT
HETATM    1  C1  UNL     1     -34.290   4.982   4.592  1.00 20.00     0.000 C 
HETATM    2  C2  UNL     1     -33.671   5.527   3.541  1.00 20.00     0.081 C 
HETATM    3 CL4  UNL     1     -33.086   4.606   2.220  1.00 20.00    -0.097 Cl
ENDROOT
BRANCH   1   4
HETATM    4  C3  UNL     1     -34.809   5.780   5.741  1.00 20.00     0.142 C 
HETATM    5 CL5  UNL     1     -33.814   7.236   5.966  1.00 20.00    -0.126 Cl
ENDBRANCH   1   4
TORSDOF 1
ENDMDL
MODEL 8
REMARK VINA RESULT:      -3.0      1.956      2.864
REMARK  1 active torsions:
REMARK  status: ('A' for Active; 'I' for Inactive)
REMARK    1  A    between atoms: C1_1  and  C3_3 
ROOT
HETATM    1  C1  UNL     1     -33.523   6.838   3.662  1.00 20.00     0.000 C 
HETATM    2  C2  UNL     1     -34.081   6.583   4.848  1.00 20.00     0.081 C 
HETATM    3 CL4  UNL     1     -33.774   7.523   6.246  1.00 20.00    -0.097 Cl
ENDROOT
BRANCH   1   4
HETATM    4  C3  UNL     1     -33.794   6.028   2.437  1.00 20.00     0.142 C 
HETATM    5 CL5  UNL     1     -32.900   4.493   2.517  1.00 20.00    -0.126 Cl
ENDBRANCH   1   4
TORSDOF 1
ENDMDL
MODEL 9
REMARK VINA RESULT:      -2.4     11.533     11.818
REMARK  1 active torsions:
REMARK  status: ('A' for Active; 'I' for Inactive)
REMARK    1  A    between atoms: C1_1  and  C3_3 
ROOT
HETATM    1  C1  UNL     1     -34.811  15.534  -3.644  1.00 20.00     0.000 C 
HETATM    2  C2  UNL     1     -34.562  14.401  -4.306  1.00 20.00     0.081 C 
HETATM    3 CL4  UNL     1     -35.795  13.416  -4.970  1.00 20.00    -0.097 Cl
ENDROOT
BRANCH   1   4
HETATM    4  C3  UNL     1     -33.740  16.401  -3.070  1.00 20.00     0.142 C 
HETATM    5 CL5  UNL     1     -34.236  16.997  -1.471  1.00 20.00    -0.126 Cl
ENDBRANCH   1   4
TORSDOF 1
ENDMDL
