MODEL 1
REMARK VINA RESULT:      -6.2      0.000      0.000
REMARK  0 active torsions:
REMARK  status: ('A' for Active; 'I' for Inactive)
ROOT
HETATM    1  C1  UNL     1     -34.354   5.670   5.841  1.00 20.00    -0.029 C 
HETATM    2  C2  UNL     1     -33.940   6.909   5.555  1.00 20.00    -0.023 C 
HETATM    3  C3  UNL     1     -33.202   5.498   2.858  1.00 20.00     0.264 C 
HETATM    4  C4  UNL     1     -34.920   4.984   4.640  1.00 20.00     0.042 C 
HETATM    5  C5  UNL     1     -32.962   7.726   3.366  1.00 20.00     0.188 C 
HETATM    6  C6  UNL     1     -34.185   7.258   4.118  1.00 20.00     0.046 C 
HETATM    7  C7  UNL     1     -34.511   5.908   3.493  1.00 20.00     0.098 C 
HETATM    8  O8  UNL     1     -32.947   4.390   2.410  1.00 20.00    -0.265 OA
HETATM    9  O9  UNL     1     -32.332   6.549   2.848  1.00 20.00    -0.320 OA
ENDROOT
TORSDOF 0
ENDMDL
MODEL 2
REMARK VINA RESULT:      -6.1      1.160      1.553
REMARK  0 active torsions:
REMARK  status: ('A' for Active; 'I' for Inactive)
ROOT
HETATM    1  C1  UNL     1     -33.577   7.034   5.982  1.00 20.00    -0.029 C 
HETATM    2  C2  UNL     1     -33.194   7.536   4.804  1.00 20.00    -0.023 C 
HETATM    3  C3  UNL     1     -34.041   4.667   3.877  1.00 20.00     0.264 C 
HETATM    4  C4  UNL     1     -34.737   6.103   5.838  1.00 20.00     0.042 C 
HETATM    5  C5  UNL     1     -33.294   6.386   2.549  1.00 20.00     0.188 C 
HETATM    6  C6  UNL     1     -34.053   7.035   3.683  1.00 20.00     0.046 C 
HETATM    7  C7  UNL     1     -34.814   5.885   4.326  1.00 20.00     0.098 C 
HETATM    8  O8  UNL     1     -34.182   3.534   4.316  1.00 20.00    -0.265 OA
HETATM    9  O9  UNL     1     -33.154   5.005   2.897  1.00 20.00    -0.320 OA
ENDROOT
TORSDOF 0
ENDMDL
MODEL 3
REMARK VINA RESULT:      -5.7      1.854      3.397
REMARK  0 active torsions:
REMARK  status: ('A' for Active; 'I' for Inactive)
ROOT
HETATM    1  C1  UNL     1     -32.554   6.345   2.704  1.00 20.00    -0.029 C 
HETATM    2  C2  UNL     1     -33.285   5.239   2.871  1.00 20.00    -0.023 C 
HETATM    3  C3  UNL     1     -34.015   6.730   5.527  1.00 20.00     0.264 C 
HETATM    4  C4  UNL     1     -33.234   7.551   3.267  1.00 20.00     0.042 C 
HETATM    5  C5  UNL     1     -34.843   4.715   4.798  1.00 20.00     0.188 C 
HETATM    6  C6  UNL     1     -34.586   5.533   3.555  1.00 20.00     0.046 C 
HETATM    7  C7  UNL     1     -34.382   6.948   4.077  1.00 20.00     0.098 C 
HETATM    8  O8  UNL     1     -33.575   7.583   6.284  1.00 20.00    -0.265 OA
HETATM    9  O9  UNL     1     -34.249   5.434   5.884  1.00 20.00    -0.320 OA
ENDROOT
TORSDOF 0
ENDMDL
MODEL 4
REMARK VINA RESULT:      -5.7      1.359      2.281
REMARK  0 active torsions:
REMARK  status: ('A' for Active; 'I' for Inactive)
ROOT
HETATM    1  C1  UNL     1     -33.994   4.228   4.104  1.00 20.00    -0.029 C 
HETATM    2  C2  UNL     1     -34.335   4.779   5.272  1.00 20.00    -0.023 C 
HETATM    3  C3  UNL     1     -32.964   7.254   3.931  1.00 20.00     0.264 C 
HETATM    4  C4  UNL     1     -34.098   5.205   2.978  1.00 20.00     0.042 C 
HETATM    5  C5  UNL     1     -33.989   7.184   5.986  1.00 20.00     0.188 C 
HETATM    6  C6  UNL     1     -34.744   6.212   5.111  1.00 20.00     0.046 C 
HETATM    7  C7  UNL     1     -34.276   6.541   3.701  1.00 20.00     0.098 C 
HETATM    8  O8  UNL     1     -32.144   7.528   3.067  1.00 20.00    -0.265 OA
HETATM    9  O9  UNL     1     -32.819   7.562   5.252  1.00 20.00    -0.320 OA
ENDROOT
TORSDOF 0
ENDMDL
MODEL 5
REMARK VINA RESULT:      -4.4     12.099     12.905
REMARK  0 active torsions:
REMARK  status: ('A' for Active; 'I' for Inactive)
ROOT
HETATM    1  C1  UNL     1     -33.462  15.487  -4.068  1.00 20.00    -0.029 C 
HETATM    2  C2  UNL     1     -33.036  15.622  -5.327  1.00 20.00    -0.023 C 
HETATM    3  C3  UNL     1     -35.325  13.535  -5.790  1.00 20.00     0.264 C 
HETATM    4  C4  UNL     1     -34.940  15.278  -4.001  1.00 20.00     0.042 C 
HETATM    5  C5  UNL     1     -33.996  14.509  -7.391  1.00 20.00     0.188 C 
HETATM    6  C6  UNL     1     -34.169  15.546  -6.306  1.00 20.00     0.046 C 
HETATM    7  C7  UNL     1     -35.313  15.009  -5.459  1.00 20.00     0.098 C 
HETATM    8  O8  UNL     1     -35.958  12.677  -5.191  1.00 20.00    -0.265 OA
HETATM    9  O9  UNL     1     -34.526  13.287  -6.868  1.00 20.00    -0.320 OA
ENDROOT
TORSDOF 0
ENDMDL
MODEL 6
REMARK VINA RESULT:      -4.3     11.557     12.497
REMARK  0 active torsions:
REMARK  status: ('A' for Active; 'I' for Inactive)
ROOT
HETATM    1  C1  UNL     1     -33.193  15.859  -5.106  1.00 20.00    -0.029 C 
HETATM    2  C2  UNL     1     -34.198  16.556  -4.568  1.00 20.00    -0.023 C 
HETATM    3  C3  UNL     1     -35.622  13.784  -4.885  1.00 20.00     0.264 C 
HETATM    4  C4  UNL     1     -33.192  14.438  -4.642  1.00 20.00     0.042 C 
HETATM    5  C5  UNL     1     -36.497  15.691  -3.949  1.00 20.00     0.188 C 
HETATM    6  C6  UNL     1     -35.020  15.716  -3.637  1.00 20.00     0.046 C 
HETATM    7  C7  UNL     1     -34.550  14.303  -3.954  1.00 20.00     0.098 C 
HETATM    8  O8  UNL     1     -35.554  12.756  -5.543  1.00 20.00    -0.265 OA
HETATM    9  O9  UNL     1     -36.694  14.629  -4.887  1.00 20.00    -0.320 OA
ENDROOT
TORSDOF 0
ENDMDL
MODEL 7
REMARK VINA RESULT:      -4.2     11.749     12.151
REMARK  0 active torsions:
REMARK  status: ('A' for Active; 'I' for Inactive)
ROOT
HETATM    1  C1  UNL     1     -35.626  16.184  -2.655  1.00 20.00    -0.029 C 
HETATM    2  C2  UNL     1     -34.310  16.236  -2.879  1.00 20.00    -0.023 C 
HETATM    3  C3  UNL     1     -35.052  13.871  -4.792  1.00 20.00     0.264 C 
HETATM    4  C4  UNL     1     -36.385  15.819  -3.889  1.00 20.00     0.042 C 
HETATM    5  C5  UNL     1     -32.980  14.820  -4.503  1.00 20.00     0.188 C 
HETATM    6  C6  UNL     1     -33.978  15.935  -4.309  1.00 20.00     0.046 C 
HETATM    7  C7  UNL     1     -35.283  15.363  -4.845  1.00 20.00     0.098 C 
HETATM    8  O8  UNL     1     -35.909  13.013  -4.947  1.00 20.00    -0.265 OA
HETATM    9  O9  UNL     1     -33.736  13.605  -4.549  1.00 20.00    -0.320 OA
ENDROOT
TORSDOF 0
ENDMDL
MODEL 8
REMARK VINA RESULT:      -4.0     11.893     13.280
REMARK  0 active torsions:
REMARK  status: ('A' for Active; 'I' for Inactive)
ROOT
HETATM    1  C1  UNL     1     -33.888  14.349  -7.918  1.00 20.00    -0.029 C 
HETATM    2  C2  UNL     1     -35.007  13.693  -7.596  1.00 20.00    -0.023 C 
HETATM    3  C3  UNL     1     -34.069  14.523  -4.726  1.00 20.00     0.264 C 
HETATM    4  C4  UNL     1     -33.649  15.515  -7.013  1.00 20.00     0.042 C 
HETATM    5  C5  UNL     1     -35.992  13.396  -5.282  1.00 20.00     0.188 C 
HETATM    6  C6  UNL     1     -35.709  14.329  -6.435  1.00 20.00     0.046 C 
HETATM    7  C7  UNL     1     -34.659  15.287  -5.888  1.00 20.00     0.098 C 
HETATM    8  O8  UNL     1     -33.056  14.831  -4.114  1.00 20.00    -0.265 OA
HETATM    9  O9  UNL     1     -34.833  13.428  -4.443  1.00 20.00    -0.320 OA
ENDROOT
TORSDOF 0
ENDMDL
MODEL 9
REMARK VINA RESULT:      -3.9      1.744      2.635
REMARK  0 active torsions:
REMARK  status: ('A' for Active; 'I' for Inactive)
ROOT
HETATM    1  C1  UNL     1     -35.569   5.828   3.626  1.00 20.00    -0.029 C 
HETATM    2  C2  UNL     1     -34.657   6.137   2.699  1.00 20.00    -0.023 C 
HETATM    3  C3  UNL     1     -33.224   7.312   5.224  1.00 20.00     0.264 C 
HETATM    4  C4  UNL     1     -34.934   5.473   4.931  1.00 20.00     0.042 C 
HETATM    5  C5  UNL     1     -32.417   7.258   3.073  1.00 20.00     0.188 C 
HETATM    6  C6  UNL     1     -33.261   6.016   3.231  1.00 20.00     0.046 C 
HETATM    7  C7  UNL     1     -33.481   5.906   4.734  1.00 20.00     0.098 C 
HETATM    8  O8  UNL     1     -33.475   7.730   6.344  1.00 20.00    -0.265 OA
HETATM    9  O9  UNL     1     -32.660   8.062   4.233  1.00 20.00    -0.320 OA
ENDROOT
TORSDOF 0
ENDMDL
