MODEL 1
REMARK VINA RESULT:      -6.2      0.000      0.000
REMARK  4 active torsions:
REMARK  status: ('A' for Active; 'I' for Inactive)
REMARK    1  A    between atoms: C1_1  and  C7_7 
REMARK    2  A    between atoms: C1_1  and  C8_8 
REMARK    3  A    between atoms: C7_7  and  C9_9 
REMARK    4  A    between atoms: C8_8  and  C10_10 
ROOT
HETATM    1  C1  UNL     1     -32.338   7.734   2.974  1.00 20.00     0.131 C 
HETATM    2  O11 UNL     1     -31.288   8.252   3.356  1.00 20.00    -0.298 OA
ENDROOT
BRANCH   1   3
HETATM    3  C7  UNL     1     -33.211   8.382   1.907  1.00 20.00     0.082 C 
BRANCH   3   4
HETATM    4  C9  UNL     1     -32.436   9.319   0.970  1.00 20.00    -0.016 C 
HETATM    5  C3  UNL     1     -32.907   9.172  -0.479  1.00 20.00     0.010 C 
HETATM    6  C4  UNL     1     -32.603  10.771   1.425  1.00 20.00     0.010 C 
ENDBRANCH   3   4
ENDBRANCH   1   3
BRANCH   1   7
HETATM    7  C8  UNL     1     -32.853   6.421   3.570  1.00 20.00     0.054 C 
HETATM    8  C2  UNL     1     -33.083   5.389   2.465  1.00 20.00     0.018 C 
BRANCH   7   9
HETATM    9  C10 UNL     1     -34.082   6.689   4.472  1.00 20.00    -0.012 C 
HETATM   10  C5  UNL     1     -33.667   7.302   5.812  1.00 20.00     0.010 C 
HETATM   11  C6  UNL     1     -34.946   5.449   4.717  1.00 20.00     0.010 C 
ENDBRANCH   7   9
ENDBRANCH   1   7
TORSDOF 4
ENDMDL
MODEL 2
REMARK VINA RESULT:      -6.0      0.900      1.915
REMARK  4 active torsions:
REMARK  status: ('A' for Active; 'I' for Inactive)
REMARK    1  A    between atoms: C1_1  and  C7_7 
REMARK    2  A    between atoms: C1_1  and  C8_8 
REMARK    3  A    between atoms: C7_7  and  C9_9 
REMARK    4  A    between atoms: C8_8  and  C10_10 
ROOT
HETATM    1  C1  UNL     1     -32.840   7.692   3.518  1.00 20.00     0.131 C 
HETATM    2  O11 UNL     1     -31.762   7.898   4.077  1.00 20.00    -0.298 OA
ENDROOT
BRANCH   1   3
HETATM    3  C7  UNL     1     -33.086   8.106   2.072  1.00 20.00     0.082 C 
BRANCH   3   4
HETATM    4  C9  UNL     1     -32.095   9.163   1.563  1.00 20.00    -0.016 C 
HETATM    5  C3  UNL     1     -31.272   8.632   0.387  1.00 20.00     0.010 C 
HETATM    6  C4  UNL     1     -32.849  10.426   1.140  1.00 20.00     0.010 C 
ENDBRANCH   3   4
ENDBRANCH   1   3
BRANCH   1   7
HETATM    7  C8  UNL     1     -34.015   7.037   4.248  1.00 20.00     0.054 C 
HETATM    8  C2  UNL     1     -33.804   7.101   5.761  1.00 20.00     0.018 C 
BRANCH   7   9
HETATM    9  C10 UNL     1     -34.266   5.615   3.690  1.00 20.00    -0.012 C 
HETATM   10  C5  UNL     1     -34.631   4.634   4.808  1.00 20.00     0.010 C 
HETATM   11  C6  UNL     1     -33.094   5.058   2.877  1.00 20.00     0.010 C 
ENDBRANCH   7   9
ENDBRANCH   1   7
TORSDOF 4
ENDMDL
MODEL 3
REMARK VINA RESULT:      -5.9      0.831      2.073
REMARK  4 active torsions:
REMARK  status: ('A' for Active; 'I' for Inactive)
REMARK    1  A    between atoms: C1_1  and  C7_7 
REMARK    2  A    between atoms: C1_1  and  C8_8 
REMARK    3  A    between atoms: C7_7  and  C9_9 
REMARK    4  A    between atoms: C8_8  and  C10_10 
ROOT
HETATM    1  C1  UNL     1     -32.084   7.998   3.033  1.00 20.00     0.131 C 
HETATM    2  O11 UNL     1     -31.068   8.139   3.714  1.00 20.00    -0.298 OA
ENDROOT
BRANCH   1   3
HETATM    3  C7  UNL     1     -32.081   8.236   1.528  1.00 20.00     0.082 C 
BRANCH   3   4
HETATM    4  C9  UNL     1     -33.003   9.383   1.090  1.00 20.00    -0.016 C 
HETATM    5  C3  UNL     1     -32.458  10.740   1.544  1.00 20.00     0.010 C 
HETATM    6  C4  UNL     1     -33.164   9.373  -0.432  1.00 20.00     0.010 C 
ENDBRANCH   3   4
ENDBRANCH   1   3
BRANCH   1   7
HETATM    7  C8  UNL     1     -33.426   7.607   3.657  1.00 20.00     0.054 C 
HETATM    8  C2  UNL     1     -33.305   7.539   5.181  1.00 20.00     0.018 C 
BRANCH   7   9
HETATM    9  C10 UNL     1     -33.969   6.317   2.994  1.00 20.00    -0.012 C 
HETATM   10  C5  UNL     1     -35.196   5.782   3.739  1.00 20.00     0.010 C 
HETATM   11  C6  UNL     1     -32.923   5.208   2.859  1.00 20.00     0.010 C 
ENDBRANCH   7   9
ENDBRANCH   1   7
TORSDOF 4
ENDMDL
MODEL 4
REMARK VINA RESULT:      -5.6      1.275      2.171
REMARK  4 active torsions:
REMARK  status: ('A' for Active; 'I' for Inactive)
REMARK    1  A    between atoms: C1_1  and  C7_7 
REMARK    2  A    between atoms: C1_1  and  C8_8 
REMARK    3  A    between atoms: C7_7  and  C9_9 
REMARK    4  A    between atoms: C8_8  and  C10_10 
ROOT
HETATM    1  C1  UNL     1     -32.686   7.166   3.166  1.00 20.00     0.131 C 
HETATM    2  O11 UNL     1     -32.347   6.120   2.612  1.00 20.00    -0.298 OA
ENDROOT
BRANCH   1   3
HETATM    3  C7  UNL     1     -32.066   8.507   2.797  1.00 20.00     0.082 C 
BRANCH   3   4
HETATM    4  C9  UNL     1     -32.444   8.988   1.389  1.00 20.00    -0.016 C 
HETATM    5  C3  UNL     1     -32.759  10.486   1.378  1.00 20.00     0.010 C 
HETATM    6  C4  UNL     1     -31.307   8.690   0.410  1.00 20.00     0.010 C 
ENDBRANCH   3   4
ENDBRANCH   1   3
BRANCH   1   7
HETATM    7  C8  UNL     1     -33.729   7.184   4.286  1.00 20.00     0.054 C 
HETATM    8  C2  UNL     1     -33.105   7.691   5.588  1.00 20.00     0.018 C 
BRANCH   7   9
HETATM    9  C10 UNL     1     -34.421   5.803   4.396  1.00 20.00    -0.012 C 
HETATM   10  C5  UNL     1     -35.767   5.794   3.666  1.00 20.00     0.010 C 
HETATM   11  C6  UNL     1     -34.611   5.324   5.837  1.00 20.00     0.010 C 
ENDBRANCH   7   9
ENDBRANCH   1   7
TORSDOF 4
ENDMDL
MODEL 5
REMARK VINA RESULT:      -5.2      1.257      4.825
REMARK  4 active torsions:
REMARK  status: ('A' for Active; 'I' for Inactive)
REMARK    1  A    between atoms: C1_1  and  C7_7 
REMARK    2  A    between atoms: C1_1  and  C8_8 
REMARK    3  A    between atoms: C7_7  and  C9_9 
REMARK    4  A    between atoms: C8_8  and  C10_10 
ROOT
HETATM    1  C1  UNL     1     -32.998   6.926   2.558  1.00 20.00     0.131 C 
HETATM    2  O11 UNL     1     -32.938   5.797   2.069  1.00 20.00    -0.298 OA
ENDROOT
BRANCH   1   3
HETATM    3  C7  UNL     1     -33.997   7.273   3.654  1.00 20.00     0.082 C 
BRANCH   3   4
HETATM    4  C9  UNL     1     -33.769   6.492   4.957  1.00 20.00    -0.016 C 
HETATM    5  C3  UNL     1     -33.830   7.415   6.177  1.00 20.00     0.010 C 
HETATM    6  C4  UNL     1     -34.815   5.384   5.093  1.00 20.00     0.010 C 
ENDBRANCH   3   4
ENDBRANCH   1   3
BRANCH   1   7
HETATM    7  C8  UNL     1     -32.096   8.063   2.073  1.00 20.00     0.054 C 
HETATM    8  C2  UNL     1     -31.299   8.646   3.242  1.00 20.00     0.018 C 
BRANCH   7   9
HETATM    9  C10 UNL     1     -32.924   9.100   1.275  1.00 20.00    -0.012 C 
HETATM   10  C5  UNL     1     -32.772   8.891  -0.235  1.00 20.00     0.010 C 
HETATM   11  C6  UNL     1     -32.597  10.553   1.631  1.00 20.00     0.010 C 
ENDBRANCH   7   9
ENDBRANCH   1   7
TORSDOF 4
ENDMDL
MODEL 6
REMARK VINA RESULT:      -5.1      0.970      4.753
REMARK  4 active torsions:
REMARK  status: ('A' for Active; 'I' for Inactive)
REMARK    1  A    between atoms: C1_1  and  C7_7 
REMARK    2  A    between atoms: C1_1  and  C8_8 
REMARK    3  A    between atoms: C7_7  and  C9_9 
REMARK    4  A    between atoms: C8_8  and  C10_10 
ROOT
HETATM    1  C1  UNL     1     -32.434   8.057   2.842  1.00 20.00     0.131 C 
HETATM    2  O11 UNL     1     -31.459   8.165   3.586  1.00 20.00    -0.298 OA
ENDROOT
BRANCH   1   3
HETATM    3  C7  UNL     1     -33.788   7.587   3.357  1.00 20.00     0.082 C 
BRANCH   3   4
HETATM    4  C9  UNL     1     -33.686   6.562   4.495  1.00 20.00    -0.016 C 
HETATM    5  C3  UNL     1     -33.805   7.237   5.864  1.00 20.00     0.010 C 
HETATM    6  C4  UNL     1     -34.778   5.500   4.344  1.00 20.00     0.010 C 
ENDBRANCH   3   4
ENDBRANCH   1   3
BRANCH   1   7
HETATM    7  C8  UNL     1     -32.341   8.357   1.344  1.00 20.00     0.054 C 
HETATM    8  C2  UNL     1     -30.878   8.457   0.909  1.00 20.00     0.018 C 
BRANCH   7   9
HETATM    9  C10 UNL     1     -33.206   9.592   0.990  1.00 20.00    -0.012 C 
HETATM   10  C5  UNL     1     -33.368   9.744  -0.525  1.00 20.00     0.010 C 
HETATM   11  C6  UNL     1     -32.682  10.900   1.587  1.00 20.00     0.010 C 
ENDBRANCH   7   9
ENDBRANCH   1   7
TORSDOF 4
ENDMDL
MODEL 7
REMARK VINA RESULT:      -5.0      1.332      4.797
REMARK  4 active torsions:
REMARK  status: ('A' for Active; 'I' for Inactive)
REMARK    1  A    between atoms: C1_1  and  C7_7 
REMARK    2  A    between atoms: C1_1  and  C8_8 
REMARK    3  A    between atoms: C7_7  and  C9_9 
REMARK    4  A    between atoms: C8_8  and  C10_10 
ROOT
HETATM    1  C1  UNL     1     -33.204   7.007   2.340  1.00 20.00     0.131 C 
HETATM    2  O11 UNL     1     -34.139   6.623   1.636  1.00 20.00    -0.298 OA
ENDROOT
BRANCH   1   3
HETATM    3  C7  UNL     1     -32.955   6.429   3.727  1.00 20.00     0.082 C 
BRANCH   3   4
HETATM    4  C9  UNL     1     -34.161   6.557   4.668  1.00 20.00    -0.016 C 
HETATM    5  C3  UNL     1     -34.722   5.183   5.045  1.00 20.00     0.010 C 
HETATM    6  C4  UNL     1     -33.759   7.318   5.934  1.00 20.00     0.010 C 
ENDBRANCH   3   4
ENDBRANCH   1   3
BRANCH   1   7
HETATM    7  C8  UNL     1     -32.250   8.113   1.882  1.00 20.00     0.054 C 
HETATM    8  C2  UNL     1     -31.423   8.626   3.063  1.00 20.00     0.018 C 
BRANCH   7   9
HETATM    9  C10 UNL     1     -33.031   9.209   1.116  1.00 20.00    -0.012 C 
HETATM   10  C5  UNL     1     -32.866   9.055  -0.399  1.00 20.00     0.010 C 
HETATM   11  C6  UNL     1     -32.659  10.634   1.533  1.00 20.00     0.010 C 
ENDBRANCH   7   9
ENDBRANCH   1   7
TORSDOF 4
ENDMDL
MODEL 8
REMARK VINA RESULT:      -5.0      1.399      1.706
REMARK  4 active torsions:
REMARK  status: ('A' for Active; 'I' for Inactive)
REMARK    1  A    between atoms: C1_1  and  C7_7 
REMARK    2  A    between atoms: C1_1  and  C8_8 
REMARK    3  A    between atoms: C7_7  and  C9_9 
REMARK    4  A    between atoms: C8_8  and  C10_10 
ROOT
HETATM    1  C1  UNL     1     -33.439   6.976   2.519  1.00 20.00     0.131 C 
HETATM    2  O11 UNL     1     -34.268   6.765   1.632  1.00 20.00    -0.298 OA
ENDROOT
BRANCH   1   3
HETATM    3  C7  UNL     1     -32.540   8.206   2.501  1.00 20.00     0.082 C 
BRANCH   3   4
HETATM    4  C9  UNL     1     -32.544   8.945   1.155  1.00 20.00    -0.016 C 
HETATM    5  C3  UNL     1     -32.765  10.448   1.346  1.00 20.00     0.010 C 
HETATM    6  C4  UNL     1     -31.222   8.704   0.422  1.00 20.00     0.010 C 
ENDBRANCH   3   4
ENDBRANCH   1   3
BRANCH   1   7
HETATM    7  C8  UNL     1     -33.235   6.000   3.680  1.00 20.00     0.054 C 
HETATM    8  C2  UNL     1     -33.232   4.558   3.170  1.00 20.00     0.018 C 
BRANCH   7   9
HETATM    9  C10 UNL     1     -34.259   6.286   4.806  1.00 20.00    -0.012 C 
HETATM   10  C5  UNL     1     -33.711   7.301   5.813  1.00 20.00     0.010 C 
HETATM   11  C6  UNL     1     -34.728   5.029   5.543  1.00 20.00     0.010 C 
ENDBRANCH   7   9
ENDBRANCH   1   7
TORSDOF 4
ENDMDL
MODEL 9
REMARK VINA RESULT:      -4.8      1.522      2.402
REMARK  4 active torsions:
REMARK  status: ('A' for Active; 'I' for Inactive)
REMARK    1  A    between atoms: C1_1  and  C7_7 
REMARK    2  A    between atoms: C1_1  and  C8_8 
REMARK    3  A    between atoms: C7_7  and  C9_9 
REMARK    4  A    between atoms: C8_8  and  C10_10 
ROOT
HETATM    1  C1  UNL     1     -33.388   5.899   2.837  1.00 20.00     0.131 C 
HETATM    2  O11 UNL     1     -32.512   5.093   2.523  1.00 20.00    -0.298 OA
ENDROOT
BRANCH   1   3
HETATM    3  C7  UNL     1     -33.413   7.316   2.279  1.00 20.00     0.082 C 
BRANCH   3   4
HETATM    4  C9  UNL     1     -32.016   7.934   2.120  1.00 20.00    -0.016 C 
HETATM    5  C3  UNL     1     -32.049   9.156   1.199  1.00 20.00     0.010 C 
HETATM    6  C4  UNL     1     -31.460   8.331   3.489  1.00 20.00     0.010 C 
ENDBRANCH   3   4
ENDBRANCH   1   3
BRANCH   1   7
HETATM    7  C8  UNL     1     -34.493   5.542   3.835  1.00 20.00     0.054 C 
HETATM    8  C2  UNL     1     -35.765   6.334   3.528  1.00 20.00     0.018 C 
BRANCH   7   9
HETATM    9  C10 UNL     1     -33.973   5.692   5.286  1.00 20.00    -0.012 C 
HETATM   10  C5  UNL     1     -34.775   4.821   6.258  1.00 20.00     0.010 C 
HETATM   11  C6  UNL     1     -33.953   7.139   5.785  1.00 20.00     0.010 C 
ENDBRANCH   7   9
ENDBRANCH   1   7
TORSDOF 4
ENDMDL
