MODEL 1
REMARK VINA RESULT:      -4.0      0.000      0.000
REMARK  2 active torsions:
REMARK  status: ('A' for Active; 'I' for Inactive)
REMARK    1  A    between atoms: C1_1  and  C2_2 
REMARK    2  A    between atoms: C2_2  and  C3_3 
ROOT
HETATM    1  C1  UNL     1     -34.826   5.106   4.513  1.00 20.00     0.173 C 
HETATM    2  O4  UNL     1     -35.581   5.808   3.781  1.00 20.00    -0.648 OA
HETATM    3  O5  UNL     1     -34.400   3.933   4.331  1.00 20.00    -0.648 OA
ENDROOT
BRANCH   1   4
HETATM    4  C2  UNL     1     -34.364   5.809   5.795  1.00 20.00     0.128 C 
BRANCH   4   5
HETATM    5  C3  UNL     1     -33.833   7.225   5.646  1.00 20.00     0.125 C 
HETATM    6 CL6  UNL     1     -32.856   7.392   4.166  1.00 20.00    -0.130 Cl
ENDBRANCH   4   5
ENDBRANCH   1   4
TORSDOF 2
ENDMDL
MODEL 2
REMARK VINA RESULT:      -4.0      2.059      2.560
REMARK  2 active torsions:
REMARK  status: ('A' for Active; 'I' for Inactive)
REMARK    1  A    between atoms: C1_1  and  C2_2 
REMARK    2  A    between atoms: C2_2  and  C3_3 
ROOT
HETATM    1  C1  UNL     1     -33.459   5.911   2.972  1.00 20.00     0.173 C 
HETATM    2  O4  UNL     1     -33.034   4.762   2.659  1.00 20.00    -0.648 OA
HETATM    3  O5  UNL     1     -32.984   7.044   2.687  1.00 20.00    -0.648 OA
ENDROOT
BRANCH   1   4
HETATM    4  C2  UNL     1     -34.746   5.899   3.805  1.00 20.00     0.128 C 
BRANCH   4   5
HETATM    5  C3  UNL     1     -34.585   5.778   5.311  1.00 20.00     0.125 C 
HETATM    6 CL6  UNL     1     -33.820   7.234   5.995  1.00 20.00    -0.130 Cl
ENDBRANCH   4   5
ENDBRANCH   1   4
TORSDOF 2
ENDMDL
MODEL 3
REMARK VINA RESULT:      -3.9      1.562      2.055
REMARK  2 active torsions:
REMARK  status: ('A' for Active; 'I' for Inactive)
REMARK    1  A    between atoms: C1_1  and  C2_2 
REMARK    2  A    between atoms: C2_2  and  C3_3 
ROOT
HETATM    1  C1  UNL     1     -34.581   4.950   4.750  1.00 20.00     0.173 C 
HETATM    2  O4  UNL     1     -34.407   3.774   4.320  1.00 20.00    -0.648 OA
HETATM    3  O5  UNL     1     -34.661   5.364   5.939  1.00 20.00    -0.648 OA
ENDROOT
BRANCH   1   4
HETATM    4  C2  UNL     1     -34.696   6.011   3.649  1.00 20.00     0.128 C 
BRANCH   4   5
HETATM    5  C3  UNL     1     -33.463   6.242   2.791  1.00 20.00     0.125 C 
HETATM    6 CL6  UNL     1     -32.449   7.544   3.462  1.00 20.00    -0.130 Cl
ENDBRANCH   4   5
ENDBRANCH   1   4
TORSDOF 2
ENDMDL
MODEL 4
REMARK VINA RESULT:      -3.9      1.544      1.834
REMARK  2 active torsions:
REMARK  status: ('A' for Active; 'I' for Inactive)
REMARK    1  A    between atoms: C1_1  and  C2_2 
REMARK    2  A    between atoms: C2_2  and  C3_3 
ROOT
HETATM    1  C1  UNL     1     -34.561   4.970   4.715  1.00 20.00     0.173 C 
HETATM    2  O4  UNL     1     -34.663   5.426   5.890  1.00 20.00    -0.648 OA
HETATM    3  O5  UNL     1     -34.420   3.778   4.329  1.00 20.00    -0.648 OA
ENDROOT
BRANCH   1   4
HETATM    4  C2  UNL     1     -34.635   6.039   3.618  1.00 20.00     0.128 C 
BRANCH   4   5
HETATM    5  C3  UNL     1     -33.366   6.290   2.820  1.00 20.00     0.125 C 
HETATM    6 CL6  UNL     1     -32.407   7.609   3.537  1.00 20.00    -0.130 Cl
ENDBRANCH   4   5
ENDBRANCH   1   4
TORSDOF 2
ENDMDL
MODEL 5
REMARK VINA RESULT:      -3.8      1.819      2.153
REMARK  2 active torsions:
REMARK  status: ('A' for Active; 'I' for Inactive)
REMARK    1  A    between atoms: C1_1  and  C2_2 
REMARK    2  A    between atoms: C2_2  and  C3_3 
ROOT
HETATM    1  C1  UNL     1     -34.439   5.941   5.293  1.00 20.00     0.173 C 
HETATM    2  O4  UNL     1     -34.116   7.003   5.897  1.00 20.00    -0.648 OA
HETATM    3  O5  UNL     1     -34.621   4.781   5.755  1.00 20.00    -0.648 OA
ENDROOT
BRANCH   1   4
HETATM    4  C2  UNL     1     -34.648   6.115   3.783  1.00 20.00     0.128 C 
BRANCH   4   5
HETATM    5  C3  UNL     1     -33.428   5.929   2.898  1.00 20.00     0.125 C 
HETATM    6 CL6  UNL     1     -32.434   7.407   2.854  1.00 20.00    -0.130 Cl
ENDBRANCH   4   5
ENDBRANCH   1   4
TORSDOF 2
ENDMDL
MODEL 6
REMARK VINA RESULT:      -3.8      2.189      2.641
REMARK  2 active torsions:
REMARK  status: ('A' for Active; 'I' for Inactive)
REMARK    1  A    between atoms: C1_1  and  C2_2 
REMARK    2  A    between atoms: C2_2  and  C3_3 
ROOT
HETATM    1  C1  UNL     1     -34.440   5.957   5.368  1.00 20.00     0.173 C 
HETATM    2  O4  UNL     1     -34.593   4.758   5.739  1.00 20.00    -0.648 OA
HETATM    3  O5  UNL     1     -34.088   6.964   6.040  1.00 20.00    -0.648 OA
ENDROOT
BRANCH   1   4
HETATM    4  C2  UNL     1     -34.718   6.193   3.878  1.00 20.00     0.128 C 
BRANCH   4   5
HETATM    5  C3  UNL     1     -33.508   6.301   2.965  1.00 20.00     0.125 C 
HETATM    6 CL6  UNL     1     -32.895   4.690   2.516  1.00 20.00    -0.130 Cl
ENDBRANCH   4   5
ENDBRANCH   1   4
TORSDOF 2
ENDMDL
MODEL 7
REMARK VINA RESULT:      -3.8      2.883      3.301
REMARK  2 active torsions:
REMARK  status: ('A' for Active; 'I' for Inactive)
REMARK    1  A    between atoms: C1_1  and  C2_2 
REMARK    2  A    between atoms: C2_2  and  C3_3 
ROOT
HETATM    1  C1  UNL     1     -32.983   7.230   3.288  1.00 20.00     0.173 C 
HETATM    2  O4  UNL     1     -32.721   7.813   2.197  1.00 20.00    -0.648 OA
HETATM    3  O5  UNL     1     -32.719   7.585   4.469  1.00 20.00    -0.648 OA
ENDROOT
BRANCH   1   4
HETATM    4  C2  UNL     1     -33.742   5.907   3.126  1.00 20.00     0.128 C 
BRANCH   4   5
HETATM    5  C3  UNL     1     -34.986   5.723   3.979  1.00 20.00     0.125 C 
HETATM    6 CL6  UNL     1     -34.605   4.871   5.496  1.00 20.00    -0.130 Cl
ENDBRANCH   4   5
ENDBRANCH   1   4
TORSDOF 2
ENDMDL
MODEL 8
REMARK VINA RESULT:      -3.8      2.861      3.378
REMARK  2 active torsions:
REMARK  status: ('A' for Active; 'I' for Inactive)
REMARK    1  A    between atoms: C1_1  and  C2_2 
REMARK    2  A    between atoms: C2_2  and  C3_3 
ROOT
HETATM    1  C1  UNL     1     -32.945   7.202   3.293  1.00 20.00     0.173 C 
HETATM    2  O4  UNL     1     -32.787   7.557   4.496  1.00 20.00    -0.648 OA
HETATM    3  O5  UNL     1     -32.538   7.754   2.235  1.00 20.00    -0.648 OA
ENDROOT
BRANCH   1   4
HETATM    4  C2  UNL     1     -33.739   5.900   3.123  1.00 20.00     0.128 C 
BRANCH   4   5
HETATM    5  C3  UNL     1     -34.971   5.731   3.995  1.00 20.00     0.125 C 
HETATM    6 CL6  UNL     1     -34.593   4.806   5.469  1.00 20.00    -0.130 Cl
ENDBRANCH   4   5
ENDBRANCH   1   4
TORSDOF 2
ENDMDL
MODEL 9
REMARK VINA RESULT:      -3.7      2.763      3.049
REMARK  2 active torsions:
REMARK  status: ('A' for Active; 'I' for Inactive)
REMARK    1  A    between atoms: C1_1  and  C2_2 
REMARK    2  A    between atoms: C2_2  and  C3_3 
ROOT
HETATM    1  C1  UNL     1     -32.840   6.923   3.225  1.00 20.00     0.173 C 
HETATM    2  O4  UNL     1     -32.884   5.754   2.747  1.00 20.00    -0.648 OA
HETATM    3  O5  UNL     1     -31.977   7.827   3.053  1.00 20.00    -0.648 OA
ENDROOT
BRANCH   1   4
HETATM    4  C2  UNL     1     -34.027   7.276   4.131  1.00 20.00     0.128 C 
BRANCH   4   5
HETATM    5  C3  UNL     1     -33.967   6.774   5.563  1.00 20.00     0.125 C 
HETATM    6 CL6  UNL     1     -34.614   5.119   5.691  1.00 20.00    -0.130 Cl
ENDBRANCH   4   5
ENDBRANCH   1   4
TORSDOF 2
ENDMDL
