MODEL 1
REMARK VINA RESULT:      -3.6      0.000      0.000
REMARK  0 active torsions:
REMARK  status: ('A' for Active; 'I' for Inactive)
ROOT
HETATM    1  C1  UNL     1     -33.304   6.711   3.323  1.00 20.00     0.118 C 
HETATM    2  C2  UNL     1     -34.136   4.591   4.241  1.00 20.00     0.118 C 
HETATM    3  C3  UNL     1     -34.300   6.043   4.163  1.00 20.00     0.288 C 
HETATM    4  N4  UNL     1     -32.513   7.238   2.657  1.00 20.00    -0.193 NA
HETATM    5  N5  UNL     1     -34.006   3.439   4.304  1.00 20.00    -0.193 NA
HETATM    6 CL6  UNL     1     -34.177   6.708   5.809  1.00 20.00    -0.069 Cl
HETATM    7 CL7  UNL     1     -35.913   6.389   3.496  1.00 20.00    -0.069 Cl
ENDROOT
TORSDOF 0
ENDMDL
MODEL 2
REMARK VINA RESULT:      -3.6      0.007      3.111
REMARK  0 active torsions:
REMARK  status: ('A' for Active; 'I' for Inactive)
ROOT
HETATM    1  C1  UNL     1     -34.140   4.593   4.249  1.00 20.00     0.118 C 
HETATM    2  C2  UNL     1     -33.301   6.710   3.329  1.00 20.00     0.118 C 
HETATM    3  C3  UNL     1     -34.300   6.045   4.167  1.00 20.00     0.288 C 
HETATM    4  N4  UNL     1     -34.011   3.441   4.312  1.00 20.00    -0.193 NA
HETATM    5  N5  UNL     1     -32.509   7.236   2.664  1.00 20.00    -0.193 NA
HETATM    6 CL6  UNL     1     -35.912   6.391   3.495  1.00 20.00    -0.069 Cl
HETATM    7 CL7  UNL     1     -34.182   6.712   5.813  1.00 20.00    -0.069 Cl
ENDROOT
TORSDOF 0
ENDMDL
MODEL 3
REMARK VINA RESULT:      -3.5      1.847      2.226
REMARK  0 active torsions:
REMARK  status: ('A' for Active; 'I' for Inactive)
ROOT
HETATM    1  C1  UNL     1     -33.943   6.808   5.142  1.00 20.00     0.118 C 
HETATM    2  C2  UNL     1     -34.132   4.557   4.180  1.00 20.00     0.118 C 
HETATM    3  C3  UNL     1     -34.222   6.000   3.954  1.00 20.00     0.288 C 
HETATM    4  N4  UNL     1     -33.721   7.447   6.086  1.00 20.00    -0.193 NA
HETATM    5  N5  UNL     1     -34.061   3.412   4.360  1.00 20.00    -0.193 NA
HETATM    6 CL6  UNL     1     -35.871   6.376   3.399  1.00 20.00    -0.069 Cl
HETATM    7 CL7  UNL     1     -33.049   6.442   2.690  1.00 20.00    -0.069 Cl
ENDROOT
TORSDOF 0
ENDMDL
MODEL 4
REMARK VINA RESULT:      -3.5      1.855      2.981
REMARK  0 active torsions:
REMARK  status: ('A' for Active; 'I' for Inactive)
ROOT
HETATM    1  C1  UNL     1     -34.137   4.553   4.188  1.00 20.00     0.118 C 
HETATM    2  C2  UNL     1     -33.961   6.805   5.153  1.00 20.00     0.118 C 
HETATM    3  C3  UNL     1     -34.230   5.996   3.963  1.00 20.00     0.288 C 
HETATM    4  N4  UNL     1     -34.063   3.409   4.369  1.00 20.00    -0.193 NA
HETATM    5  N5  UNL     1     -33.747   7.445   6.097  1.00 20.00    -0.193 NA
HETATM    6 CL6  UNL     1     -33.049   6.442   2.708  1.00 20.00    -0.069 Cl
HETATM    7 CL7  UNL     1     -35.876   6.368   3.395  1.00 20.00    -0.069 Cl
ENDROOT
TORSDOF 0
ENDMDL
MODEL 5
REMARK VINA RESULT:      -3.4     12.005     13.014
REMARK  0 active torsions:
REMARK  status: ('A' for Active; 'I' for Inactive)
ROOT
HETATM    1  C1  UNL     1     -35.132  13.791  -4.930  1.00 20.00     0.118 C 
HETATM    2  C2  UNL     1     -33.895  15.773  -5.686  1.00 20.00     0.118 C 
HETATM    3  C3  UNL     1     -34.157  14.831  -4.598  1.00 20.00     0.288 C 
HETATM    4  N4  UNL     1     -35.906  12.967  -5.195  1.00 20.00    -0.193 NA
HETATM    5  N5  UNL     1     -33.688  16.520  -6.550  1.00 20.00    -0.193 NA
HETATM    6 CL6  UNL     1     -34.773  15.748  -3.202  1.00 20.00    -0.069 Cl
HETATM    7 CL7  UNL     1     -32.623  14.039  -4.162  1.00 20.00    -0.069 Cl
ENDROOT
TORSDOF 0
ENDMDL
MODEL 6
REMARK VINA RESULT:      -3.4     12.018     12.742
REMARK  0 active torsions:
REMARK  status: ('A' for Active; 'I' for Inactive)
ROOT
HETATM    1  C1  UNL     1     -33.891  15.776  -5.707  1.00 20.00     0.118 C 
HETATM    2  C2  UNL     1     -35.126  13.797  -4.939  1.00 20.00     0.118 C 
HETATM    3  C3  UNL     1     -34.148  14.837  -4.615  1.00 20.00     0.288 C 
HETATM    4  N4  UNL     1     -33.689  16.520  -6.576  1.00 20.00    -0.193 NA
HETATM    5  N5  UNL     1     -35.900  12.972  -5.197  1.00 20.00    -0.193 NA
HETATM    6 CL6  UNL     1     -32.612  14.046  -4.187  1.00 20.00    -0.069 Cl
HETATM    7 CL7  UNL     1     -34.756  15.759  -3.218  1.00 20.00    -0.069 Cl
ENDROOT
TORSDOF 0
ENDMDL
MODEL 7
REMARK VINA RESULT:      -3.4      1.915      2.003
REMARK  0 active torsions:
REMARK  status: ('A' for Active; 'I' for Inactive)
ROOT
HETATM    1  C1  UNL     1     -33.819   6.801   5.064  1.00 20.00     0.118 C 
HETATM    2  C2  UNL     1     -33.497   5.177   3.250  1.00 20.00     0.118 C 
HETATM    3  C3  UNL     1     -34.369   5.668   4.319  1.00 20.00     0.288 C 
HETATM    4  N4  UNL     1     -33.381   7.700   5.654  1.00 20.00    -0.193 NA
HETATM    5  N5  UNL     1     -32.805   4.788   2.403  1.00 20.00    -0.193 NA
HETATM    6 CL6  UNL     1     -34.655   4.334   5.462  1.00 20.00    -0.069 Cl
HETATM    7 CL7  UNL     1     -35.913   6.174   3.592  1.00 20.00    -0.069 Cl
ENDROOT
TORSDOF 0
ENDMDL
MODEL 8
REMARK VINA RESULT:      -3.4      1.910      2.749
REMARK  0 active torsions:
REMARK  status: ('A' for Active; 'I' for Inactive)
ROOT
HETATM    1  C1  UNL     1     -33.491   5.164   3.253  1.00 20.00     0.118 C 
HETATM    2  C2  UNL     1     -33.809   6.807   5.050  1.00 20.00     0.118 C 
HETATM    3  C3  UNL     1     -34.358   5.664   4.320  1.00 20.00     0.288 C 
HETATM    4  N4  UNL     1     -32.801   4.770   2.406  1.00 20.00    -0.193 NA
HETATM    5  N5  UNL     1     -33.373   7.714   5.629  1.00 20.00    -0.193 NA
HETATM    6 CL6  UNL     1     -35.907   6.157   3.594  1.00 20.00    -0.069 Cl
HETATM    7 CL7  UNL     1     -34.636   4.341   5.479  1.00 20.00    -0.069 Cl
ENDROOT
TORSDOF 0
ENDMDL
MODEL 9
REMARK VINA RESULT:      -3.3     12.077     12.685
REMARK  0 active torsions:
REMARK  status: ('A' for Active; 'I' for Inactive)
ROOT
HETATM    1  C1  UNL     1     -35.247  13.802  -4.948  1.00 20.00     0.118 C 
HETATM    2  C2  UNL     1     -34.797  15.686  -3.439  1.00 20.00     0.118 C 
HETATM    3  C3  UNL     1     -34.365  14.919  -4.608  1.00 20.00     0.288 C 
HETATM    4  N4  UNL     1     -35.948  12.916  -5.216  1.00 20.00    -0.193 NA
HETATM    5  N5  UNL     1     -35.139  16.294  -2.512  1.00 20.00    -0.193 NA
HETATM    6 CL6  UNL     1     -32.741  14.267  -4.279  1.00 20.00    -0.069 Cl
HETATM    7 CL7  UNL     1     -34.295  16.020  -6.005  1.00 20.00    -0.069 Cl
ENDROOT
TORSDOF 0
ENDMDL
