MODEL 1
REMARK VINA RESULT:      -4.8      0.000      0.000
REMARK  1 active torsions:
REMARK  status: ('A' for Active; 'I' for Inactive)
REMARK    1  A    between atoms: C6_6  and  C10_10 
ROOT
HETATM    1  C1  UNL     1     -34.084   5.862   5.250  1.00 20.00     0.053 A 
HETATM    2  C2  UNL     1     -33.950   4.963   4.260  1.00 20.00    -0.075 A 
HETATM    3  C3  UNL     1     -33.772   7.185   4.661  1.00 20.00     0.159 A 
HETATM    4  C4  UNL     1     -34.403   6.505   2.237  1.00 20.00     0.029 A 
HETATM    5  C5  UNL     1     -33.536   5.510   2.956  1.00 20.00     0.032 A 
HETATM    6  C6  UNL     1     -33.374   7.006   3.225  1.00 20.00     0.035 A 
HETATM    7  C7  UNL     1     -34.190   3.499   4.405  1.00 20.00     0.044 C 
HETATM    8  O11 UNL     1     -33.825   8.257   5.238  1.00 20.00    -0.292 OA
ENDROOT
BRANCH   6   9
HETATM    9  C10 UNL     1     -32.161   7.713   2.698  1.00 20.00    -0.006 C 
HETATM   10  C8  UNL     1     -32.542   8.839   1.726  1.00 20.00     0.011 C 
HETATM   11  C9  UNL     1     -31.303   8.286   3.838  1.00 20.00     0.011 C 
ENDBRANCH   6   9
TORSDOF 1
ENDMDL
MODEL 2
REMARK VINA RESULT:      -4.7      1.306      3.746
REMARK  1 active torsions:
REMARK  status: ('A' for Active; 'I' for Inactive)
REMARK    1  A    between atoms: C6_6  and  C10_10 
ROOT
HETATM    1  C1  UNL     1     -31.786   9.016   2.447  1.00 20.00     0.053 A 
HETATM    2  C2  UNL     1     -32.570   8.463   1.506  1.00 20.00    -0.075 A 
HETATM    3  C3  UNL     1     -32.018   8.249   3.692  1.00 20.00     0.159 A 
HETATM    4  C4  UNL     1     -32.765   6.078   2.482  1.00 20.00     0.029 A 
HETATM    5  C5  UNL     1     -33.403   7.333   1.956  1.00 20.00     0.032 A 
HETATM    6  C6  UNL     1     -33.068   7.205   3.443  1.00 20.00     0.035 A 
HETATM    7  C7  UNL     1     -32.637   8.911   0.086  1.00 20.00     0.044 C 
HETATM    8  O11 UNL     1     -31.456   8.425   4.759  1.00 20.00    -0.292 OA
ENDROOT
BRANCH   6   9
HETATM    9  C10 UNL     1     -34.185   7.026   4.427  1.00 20.00    -0.006 C 
HETATM   10  C8  UNL     1     -34.808   5.625   4.324  1.00 20.00     0.011 C 
HETATM   11  C9  UNL     1     -33.712   7.274   5.868  1.00 20.00     0.011 C 
ENDBRANCH   6   9
TORSDOF 1
ENDMDL
MODEL 3
REMARK VINA RESULT:      -4.7     11.624     12.330
REMARK  1 active torsions:
REMARK  status: ('A' for Active; 'I' for Inactive)
REMARK    1  A    between atoms: C6_6  and  C10_10 
ROOT
HETATM    1  C1  UNL     1     -36.333  15.862  -4.916  1.00 20.00     0.053 A 
HETATM    2  C2  UNL     1     -35.649  14.721  -4.722  1.00 20.00    -0.075 A 
HETATM    3  C3  UNL     1     -35.570  16.930  -4.231  1.00 20.00     0.159 A 
HETATM    4  C4  UNL     1     -33.285  15.707  -4.384  1.00 20.00     0.029 A 
HETATM    5  C5  UNL     1     -34.422  14.844  -3.915  1.00 20.00     0.032 A 
HETATM    6  C6  UNL     1     -34.379  16.326  -3.543  1.00 20.00     0.035 A 
HETATM    7  C7  UNL     1     -36.049  13.390  -5.261  1.00 20.00     0.044 C 
HETATM    8  O11 UNL     1     -35.850  18.116  -4.216  1.00 20.00    -0.292 OA
ENDROOT
BRANCH   6   9
HETATM    9  C10 UNL     1     -34.064  16.713  -2.129  1.00 20.00    -0.006 C 
HETATM   10  C8  UNL     1     -33.181  17.968  -2.071  1.00 20.00     0.011 C 
HETATM   11  C9  UNL     1     -35.344  16.946  -1.310  1.00 20.00     0.011 C 
ENDBRANCH   6   9
TORSDOF 1
ENDMDL
MODEL 4
REMARK VINA RESULT:      -4.7     11.641     12.738
REMARK  1 active torsions:
REMARK  status: ('A' for Active; 'I' for Inactive)
REMARK    1  A    between atoms: C6_6  and  C10_10 
ROOT
HETATM    1  C1  UNL     1     -33.200  18.384  -3.346  1.00 20.00     0.053 A 
HETATM    2  C2  UNL     1     -33.313  17.952  -2.078  1.00 20.00    -0.075 A 
HETATM    3  C3  UNL     1     -33.992  17.451  -4.179  1.00 20.00     0.159 A 
HETATM    4  C4  UNL     1     -35.581  16.727  -2.258  1.00 20.00     0.029 A 
HETATM    5  C5  UNL     1     -34.123  16.736  -1.890  1.00 20.00     0.032 A 
HETATM    6  C6  UNL     1     -34.555  16.365  -3.309  1.00 20.00     0.035 A 
HETATM    7  C7  UNL     1     -32.687  18.613  -0.897  1.00 20.00     0.044 C 
HETATM    8  O11 UNL     1     -34.168  17.536  -5.382  1.00 20.00    -0.292 OA
ENDROOT
BRANCH   6   9
HETATM    9  C10 UNL     1     -34.456  14.935  -3.749  1.00 20.00    -0.006 C 
HETATM   10  C8  UNL     1     -35.629  14.542  -4.659  1.00 20.00     0.011 C 
HETATM   11  C9  UNL     1     -33.128  14.659  -4.474  1.00 20.00     0.011 C 
ENDBRANCH   6   9
TORSDOF 1
ENDMDL
MODEL 5
REMARK VINA RESULT:      -4.6     11.609     12.857
REMARK  1 active torsions:
REMARK  status: ('A' for Active; 'I' for Inactive)
REMARK    1  A    between atoms: C6_6  and  C10_10 
ROOT
HETATM    1  C1  UNL     1     -33.852  16.108  -6.691  1.00 20.00     0.053 A 
HETATM    2  C2  UNL     1     -34.096  14.802  -6.488  1.00 20.00    -0.075 A 
HETATM    3  C3  UNL     1     -33.646  16.710  -5.354  1.00 20.00     0.159 A 
HETATM    4  C4  UNL     1     -32.876  14.501  -4.230  1.00 20.00     0.029 A 
HETATM    5  C5  UNL     1     -34.109  14.369  -5.079  1.00 20.00     0.032 A 
HETATM    6  C6  UNL     1     -33.846  15.659  -4.301  1.00 20.00     0.035 A 
HETATM    7  C7  UNL     1     -34.341  13.805  -7.569  1.00 20.00     0.044 C 
HETATM    8  O11 UNL     1     -33.360  17.872  -5.127  1.00 20.00    -0.292 OA
ENDROOT
BRANCH   6   9
HETATM    9  C10 UNL     1     -34.684  15.965  -3.096  1.00 20.00    -0.006 C 
HETATM   10  C8  UNL     1     -33.928  16.851  -2.094  1.00 20.00     0.011 C 
HETATM   11  C9  UNL     1     -36.006  16.645  -3.488  1.00 20.00     0.011 C 
ENDBRANCH   6   9
TORSDOF 1
ENDMDL
MODEL 6
REMARK VINA RESULT:      -4.6     11.289     12.483
REMARK  1 active torsions:
REMARK  status: ('A' for Active; 'I' for Inactive)
REMARK    1  A    between atoms: C6_6  and  C10_10 
ROOT
HETATM    1  C1  UNL     1     -35.490  15.877  -3.208  1.00 20.00     0.053 A 
HETATM    2  C2  UNL     1     -34.203  16.256  -3.127  1.00 20.00    -0.075 A 
HETATM    3  C3  UNL     1     -35.593  14.987  -4.387  1.00 20.00     0.159 A 
HETATM    4  C4  UNL     1     -33.105  14.248  -4.327  1.00 20.00     0.029 A 
HETATM    5  C5  UNL     1     -33.317  15.729  -4.181  1.00 20.00     0.032 A 
HETATM    6  C6  UNL     1     -34.254  14.902  -5.062  1.00 20.00     0.035 A 
HETATM    7  C7  UNL     1     -33.644  17.144  -2.068  1.00 20.00     0.044 C 
HETATM    8  O11 UNL     1     -36.597  14.409  -4.764  1.00 20.00    -0.292 OA
ENDROOT
BRANCH   6   9
HETATM    9  C10 UNL     1     -34.164  15.042  -6.552  1.00 20.00    -0.006 C 
HETATM   10  C8  UNL     1     -34.405  13.700  -7.260  1.00 20.00     0.011 C 
HETATM   11  C9  UNL     1     -35.158  16.089  -7.080  1.00 20.00     0.011 C 
ENDBRANCH   6   9
TORSDOF 1
ENDMDL
MODEL 7
REMARK VINA RESULT:      -4.3     11.521     12.899
REMARK  1 active torsions:
REMARK  status: ('A' for Active; 'I' for Inactive)
REMARK    1  A    between atoms: C6_6  and  C10_10 
ROOT
HETATM    1  C1  UNL     1     -33.614  15.938  -3.468  1.00 20.00     0.053 A 
HETATM    2  C2  UNL     1     -34.233  16.963  -4.078  1.00 20.00    -0.075 A 
HETATM    3  C3  UNL     1     -33.579  14.827  -4.446  1.00 20.00     0.159 A 
HETATM    4  C4  UNL     1     -33.705  16.362  -6.535  1.00 20.00     0.029 A 
HETATM    5  C5  UNL     1     -34.692  16.701  -5.454  1.00 20.00     0.032 A 
HETATM    6  C6  UNL     1     -34.291  15.246  -5.699  1.00 20.00     0.035 A 
HETATM    7  C7  UNL     1     -34.469  18.300  -3.463  1.00 20.00     0.044 C 
HETATM    8  O11 UNL     1     -33.059  13.738  -4.276  1.00 20.00    -0.292 OA
ENDROOT
BRANCH   6   9
HETATM    9  C10 UNL     1     -35.279  14.317  -6.338  1.00 20.00    -0.006 C 
HETATM   10  C8  UNL     1     -34.604  13.394  -7.364  1.00 20.00     0.011 C 
HETATM   11  C9  UNL     1     -36.014  13.468  -5.288  1.00 20.00     0.011 C 
ENDBRANCH   6   9
TORSDOF 1
ENDMDL
MODEL 8
REMARK VINA RESULT:      -4.3     11.481     12.556
REMARK  1 active torsions:
REMARK  status: ('A' for Active; 'I' for Inactive)
REMARK    1  A    between atoms: C6_6  and  C10_10 
ROOT
HETATM    1  C1  UNL     1     -37.631  14.422  -5.127  1.00 20.00     0.053 A 
HETATM    2  C2  UNL     1     -37.600  15.721  -4.784  1.00 20.00    -0.075 A 
HETATM    3  C3  UNL     1     -36.249  13.914  -4.967  1.00 20.00     0.159 A 
HETATM    4  C4  UNL     1     -35.562  15.684  -3.198  1.00 20.00     0.029 A 
HETATM    5  C5  UNL     1     -36.280  16.246  -4.392  1.00 20.00     0.032 A 
HETATM    6  C6  UNL     1     -35.351  15.042  -4.550  1.00 20.00     0.035 A 
HETATM    7  C7  UNL     1     -38.786  16.625  -4.778  1.00 20.00     0.044 C 
HETATM    8  O11 UNL     1     -35.882  12.765  -5.143  1.00 20.00    -0.292 OA
ENDROOT
BRANCH   6   9
HETATM    9  C10 UNL     1     -34.029  15.229  -5.233  1.00 20.00    -0.006 C 
HETATM   10  C8  UNL     1     -32.908  14.468  -4.509  1.00 20.00     0.011 C 
HETATM   11  C9  UNL     1     -34.086  14.785  -6.704  1.00 20.00     0.011 C 
ENDBRANCH   6   9
TORSDOF 1
ENDMDL
MODEL 9
REMARK VINA RESULT:      -4.3     11.351     12.531
REMARK  1 active torsions:
REMARK  status: ('A' for Active; 'I' for Inactive)
REMARK    1  A    between atoms: C6_6  and  C10_10 
ROOT
HETATM    1  C1  UNL     1     -33.625  16.791  -2.536  1.00 20.00     0.053 A 
HETATM    2  C2  UNL     1     -34.811  16.932  -1.919  1.00 20.00    -0.075 A 
HETATM    3  C3  UNL     1     -33.923  16.389  -3.930  1.00 20.00     0.159 A 
HETATM    4  C4  UNL     1     -36.287  17.461  -3.973  1.00 20.00     0.029 A 
HETATM    5  C5  UNL     1     -35.997  16.644  -2.745  1.00 20.00     0.032 A 
HETATM    6  C6  UNL     1     -35.407  16.237  -4.096  1.00 20.00     0.035 A 
HETATM    7  C7  UNL     1     -34.984  17.350  -0.498  1.00 20.00     0.044 C 
HETATM    8  O11 UNL     1     -33.105  16.206  -4.814  1.00 20.00    -0.292 OA
ENDROOT
BRANCH   6   9
HETATM    9  C10 UNL     1     -35.956  15.029  -4.794  1.00 20.00    -0.006 C 
HETATM   10  C8  UNL     1     -36.096  15.267  -6.306  1.00 20.00     0.011 C 
HETATM   11  C9  UNL     1     -35.081  13.789  -4.548  1.00 20.00     0.011 C 
ENDBRANCH   6   9
TORSDOF 1
ENDMDL
