MODEL 1
REMARK VINA RESULT:      -5.9      0.000      0.000
REMARK  1 active torsions:
REMARK  status: ('A' for Active; 'I' for Inactive)
REMARK    1  A    between atoms: C3_3  and  C6_6 
ROOT
HETATM    1  C1  UNL     1     -34.700   4.693   5.512  1.00 20.00    -0.030 C 
HETATM    2  C2  UNL     1     -34.662   5.985   5.861  1.00 20.00    -0.026 C 
HETATM    3  C4  UNL     1     -34.113   4.171   4.239  1.00 20.00     0.031 C 
HETATM    4  C5  UNL     1     -33.996   7.055   5.035  1.00 20.00     0.014 C 
HETATM    5  C6  UNL     1     -33.148   6.484   3.869  1.00 20.00     0.058 C 
HETATM    6  C7  UNL     1     -33.834   5.273   3.201  1.00 20.00    -0.004 C 
HETATM    7  C8  UNL     1     -33.133   7.942   5.942  1.00 20.00     0.015 C 
HETATM    8  C9  UNL     1     -33.000   4.691   2.055  1.00 20.00     0.011 C 
ENDROOT
BRANCH   5   9
HETATM    9  C3  UNL     1     -32.936   7.577   2.859  1.00 20.00     0.236 C 
HETATM   10  O10 UNL     1     -31.841   8.080   2.627  1.00 20.00    -0.306 OA
ENDBRANCH   5   9
TORSDOF 1
ENDMDL
MODEL 2
REMARK VINA RESULT:      -5.1      2.004      4.148
REMARK  1 active torsions:
REMARK  status: ('A' for Active; 'I' for Inactive)
REMARK    1  A    between atoms: C3_3  and  C6_6 
ROOT
HETATM    1  C1  UNL     1     -31.998   8.048   2.984  1.00 20.00    -0.030 C 
HETATM    2  C2  UNL     1     -32.480   7.095   2.176  1.00 20.00    -0.026 C 
HETATM    3  C4  UNL     1     -32.395   8.180   4.420  1.00 20.00     0.031 C 
HETATM    4  C5  UNL     1     -33.445   6.028   2.625  1.00 20.00     0.014 C 
HETATM    5  C6  UNL     1     -33.637   5.988   4.163  1.00 20.00     0.058 C 
HETATM    6  C7  UNL     1     -33.677   7.406   4.771  1.00 20.00    -0.004 C 
HETATM    7  C8  UNL     1     -32.977   4.661   2.106  1.00 20.00     0.015 C 
HETATM    8  C9  UNL     1     -33.854   7.380   6.293  1.00 20.00     0.011 C 
ENDROOT
BRANCH   5   9
HETATM    9  C3  UNL     1     -34.920   5.263   4.460  1.00 20.00     0.236 C 
HETATM   10  O10 UNL     1     -34.969   4.082   4.787  1.00 20.00    -0.306 OA
ENDBRANCH   5   9
TORSDOF 1
ENDMDL
MODEL 3
REMARK VINA RESULT:      -5.0      0.808      2.827
REMARK  1 active torsions:
REMARK  status: ('A' for Active; 'I' for Inactive)
REMARK    1  A    between atoms: C3_3  and  C6_6 
ROOT
HETATM    1  C1  UNL     1     -34.551   4.372   5.000  1.00 20.00    -0.030 C 
HETATM    2  C2  UNL     1     -34.116   4.399   3.734  1.00 20.00    -0.026 C 
HETATM    3  C4  UNL     1     -34.499   5.559   5.908  1.00 20.00     0.031 C 
HETATM    4  C5  UNL     1     -33.559   5.630   3.067  1.00 20.00     0.014 C 
HETATM    5  C6  UNL     1     -33.763   6.920   3.902  1.00 20.00     0.058 C 
HETATM    6  C7  UNL     1     -33.552   6.665   5.410  1.00 20.00    -0.004 C 
HETATM    7  C8  UNL     1     -34.183   5.786   1.674  1.00 20.00     0.015 C 
HETATM    8  C9  UNL     1     -33.763   7.931   6.248  1.00 20.00     0.011 C 
ENDROOT
BRANCH   5   9
HETATM    9  C3  UNL     1     -32.791   7.958   3.414  1.00 20.00     0.236 C 
HETATM   10  O10 UNL     1     -31.582   7.764   3.327  1.00 20.00    -0.306 OA
ENDBRANCH   5   9
TORSDOF 1
ENDMDL
MODEL 4
REMARK VINA RESULT:      -4.8      1.578      2.983
REMARK  1 active torsions:
REMARK  status: ('A' for Active; 'I' for Inactive)
REMARK    1  A    between atoms: C3_3  and  C6_6 
ROOT
HETATM    1  C1  UNL     1     -33.488   7.654   6.026  1.00 20.00    -0.030 C 
HETATM    2  C2  UNL     1     -34.108   6.481   5.840  1.00 20.00    -0.026 C 
HETATM    3  C4  UNL     1     -32.719   8.352   4.950  1.00 20.00     0.031 C 
HETATM    4  C5  UNL     1     -34.133   5.748   4.524  1.00 20.00     0.014 C 
HETATM    5  C6  UNL     1     -33.586   6.594   3.345  1.00 20.00     0.058 C 
HETATM    6  C7  UNL     1     -32.363   7.436   3.765  1.00 20.00    -0.004 C 
HETATM    7  C8  UNL     1     -35.562   5.274   4.227  1.00 20.00     0.015 C 
HETATM    8  C9  UNL     1     -31.819   8.287   2.612  1.00 20.00     0.011 C 
ENDROOT
BRANCH   5   9
HETATM    9  C3  UNL     1     -33.210   5.661   2.229  1.00 20.00     0.236 C 
HETATM   10  O10 UNL     1     -32.799   4.519   2.411  1.00 20.00    -0.306 OA
ENDBRANCH   5   9
TORSDOF 1
ENDMDL
MODEL 5
REMARK VINA RESULT:      -4.7      1.495      2.537
REMARK  1 active torsions:
REMARK  status: ('A' for Active; 'I' for Inactive)
REMARK    1  A    between atoms: C3_3  and  C6_6 
ROOT
HETATM    1  C1  UNL     1     -33.910   7.404   6.082  1.00 20.00    -0.030 C 
HETATM    2  C2  UNL     1     -33.405   8.102   5.057  1.00 20.00    -0.026 C 
HETATM    3  C4  UNL     1     -34.265   5.954   5.989  1.00 20.00     0.031 C 
HETATM    4  C5  UNL     1     -33.103   7.505   3.707  1.00 20.00     0.014 C 
HETATM    5  C6  UNL     1     -33.200   5.957   3.690  1.00 20.00     0.058 C 
HETATM    6  C7  UNL     1     -34.384   5.449   4.540  1.00 20.00    -0.004 C 
HETATM    7  C8  UNL     1     -31.713   7.961   3.242  1.00 20.00     0.015 C 
HETATM    8  C9  UNL     1     -34.484   3.920   4.542  1.00 20.00     0.011 C 
ENDROOT
BRANCH   5   9
HETATM    9  C3  UNL     1     -33.360   5.509   2.264  1.00 20.00     0.236 C 
HETATM   10  O10 UNL     1     -32.882   4.468   1.825  1.00 20.00    -0.306 OA
ENDBRANCH   5   9
TORSDOF 1
ENDMDL
MODEL 6
REMARK VINA RESULT:      -4.3     12.550     13.357
REMARK  1 active torsions:
REMARK  status: ('A' for Active; 'I' for Inactive)
REMARK    1  A    between atoms: C3_3  and  C6_6 
ROOT
HETATM    1  C1  UNL     1     -33.258  16.584  -4.902  1.00 20.00    -0.030 C 
HETATM    2  C2  UNL     1     -34.180  16.312  -3.970  1.00 20.00    -0.026 C 
HETATM    3  C4  UNL     1     -33.243  15.938  -6.250  1.00 20.00     0.031 C 
HETATM    4  C5  UNL     1     -35.325  15.356  -4.180  1.00 20.00     0.014 C 
HETATM    5  C6  UNL     1     -35.478  14.904  -5.656  1.00 20.00     0.058 C 
HETATM    6  C7  UNL     1     -34.108  14.667  -6.326  1.00 20.00    -0.004 C 
HETATM    7  C8  UNL     1     -36.627  15.994  -3.676  1.00 20.00     0.015 C 
HETATM    8  C9  UNL     1     -34.244  14.232  -7.789  1.00 20.00     0.011 C 
ENDROOT
BRANCH   5   9
HETATM    9  C3  UNL     1     -36.289  13.639  -5.682  1.00 20.00     0.236 C 
HETATM   10  O10 UNL     1     -35.914  12.585  -5.177  1.00 20.00    -0.306 OA
ENDBRANCH   5   9
TORSDOF 1
ENDMDL
MODEL 7
REMARK VINA RESULT:      -4.3     11.982     12.750
REMARK  1 active torsions:
REMARK  status: ('A' for Active; 'I' for Inactive)
REMARK    1  A    between atoms: C3_3  and  C6_6 
ROOT
HETATM    1  C1  UNL     1     -35.185  16.739  -2.545  1.00 20.00    -0.030 C 
HETATM    2  C2  UNL     1     -36.385  16.465  -3.070  1.00 20.00    -0.026 C 
HETATM    3  C4  UNL     1     -33.919  16.100  -3.021  1.00 20.00     0.031 C 
HETATM    4  C5  UNL     1     -36.598  15.515  -4.220  1.00 20.00     0.014 C 
HETATM    5  C6  UNL     1     -35.276  15.071  -4.897  1.00 20.00     0.058 C 
HETATM    6  C7  UNL     1     -34.156  14.832  -3.862  1.00 20.00    -0.004 C 
HETATM    7  C8  UNL     1     -37.540  16.155  -5.249  1.00 20.00     0.015 C 
HETATM    8  C9  UNL     1     -32.838  14.406  -4.519  1.00 20.00     0.011 C 
ENDROOT
BRANCH   5   9
HETATM    9  C3  UNL     1     -35.540  13.810  -5.669  1.00 20.00     0.236 C 
HETATM   10  O10 UNL     1     -35.930  12.768  -5.151  1.00 20.00    -0.306 OA
ENDBRANCH   5   9
TORSDOF 1
ENDMDL
MODEL 8
REMARK VINA RESULT:      -4.2     12.341     12.636
REMARK  1 active torsions:
REMARK  status: ('A' for Active; 'I' for Inactive)
REMARK    1  A    between atoms: C3_3  and  C6_6 
ROOT
HETATM    1  C1  UNL     1     -36.175  17.757   0.542  1.00 20.00    -0.030 C 
HETATM    2  C2  UNL     1     -35.498  18.510   1.418  1.00 20.00    -0.026 C 
HETATM    3  C4  UNL     1     -35.563  17.201  -0.704  1.00 20.00     0.031 C 
HETATM    4  C5  UNL     1     -34.039  18.855   1.271  1.00 20.00     0.014 C 
HETATM    5  C6  UNL     1     -33.334  18.057   0.144  1.00 20.00     0.058 C 
HETATM    6  C7  UNL     1     -34.243  17.890  -1.093  1.00 20.00    -0.004 C 
HETATM    7  C8  UNL     1     -33.322  18.640   2.611  1.00 20.00     0.015 C 
HETATM    8  C9  UNL     1     -33.563  17.091  -2.210  1.00 20.00     0.011 C 
ENDROOT
BRANCH   5   9
HETATM    9  C3  UNL     1     -32.076  18.785  -0.237  1.00 20.00     0.236 C 
HETATM   10  O10 UNL     1     -30.969  18.255  -0.261  1.00 20.00    -0.306 OA
ENDBRANCH   5   9
TORSDOF 1
ENDMDL
MODEL 9
REMARK VINA RESULT:      -4.2     11.721     12.679
REMARK  1 active torsions:
REMARK  status: ('A' for Active; 'I' for Inactive)
REMARK    1  A    between atoms: C3_3  and  C6_6 
ROOT
HETATM    1  C1  UNL     1     -34.712  16.755  -2.654  1.00 20.00    -0.030 C 
HETATM    2  C2  UNL     1     -33.650  16.243  -3.289  1.00 20.00    -0.026 C 
HETATM    3  C4  UNL     1     -36.120  16.355  -2.960  1.00 20.00     0.031 C 
HETATM    4  C5  UNL     1     -33.746  15.182  -4.355  1.00 20.00     0.014 C 
HETATM    5  C6  UNL     1     -35.163  14.564  -4.475  1.00 20.00     0.058 C 
HETATM    6  C7  UNL     1     -36.268  15.630  -4.309  1.00 20.00    -0.004 C 
HETATM    7  C8  UNL     1     -32.704  14.088  -4.087  1.00 20.00     0.015 C 
HETATM    8  C9  UNL     1     -37.674  15.031  -4.412  1.00 20.00     0.011 C 
ENDROOT
BRANCH   5   9
HETATM    9  C3  UNL     1     -35.281  13.907  -5.821  1.00 20.00     0.236 C 
HETATM   10  O10 UNL     1     -35.456  12.701  -5.971  1.00 20.00    -0.306 OA
ENDBRANCH   5   9
TORSDOF 1
ENDMDL
