MODEL 1
REMARK VINA RESULT:      -5.1      0.000      0.000
REMARK  1 active torsions:
REMARK  status: ('A' for Active; 'I' for Inactive)
REMARK    1  A    between atoms: C4_4  and  C12_12 
ROOT
HETATM    1  C1  UNL     1     -35.831  16.697  -2.432  1.00 20.00     0.005 C 
HETATM    2  C2  UNL     1     -36.230  15.907  -3.439  1.00 20.00     0.001 C 
HETATM    3  C3  UNL     1     -33.482  16.457  -2.981  1.00 20.00    -0.012 C 
HETATM    4  C4  UNL     1     -34.438  17.059  -2.253  1.00 20.00    -0.058 C 
HETATM    5  C5  UNL     1     -34.156  16.237  -6.136  1.00 20.00     0.004 C 
HETATM    6  C6  UNL     1     -33.062  15.620  -5.324  1.00 20.00     0.065 C 
HETATM    7  C7  UNL     1     -33.785  15.391  -4.007  1.00 20.00     0.042 C 
HETATM    8  C8  UNL     1     -35.267  15.329  -4.436  1.00 20.00     0.138 C 
HETATM    9  C9  UNL     1     -33.846  16.938  -7.417  1.00 20.00     0.065 C 
HETATM   10  N13 UNL     1     -35.368  16.101  -5.697  1.00 20.00    -0.289 NA
ENDROOT
BRANCH   4  11
HETATM   11  C12 UNL     1     -34.137  18.095  -1.214  1.00 20.00     0.010 C 
HETATM   12  C10 UNL     1     -34.870  17.774   0.084  1.00 20.00     0.015 C 
HETATM   13  C11 UNL     1     -32.632  18.204  -0.977  1.00 20.00     0.015 C 
ENDBRANCH   4  11
TORSDOF 1
ENDMDL
MODEL 2
REMARK VINA RESULT:      -4.8      1.745      2.295
REMARK  1 active torsions:
REMARK  status: ('A' for Active; 'I' for Inactive)
REMARK    1  A    between atoms: C4_4  and  C12_12 
ROOT
HETATM    1  C1  UNL     1     -35.063  17.594  -0.290  1.00 20.00     0.005 C 
HETATM    2  C2  UNL     1     -35.778  16.943  -1.219  1.00 20.00     0.001 C 
HETATM    3  C3  UNL     1     -33.068  17.665  -1.665  1.00 20.00    -0.012 C 
HETATM    4  C4  UNL     1     -33.712  18.050  -0.550  1.00 20.00    -0.058 C 
HETATM    5  C5  UNL     1     -34.835  17.894  -4.364  1.00 20.00     0.004 C 
HETATM    6  C6  UNL     1     -33.504  17.259  -4.117  1.00 20.00     0.065 C 
HETATM    7  C7  UNL     1     -33.693  16.755  -2.696  1.00 20.00     0.042 C 
HETATM    8  C8  UNL     1     -35.226  16.625  -2.580  1.00 20.00     0.138 C 
HETATM    9  C9  UNL     1     -35.032  18.818  -5.520  1.00 20.00     0.065 C 
HETATM   10  N13 UNL     1     -35.800  17.577  -3.559  1.00 20.00    -0.289 NA
ENDROOT
BRANCH   4  11
HETATM   11  C12 UNL     1     -33.084  18.929   0.488  1.00 20.00     0.010 C 
HETATM   12  C10 UNL     1     -33.685  18.644   1.860  1.00 20.00     0.015 C 
HETATM   13  C11 UNL     1     -31.568  18.746   0.509  1.00 20.00     0.015 C 
ENDBRANCH   4  11
TORSDOF 1
ENDMDL
MODEL 3
REMARK VINA RESULT:      -4.8      1.310      2.266
REMARK  1 active torsions:
REMARK  status: ('A' for Active; 'I' for Inactive)
REMARK    1  A    between atoms: C4_4  and  C12_12 
ROOT
HETATM    1  C1  UNL     1     -34.307  14.821  -3.624  1.00 20.00     0.005 C 
HETATM    2  C2  UNL     1     -34.548  14.215  -4.796  1.00 20.00     0.001 C 
HETATM    3  C3  UNL     1     -33.366  16.793  -4.673  1.00 20.00    -0.012 C 
HETATM    4  C4  UNL     1     -33.795  16.176  -3.559  1.00 20.00    -0.058 C 
HETATM    5  C5  UNL     1     -35.358  16.502  -7.203  1.00 20.00     0.004 C 
HETATM    6  C6  UNL     1     -33.965  17.037  -7.112  1.00 20.00     0.065 C 
HETATM    7  C7  UNL     1     -33.389  16.136  -6.032  1.00 20.00     0.042 C 
HETATM    8  C8  UNL     1     -34.288  14.884  -6.115  1.00 20.00     0.138 C 
HETATM    9  C9  UNL     1     -36.424  17.275  -7.908  1.00 20.00     0.065 C 
HETATM   10  N13 UNL     1     -35.581  15.336  -6.681  1.00 20.00    -0.289 NA
ENDROOT
BRANCH   4  11
HETATM   11  C12 UNL     1     -33.746  16.816  -2.205  1.00 20.00     0.010 C 
HETATM   12  C10 UNL     1     -33.167  18.224  -2.305  1.00 20.00     0.015 C 
HETATM   13  C11 UNL     1     -35.133  16.841  -1.567  1.00 20.00     0.015 C 
ENDBRANCH   4  11
TORSDOF 1
ENDMDL
MODEL 4
REMARK VINA RESULT:      -4.7      2.159      4.792
REMARK  1 active torsions:
REMARK  status: ('A' for Active; 'I' for Inactive)
REMARK    1  A    between atoms: C4_4  and  C12_12 
ROOT
HETATM    1  C1  UNL     1     -36.152  16.238  -3.755  1.00 20.00     0.005 C 
HETATM    2  C2  UNL     1     -36.682  17.349  -3.225  1.00 20.00     0.001 C 
HETATM    3  C3  UNL     1     -34.025  16.543  -2.635  1.00 20.00    -0.012 C 
HETATM    4  C4  UNL     1     -34.831  15.770  -3.382  1.00 20.00    -0.058 C 
HETATM    5  C5  UNL     1     -35.471  17.889  -0.074  1.00 20.00     0.004 C 
HETATM    6  C6  UNL     1     -34.122  18.128  -0.674  1.00 20.00     0.065 C 
HETATM    7  C7  UNL     1     -34.428  17.914  -2.147  1.00 20.00     0.042 C 
HETATM    8  C8  UNL     1     -35.944  18.194  -2.226  1.00 20.00     0.138 C 
HETATM    9  C9  UNL     1     -35.619  17.668   1.395  1.00 20.00     0.065 C 
HETATM   10  N13 UNL     1     -36.489  17.919  -0.876  1.00 20.00    -0.289 NA
ENDROOT
BRANCH   4  11
HETATM   11  C12 UNL     1     -34.422  14.422  -3.890  1.00 20.00     0.010 C 
HETATM   12  C10 UNL     1     -35.452  13.894  -4.883  1.00 20.00     0.015 C 
HETATM   13  C11 UNL     1     -33.034  14.480  -4.525  1.00 20.00     0.015 C 
ENDBRANCH   4  11
TORSDOF 1
ENDMDL
MODEL 5
REMARK VINA RESULT:      -4.7      2.145      3.447
REMARK  1 active torsions:
REMARK  status: ('A' for Active; 'I' for Inactive)
REMARK    1  A    between atoms: C4_4  and  C12_12 
ROOT
HETATM    1  C1  UNL     1     -34.509  14.459  -3.916  1.00 20.00     0.005 C 
HETATM    2  C2  UNL     1     -35.093  13.761  -4.901  1.00 20.00     0.001 C 
HETATM    3  C3  UNL     1     -35.539  16.548  -4.589  1.00 20.00    -0.012 C 
HETATM    4  C4  UNL     1     -34.809  15.860  -3.694  1.00 20.00    -0.058 C 
HETATM    5  C5  UNL     1     -38.198  15.009  -5.597  1.00 20.00     0.004 C 
HETATM    6  C6  UNL     1     -37.545  16.259  -6.093  1.00 20.00     0.065 C 
HETATM    7  C7  UNL     1     -36.082  15.924  -5.853  1.00 20.00     0.042 C 
HETATM    8  C8  UNL     1     -36.080  14.381  -5.849  1.00 20.00     0.138 C 
HETATM    9  C9  UNL     1     -39.666  14.976  -5.326  1.00 20.00     0.065 C 
HETATM   10  N13 UNL     1     -37.446  13.963  -5.453  1.00 20.00    -0.289 NA
ENDROOT
BRANCH   4  11
HETATM   11  C12 UNL     1     -34.246  16.485  -2.454  1.00 20.00     0.010 C 
HETATM   12  C10 UNL     1     -33.413  17.712  -2.810  1.00 20.00     0.015 C 
HETATM   13  C11 UNL     1     -35.360  16.848  -1.475  1.00 20.00     0.015 C 
ENDBRANCH   4  11
TORSDOF 1
ENDMDL
MODEL 6
REMARK VINA RESULT:      -4.6     11.012     11.751
REMARK  1 active torsions:
REMARK  status: ('A' for Active; 'I' for Inactive)
REMARK    1  A    between atoms: C4_4  and  C12_12 
ROOT
HETATM    1  C1  UNL     1     -34.000   5.843   2.951  1.00 20.00     0.005 C 
HETATM    2  C2  UNL     1     -33.384   6.111   1.790  1.00 20.00     0.001 C 
HETATM    3  C3  UNL     1     -32.675   7.448   4.193  1.00 20.00    -0.012 C 
HETATM    4  C4  UNL     1     -33.710   6.591   4.158  1.00 20.00    -0.058 C 
HETATM    5  C5  UNL     1     -32.487   9.405   1.626  1.00 20.00     0.004 C 
HETATM    6  C6  UNL     1     -31.522   9.160   2.741  1.00 20.00     0.065 C 
HETATM    7  C7  UNL     1     -31.770   7.685   3.007  1.00 20.00     0.042 C 
HETATM    8  C8  UNL     1     -32.343   7.186   1.664  1.00 20.00     0.138 C 
HETATM    9  C9  UNL     1     -32.848  10.798   1.228  1.00 20.00     0.065 C 
HETATM   10  N13 UNL     1     -32.955   8.366   1.008  1.00 20.00    -0.289 NA
ENDROOT
BRANCH   4  11
HETATM   11  C12 UNL     1     -34.591   6.333   5.342  1.00 20.00     0.010 C 
HETATM   12  C10 UNL     1     -34.636   4.842   5.656  1.00 20.00     0.015 C 
HETATM   13  C11 UNL     1     -34.117   7.131   6.555  1.00 20.00     0.015 C 
ENDBRANCH   4  11
TORSDOF 1
ENDMDL
MODEL 7
REMARK VINA RESULT:      -4.5      1.617      2.662
REMARK  1 active torsions:
REMARK  status: ('A' for Active; 'I' for Inactive)
REMARK    1  A    between atoms: C4_4  and  C12_12 
ROOT
HETATM    1  C1  UNL     1     -33.651  17.644  -4.236  1.00 20.00     0.005 C 
HETATM    2  C2  UNL     1     -33.787  17.640  -5.569  1.00 20.00     0.001 C 
HETATM    3  C3  UNL     1     -35.600  16.247  -3.886  1.00 20.00    -0.012 C 
HETATM    4  C4  UNL     1     -34.515  16.856  -3.379  1.00 20.00    -0.058 C 
HETATM    5  C5  UNL     1     -35.062  14.659  -6.651  1.00 20.00     0.004 C 
HETATM    6  C6  UNL     1     -36.338  14.990  -5.947  1.00 20.00     0.065 C 
HETATM    7  C7  UNL     1     -35.983  16.340  -5.344  1.00 20.00     0.042 C 
HETATM    8  C8  UNL     1     -34.850  16.839  -6.266  1.00 20.00     0.138 C 
HETATM    9  C9  UNL     1     -34.800  13.270  -7.133  1.00 20.00     0.065 C 
HETATM   10  N13 UNL     1     -34.225  15.629  -6.851  1.00 20.00    -0.289 NA
ENDROOT
BRANCH   4  11
HETATM   11  C12 UNL     1     -34.150  16.788  -1.928  1.00 20.00     0.010 C 
HETATM   12  C10 UNL     1     -33.047  17.793  -1.611  1.00 20.00     0.015 C 
HETATM   13  C11 UNL     1     -35.375  17.029  -1.048  1.00 20.00     0.015 C 
ENDBRANCH   4  11
TORSDOF 1
ENDMDL
MODEL 8
REMARK VINA RESULT:      -4.5      1.771      3.151
REMARK  1 active torsions:
REMARK  status: ('A' for Active; 'I' for Inactive)
REMARK    1  A    between atoms: C4_4  and  C12_12 
ROOT
HETATM    1  C1  UNL     1     -33.014  19.077  -1.554  1.00 20.00     0.005 C 
HETATM    2  C2  UNL     1     -33.236  18.979  -2.873  1.00 20.00     0.001 C 
HETATM    3  C3  UNL     1     -34.689  17.415  -1.002  1.00 20.00    -0.012 C 
HETATM    4  C4  UNL     1     -33.684  18.213  -0.603  1.00 20.00    -0.058 C 
HETATM    5  C5  UNL     1     -34.087  15.781  -3.726  1.00 20.00     0.004 C 
HETATM    6  C6  UNL     1     -35.351  15.948  -2.945  1.00 20.00     0.065 C 
HETATM    7  C7  UNL     1     -35.177  17.367  -2.430  1.00 20.00     0.042 C 
HETATM    8  C8  UNL     1     -34.200  17.985  -3.453  1.00 20.00     0.138 C 
HETATM    9  C9  UNL     1     -33.640  14.425  -4.165  1.00 20.00     0.065 C 
HETATM   10  N13 UNL     1     -33.431  16.857  -4.029  1.00 20.00    -0.289 NA
ENDROOT
BRANCH   4  11
HETATM   11  C12 UNL     1     -33.219  18.283   0.820  1.00 20.00     0.010 C 
HETATM   12  C10 UNL     1     -32.057  19.262   0.950  1.00 20.00     0.015 C 
HETATM   13  C11 UNL     1     -34.367  18.673   1.748  1.00 20.00     0.015 C 
ENDBRANCH   4  11
TORSDOF 1
ENDMDL
MODEL 9
REMARK VINA RESULT:      -4.5      1.728      4.728
REMARK  1 active torsions:
REMARK  status: ('A' for Active; 'I' for Inactive)
REMARK    1  A    between atoms: C4_4  and  C12_12 
ROOT
HETATM    1  C1  UNL     1     -33.731  16.336  -5.831  1.00 20.00     0.005 C 
HETATM    2  C2  UNL     1     -33.585  17.520  -5.220  1.00 20.00     0.001 C 
HETATM    3  C3  UNL     1     -34.242  15.170  -3.769  1.00 20.00    -0.012 C 
HETATM    4  C4  UNL     1     -34.161  15.154  -5.110  1.00 20.00    -0.058 C 
HETATM    5  C5  UNL     1     -35.713  17.782  -2.557  1.00 20.00     0.004 C 
HETATM    6  C6  UNL     1     -34.944  16.692  -1.882  1.00 20.00     0.065 C 
HETATM    7  C7  UNL     1     -33.900  16.387  -2.943  1.00 20.00     0.042 C 
HETATM    8  C8  UNL     1     -33.838  17.702  -3.750  1.00 20.00     0.138 C 
HETATM    9  C9  UNL     1     -37.051  18.198  -2.041  1.00 20.00     0.065 C 
HETATM   10  N13 UNL     1     -35.152  18.362  -3.571  1.00 20.00    -0.289 NA
ENDROOT
BRANCH   4  11
HETATM   11  C12 UNL     1     -34.472  13.938  -5.929  1.00 20.00     0.010 C 
HETATM   12  C10 UNL     1     -35.894  13.461  -5.650  1.00 20.00     0.015 C 
HETATM   13  C11 UNL     1     -34.274  14.220  -7.416  1.00 20.00     0.015 C 
ENDBRANCH   4  11
TORSDOF 1
ENDMDL
