MODEL 1
REMARK VINA RESULT:      -4.3      0.000      0.000
REMARK  2 active torsions:
REMARK  status: ('A' for Active; 'I' for Inactive)
REMARK    1  A    between atoms: C2_2  and  C4_4 
REMARK    2  A    between atoms: C3_3  and  C4_4 
ROOT
HETATM    1  C4  UNL     1     -34.072   7.017   4.105  1.00 20.00     0.127 C 
HETATM    2 CL7  UNL     1     -33.654   7.185   5.837  1.00 20.00    -0.121 Cl
ENDROOT
BRANCH   1   3
HETATM    3  C2  UNL     1     -32.798   6.941   3.273  1.00 20.00     0.164 A 
HETATM    4  C1  UNL     1     -31.831   8.090   3.226  1.00 20.00     0.201 A 
HETATM    5  O5  UNL     1     -32.760   7.841   2.160  1.00 20.00    -0.380 OA
ENDBRANCH   1   3
BRANCH   1   6
HETATM    6  C3  UNL     1     -35.020   5.836   3.892  1.00 20.00     0.137 C 
HETATM    7 CL6  UNL     1     -34.473   4.329   4.669  1.00 20.00    -0.129 Cl
ENDBRANCH   1   6
TORSDOF 2
ENDMDL
MODEL 2
REMARK VINA RESULT:      -4.0      2.684      3.795
REMARK  2 active torsions:
REMARK  status: ('A' for Active; 'I' for Inactive)
REMARK    1  A    between atoms: C2_2  and  C4_4 
REMARK    2  A    between atoms: C3_3  and  C4_4 
ROOT
HETATM    1  C4  UNL     1     -33.995   6.077   3.159  1.00 20.00     0.127 C 
HETATM    2 CL7  UNL     1     -32.943   4.749   2.584  1.00 20.00    -0.121 Cl
ENDROOT
BRANCH   1   3
HETATM    3  C2  UNL     1     -34.991   5.539   4.180  1.00 20.00     0.164 A 
HETATM    4  C1  UNL     1     -34.558   5.169   5.570  1.00 20.00     0.201 A 
HETATM    5  O5  UNL     1     -34.778   4.175   4.558  1.00 20.00    -0.380 OA
ENDBRANCH   1   3
BRANCH   1   6
HETATM    6  C3  UNL     1     -33.154   7.246   3.674  1.00 20.00     0.137 C 
HETATM    7 CL6  UNL     1     -32.189   8.046   2.408  1.00 20.00    -0.129 Cl
ENDBRANCH   1   6
TORSDOF 2
ENDMDL
MODEL 3
REMARK VINA RESULT:      -3.8      2.234      3.402
REMARK  2 active torsions:
REMARK  status: ('A' for Active; 'I' for Inactive)
REMARK    1  A    between atoms: C2_2  and  C4_4 
REMARK    2  A    between atoms: C3_3  and  C4_4 
ROOT
HETATM    1  C4  UNL     1     -33.385   6.635   4.347  1.00 20.00     0.127 C 
HETATM    2 CL7  UNL     1     -33.729   7.581   5.826  1.00 20.00    -0.121 Cl
ENDROOT
BRANCH   1   3
HETATM    3  C2  UNL     1     -34.483   5.600   4.131  1.00 20.00     0.164 A 
HETATM    4  C1  UNL     1     -34.609   4.401   5.028  1.00 20.00     0.201 A 
HETATM    5  O5  UNL     1     -34.013   4.311   3.724  1.00 20.00    -0.380 OA
ENDBRANCH   1   3
BRANCH   1   6
HETATM    6  C3  UNL     1     -33.168   7.564   3.152  1.00 20.00     0.137 C 
HETATM    7 CL6  UNL     1     -31.548   8.303   3.103  1.00 20.00    -0.129 Cl
ENDBRANCH   1   6
TORSDOF 2
ENDMDL
MODEL 4
REMARK VINA RESULT:      -3.6      1.517      1.925
REMARK  2 active torsions:
REMARK  status: ('A' for Active; 'I' for Inactive)
REMARK    1  A    between atoms: C2_2  and  C4_4 
REMARK    2  A    between atoms: C3_3  and  C4_4 
ROOT
HETATM    1  C4  UNL     1     -33.196   6.760   3.733  1.00 20.00     0.127 C 
HETATM    2 CL7  UNL     1     -34.175   5.804   2.580  1.00 20.00    -0.121 Cl
ENDROOT
BRANCH   1   3
HETATM    3  C2  UNL     1     -32.826   8.099   3.107  1.00 20.00     0.164 A 
HETATM    4  C1  UNL     1     -31.835   8.185   1.981  1.00 20.00     0.201 A 
HETATM    5  O5  UNL     1     -31.473   8.508   3.332  1.00 20.00    -0.380 OA
ENDBRANCH   1   3
BRANCH   1   6
HETATM    6  C3  UNL     1     -33.915   6.883   5.077  1.00 20.00     0.137 C 
HETATM    7 CL6  UNL     1     -34.620   5.353   5.655  1.00 20.00    -0.129 Cl
ENDBRANCH   1   6
TORSDOF 2
ENDMDL
MODEL 5
REMARK VINA RESULT:      -3.5      2.481      2.836
REMARK  2 active torsions:
REMARK  status: ('A' for Active; 'I' for Inactive)
REMARK    1  A    between atoms: C2_2  and  C4_4 
REMARK    2  A    between atoms: C3_3  and  C4_4 
ROOT
HETATM    1  C4  UNL     1     -32.975   6.930   3.397  1.00 20.00     0.127 C 
HETATM    2 CL7  UNL     1     -32.306   8.364   2.561  1.00 20.00    -0.121 Cl
ENDROOT
BRANCH   1   3
HETATM    3  C2  UNL     1     -33.958   7.373   4.474  1.00 20.00     0.164 A 
HETATM    4  C1  UNL     1     -33.587   7.334   5.929  1.00 20.00     0.201 A 
HETATM    5  O5  UNL     1     -34.413   6.323   5.333  1.00 20.00    -0.380 OA
ENDBRANCH   1   3
BRANCH   1   6
HETATM    6  C3  UNL     1     -33.568   5.946   2.386  1.00 20.00     0.137 C 
HETATM    7 CL6  UNL     1     -32.888   4.304   2.501  1.00 20.00    -0.129 Cl
ENDBRANCH   1   6
TORSDOF 2
ENDMDL
MODEL 6
REMARK VINA RESULT:      -3.4      2.299      2.721
REMARK  2 active torsions:
REMARK  status: ('A' for Active; 'I' for Inactive)
REMARK    1  A    between atoms: C2_2  and  C4_4 
REMARK    2  A    between atoms: C3_3  and  C4_4 
ROOT
HETATM    1  C4  UNL     1     -32.582   8.171   2.563  1.00 20.00     0.127 C 
HETATM    2 CL7  UNL     1     -31.383   8.375   3.876  1.00 20.00    -0.121 Cl
ENDROOT
BRANCH   1   3
HETATM    3  C2  UNL     1     -32.049   8.791   1.278  1.00 20.00     0.164 A 
HETATM    4  C1  UNL     1     -32.446  10.178   0.859  1.00 20.00     0.201 A 
HETATM    5  O5  UNL     1     -33.039   9.012   0.268  1.00 20.00    -0.380 OA
ENDBRANCH   1   3
BRANCH   1   6
HETATM    6  C3  UNL     1     -32.981   6.701   2.422  1.00 20.00     0.137 C 
HETATM    7 CL6  UNL     1     -34.342   6.224   3.468  1.00 20.00    -0.129 Cl
ENDBRANCH   1   6
TORSDOF 2
ENDMDL
MODEL 7
REMARK VINA RESULT:      -3.3      1.845      2.287
REMARK  2 active torsions:
REMARK  status: ('A' for Active; 'I' for Inactive)
REMARK    1  A    between atoms: C2_2  and  C4_4 
REMARK    2  A    between atoms: C3_3  and  C4_4 
ROOT
HETATM    1  C4  UNL     1     -33.757   7.239   4.052  1.00 20.00     0.127 C 
HETATM    2 CL7  UNL     1     -32.131   7.754   3.509  1.00 20.00    -0.121 Cl
ENDROOT
BRANCH   1   3
HETATM    3  C2  UNL     1     -34.191   6.002   3.276  1.00 20.00     0.164 A 
HETATM    4  C1  UNL     1     -33.186   4.990   2.800  1.00 20.00     0.201 A 
HETATM    5  O5  UNL     1     -33.752   5.969   1.914  1.00 20.00    -0.380 OA
ENDBRANCH   1   3
BRANCH   1   6
HETATM    6  C3  UNL     1     -33.785   7.058   5.570  1.00 20.00     0.137 C 
HETATM    7 CL6  UNL     1     -34.578   5.553   6.097  1.00 20.00    -0.129 Cl
ENDBRANCH   1   6
TORSDOF 2
ENDMDL
MODEL 8
REMARK VINA RESULT:      -3.2      2.967      3.772
REMARK  2 active torsions:
REMARK  status: ('A' for Active; 'I' for Inactive)
REMARK    1  A    between atoms: C2_2  and  C4_4 
REMARK    2  A    between atoms: C3_3  and  C4_4 
ROOT
HETATM    1  C4  UNL     1     -32.282   7.600   2.598  1.00 20.00     0.127 C 
HETATM    2 CL7  UNL     1     -31.295   8.345   3.891  1.00 20.00    -0.121 Cl
ENDROOT
BRANCH   1   3
HETATM    3  C2  UNL     1     -33.318   6.668   3.214  1.00 20.00     0.164 A 
HETATM    4  C1  UNL     1     -33.271   5.185   2.974  1.00 20.00     0.201 A 
HETATM    5  O5  UNL     1     -34.187   6.036   2.268  1.00 20.00    -0.380 OA
ENDBRANCH   1   3
BRANCH   1   6
HETATM    6  C3  UNL     1     -32.881   8.676   1.690  1.00 20.00     0.137 C 
HETATM    7 CL6  UNL     1     -31.782   9.213   0.395  1.00 20.00    -0.129 Cl
ENDBRANCH   1   6
TORSDOF 2
ENDMDL
MODEL 9
REMARK VINA RESULT:      -3.2      2.394      2.780
REMARK  2 active torsions:
REMARK  status: ('A' for Active; 'I' for Inactive)
REMARK    1  A    between atoms: C2_2  and  C4_4 
REMARK    2  A    between atoms: C3_3  and  C4_4 
ROOT
HETATM    1  C4  UNL     1     -34.774   5.844   3.909  1.00 20.00     0.127 C 
HETATM    2 CL7  UNL     1     -34.499   4.337   4.834  1.00 20.00    -0.121 Cl
ENDROOT
BRANCH   1   3
HETATM    3  C2  UNL     1     -34.556   7.050   4.814  1.00 20.00     0.164 A 
HETATM    4  C1  UNL     1     -33.203   7.353   5.394  1.00 20.00     0.201 A 
HETATM    5  O5  UNL     1     -34.235   6.726   6.171  1.00 20.00    -0.380 OA
ENDBRANCH   1   3
BRANCH   1   6
HETATM    6  C3  UNL     1     -33.920   5.861   2.640  1.00 20.00     0.137 C 
HETATM    7 CL6  UNL     1     -32.776   4.500   2.529  1.00 20.00    -0.129 Cl
ENDBRANCH   1   6
TORSDOF 2
ENDMDL
