MODEL 1
REMARK VINA RESULT:      -5.3      0.000      0.000
REMARK  1 active torsions:
REMARK  status: ('A' for Active; 'I' for Inactive)
REMARK    1  A    between atoms: C6_6  and  C10_10 
ROOT
HETATM    1  C1  UNL     1     -33.992   4.851   3.639  1.00 20.00     0.127 C 
HETATM    2  C2  UNL     1     -35.139   5.671   4.192  1.00 20.00     0.082 C 
HETATM    3  C3  UNL     1     -32.816   5.602   3.057  1.00 20.00     0.083 C 
HETATM    4  C4  UNL     1     -33.711   7.785   3.966  1.00 20.00     0.010 C 
HETATM    5  C5  UNL     1     -34.637   6.948   4.872  1.00 20.00    -0.011 C 
HETATM    6  C6  UNL     1     -33.214   7.038   2.716  1.00 20.00    -0.004 C 
HETATM    7  C7  UNL     1     -33.955   6.628   6.208  1.00 20.00     0.010 C 
HETATM    8  O11 UNL     1     -34.021   3.620   3.653  1.00 20.00    -0.298 OA
ENDROOT
BRANCH   6   9
HETATM    9  C10 UNL     1     -32.053   7.786   2.065  1.00 20.00    -0.018 C 
HETATM   10  C8  UNL     1     -32.574   8.850   1.101  1.00 20.00     0.010 C 
HETATM   11  C9  UNL     1     -31.158   8.418   3.129  1.00 20.00     0.010 C 
ENDBRANCH   6   9
TORSDOF 1
ENDMDL
MODEL 2
REMARK VINA RESULT:      -4.9     11.336     12.490
REMARK  1 active torsions:
REMARK  status: ('A' for Active; 'I' for Inactive)
REMARK    1  A    between atoms: C6_6  and  C10_10 
ROOT
HETATM    1  C1  UNL     1     -34.939  14.031  -4.971  1.00 20.00     0.127 C 
HETATM    2  C2  UNL     1     -33.941  14.340  -6.066  1.00 20.00     0.082 C 
HETATM    3  C3  UNL     1     -35.000  14.979  -3.794  1.00 20.00     0.083 C 
HETATM    4  C4  UNL     1     -33.508  16.627  -4.998  1.00 20.00     0.010 C 
HETATM    5  C5  UNL     1     -33.811  15.849  -6.295  1.00 20.00    -0.011 C 
HETATM    6  C6  UNL     1     -33.720  15.810  -3.712  1.00 20.00    -0.004 C 
HETATM    7  C7  UNL     1     -35.056  16.409  -6.993  1.00 20.00     0.010 C 
HETATM    8  O11 UNL     1     -35.667  13.039  -5.030  1.00 20.00    -0.298 OA
ENDROOT
BRANCH   6   9
HETATM    9  C10 UNL     1     -33.740  16.725  -2.489  1.00 20.00    -0.018 C 
HETATM   10  C8  UNL     1     -33.334  18.146  -2.875  1.00 20.00     0.010 C 
HETATM   11  C9  UNL     1     -35.120  16.718  -1.837  1.00 20.00     0.010 C 
ENDBRANCH   6   9
TORSDOF 1
ENDMDL
MODEL 3
REMARK VINA RESULT:      -4.8     11.270     12.068
REMARK  1 active torsions:
REMARK  status: ('A' for Active; 'I' for Inactive)
REMARK    1  A    between atoms: C6_6  and  C10_10 
ROOT
HETATM    1  C1  UNL     1     -36.418  14.512  -4.497  1.00 20.00     0.127 C 
HETATM    2  C2  UNL     1     -35.181  13.674  -4.743  1.00 20.00     0.082 C 
HETATM    3  C3  UNL     1     -36.234  15.831  -3.779  1.00 20.00     0.083 C 
HETATM    4  C4  UNL     1     -33.722  15.640  -3.991  1.00 20.00     0.010 C 
HETATM    5  C5  UNL     1     -33.964  14.550  -5.055  1.00 20.00    -0.011 C 
HETATM    6  C6  UNL     1     -34.903  15.850  -3.028  1.00 20.00    -0.004 C 
HETATM    7  C7  UNL     1     -34.073  15.165  -6.456  1.00 20.00     0.010 C 
HETATM    8  O11 UNL     1     -37.531  14.131  -4.858  1.00 20.00    -0.298 OA
ENDROOT
BRANCH   6   9
HETATM    9  C10 UNL     1     -34.737  17.150  -2.244  1.00 20.00    -0.018 C 
HETATM   10  C8  UNL     1     -35.506  17.083  -0.926  1.00 20.00     0.010 C 
HETATM   11  C9  UNL     1     -33.260  17.438  -1.991  1.00 20.00     0.010 C 
ENDBRANCH   6   9
TORSDOF 1
ENDMDL
MODEL 4
REMARK VINA RESULT:      -4.8     11.499     12.284
REMARK  1 active torsions:
REMARK  status: ('A' for Active; 'I' for Inactive)
REMARK    1  A    between atoms: C6_6  and  C10_10 
ROOT
HETATM    1  C1  UNL     1     -36.730  14.194  -4.918  1.00 20.00     0.127 C 
HETATM    2  C2  UNL     1     -35.782  13.263  -5.643  1.00 20.00     0.082 C 
HETATM    3  C3  UNL     1     -36.124  15.350  -4.153  1.00 20.00     0.083 C 
HETATM    4  C4  UNL     1     -33.861  14.893  -5.183  1.00 20.00     0.010 C 
HETATM    5  C5  UNL     1     -34.589  14.024  -6.229  1.00 20.00    -0.011 C 
HETATM    6  C6  UNL     1     -34.645  15.088  -3.873  1.00 20.00    -0.004 C 
HETATM    7  C7  UNL     1     -35.013  14.863  -7.440  1.00 20.00     0.010 C 
HETATM    8  O11 UNL     1     -37.948  14.013  -4.942  1.00 20.00    -0.298 OA
ENDROOT
BRANCH   6   9
HETATM    9  C10 UNL     1     -34.038  16.217  -3.043  1.00 20.00    -0.018 C 
HETATM   10  C8  UNL     1     -33.688  17.408  -3.932  1.00 20.00     0.010 C 
HETATM   11  C9  UNL     1     -34.994  16.638  -1.931  1.00 20.00     0.010 C 
ENDBRANCH   6   9
TORSDOF 1
ENDMDL
MODEL 5
REMARK VINA RESULT:      -4.6     11.402     12.263
REMARK  1 active torsions:
REMARK  status: ('A' for Active; 'I' for Inactive)
REMARK    1  A    between atoms: C6_6  and  C10_10 
ROOT
HETATM    1  C1  UNL     1     -36.075  15.663  -3.748  1.00 20.00     0.127 C 
HETATM    2  C2  UNL     1     -34.778  14.904  -3.932  1.00 20.00     0.082 C 
HETATM    3  C3  UNL     1     -36.069  16.830  -2.785  1.00 20.00     0.083 C 
HETATM    4  C4  UNL     1     -33.549  16.721  -2.610  1.00 20.00     0.010 C 
HETATM    5  C5  UNL     1     -33.568  15.841  -3.877  1.00 20.00    -0.011 C 
HETATM    6  C6  UNL     1     -34.877  16.731  -1.833  1.00 20.00    -0.004 C 
HETATM    7  C7  UNL     1     -33.480  16.702  -5.144  1.00 20.00     0.010 C 
HETATM    8  O11 UNL     1     -37.098  15.338  -4.350  1.00 20.00    -0.298 OA
ENDROOT
BRANCH   6   9
HETATM    9  C10 UNL     1     -34.898  17.867  -0.813  1.00 20.00    -0.018 C 
HETATM   10  C8  UNL     1     -35.690  17.460   0.427  1.00 20.00     0.010 C 
HETATM   11  C9  UNL     1     -33.476  18.272  -0.433  1.00 20.00     0.010 C 
ENDBRANCH   6   9
TORSDOF 1
ENDMDL
MODEL 6
REMARK VINA RESULT:      -4.6     11.514     12.493
REMARK  1 active torsions:
REMARK  status: ('A' for Active; 'I' for Inactive)
REMARK    1  A    between atoms: C6_6  and  C10_10 
ROOT
HETATM    1  C1  UNL     1     -33.240  18.260  -1.947  1.00 20.00     0.127 C 
HETATM    2  C2  UNL     1     -33.976  17.687  -0.754  1.00 20.00     0.082 C 
HETATM    3  C3  UNL     1     -33.495  17.624  -3.295  1.00 20.00     0.083 C 
HETATM    4  C4  UNL     1     -35.415  16.284  -2.341  1.00 20.00     0.010 C 
HETATM    5  C5  UNL     1     -35.392  17.240  -1.131  1.00 20.00    -0.011 C 
HETATM    6  C6  UNL     1     -34.091  16.227  -3.122  1.00 20.00    -0.004 C 
HETATM    7  C7  UNL     1     -36.305  18.449  -1.370  1.00 20.00     0.010 C 
HETATM    8  O11 UNL     1     -32.457  19.202  -1.823  1.00 20.00    -0.298 OA
ENDROOT
BRANCH   6   9
HETATM    9  C10 UNL     1     -34.290  15.547  -4.475  1.00 20.00    -0.018 C 
HETATM   10  C8  UNL     1     -33.005  15.606  -5.299  1.00 20.00     0.010 C 
HETATM   11  C9  UNL     1     -34.743  14.102  -4.287  1.00 20.00     0.010 C 
ENDBRANCH   6   9
TORSDOF 1
ENDMDL
MODEL 7
REMARK VINA RESULT:      -4.4     11.288     12.251
REMARK  1 active torsions:
REMARK  status: ('A' for Active; 'I' for Inactive)
REMARK    1  A    between atoms: C6_6  and  C10_10 
ROOT
HETATM    1  C1  UNL     1     -34.640  14.568  -5.258  1.00 20.00     0.127 C 
HETATM    2  C2  UNL     1     -35.627  15.468  -5.971  1.00 20.00     0.082 C 
HETATM    3  C3  UNL     1     -34.370  14.848  -3.797  1.00 20.00     0.083 C 
HETATM    4  C4  UNL     1     -36.290  16.490  -3.718  1.00 20.00     0.010 C 
HETATM    5  C5  UNL     1     -36.778  15.878  -5.047  1.00 20.00    -0.011 C 
HETATM    6  C6  UNL     1     -34.793  16.272  -3.439  1.00 20.00    -0.004 C 
HETATM    7  C7  UNL     1     -37.726  14.699  -4.793  1.00 20.00     0.010 C 
HETATM    8  O11 UNL     1     -34.071  13.649  -5.848  1.00 20.00    -0.298 OA
ENDROOT
BRANCH   6   9
HETATM    9  C10 UNL     1     -34.463  16.590  -1.982  1.00 20.00    -0.018 C 
HETATM   10  C8  UNL     1     -33.259  17.526  -1.897  1.00 20.00     0.010 C 
HETATM   11  C9  UNL     1     -35.672  17.203  -1.280  1.00 20.00     0.010 C 
ENDBRANCH   6   9
TORSDOF 1
ENDMDL
MODEL 8
REMARK VINA RESULT:      -4.1      1.641      2.348
REMARK  1 active torsions:
REMARK  status: ('A' for Active; 'I' for Inactive)
REMARK    1  A    between atoms: C6_6  and  C10_10 
ROOT
HETATM    1  C1  UNL     1     -34.014   6.769   5.580  1.00 20.00     0.127 C 
HETATM    2  C2  UNL     1     -34.433   5.399   5.090  1.00 20.00     0.082 C 
HETATM    3  C3  UNL     1     -33.273   7.660   4.609  1.00 20.00     0.083 C 
HETATM    4  C4  UNL     1     -33.780   6.073   2.707  1.00 20.00     0.010 C 
HETATM    5  C5  UNL     1     -34.850   5.434   3.617  1.00 20.00    -0.011 C 
HETATM    6  C6  UNL     1     -32.680   6.832   3.469  1.00 20.00    -0.004 C 
HETATM    7  C7  UNL     1     -36.205   6.133   3.445  1.00 20.00     0.010 C 
HETATM    8  O11 UNL     1     -34.259   7.140   6.728  1.00 20.00    -0.298 OA
ENDROOT
BRANCH   6   9
HETATM    9  C10 UNL     1     -31.872   7.712   2.518  1.00 20.00    -0.018 C 
HETATM   10  C8  UNL     1     -32.799   8.450   1.553  1.00 20.00     0.010 C 
HETATM   11  C9  UNL     1     -31.013   8.701   3.301  1.00 20.00     0.010 C 
ENDBRANCH   6   9
TORSDOF 1
ENDMDL
MODEL 9
REMARK VINA RESULT:      -4.1     11.897     12.952
REMARK  1 active torsions:
REMARK  status: ('A' for Active; 'I' for Inactive)
REMARK    1  A    between atoms: C6_6  and  C10_10 
ROOT
HETATM    1  C1  UNL     1     -33.481  17.482  -4.385  1.00 20.00     0.127 C 
HETATM    2  C2  UNL     1     -33.630  16.861  -3.012  1.00 20.00     0.082 C 
HETATM    3  C3  UNL     1     -33.841  16.628  -5.580  1.00 20.00     0.083 C 
HETATM    4  C4  UNL     1     -34.850  14.872  -4.067  1.00 20.00     0.010 C 
HETATM    5  C5  UNL     1     -34.847  15.933  -2.947  1.00 20.00    -0.011 C 
HETATM    6  C6  UNL     1     -33.844  15.148  -5.197  1.00 20.00    -0.004 C 
HETATM    7  C7  UNL     1     -36.153  16.737  -2.949  1.00 20.00     0.010 C 
HETATM    8  O11 UNL     1     -33.073  18.636  -4.524  1.00 20.00    -0.298 OA
ENDROOT
BRANCH   6   9
HETATM    9  C10 UNL     1     -34.140  14.271  -6.411  1.00 20.00    -0.018 C 
HETATM   10  C8  UNL     1     -35.491  13.576  -6.254  1.00 20.00     0.010 C 
HETATM   11  C9  UNL     1     -34.107  15.099  -7.693  1.00 20.00     0.010 C 
ENDBRANCH   6   9
TORSDOF 1
ENDMDL
