MODEL 1
REMARK VINA RESULT:      -5.5      0.000      0.000
REMARK  1 active torsions:
REMARK  status: ('A' for Active; 'I' for Inactive)
REMARK    1  A    between atoms: C8_8  and  O9_9 
ROOT
HETATM    1  C1  UNL     1     -31.780   8.232   2.405  1.00 20.00     0.015 C 
HETATM    2  C2  UNL     1     -32.609   7.560   2.955  1.00 20.00    -0.079 C 
HETATM    3  C3  UNL     1     -34.310   4.661   5.646  1.00 20.00     0.000 C 
HETATM    4  C4  UNL     1     -34.300   4.335   4.156  1.00 20.00     0.004 C 
HETATM    5  C5  UNL     1     -34.618   6.135   5.897  1.00 20.00     0.004 C 
HETATM    6  C6  UNL     1     -33.341   5.245   3.386  1.00 20.00     0.051 C 
HETATM    7  C7  UNL     1     -33.656   7.047   5.134  1.00 20.00     0.051 C 
HETATM    8  C8  UNL     1     -33.627   6.735   3.629  1.00 20.00     0.120 C 
ENDROOT
BRANCH   8   9
HETATM    9  O9  UNL     1     -34.907   7.034   3.065  1.00 20.00    -0.378 OA
HETATM   10  H21 UNL     1     -35.495   6.308   3.323  1.00 20.00     0.211 HD
ENDBRANCH   8   9
TORSDOF 1
ENDMDL
MODEL 2
REMARK VINA RESULT:      -4.7      1.577      2.455
REMARK  1 active torsions:
REMARK  status: ('A' for Active; 'I' for Inactive)
REMARK    1  A    between atoms: C8_8  and  O9_9 
ROOT
HETATM    1  C1  UNL     1     -32.601   9.448   1.134  1.00 20.00     0.015 C 
HETATM    2  C2  UNL     1     -32.704   8.577   1.954  1.00 20.00    -0.079 C 
HETATM    3  C3  UNL     1     -34.544   5.589   4.449  1.00 20.00     0.000 C 
HETATM    4  C4  UNL     1     -34.017   6.855   5.118  1.00 20.00     0.004 C 
HETATM    5  C5  UNL     1     -33.617   5.115   3.334  1.00 20.00     0.004 C 
HETATM    6  C6  UNL     1     -33.757   7.965   4.098  1.00 20.00     0.051 C 
HETATM    7  C7  UNL     1     -33.360   6.221   2.309  1.00 20.00     0.051 C 
HETATM    8  C8  UNL     1     -32.831   7.509   2.961  1.00 20.00     0.120 C 
ENDROOT
BRANCH   8   9
HETATM    9  O9  UNL     1     -31.540   7.252   3.521  1.00 20.00    -0.378 OA
HETATM   10  H21 UNL     1     -31.693   6.786   4.357  1.00 20.00     0.211 HD
ENDBRANCH   8   9
TORSDOF 1
ENDMDL
MODEL 3
REMARK VINA RESULT:      -4.3      1.102      2.453
REMARK  1 active torsions:
REMARK  status: ('A' for Active; 'I' for Inactive)
REMARK    1  A    between atoms: C8_8  and  O9_9 
ROOT
HETATM    1  C1  UNL     1     -32.797   3.920   1.874  1.00 20.00     0.015 C 
HETATM    2  C2  UNL     1     -33.307   4.694   2.636  1.00 20.00    -0.079 C 
HETATM    3  C3  UNL     1     -33.850   7.129   6.145  1.00 20.00     0.000 C 
HETATM    4  C4  UNL     1     -34.762   5.920   5.965  1.00 20.00     0.004 C 
HETATM    5  C5  UNL     1     -33.586   7.837   4.819  1.00 20.00     0.004 C 
HETATM    6  C6  UNL     1     -34.214   4.952   4.915  1.00 20.00     0.051 C 
HETATM    7  C7  UNL     1     -33.032   6.873   3.768  1.00 20.00     0.051 C 
HETATM    8  C8  UNL     1     -33.934   5.644   3.572  1.00 20.00     0.120 C 
ENDROOT
BRANCH   8   9
HETATM    9  O9  UNL     1     -35.187   6.066   3.026  1.00 20.00    -0.378 OA
HETATM   10  H21 UNL     1     -35.590   5.279   2.629  1.00 20.00     0.211 HD
ENDBRANCH   8   9
TORSDOF 1
ENDMDL
MODEL 4
REMARK VINA RESULT:      -4.2     11.988     12.848
REMARK  1 active torsions:
REMARK  status: ('A' for Active; 'I' for Inactive)
REMARK    1  A    between atoms: C8_8  and  O9_9 
ROOT
HETATM    1  C1  UNL     1     -33.670  16.634  -2.684  1.00 20.00     0.015 C 
HETATM    2  C2  UNL     1     -33.815  15.857  -3.587  1.00 20.00    -0.079 C 
HETATM    3  C3  UNL     1     -35.478  14.054  -7.125  1.00 20.00     0.000 C 
HETATM    4  C4  UNL     1     -35.662  13.327  -5.797  1.00 20.00     0.004 C 
HETATM    5  C5  UNL     1     -34.095  14.690  -7.231  1.00 20.00     0.004 C 
HETATM    6  C6  UNL     1     -35.377  14.245  -4.607  1.00 20.00     0.051 C 
HETATM    7  C7  UNL     1     -33.809  15.614  -6.046  1.00 20.00     0.051 C 
HETATM    8  C8  UNL     1     -33.991  14.902  -4.695  1.00 20.00     0.120 C 
ENDROOT
BRANCH   8   9
HETATM    9  O9  UNL     1     -33.008  13.872  -4.574  1.00 20.00    -0.378 OA
HETATM   10  H21 UNL     1     -32.802  13.584  -5.476  1.00 20.00     0.211 HD
ENDBRANCH   8   9
TORSDOF 1
ENDMDL
MODEL 5
REMARK VINA RESULT:      -4.2     11.877     12.882
REMARK  1 active torsions:
REMARK  status: ('A' for Active; 'I' for Inactive)
REMARK    1  A    between atoms: C8_8  and  O9_9 
ROOT
HETATM    1  C1  UNL     1     -38.738  14.713  -4.936  1.00 20.00     0.015 C 
HETATM    2  C2  UNL     1     -37.574  14.450  -5.057  1.00 20.00    -0.079 C 
HETATM    3  C3  UNL     1     -33.359  15.027  -5.723  1.00 20.00     0.000 C 
HETATM    4  C4  UNL     1     -34.159  14.291  -6.794  1.00 20.00     0.004 C 
HETATM    5  C5  UNL     1     -33.813  14.643  -4.318  1.00 20.00     0.004 C 
HETATM    6  C6  UNL     1     -35.664  14.500  -6.616  1.00 20.00     0.051 C 
HETATM    7  C7  UNL     1     -35.317  14.857  -4.135  1.00 20.00     0.051 C 
HETATM    8  C8  UNL     1     -36.144  14.125  -5.206  1.00 20.00     0.120 C 
ENDROOT
BRANCH   8   9
HETATM    9  O9  UNL     1     -35.975  12.715  -5.044  1.00 20.00    -0.378 OA
HETATM   10  H21 UNL     1     -36.293  12.306  -5.863  1.00 20.00     0.211 HD
ENDBRANCH   8   9
TORSDOF 1
ENDMDL
MODEL 6
REMARK VINA RESULT:      -3.9     11.686     12.959
REMARK  1 active torsions:
REMARK  status: ('A' for Active; 'I' for Inactive)
REMARK    1  A    between atoms: C8_8  and  O9_9 
ROOT
HETATM    1  C1  UNL     1     -33.038  14.428  -4.217  1.00 20.00     0.015 C 
HETATM    2  C2  UNL     1     -34.149  14.285  -4.648  1.00 20.00    -0.079 C 
HETATM    3  C3  UNL     1     -37.956  15.293  -6.389  1.00 20.00     0.000 C 
HETATM    4  C4  UNL     1     -37.926  14.881  -4.920  1.00 20.00     0.004 C 
HETATM    5  C5  UNL     1     -36.987  14.463  -7.225  1.00 20.00     0.004 C 
HETATM    6  C6  UNL     1     -36.509  14.934  -4.348  1.00 20.00     0.051 C 
HETATM    7  C7  UNL     1     -35.566  14.518  -6.659  1.00 20.00     0.051 C 
HETATM    8  C8  UNL     1     -35.513  14.110  -5.178  1.00 20.00     0.120 C 
ENDROOT
BRANCH   8   9
HETATM    9  O9  UNL     1     -35.877  12.732  -5.060  1.00 20.00    -0.378 OA
HETATM   10  H21 UNL     1     -36.456  12.537  -5.812  1.00 20.00     0.211 HD
ENDBRANCH   8   9
TORSDOF 1
ENDMDL
MODEL 7
REMARK VINA RESULT:      -3.9     11.883     12.748
REMARK  1 active torsions:
REMARK  status: ('A' for Active; 'I' for Inactive)
REMARK    1  A    between atoms: C8_8  and  O9_9 
ROOT
HETATM    1  C1  UNL     1     -36.592  14.154  -7.918  1.00 20.00     0.015 C 
HETATM    2  C2  UNL     1     -36.045  14.199  -6.850  1.00 20.00    -0.079 C 
HETATM    3  C3  UNL     1     -33.718  15.751  -3.577  1.00 20.00     0.000 C 
HETATM    4  C4  UNL     1     -33.124  14.614  -4.403  1.00 20.00     0.004 C 
HETATM    5  C5  UNL     1     -35.217  15.565  -3.362  1.00 20.00     0.004 C 
HETATM    6  C6  UNL     1     -33.861  14.436  -5.731  1.00 20.00     0.051 C 
HETATM    7  C7  UNL     1     -35.959  15.394  -4.689  1.00 20.00     0.051 C 
HETATM    8  C8  UNL     1     -35.374  14.254  -5.540  1.00 20.00     0.120 C 
ENDROOT
BRANCH   8   9
HETATM    9  O9  UNL     1     -35.585  13.011  -4.864  1.00 20.00    -0.378 OA
HETATM   10  H21 UNL     1     -34.762  12.814  -4.393  1.00 20.00     0.211 HD
ENDBRANCH   8   9
TORSDOF 1
ENDMDL
MODEL 8
REMARK VINA RESULT:      -3.9      9.682     10.465
REMARK  1 active torsions:
REMARK  status: ('A' for Active; 'I' for Inactive)
REMARK    1  A    between atoms: C8_8  and  O9_9 
ROOT
HETATM    1  C1  UNL     1     -43.035   3.188  -2.856  1.00 20.00     0.015 C 
HETATM    2  C2  UNL     1     -42.824   3.995  -1.993  1.00 20.00    -0.079 C 
HETATM    3  C3  UNL     1     -41.613   7.685  -0.136  1.00 20.00     0.000 C 
HETATM    4  C4  UNL     1     -40.759   6.445   0.111  1.00 20.00     0.004 C 
HETATM    5  C5  UNL     1     -43.101   7.349  -0.151  1.00 20.00     0.004 C 
HETATM    6  C6  UNL     1     -41.071   5.336  -0.895  1.00 20.00     0.051 C 
HETATM    7  C7  UNL     1     -43.417   6.245  -1.161  1.00 20.00     0.051 C 
HETATM    8  C8  UNL     1     -42.566   4.985  -0.933  1.00 20.00     0.120 C 
ENDROOT
BRANCH   8   9
HETATM    9  O9  UNL     1     -42.913   4.408   0.328  1.00 20.00    -0.378 OA
HETATM   10  H21 UNL     1     -42.304   3.667   0.466  1.00 20.00     0.211 HD
ENDBRANCH   8   9
TORSDOF 1
ENDMDL
MODEL 9
REMARK VINA RESULT:      -3.9     12.055     13.072
REMARK  1 active torsions:
REMARK  status: ('A' for Active; 'I' for Inactive)
REMARK    1  A    between atoms: C8_8  and  O9_9 
ROOT
HETATM    1  C1  UNL     1     -35.198  13.023  -7.357  1.00 20.00     0.015 C 
HETATM    2  C2  UNL     1     -34.742  13.725  -6.497  1.00 20.00    -0.079 C 
HETATM    3  C3  UNL     1     -34.326  17.083  -3.833  1.00 20.00     0.000 C 
HETATM    4  C4  UNL     1     -33.305  16.928  -4.956  1.00 20.00     0.004 C 
HETATM    5  C5  UNL     1     -34.704  15.734  -3.228  1.00 20.00     0.004 C 
HETATM    6  C6  UNL     1     -33.789  15.950  -6.028  1.00 20.00     0.051 C 
HETATM    7  C7  UNL     1     -35.195  14.756  -4.296  1.00 20.00     0.051 C 
HETATM    8  C8  UNL     1     -34.182  14.586  -5.441  1.00 20.00     0.120 C 
ENDROOT
BRANCH   8   9
HETATM    9  O9  UNL     1     -32.997  13.971  -4.928  1.00 20.00    -0.378 OA
HETATM   10  H21 UNL     1     -33.039  13.038  -5.189  1.00 20.00     0.211 HD
ENDBRANCH   8   9
TORSDOF 1
ENDMDL
