MODEL 1
REMARK VINA RESULT:      -6.5      0.000      0.000
REMARK  0 active torsions:
REMARK  status: ('A' for Active; 'I' for Inactive)
ROOT
HETATM    1  C1  UNL     1     -33.883   6.763   4.985  1.00 20.00    -0.017 C 
HETATM    2  C2  UNL     1     -33.171   6.996   3.691  1.00 20.00     0.159 C 
HETATM    3  C3  UNL     1     -33.655   7.407   6.128  1.00 20.00     0.023 C 
HETATM    4  C4  UNL     1     -34.143   4.377   4.361  1.00 20.00     0.010 C 
HETATM    5  C5  UNL     1     -33.395   4.652   3.031  1.00 20.00     0.013 C 
HETATM    6  C6  UNL     1     -35.266   6.123   3.210  1.00 20.00     0.022 C 
HETATM    7  C7  UNL     1     -34.894   5.696   4.636  1.00 20.00     0.022 C 
HETATM    8  C8  UNL     1     -33.827   6.083   2.678  1.00 20.00     0.061 C 
HETATM    9  O9  UNL     1     -32.223   7.736   3.510  1.00 20.00    -0.292 OA
ENDROOT
TORSDOF 0
ENDMDL
MODEL 2
REMARK VINA RESULT:      -6.1      1.421      2.392
REMARK  0 active torsions:
REMARK  status: ('A' for Active; 'I' for Inactive)
ROOT
HETATM    1  C1  UNL     1     -33.293   6.724   3.371  1.00 20.00    -0.017 C 
HETATM    2  C2  UNL     1     -33.458   5.245   3.230  1.00 20.00     0.159 C 
HETATM    3  C3  UNL     1     -32.379   7.469   2.752  1.00 20.00     0.023 C 
HETATM    4  C4  UNL     1     -34.088   6.546   5.712  1.00 20.00     0.010 C 
HETATM    5  C5  UNL     1     -34.241   5.013   5.535  1.00 20.00     0.013 C 
HETATM    6  C6  UNL     1     -35.506   6.138   3.853  1.00 20.00     0.022 C 
HETATM    7  C7  UNL     1     -34.410   7.108   4.313  1.00 20.00     0.022 C 
HETATM    8  C8  UNL     1     -34.664   4.873   4.065  1.00 20.00     0.061 C 
HETATM    9  O9  UNL     1     -32.733   4.491   2.608  1.00 20.00    -0.292 OA
ENDROOT
TORSDOF 0
ENDMDL
MODEL 3
REMARK VINA RESULT:      -5.4      1.757      3.197
REMARK  0 active torsions:
REMARK  status: ('A' for Active; 'I' for Inactive)
ROOT
HETATM    1  C1  UNL     1     -33.531   5.169   3.112  1.00 20.00    -0.017 C 
HETATM    2  C2  UNL     1     -34.164   4.470   4.273  1.00 20.00     0.159 C 
HETATM    3  C3  UNL     1     -32.732   4.608   2.206  1.00 20.00     0.023 C 
HETATM    4  C4  UNL     1     -33.427   7.239   4.471  1.00 20.00     0.010 C 
HETATM    5  C5  UNL     1     -34.079   6.484   5.658  1.00 20.00     0.013 C 
HETATM    6  C6  UNL     1     -35.480   6.303   3.734  1.00 20.00     0.022 C 
HETATM    7  C7  UNL     1     -34.058   6.580   3.228  1.00 20.00     0.022 C 
HETATM    8  C8  UNL     1     -35.032   5.501   4.963  1.00 20.00     0.061 C 
HETATM    9  O9  UNL     1     -33.974   3.319   4.616  1.00 20.00    -0.292 OA
ENDROOT
TORSDOF 0
ENDMDL
MODEL 4
REMARK VINA RESULT:      -5.3      1.304      1.934
REMARK  0 active torsions:
REMARK  status: ('A' for Active; 'I' for Inactive)
ROOT
HETATM    1  C1  UNL     1     -34.331   5.494   4.930  1.00 20.00    -0.017 C 
HETATM    2  C2  UNL     1     -33.901   6.926   4.964  1.00 20.00     0.159 C 
HETATM    3  C3  UNL     1     -34.597   4.734   5.991  1.00 20.00     0.023 C 
HETATM    4  C4  UNL     1     -32.990   5.187   2.868  1.00 20.00     0.010 C 
HETATM    5  C5  UNL     1     -32.558   6.674   2.937  1.00 20.00     0.013 C 
HETATM    6  C6  UNL     1     -34.941   6.538   2.927  1.00 20.00     0.022 C 
HETATM    7  C7  UNL     1     -34.418   5.195   3.452  1.00 20.00     0.022 C 
HETATM    8  C8  UNL     1     -33.796   7.370   3.521  1.00 20.00     0.061 C 
HETATM    9  O9  UNL     1     -33.641   7.580   5.956  1.00 20.00    -0.292 OA
ENDROOT
TORSDOF 0
ENDMDL
MODEL 5
REMARK VINA RESULT:      -5.0      1.198      2.433
REMARK  0 active torsions:
REMARK  status: ('A' for Active; 'I' for Inactive)
ROOT
HETATM    1  C1  UNL     1     -32.856   7.031   3.678  1.00 20.00    -0.017 C 
HETATM    2  C2  UNL     1     -33.653   6.844   4.930  1.00 20.00     0.159 C 
HETATM    3  C3  UNL     1     -31.934   7.970   3.474  1.00 20.00     0.023 C 
HETATM    4  C4  UNL     1     -34.787   6.184   2.374  1.00 20.00     0.010 C 
HETATM    5  C5  UNL     1     -35.588   6.008   3.690  1.00 20.00     0.013 C 
HETATM    6  C6  UNL     1     -33.536   4.799   3.841  1.00 20.00     0.022 C 
HETATM    7  C7  UNL     1     -33.330   5.901   2.794  1.00 20.00     0.022 C 
HETATM    8  C8  UNL     1     -34.506   5.613   4.706  1.00 20.00     0.061 C 
HETATM    9  O9  UNL     1     -33.647   7.568   5.907  1.00 20.00    -0.292 OA
ENDROOT
TORSDOF 0
ENDMDL
MODEL 6
REMARK VINA RESULT:      -4.3     12.013     13.156
REMARK  0 active torsions:
REMARK  status: ('A' for Active; 'I' for Inactive)
ROOT
HETATM    1  C1  UNL     1     -34.586  14.328  -6.532  1.00 20.00    -0.017 C 
HETATM    2  C2  UNL     1     -35.382  13.853  -5.358  1.00 20.00     0.159 C 
HETATM    3  C3  UNL     1     -34.394  13.658  -7.666  1.00 20.00     0.023 C 
HETATM    4  C4  UNL     1     -33.102  15.557  -4.971  1.00 20.00     0.010 C 
HETATM    5  C5  UNL     1     -33.945  15.041  -3.776  1.00 20.00     0.013 C 
HETATM    6  C6  UNL     1     -35.367  16.172  -5.324  1.00 20.00     0.022 C 
HETATM    7  C7  UNL     1     -34.134  15.705  -6.108  1.00 20.00     0.022 C 
HETATM    8  C8  UNL     1     -35.367  14.984  -4.353  1.00 20.00     0.061 C 
HETATM    9  O9  UNL     1     -35.893  12.757  -5.226  1.00 20.00    -0.292 OA
ENDROOT
TORSDOF 0
ENDMDL
MODEL 7
REMARK VINA RESULT:      -4.3     11.897     12.979
REMARK  0 active torsions:
REMARK  status: ('A' for Active; 'I' for Inactive)
ROOT
HETATM    1  C1  UNL     1     -35.651  15.008  -5.967  1.00 20.00    -0.017 C 
HETATM    2  C2  UNL     1     -35.445  13.829  -5.070  1.00 20.00     0.159 C 
HETATM    3  C3  UNL     1     -36.427  15.037  -7.049  1.00 20.00     0.023 C 
HETATM    4  C4  UNL     1     -33.332  15.732  -5.477  1.00 20.00     0.010 C 
HETATM    5  C5  UNL     1     -33.148  14.496  -4.558  1.00 20.00     0.013 C 
HETATM    6  C6  UNL     1     -35.045  15.751  -3.834  1.00 20.00     0.022 C 
HETATM    7  C7  UNL     1     -34.823  16.089  -5.314  1.00 20.00     0.022 C 
HETATM    8  C8  UNL     1     -34.545  14.305  -3.949  1.00 20.00     0.061 C 
HETATM    9  O9  UNL     1     -35.875  12.705  -5.241  1.00 20.00    -0.292 OA
ENDROOT
TORSDOF 0
ENDMDL
MODEL 8
REMARK VINA RESULT:      -4.2     12.528     13.602
REMARK  0 active torsions:
REMARK  status: ('A' for Active; 'I' for Inactive)
ROOT
HETATM    1  C1  UNL     1     -34.238  14.416  -5.610  1.00 20.00    -0.017 C 
HETATM    2  C2  UNL     1     -35.347  13.487  -5.989  1.00 20.00     0.159 C 
HETATM    3  C3  UNL     1     -33.668  14.501  -4.410  1.00 20.00     0.023 C 
HETATM    4  C4  UNL     1     -35.133  16.070  -7.226  1.00 20.00     0.010 C 
HETATM    5  C5  UNL     1     -36.273  15.085  -7.592  1.00 20.00     0.013 C 
HETATM    6  C6  UNL     1     -34.164  14.015  -7.913  1.00 20.00     0.022 C 
HETATM    7  C7  UNL     1     -33.943  15.145  -6.900  1.00 20.00     0.022 C 
HETATM    8  C8  UNL     1     -35.599  13.710  -7.465  1.00 20.00     0.061 C 
HETATM    9  O9  UNL     1     -35.952  12.740  -5.244  1.00 20.00    -0.292 OA
ENDROOT
TORSDOF 0
ENDMDL
MODEL 9
REMARK VINA RESULT:      -4.1      8.420      9.838
REMARK  0 active torsions:
REMARK  status: ('A' for Active; 'I' for Inactive)
ROOT
HETATM    1  C1  UNL     1     -42.709   5.387  -0.871  1.00 20.00    -0.017 C 
HETATM    2  C2  UNL     1     -41.254   5.576  -0.578  1.00 20.00     0.159 C 
HETATM    3  C3  UNL     1     -43.233   4.419  -1.621  1.00 20.00     0.023 C 
HETATM    4  C4  UNL     1     -43.007   7.845  -0.753  1.00 20.00     0.010 C 
HETATM    5  C5  UNL     1     -41.494   8.006  -0.458  1.00 20.00     0.013 C 
HETATM    6  C6  UNL     1     -42.465   6.536   1.151  1.00 20.00     0.022 C 
HETATM    7  C7  UNL     1     -43.366   6.500  -0.090  1.00 20.00     0.022 C 
HETATM    8  C8  UNL     1     -41.164   6.754   0.368  1.00 20.00     0.061 C 
HETATM    9  O9  UNL     1     -40.332   4.938  -1.050  1.00 20.00    -0.292 OA
ENDROOT
TORSDOF 0
ENDMDL
