MODEL 1
REMARK VINA RESULT:      -5.6      0.000      0.000
REMARK  0 active torsions:
REMARK  status: ('A' for Active; 'I' for Inactive)
ROOT
HETATM    1  C1  UNL     1     -34.077   6.441   5.546  1.00 20.00    -0.021 C 
HETATM    2  C2  UNL     1     -33.536   7.039   4.467  1.00 20.00    -0.021 C 
HETATM    3  C3  UNL     1     -34.035   4.274   4.366  1.00 20.00    -0.021 C 
HETATM    4  C4  UNL     1     -33.493   4.873   3.287  1.00 20.00    -0.021 C 
HETATM    5  C5  UNL     1     -35.452   5.981   3.760  1.00 20.00     0.024 C 
HETATM    6  C6  UNL     1     -34.936   5.297   5.035  1.00 20.00     0.031 C 
HETATM    7  C7  UNL     1     -34.038   6.290   3.245  1.00 20.00     0.031 C 
ENDROOT
TORSDOF 0
ENDMDL
MODEL 2
REMARK VINA RESULT:      -5.6      0.125      2.435
REMARK  0 active torsions:
REMARK  status: ('A' for Active; 'I' for Inactive)
ROOT
HETATM    1  C1  UNL     1     -33.450   5.003   3.217  1.00 20.00    -0.021 C 
HETATM    2  C2  UNL     1     -33.986   4.288   4.225  1.00 20.00    -0.021 C 
HETATM    3  C3  UNL     1     -33.593   7.047   4.592  1.00 20.00    -0.021 C 
HETATM    4  C4  UNL     1     -34.129   6.331   5.600  1.00 20.00    -0.021 C 
HETATM    5  C5  UNL     1     -35.456   5.992   3.754  1.00 20.00     0.024 C 
HETATM    6  C6  UNL     1     -34.047   6.398   3.297  1.00 20.00     0.031 C 
HETATM    7  C7  UNL     1     -34.936   5.210   4.969  1.00 20.00     0.031 C 
ENDROOT
TORSDOF 0
ENDMDL
MODEL 3
REMARK VINA RESULT:      -5.5      0.660      1.022
REMARK  0 active torsions:
REMARK  status: ('A' for Active; 'I' for Inactive)
ROOT
HETATM    1  C1  UNL     1     -34.336   5.344   5.694  1.00 20.00    -0.021 C 
HETATM    2  C2  UNL     1     -34.034   6.638   5.469  1.00 20.00    -0.021 C 
HETATM    3  C3  UNL     1     -33.515   4.762   3.441  1.00 20.00    -0.021 C 
HETATM    4  C4  UNL     1     -33.213   6.056   3.217  1.00 20.00    -0.021 C 
HETATM    5  C5  UNL     1     -35.441   5.972   3.777  1.00 20.00     0.024 C 
HETATM    6  C6  UNL     1     -34.727   4.742   4.356  1.00 20.00     0.031 C 
HETATM    7  C7  UNL     1     -34.226   6.888   3.984  1.00 20.00     0.031 C 
ENDROOT
TORSDOF 0
ENDMDL
MODEL 4
REMARK VINA RESULT:      -4.3      0.576      2.076
REMARK  0 active torsions:
REMARK  status: ('A' for Active; 'I' for Inactive)
ROOT
HETATM    1  C1  UNL     1     -35.592   5.841   3.826  1.00 20.00    -0.021 C 
HETATM    2  C2  UNL     1     -34.791   6.366   2.878  1.00 20.00    -0.021 C 
HETATM    3  C3  UNL     1     -34.060   6.668   5.575  1.00 20.00    -0.021 C 
HETATM    4  C4  UNL     1     -33.260   7.192   4.626  1.00 20.00    -0.021 C 
HETATM    5  C5  UNL     1     -33.494   4.955   4.149  1.00 20.00     0.024 C 
HETATM    6  C6  UNL     1     -34.697   5.424   4.980  1.00 20.00     0.031 C 
HETATM    7  C7  UNL     1     -33.370   6.294   3.406  1.00 20.00     0.031 C 
ENDROOT
TORSDOF 0
ENDMDL
MODEL 5
REMARK VINA RESULT:      -4.3      0.584      2.131
REMARK  0 active torsions:
REMARK  status: ('A' for Active; 'I' for Inactive)
ROOT
HETATM    1  C1  UNL     1     -33.259   7.188   4.664  1.00 20.00    -0.021 C 
HETATM    2  C2  UNL     1     -34.077   6.666   5.599  1.00 20.00    -0.021 C 
HETATM    3  C3  UNL     1     -34.769   6.372   2.890  1.00 20.00    -0.021 C 
HETATM    4  C4  UNL     1     -35.586   5.850   3.826  1.00 20.00    -0.021 C 
HETATM    5  C5  UNL     1     -33.499   4.952   4.179  1.00 20.00     0.024 C 
HETATM    6  C6  UNL     1     -33.355   6.292   3.442  1.00 20.00     0.031 C 
HETATM    7  C7  UNL     1     -34.711   5.426   4.993  1.00 20.00     0.031 C 
ENDROOT
TORSDOF 0
ENDMDL
MODEL 6
REMARK VINA RESULT:      -4.1      0.556      2.052
REMARK  0 active torsions:
REMARK  status: ('A' for Active; 'I' for Inactive)
ROOT
HETATM    1  C1  UNL     1     -34.140   4.200   4.352  1.00 20.00    -0.021 C 
HETATM    2  C2  UNL     1     -33.302   4.554   3.358  1.00 20.00    -0.021 C 
HETATM    3  C3  UNL     1     -35.657   6.043   3.727  1.00 20.00    -0.021 C 
HETATM    4  C4  UNL     1     -34.819   6.395   2.732  1.00 20.00    -0.021 C 
HETATM    5  C5  UNL     1     -33.597   6.411   4.680  1.00 20.00     0.024 C 
HETATM    6  C6  UNL     1     -34.803   5.474   4.846  1.00 20.00     0.031 C 
HETATM    7  C7  UNL     1     -33.412   6.059   3.197  1.00 20.00     0.031 C 
ENDROOT
TORSDOF 0
ENDMDL
MODEL 7
REMARK VINA RESULT:      -4.0      0.557      2.164
REMARK  0 active torsions:
REMARK  status: ('A' for Active; 'I' for Inactive)
ROOT
HETATM    1  C1  UNL     1     -34.817   6.404   2.712  1.00 20.00    -0.021 C 
HETATM    2  C2  UNL     1     -35.657   6.064   3.709  1.00 20.00    -0.021 C 
HETATM    3  C3  UNL     1     -33.307   4.562   3.356  1.00 20.00    -0.021 C 
HETATM    4  C4  UNL     1     -34.148   4.222   4.353  1.00 20.00    -0.021 C 
HETATM    5  C5  UNL     1     -33.596   6.433   4.661  1.00 20.00     0.024 C 
HETATM    6  C6  UNL     1     -33.412   6.067   3.181  1.00 20.00     0.031 C 
HETATM    7  C7  UNL     1     -34.806   5.503   4.835  1.00 20.00     0.031 C 
ENDROOT
TORSDOF 0
ENDMDL
MODEL 8
REMARK VINA RESULT:      -3.8      7.897      9.301
REMARK  0 active torsions:
REMARK  status: ('A' for Active; 'I' for Inactive)
ROOT
HETATM    1  C1  UNL     1     -41.348   7.638  -0.411  1.00 20.00    -0.021 C 
HETATM    2  C2  UNL     1     -40.793   6.553   0.164  1.00 20.00    -0.021 C 
HETATM    3  C3  UNL     1     -43.417   7.263   0.880  1.00 20.00    -0.021 C 
HETATM    4  C4  UNL     1     -42.862   6.178   1.454  1.00 20.00    -0.021 C 
HETATM    5  C5  UNL     1     -42.754   5.865  -0.821  1.00 20.00     0.024 C 
HETATM    6  C6  UNL     1     -42.839   7.369  -0.520  1.00 20.00     0.031 C 
HETATM    7  C7  UNL     1     -41.917   5.569   0.433  1.00 20.00     0.031 C 
ENDROOT
TORSDOF 0
ENDMDL
MODEL 9
REMARK VINA RESULT:      -3.8      7.907      9.210
REMARK  0 active torsions:
REMARK  status: ('A' for Active; 'I' for Inactive)
ROOT
HETATM    1  C1  UNL     1     -42.856   6.171   1.457  1.00 20.00    -0.021 C 
HETATM    2  C2  UNL     1     -43.417   7.257   0.890  1.00 20.00    -0.021 C 
HETATM    3  C3  UNL     1     -40.798   6.552   0.150  1.00 20.00    -0.021 C 
HETATM    4  C4  UNL     1     -41.360   7.638  -0.417  1.00 20.00    -0.021 C 
HETATM    5  C5  UNL     1     -42.766   5.864  -0.820  1.00 20.00     0.024 C 
HETATM    6  C6  UNL     1     -41.920   5.566   0.426  1.00 20.00     0.031 C 
HETATM    7  C7  UNL     1     -42.851   7.367  -0.515  1.00 20.00     0.031 C 
ENDROOT
TORSDOF 0
ENDMDL
