MODEL 1
REMARK VINA RESULT:      -5.2      0.000      0.000
REMARK  2 active torsions:
REMARK  status: ('A' for Active; 'I' for Inactive)
REMARK    1  A    between atoms: C2_2  and  C4_4 
REMARK    2  A    between atoms: C5_5  and  C9_9 
ROOT
HETATM    1  C1  UNL     1     -33.076   7.466   4.938  1.00 20.00    -0.016 C 
HETATM    2  C2  UNL     1     -33.883   6.448   4.605  1.00 20.00    -0.024 C 
HETATM    3  C6  UNL     1     -32.476   8.391   3.917  1.00 20.00     0.036 C 
HETATM    4  C7  UNL     1     -34.249   6.101   3.195  1.00 20.00     0.042 C 
HETATM    5  C8  UNL     1     -33.347   6.787   2.165  1.00 20.00     0.014 C 
HETATM    6  C9  UNL     1     -33.119   8.262   2.524  1.00 20.00     0.017 C 
ENDROOT
BRANCH   6   7
HETATM    7  C5  UNL     1     -32.279   8.949   1.492  1.00 20.00    -0.089 C 
HETATM    8  C3  UNL     1     -31.231   8.344   0.913  1.00 20.00     0.014 C 
HETATM    9  C10 UNL     1     -32.676  10.354   1.143  1.00 20.00     0.043 C 
ENDBRANCH   6   7
BRANCH   2  10
HETATM   10  C4  UNL     1     -34.416   5.619   5.690  1.00 20.00     0.265 C 
HETATM   11  O11 UNL     1     -34.648   4.425   5.552  1.00 20.00    -0.302 OA
ENDBRANCH   2  10
TORSDOF 2
ENDMDL
MODEL 2
REMARK VINA RESULT:      -5.1      2.487      5.032
REMARK  2 active torsions:
REMARK  status: ('A' for Active; 'I' for Inactive)
REMARK    1  A    between atoms: C2_2  and  C4_4 
REMARK    2  A    between atoms: C5_5  and  C9_9 
ROOT
HETATM    1  C1  UNL     1     -32.889   6.890   1.716  1.00 20.00    -0.016 C 
HETATM    2  C2  UNL     1     -32.340   8.048   2.114  1.00 20.00    -0.024 C 
HETATM    3  C6  UNL     1     -33.639   5.985   2.652  1.00 20.00     0.036 C 
HETATM    4  C7  UNL     1     -32.383   8.549   3.525  1.00 20.00     0.042 C 
HETATM    5  C8  UNL     1     -32.798   7.464   4.524  1.00 20.00     0.014 C 
HETATM    6  C9  UNL     1     -33.988   6.650   3.996  1.00 20.00     0.017 C 
ENDROOT
BRANCH   6   7
HETATM    7  C5  UNL     1     -34.428   5.623   4.992  1.00 20.00    -0.089 C 
HETATM    8  C3  UNL     1     -34.787   5.955   6.241  1.00 20.00     0.014 C 
HETATM    9  C10 UNL     1     -34.446   4.201   4.513  1.00 20.00     0.043 C 
ENDBRANCH   6   7
BRANCH   2  10
HETATM   10  C4  UNL     1     -31.640   8.851   1.108  1.00 20.00     0.265 C 
HETATM   11  O11 UNL     1     -32.077   9.918   0.699  1.00 20.00    -0.302 OA
ENDBRANCH   2  10
TORSDOF 2
ENDMDL
MODEL 3
REMARK VINA RESULT:      -5.1      0.585      1.598
REMARK  2 active torsions:
REMARK  status: ('A' for Active; 'I' for Inactive)
REMARK    1  A    between atoms: C2_2  and  C4_4 
REMARK    2  A    between atoms: C5_5  and  C9_9 
ROOT
HETATM    1  C1  UNL     1     -33.936   5.781   2.922  1.00 20.00    -0.016 C 
HETATM    2  C2  UNL     1     -33.975   6.096   4.226  1.00 20.00    -0.024 C 
HETATM    3  C6  UNL     1     -33.301   6.671   1.892  1.00 20.00     0.036 C 
HETATM    4  C7  UNL     1     -33.427   7.369   4.792  1.00 20.00     0.042 C 
HETATM    5  C8  UNL     1     -33.139   8.419   3.715  1.00 20.00     0.014 C 
HETATM    6  C9  UNL     1     -32.438   7.790   2.502  1.00 20.00     0.017 C 
ENDROOT
BRANCH   6   7
HETATM    7  C5  UNL     1     -32.109   8.823   1.469  1.00 20.00    -0.089 C 
HETATM    8  C3  UNL     1     -31.197   8.602   0.510  1.00 20.00     0.014 C 
HETATM    9  C10 UNL     1     -32.860  10.119   1.566  1.00 20.00     0.043 C 
ENDBRANCH   6   7
BRANCH   2  10
HETATM   10  C4  UNL     1     -34.614   5.143   5.137  1.00 20.00     0.265 C 
HETATM   11  O11 UNL     1     -34.705   3.949   4.882  1.00 20.00    -0.302 OA
ENDBRANCH   2  10
TORSDOF 2
ENDMDL
MODEL 4
REMARK VINA RESULT:      -4.9     10.946     11.644
REMARK  2 active torsions:
REMARK  status: ('A' for Active; 'I' for Inactive)
REMARK    1  A    between atoms: C2_2  and  C4_4 
REMARK    2  A    between atoms: C5_5  and  C9_9 
ROOT
HETATM    1  C1  UNL     1     -33.543  15.235  -5.736  1.00 20.00    -0.016 C 
HETATM    2  C2  UNL     1     -34.531  14.328  -5.779  1.00 20.00    -0.024 C 
HETATM    3  C6  UNL     1     -33.340  16.158  -4.569  1.00 20.00     0.036 C 
HETATM    4  C7  UNL     1     -35.551  14.156  -4.696  1.00 20.00     0.042 C 
HETATM    5  C8  UNL     1     -35.573  15.331  -3.713  1.00 20.00     0.014 C 
HETATM    6  C9  UNL     1     -34.149  15.754  -3.323  1.00 20.00     0.017 C 
ENDROOT
BRANCH   6   7
HETATM    7  C5  UNL     1     -34.168  16.869  -2.324  1.00 20.00    -0.089 C 
HETATM    8  C3  UNL     1     -33.196  17.792  -2.273  1.00 20.00     0.014 C 
HETATM    9  C10 UNL     1     -35.337  16.894  -1.383  1.00 20.00     0.043 C 
ENDBRANCH   6   7
BRANCH   2  10
HETATM   10  C4  UNL     1     -34.622  13.476  -6.967  1.00 20.00     0.265 C 
HETATM   11  O11 UNL     1     -35.055  12.332  -6.925  1.00 20.00    -0.302 OA
ENDBRANCH   2  10
TORSDOF 2
ENDMDL
MODEL 5
REMARK VINA RESULT:      -4.9     10.834     11.349
REMARK  2 active torsions:
REMARK  status: ('A' for Active; 'I' for Inactive)
REMARK    1  A    between atoms: C2_2  and  C4_4 
REMARK    2  A    between atoms: C5_5  and  C9_9 
ROOT
HETATM    1  C1  UNL     1     -34.208  14.929  -4.270  1.00 20.00    -0.016 C 
HETATM    2  C2  UNL     1     -35.531  14.823  -4.461  1.00 20.00    -0.024 C 
HETATM    3  C6  UNL     1     -33.607  15.856  -3.252  1.00 20.00     0.036 C 
HETATM    4  C7  UNL     1     -36.548  15.630  -3.715  1.00 20.00     0.042 C 
HETATM    5  C8  UNL     1     -35.930  16.822  -2.977  1.00 20.00     0.014 C 
HETATM    6  C9  UNL     1     -34.638  16.415  -2.254  1.00 20.00     0.017 C 
ENDROOT
BRANCH   6   7
HETATM    7  C5  UNL     1     -34.058  17.565  -1.490  1.00 20.00    -0.089 C 
HETATM    8  C3  UNL     1     -33.009  18.264  -1.947  1.00 20.00     0.014 C 
HETATM    9  C10 UNL     1     -34.718  17.890  -0.182  1.00 20.00     0.043 C 
ENDBRANCH   6   7
BRANCH   2  10
HETATM   10  C4  UNL     1     -35.999  13.877  -5.478  1.00 20.00     0.265 C 
HETATM   11  O11 UNL     1     -35.897  12.664  -5.344  1.00 20.00    -0.302 OA
ENDBRANCH   2  10
TORSDOF 2
ENDMDL
MODEL 6
REMARK VINA RESULT:      -4.8     10.898     11.546
REMARK  2 active torsions:
REMARK  status: ('A' for Active; 'I' for Inactive)
REMARK    1  A    between atoms: C2_2  and  C4_4 
REMARK    2  A    between atoms: C5_5  and  C9_9 
ROOT
HETATM    1  C1  UNL     1     -35.970  14.852  -4.714  1.00 20.00    -0.016 C 
HETATM    2  C2  UNL     1     -34.923  14.475  -5.463  1.00 20.00    -0.024 C 
HETATM    3  C6  UNL     1     -35.829  15.751  -3.519  1.00 20.00     0.036 C 
HETATM    4  C7  UNL     1     -33.508  14.876  -5.180  1.00 20.00     0.042 C 
HETATM    5  C8  UNL     1     -33.329  15.455  -3.773  1.00 20.00     0.014 C 
HETATM    6  C9  UNL     1     -34.456  16.441  -3.433  1.00 20.00     0.017 C 
ENDROOT
BRANCH   6   7
HETATM    7  C5  UNL     1     -34.257  17.047  -2.078  1.00 20.00    -0.089 C 
HETATM    8  C3  UNL     1     -33.111  17.655  -1.735  1.00 20.00     0.014 C 
HETATM    9  C10 UNL     1     -35.412  16.936  -1.126  1.00 20.00     0.043 C 
ENDBRANCH   6   7
BRANCH   2  10
HETATM   10  C4  UNL     1     -35.186  13.603  -6.611  1.00 20.00     0.265 C 
HETATM   11  O11 UNL     1     -35.180  12.382  -6.525  1.00 20.00    -0.302 OA
ENDBRANCH   2  10
TORSDOF 2
ENDMDL
MODEL 7
REMARK VINA RESULT:      -4.6     10.892     11.470
REMARK  2 active torsions:
REMARK  status: ('A' for Active; 'I' for Inactive)
REMARK    1  A    between atoms: C2_2  and  C4_4 
REMARK    2  A    between atoms: C5_5  and  C9_9 
ROOT
HETATM    1  C1  UNL     1     -35.177  17.658   0.048  1.00 20.00    -0.016 C 
HETATM    2  C2  UNL     1     -34.101  18.327   0.491  1.00 20.00    -0.024 C 
HETATM    3  C6  UNL     1     -35.219  16.991  -1.298  1.00 20.00     0.036 C 
HETATM    4  C7  UNL     1     -32.848  18.511  -0.308  1.00 20.00     0.042 C 
HETATM    5  C8  UNL     1     -33.037  18.173  -1.790  1.00 20.00     0.014 C 
HETATM    6  C9  UNL     1     -33.837  16.874  -1.964  1.00 20.00     0.017 C 
ENDROOT
BRANCH   6   7
HETATM    7  C5  UNL     1     -33.980  16.514  -3.411  1.00 20.00    -0.089 C 
HETATM    8  C3  UNL     1     -34.425  15.311  -3.802  1.00 20.00     0.014 C 
HETATM    9  C10 UNL     1     -33.597  17.577  -4.398  1.00 20.00     0.043 C 
ENDBRANCH   6   7
BRANCH   2  10
HETATM   10  C4  UNL     1     -34.175  18.927   1.825  1.00 20.00     0.265 C 
HETATM   11  O11 UNL     1     -34.253  18.255   2.846  1.00 20.00    -0.302 OA
ENDBRANCH   2  10
TORSDOF 2
ENDMDL
MODEL 8
REMARK VINA RESULT:      -4.5     10.843     11.917
REMARK  2 active torsions:
REMARK  status: ('A' for Active; 'I' for Inactive)
REMARK    1  A    between atoms: C2_2  and  C4_4 
REMARK    2  A    between atoms: C5_5  and  C9_9 
ROOT
HETATM    1  C1  UNL     1     -35.011  14.127  -4.786  1.00 20.00    -0.016 C 
HETATM    2  C2  UNL     1     -34.436  14.422  -5.961  1.00 20.00    -0.024 C 
HETATM    3  C6  UNL     1     -34.958  15.051  -3.602  1.00 20.00     0.036 C 
HETATM    4  C7  UNL     1     -33.656  15.674  -6.216  1.00 20.00     0.042 C 
HETATM    5  C8  UNL     1     -33.283  16.411  -4.926  1.00 20.00     0.014 C 
HETATM    6  C9  UNL     1     -34.474  16.469  -3.957  1.00 20.00     0.017 C 
ENDROOT
BRANCH   6   7
HETATM    7  C5  UNL     1     -34.128  17.232  -2.716  1.00 20.00    -0.089 C 
HETATM    8  C3  UNL     1     -34.652  16.918  -1.522  1.00 20.00     0.014 C 
HETATM    9  C10 UNL     1     -33.163  18.369  -2.886  1.00 20.00     0.043 C 
ENDBRANCH   6   7
BRANCH   2  10
HETATM   10  C4  UNL     1     -34.564  13.445  -7.046  1.00 20.00     0.265 C 
HETATM   11  O11 UNL     1     -35.051  12.334  -6.877  1.00 20.00    -0.302 OA
ENDBRANCH   2  10
TORSDOF 2
ENDMDL
MODEL 9
REMARK VINA RESULT:      -4.4     10.842     11.599
REMARK  2 active torsions:
REMARK  status: ('A' for Active; 'I' for Inactive)
REMARK    1  A    between atoms: C2_2  and  C4_4 
REMARK    2  A    between atoms: C5_5  and  C9_9 
ROOT
HETATM    1  C1  UNL     1     -32.714  18.033  -1.127  1.00 20.00    -0.016 C 
HETATM    2  C2  UNL     1     -33.453  18.398  -0.069  1.00 20.00    -0.024 C 
HETATM    3  C6  UNL     1     -33.282  17.262  -2.285  1.00 20.00     0.036 C 
HETATM    4  C7  UNL     1     -34.902  18.056   0.094  1.00 20.00     0.042 C 
HETATM    5  C8  UNL     1     -35.364  16.965  -0.878  1.00 20.00     0.014 C 
HETATM    6  C9  UNL     1     -34.821  17.217  -2.291  1.00 20.00     0.017 C 
ENDROOT
BRANCH   6   7
HETATM    7  C5  UNL     1     -35.312  16.181  -3.254  1.00 20.00    -0.089 C 
HETATM    8  C3  UNL     1     -36.588  16.144  -3.667  1.00 20.00     0.014 C 
HETATM    9  C10 UNL     1     -34.295  15.186  -3.732  1.00 20.00     0.043 C 
ENDBRANCH   6   7
BRANCH   2  10
HETATM   10  C4  UNL     1     -32.790  19.156   0.996  1.00 20.00     0.265 C 
HETATM   11  O11 UNL     1     -32.222  18.612   1.934  1.00 20.00    -0.302 OA
ENDBRANCH   2  10
TORSDOF 2
ENDMDL
