MODEL 1
REMARK VINA RESULT:      -4.0      0.000      0.000
REMARK  2 active torsions:
REMARK  status: ('A' for Active; 'I' for Inactive)
REMARK    1  A    between atoms: C1_1  and  C2_2 
REMARK    2  A    between atoms: C1_1  and  C3_3 
ROOT
HETATM    1  C1  UNL     1     -34.369   5.006   4.424  1.00 20.00     0.168 C 
HETATM    2  O4  UNL     1     -34.435   3.785   4.288  1.00 20.00    -0.294 OA
ENDROOT
BRANCH   1   3
HETATM    3  C2  UNL     1     -34.063   5.896   3.246  1.00 20.00     0.301 C 
HETATM    4  F5  UNL     1     -32.947   5.479   2.591  1.00 20.00    -0.248 F 
ENDBRANCH   1   3
BRANCH   1   5
HETATM    5  C3  UNL     1     -34.583   5.714   5.742  1.00 20.00     0.195 C 
HETATM    6 CL6  UNL     1     -33.708   7.252   5.776  1.00 20.00    -0.122 Cl
ENDBRANCH   1   5
TORSDOF 2
ENDMDL
MODEL 2
REMARK VINA RESULT:      -3.9      2.927      3.141
REMARK  2 active torsions:
REMARK  status: ('A' for Active; 'I' for Inactive)
REMARK    1  A    between atoms: C1_1  and  C2_2 
REMARK    2  A    between atoms: C1_1  and  C3_3 
ROOT
HETATM    1  C1  UNL     1     -33.872   6.810   4.147  1.00 20.00     0.168 C 
HETATM    2  O4  UNL     1     -33.229   7.236   3.187  1.00 20.00    -0.294 OA
ENDROOT
BRANCH   1   3
HETATM    3  C2  UNL     1     -33.594   7.312   5.541  1.00 20.00     0.301 C 
HETATM    4  F5  UNL     1     -34.457   6.768   6.440  1.00 20.00    -0.248 F 
ENDBRANCH   1   3
BRANCH   1   5
HETATM    5  C3  UNL     1     -34.968   5.777   4.027  1.00 20.00     0.195 C 
HETATM    6 CL6  UNL     1     -34.362   4.169   4.452  1.00 20.00    -0.122 Cl
ENDBRANCH   1   5
TORSDOF 2
ENDMDL
MODEL 3
REMARK VINA RESULT:      -3.8      2.009      2.484
REMARK  2 active torsions:
REMARK  status: ('A' for Active; 'I' for Inactive)
REMARK    1  A    between atoms: C1_1  and  C2_2 
REMARK    2  A    between atoms: C1_1  and  C3_3 
ROOT
HETATM    1  C1  UNL     1     -34.479   5.040   4.449  1.00 20.00     0.168 C 
HETATM    2  O4  UNL     1     -34.409   3.820   4.300  1.00 20.00    -0.294 OA
ENDROOT
BRANCH   1   3
HETATM    3  C2  UNL     1     -34.556   5.642   5.829  1.00 20.00     0.301 C 
HETATM    4  F5  UNL     1     -34.271   6.971   5.803  1.00 20.00    -0.248 F 
ENDBRANCH   1   3
BRANCH   1   5
HETATM    5  C3  UNL     1     -34.491   6.024   3.303  1.00 20.00     0.195 C 
HETATM    6 CL6  UNL     1     -32.844   6.513   2.879  1.00 20.00    -0.122 Cl
ENDBRANCH   1   5
TORSDOF 2
ENDMDL
MODEL 4
REMARK VINA RESULT:      -3.8      1.753      2.057
REMARK  2 active torsions:
REMARK  status: ('A' for Active; 'I' for Inactive)
REMARK    1  A    between atoms: C1_1  and  C2_2 
REMARK    2  A    between atoms: C1_1  and  C3_3 
ROOT
HETATM    1  C1  UNL     1     -33.858   5.717   3.646  1.00 20.00     0.168 C 
HETATM    2  O4  UNL     1     -33.341   5.331   2.598  1.00 20.00    -0.294 OA
ENDROOT
BRANCH   1   3
HETATM    3  C2  UNL     1     -34.657   4.770   4.504  1.00 20.00     0.301 C 
HETATM    4  F5  UNL     1     -33.979   3.612   4.723  1.00 20.00    -0.248 F 
ENDBRANCH   1   3
BRANCH   1   5
HETATM    5  C3  UNL     1     -33.746   7.134   4.162  1.00 20.00     0.195 C 
HETATM    6 CL6  UNL     1     -33.867   7.168   5.928  1.00 20.00    -0.122 Cl
ENDBRANCH   1   5
TORSDOF 2
ENDMDL
MODEL 5
REMARK VINA RESULT:      -3.7      2.366      2.452
REMARK  2 active torsions:
REMARK  status: ('A' for Active; 'I' for Inactive)
REMARK    1  A    between atoms: C1_1  and  C2_2 
REMARK    2  A    between atoms: C1_1  and  C3_3 
ROOT
HETATM    1  C1  UNL     1     -33.960   6.801   4.572  1.00 20.00     0.168 C 
HETATM    2  O4  UNL     1     -33.876   7.249   5.716  1.00 20.00    -0.294 OA
ENDROOT
BRANCH   1   3
HETATM    3  C2  UNL     1     -33.032   7.285   3.487  1.00 20.00     0.301 C 
HETATM    4  F5  UNL     1     -32.573   6.250   2.734  1.00 20.00    -0.248 F 
ENDBRANCH   1   3
BRANCH   1   5
HETATM    5  C3  UNL     1     -34.967   5.755   4.155  1.00 20.00     0.195 C 
HETATM    6 CL6  UNL     1     -34.355   4.128   4.490  1.00 20.00    -0.122 Cl
ENDBRANCH   1   5
TORSDOF 2
ENDMDL
MODEL 6
REMARK VINA RESULT:      -3.7      2.825      3.122
REMARK  2 active torsions:
REMARK  status: ('A' for Active; 'I' for Inactive)
REMARK    1  A    between atoms: C1_1  and  C2_2 
REMARK    2  A    between atoms: C1_1  and  C3_3 
ROOT
HETATM    1  C1  UNL     1     -33.959   6.769   5.046  1.00 20.00     0.168 C 
HETATM    2  O4  UNL     1     -33.782   7.427   6.071  1.00 20.00    -0.294 OA
ENDROOT
BRANCH   1   3
HETATM    3  C2  UNL     1     -34.765   5.495   5.080  1.00 20.00     0.301 C 
HETATM    4  F5  UNL     1     -34.276   4.628   6.007  1.00 20.00    -0.248 F 
ENDBRANCH   1   3
BRANCH   1   5
HETATM    5  C3  UNL     1     -33.406   7.159   3.695  1.00 20.00     0.195 C 
HETATM    6 CL6  UNL     1     -33.076   5.722   2.715  1.00 20.00    -0.122 Cl
ENDBRANCH   1   5
TORSDOF 2
ENDMDL
MODEL 7
REMARK VINA RESULT:      -3.7      2.005      2.181
REMARK  2 active torsions:
REMARK  status: ('A' for Active; 'I' for Inactive)
REMARK    1  A    between atoms: C1_1  and  C2_2 
REMARK    2  A    between atoms: C1_1  and  C3_3 
ROOT
HETATM    1  C1  UNL     1     -33.603   5.856   3.274  1.00 20.00     0.168 C 
HETATM    2  O4  UNL     1     -33.086   4.921   2.662  1.00 20.00    -0.294 OA
ENDROOT
BRANCH   1   3
HETATM    3  C2  UNL     1     -32.942   7.210   3.311  1.00 20.00     0.301 C 
HETATM    4  F5  UNL     1     -32.691   7.602   4.589  1.00 20.00    -0.248 F 
ENDBRANCH   1   3
BRANCH   1   5
HETATM    5  C3  UNL     1     -34.910   5.744   4.025  1.00 20.00     0.195 C 
HETATM    6 CL6  UNL     1     -34.644   5.094   5.650  1.00 20.00    -0.122 Cl
ENDBRANCH   1   5
TORSDOF 2
ENDMDL
MODEL 8
REMARK VINA RESULT:      -3.7      2.593      2.991
REMARK  2 active torsions:
REMARK  status: ('A' for Active; 'I' for Inactive)
REMARK    1  A    between atoms: C1_1  and  C2_2 
REMARK    2  A    between atoms: C1_1  and  C3_3 
ROOT
HETATM    1  C1  UNL     1     -34.045   6.565   4.064  1.00 20.00     0.168 C 
HETATM    2  O4  UNL     1     -35.071   5.887   4.001  1.00 20.00    -0.294 OA
ENDROOT
BRANCH   1   3
HETATM    3  C2  UNL     1     -33.651   7.243   5.352  1.00 20.00     0.301 C 
HETATM    4  F5  UNL     1     -34.388   6.781   6.397  1.00 20.00    -0.248 F 
ENDBRANCH   1   3
BRANCH   1   5
HETATM    5  C3  UNL     1     -33.108   6.777   2.898  1.00 20.00     0.195 C 
HETATM    6 CL6  UNL     1     -31.860   7.964   3.305  1.00 20.00    -0.122 Cl
ENDBRANCH   1   5
TORSDOF 2
ENDMDL
MODEL 9
REMARK VINA RESULT:      -3.7      2.248      2.322
REMARK  2 active torsions:
REMARK  status: ('A' for Active; 'I' for Inactive)
REMARK    1  A    between atoms: C1_1  and  C2_2 
REMARK    2  A    between atoms: C1_1  and  C3_3 
ROOT
HETATM    1  C1  UNL     1     -33.329   6.958   3.858  1.00 20.00     0.168 C 
HETATM    2  O4  UNL     1     -32.480   7.754   3.456  1.00 20.00    -0.294 OA
ENDROOT
BRANCH   1   3
HETATM    3  C2  UNL     1     -33.862   5.879   2.950  1.00 20.00     0.301 C 
HETATM    4  F5  UNL     1     -32.890   4.986   2.623  1.00 20.00    -0.248 F 
ENDBRANCH   1   3
BRANCH   1   5
HETATM    5  C3  UNL     1     -33.903   6.981   5.256  1.00 20.00     0.195 C 
HETATM    6 CL6  UNL     1     -34.587   5.404   5.678  1.00 20.00    -0.122 Cl
ENDBRANCH   1   5
TORSDOF 2
ENDMDL
