MODEL 1
REMARK VINA RESULT:      -5.6      0.000      0.000
REMARK  1 active torsions:
REMARK  status: ('A' for Active; 'I' for Inactive)
REMARK    1  A    between atoms: C3_3  and  C8_8 
ROOT
HETATM    1  C1  UNL     1     -34.006   5.361   5.521  1.00 20.00    -0.026 C 
HETATM    2  C2  UNL     1     -34.087   6.699   5.464  1.00 20.00    -0.025 C 
HETATM    3  C4  UNL     1     -35.492   5.877   3.826  1.00 20.00     0.017 C 
HETATM    4  C5  UNL     1     -33.313   5.186   3.157  1.00 20.00     0.021 C 
HETATM    5  C6  UNL     1     -34.425   4.832   4.170  1.00 20.00     0.009 C 
HETATM    6  C7  UNL     1     -34.548   7.062   4.069  1.00 20.00     0.019 C 
HETATM    7  C8  UNL     1     -33.425   6.735   3.055  1.00 20.00     0.055 C 
ENDROOT
BRANCH   7   8
HETATM    8  C3  UNL     1     -32.136   7.438   3.348  1.00 20.00     0.236 C 
HETATM    9  O9  UNL     1     -31.718   8.386   2.693  1.00 20.00    -0.306 OA
ENDBRANCH   7   8
TORSDOF 1
ENDMDL
MODEL 2
REMARK VINA RESULT:      -4.8      1.784      2.441
REMARK  1 active torsions:
REMARK  status: ('A' for Active; 'I' for Inactive)
REMARK    1  A    between atoms: C3_3  and  C8_8 
ROOT
HETATM    1  C1  UNL     1     -33.351   4.493   3.419  1.00 20.00    -0.026 C 
HETATM    2  C2  UNL     1     -34.356   4.798   4.253  1.00 20.00    -0.025 C 
HETATM    3  C4  UNL     1     -34.698   6.020   2.323  1.00 20.00     0.017 C 
HETATM    4  C5  UNL     1     -32.651   6.852   3.212  1.00 20.00     0.021 C 
HETATM    5  C6  UNL     1     -33.219   5.637   2.444  1.00 20.00     0.009 C 
HETATM    6  C7  UNL     1     -34.886   6.155   3.839  1.00 20.00     0.019 C 
HETATM    7  C8  UNL     1     -33.827   7.238   4.156  1.00 20.00     0.055 C 
ENDROOT
BRANCH   7   8
HETATM    8  C3  UNL     1     -33.431   7.281   5.599  1.00 20.00     0.236 C 
HETATM    9  O9  UNL     1     -34.238   7.265   6.522  1.00 20.00    -0.306 OA
ENDBRANCH   7   8
TORSDOF 1
ENDMDL
MODEL 3
REMARK VINA RESULT:      -4.6      0.921      2.000
REMARK  1 active torsions:
REMARK  status: ('A' for Active; 'I' for Inactive)
REMARK    1  A    between atoms: C3_3  and  C8_8 
ROOT
HETATM    1  C1  UNL     1     -35.511   6.141   3.672  1.00 20.00    -0.026 C 
HETATM    2  C2  UNL     1     -34.831   5.951   2.531  1.00 20.00    -0.025 C 
HETATM    3  C4  UNL     1     -33.694   4.805   4.182  1.00 20.00     0.017 C 
HETATM    4  C5  UNL     1     -33.544   7.093   4.823  1.00 20.00     0.021 C 
HETATM    5  C6  UNL     1     -34.544   5.915   4.809  1.00 20.00     0.009 C 
HETATM    6  C7  UNL     1     -33.405   5.612   2.910  1.00 20.00     0.019 C 
HETATM    7  C8  UNL     1     -32.724   6.860   3.521  1.00 20.00     0.055 C 
ENDROOT
BRANCH   7   8
HETATM    8  C3  UNL     1     -32.723   8.045   2.607  1.00 20.00     0.236 C 
HETATM    9  O9  UNL     1     -31.791   8.323   1.860  1.00 20.00    -0.306 OA
ENDBRANCH   7   8
TORSDOF 1
ENDMDL
MODEL 4
REMARK VINA RESULT:      -4.4      2.131      3.295
REMARK  1 active torsions:
REMARK  status: ('A' for Active; 'I' for Inactive)
REMARK    1  A    between atoms: C3_3  and  C8_8 
ROOT
HETATM    1  C1  UNL     1     -32.423   6.681   3.277  1.00 20.00    -0.026 C 
HETATM    2  C2  UNL     1     -33.301   5.796   2.782  1.00 20.00    -0.025 C 
HETATM    3  C4  UNL     1     -34.503   7.689   3.335  1.00 20.00     0.017 C 
HETATM    4  C5  UNL     1     -33.652   6.885   5.410  1.00 20.00     0.021 C 
HETATM    5  C6  UNL     1     -33.201   7.644   4.141  1.00 20.00     0.009 C 
HETATM    6  C7  UNL     1     -34.665   6.164   3.329  1.00 20.00     0.019 C 
HETATM    7  C8  UNL     1     -34.702   5.881   4.850  1.00 20.00     0.055 C 
ENDROOT
BRANCH   7   8
HETATM    8  C3  UNL     1     -34.397   4.458   5.199  1.00 20.00     0.236 C 
HETATM    9  O9  UNL     1     -34.395   3.546   4.379  1.00 20.00    -0.306 OA
ENDBRANCH   7   8
TORSDOF 1
ENDMDL
MODEL 5
REMARK VINA RESULT:      -4.1     11.593     12.672
REMARK  1 active torsions:
REMARK  status: ('A' for Active; 'I' for Inactive)
REMARK    1  A    between atoms: C3_3  and  C8_8 
ROOT
HETATM    1  C1  UNL     1     -34.139  16.990  -5.220  1.00 20.00    -0.026 C 
HETATM    2  C2  UNL     1     -35.410  16.708  -4.896  1.00 20.00    -0.025 C 
HETATM    3  C4  UNL     1     -34.146  16.364  -2.994  1.00 20.00     0.017 C 
HETATM    4  C5  UNL     1     -33.349  14.748  -4.551  1.00 20.00     0.021 C 
HETATM    5  C6  UNL     1     -33.257  16.259  -4.238  1.00 20.00     0.009 C 
HETATM    6  C7  UNL     1     -35.372  15.777  -3.703  1.00 20.00     0.019 C 
HETATM    7  C8  UNL     1     -34.810  14.403  -4.141  1.00 20.00     0.055 C 
ENDROOT
BRANCH   7   8
HETATM    8  C3  UNL     1     -35.594  13.763  -5.244  1.00 20.00     0.236 C 
HETATM    9  O9  UNL     1     -35.903  12.576  -5.252  1.00 20.00    -0.306 OA
ENDBRANCH   7   8
TORSDOF 1
ENDMDL
MODEL 6
REMARK VINA RESULT:      -4.0     11.523     12.639
REMARK  1 active torsions:
REMARK  status: ('A' for Active; 'I' for Inactive)
REMARK    1  A    between atoms: C3_3  and  C8_8 
ROOT
HETATM    1  C1  UNL     1     -34.001  16.470  -4.317  1.00 20.00    -0.026 C 
HETATM    2  C2  UNL     1     -34.735  15.624  -3.578  1.00 20.00    -0.025 C 
HETATM    3  C4  UNL     1     -32.970  14.403  -4.431  1.00 20.00     0.017 C 
HETATM    4  C5  UNL     1     -34.222  15.075  -6.343  1.00 20.00     0.021 C 
HETATM    5  C6  UNL     1     -33.222  15.636  -5.306  1.00 20.00     0.009 C 
HETATM    6  C7  UNL     1     -34.454  14.226  -4.085  1.00 20.00     0.019 C 
HETATM    7  C8  UNL     1     -35.053  14.063  -5.503  1.00 20.00     0.055 C 
ENDROOT
BRANCH   7   8
HETATM    8  C3  UNL     1     -36.527  14.323  -5.560  1.00 20.00     0.236 C 
HETATM    9  O9  UNL     1     -37.356  13.644  -4.966  1.00 20.00    -0.306 OA
ENDBRANCH   7   8
TORSDOF 1
ENDMDL
MODEL 7
REMARK VINA RESULT:      -3.8     11.656     12.899
REMARK  1 active torsions:
REMARK  status: ('A' for Active; 'I' for Inactive)
REMARK    1  A    between atoms: C3_3  and  C8_8 
ROOT
HETATM    1  C1  UNL     1     -33.423  15.633  -5.915  1.00 20.00    -0.026 C 
HETATM    2  C2  UNL     1     -34.611  16.245  -6.027  1.00 20.00    -0.025 C 
HETATM    3  C4  UNL     1     -33.967  16.441  -3.818  1.00 20.00     0.017 C 
HETATM    4  C5  UNL     1     -34.247  14.101  -4.162  1.00 20.00     0.021 C 
HETATM    5  C6  UNL     1     -33.256  15.248  -4.465  1.00 20.00     0.009 C 
HETATM    6  C7  UNL     1     -35.242  16.256  -4.651  1.00 20.00     0.019 C 
HETATM    7  C8  UNL     1     -35.629  14.812  -4.251  1.00 20.00     0.055 C 
ENDROOT
BRANCH   7   8
HETATM    8  C3  UNL     1     -36.564  14.156  -5.219  1.00 20.00     0.236 C 
HETATM    9  O9  UNL     1     -37.717  13.845  -4.939  1.00 20.00    -0.306 OA
ENDBRANCH   7   8
TORSDOF 1
ENDMDL
MODEL 8
REMARK VINA RESULT:      -3.8      9.063     10.258
REMARK  1 active torsions:
REMARK  status: ('A' for Active; 'I' for Inactive)
REMARK    1  A    between atoms: C3_3  and  C8_8 
ROOT
HETATM    1  C1  UNL     1     -41.907   7.826  -0.744  1.00 20.00    -0.026 C 
HETATM    2  C2  UNL     1     -43.205   7.490  -0.768  1.00 20.00    -0.025 C 
HETATM    3  C4  UNL     1     -42.350   6.704   1.228  1.00 20.00     0.017 C 
HETATM    4  C5  UNL     1     -41.185   5.483  -0.452  1.00 20.00     0.021 C 
HETATM    5  C6  UNL     1     -41.219   6.880   0.209  1.00 20.00     0.009 C 
HETATM    6  C7  UNL     1     -43.379   6.308   0.162  1.00 20.00     0.019 C 
HETATM    7  C8  UNL     1     -42.685   5.067  -0.448  1.00 20.00     0.055 C 
ENDROOT
BRANCH   7   8
HETATM    8  C3  UNL     1     -43.197   4.706  -1.808  1.00 20.00     0.236 C 
HETATM    9  O9  UNL     1     -42.772   3.760  -2.461  1.00 20.00    -0.306 OA
ENDBRANCH   7   8
TORSDOF 1
ENDMDL
MODEL 9
REMARK VINA RESULT:      -3.7     12.053     13.174
REMARK  1 active torsions:
REMARK  status: ('A' for Active; 'I' for Inactive)
REMARK    1  A    between atoms: C3_3  and  C8_8 
ROOT
HETATM    1  C1  UNL     1     -34.154  15.364  -3.800  1.00 20.00    -0.026 C 
HETATM    2  C2  UNL     1     -33.149  14.877  -4.543  1.00 20.00    -0.025 C 
HETATM    3  C4  UNL     1     -33.734  16.910  -5.468  1.00 20.00     0.017 C 
HETATM    4  C5  UNL     1     -35.662  15.540  -5.748  1.00 20.00     0.021 C 
HETATM    5  C6  UNL     1     -34.910  16.345  -4.663  1.00 20.00     0.009 C 
HETATM    6  C7  UNL     1     -33.244  15.525  -5.908  1.00 20.00     0.019 C 
HETATM    7  C8  UNL     1     -34.505  15.003  -6.638  1.00 20.00     0.055 C 
ENDROOT
BRANCH   7   8
HETATM    8  C3  UNL     1     -34.528  13.514  -6.795  1.00 20.00     0.236 C 
HETATM    9  O9  UNL     1     -35.312  12.784  -6.199  1.00 20.00    -0.306 OA
ENDBRANCH   7   8
TORSDOF 1
ENDMDL
