MODEL 1
REMARK VINA RESULT:      -6.4      0.000      0.000
REMARK  2 active torsions:
REMARK  status: ('A' for Active; 'I' for Inactive)
REMARK    1  A    between atoms: C2_2  and  C3_3 
REMARK    2  A    between atoms: N9_9  and  N10_10 
ROOT
HETATM    1  C1  UNL     1     -34.138   5.271   3.579  1.00 20.00    -0.018 C 
HETATM    2  C2  UNL     1     -33.749   6.513   3.885  1.00 20.00    -0.043 C 
HETATM    3  C5  UNL     1     -34.784   4.592   4.739  1.00 20.00     0.028 C 
HETATM    4  C6  UNL     1     -34.074   6.863   5.302  1.00 20.00     0.040 C 
HETATM    5  C7  UNL     1     -34.418   5.502   5.911  1.00 20.00     0.008 C 
ENDROOT
BRANCH   2   6
HETATM    6  C3  UNL     1     -33.115   7.442   3.004  1.00 20.00     0.147 C 
HETATM    7  N9  UNL     1     -31.917   7.906   3.203  1.00 20.00    -0.163 NA
BRANCH   7   8
HETATM    8  N10 UNL     1     -31.550   8.792   2.195  1.00 20.00    -0.168 NA
HETATM    9  C4  UNL     1     -32.593   9.218   1.566  1.00 20.00     0.109 C 
HETATM   10  C8  UNL     1     -32.459  10.185   0.433  1.00 20.00     0.059 C 
ENDBRANCH   7   8
ENDBRANCH   2   6
TORSDOF 2
ENDMDL
MODEL 2
REMARK VINA RESULT:      -4.6      1.593      5.145
REMARK  2 active torsions:
REMARK  status: ('A' for Active; 'I' for Inactive)
REMARK    1  A    between atoms: C2_2  and  C3_3 
REMARK    2  A    between atoms: N9_9  and  N10_10 
ROOT
HETATM    1  C1  UNL     1     -32.962   8.379   0.541  1.00 20.00    -0.018 C 
HETATM    2  C2  UNL     1     -32.718   8.353   1.856  1.00 20.00    -0.043 C 
HETATM    3  C5  UNL     1     -32.617   9.702  -0.058  1.00 20.00     0.028 C 
HETATM    4  C6  UNL     1     -32.172   9.657   2.345  1.00 20.00     0.040 C 
HETATM    5  C7  UNL     1     -32.445  10.596   1.169  1.00 20.00     0.008 C 
ENDROOT
BRANCH   2   6
HETATM    6  C3  UNL     1     -32.918   7.242   2.730  1.00 20.00     0.147 C 
HETATM    7  N9  UNL     1     -33.682   6.233   2.434  1.00 20.00    -0.163 NA
BRANCH   7   8
HETATM    8  N10 UNL     1     -33.696   5.296   3.462  1.00 20.00    -0.168 NA
HETATM    9  C4  UNL     1     -34.460   5.693   4.424  1.00 20.00     0.109 C 
HETATM   10  C8  UNL     1     -34.640   4.857   5.651  1.00 20.00     0.059 C 
ENDBRANCH   7   8
ENDBRANCH   2   6
TORSDOF 2
ENDMDL
MODEL 3
REMARK VINA RESULT:      -4.5     11.084     11.583
REMARK  2 active torsions:
REMARK  status: ('A' for Active; 'I' for Inactive)
REMARK    1  A    between atoms: C2_2  and  C3_3 
REMARK    2  A    between atoms: N9_9  and  N10_10 
ROOT
HETATM    1  C1  UNL     1     -35.584  16.258  -2.298  1.00 20.00    -0.018 C 
HETATM    2  C2  UNL     1     -34.488  16.185  -3.061  1.00 20.00    -0.043 C 
HETATM    3  C5  UNL     1     -35.398  17.193  -1.150  1.00 20.00     0.028 C 
HETATM    4  C6  UNL     1     -33.393  17.062  -2.543  1.00 20.00     0.040 C 
HETATM    5  C7  UNL     1     -33.886  17.420  -1.140  1.00 20.00     0.008 C 
ENDROOT
BRANCH   2   6
HETATM    6  C3  UNL     1     -34.332  15.401  -4.244  1.00 20.00     0.147 C 
HETATM    7  N9  UNL     1     -34.403  14.103  -4.251  1.00 20.00    -0.163 NA
BRANCH   7   8
HETATM    8  N10 UNL     1     -34.213  13.598  -5.533  1.00 20.00    -0.168 NA
HETATM    9  C4  UNL     1     -34.234  14.552  -6.402  1.00 20.00     0.109 C 
HETATM   10  C8  UNL     1     -34.053  14.263  -7.859  1.00 20.00     0.059 C 
ENDBRANCH   7   8
ENDBRANCH   2   6
TORSDOF 2
ENDMDL
MODEL 4
REMARK VINA RESULT:      -4.3     10.967     11.529
REMARK  2 active torsions:
REMARK  status: ('A' for Active; 'I' for Inactive)
REMARK    1  A    between atoms: C2_2  and  C3_3 
REMARK    2  A    between atoms: N9_9  and  N10_10 
ROOT
HETATM    1  C1  UNL     1     -33.131  17.618  -1.755  1.00 20.00    -0.018 C 
HETATM    2  C2  UNL     1     -34.244  16.912  -1.982  1.00 20.00    -0.043 C 
HETATM    3  C5  UNL     1     -33.205  18.365  -0.465  1.00 20.00     0.028 C 
HETATM    4  C6  UNL     1     -35.240  17.075  -0.879  1.00 20.00     0.040 C 
HETATM    5  C7  UNL     1     -34.687  18.272  -0.104  1.00 20.00     0.008 C 
ENDROOT
BRANCH   2   6
HETATM    6  C3  UNL     1     -34.498  16.073  -3.111  1.00 20.00     0.147 C 
HETATM    7  N9  UNL     1     -33.552  15.549  -3.833  1.00 20.00    -0.163 NA
BRANCH   7   8
HETATM    8  N10 UNL     1     -34.079  14.781  -4.866  1.00 20.00    -0.168 NA
HETATM    9  C4  UNL     1     -35.192  14.238  -4.503  1.00 20.00     0.109 C 
HETATM   10  C8  UNL     1     -35.955  13.359  -5.442  1.00 20.00     0.059 C 
ENDBRANCH   7   8
ENDBRANCH   2   6
TORSDOF 2
ENDMDL
MODEL 5
REMARK VINA RESULT:      -4.3     10.944     11.457
REMARK  2 active torsions:
REMARK  status: ('A' for Active; 'I' for Inactive)
REMARK    1  A    between atoms: C2_2  and  C3_3 
REMARK    2  A    between atoms: N9_9  and  N10_10 
ROOT
HETATM    1  C1  UNL     1     -35.272  17.000  -0.993  1.00 20.00    -0.018 C 
HETATM    2  C2  UNL     1     -34.406  16.871  -2.005  1.00 20.00    -0.043 C 
HETATM    3  C5  UNL     1     -34.794  17.985   0.020  1.00 20.00     0.028 C 
HETATM    4  C6  UNL     1     -33.210  17.752  -1.828  1.00 20.00     0.040 C 
HETATM    5  C7  UNL     1     -33.329  18.185  -0.366  1.00 20.00     0.008 C 
ENDROOT
BRANCH   2   6
HETATM    6  C3  UNL     1     -34.561  16.028  -3.148  1.00 20.00     0.147 C 
HETATM    7  N9  UNL     1     -33.567  15.416  -3.719  1.00 20.00    -0.163 NA
BRANCH   7   8
HETATM    8  N10 UNL     1     -33.999  14.666  -4.808  1.00 20.00    -0.168 NA
HETATM    9  C4  UNL     1     -35.173  14.179  -4.583  1.00 20.00     0.109 C 
HETATM   10  C8  UNL     1     -35.857  13.331  -5.607  1.00 20.00     0.059 C 
ENDBRANCH   7   8
ENDBRANCH   2   6
TORSDOF 2
ENDMDL
MODEL 6
REMARK VINA RESULT:      -4.3     11.093     11.629
REMARK  2 active torsions:
REMARK  status: ('A' for Active; 'I' for Inactive)
REMARK    1  A    between atoms: C2_2  and  C3_3 
REMARK    2  A    between atoms: N9_9  and  N10_10 
ROOT
HETATM    1  C1  UNL     1     -33.362  16.958  -2.382  1.00 20.00    -0.018 C 
HETATM    2  C2  UNL     1     -34.306  16.232  -2.990  1.00 20.00    -0.043 C 
HETATM    3  C5  UNL     1     -33.886  17.634  -1.160  1.00 20.00     0.028 C 
HETATM    4  C6  UNL     1     -35.614  16.307  -2.269  1.00 20.00     0.040 C 
HETATM    5  C7  UNL     1     -35.399  17.478  -1.309  1.00 20.00     0.008 C 
ENDROOT
BRANCH   2   6
HETATM    6  C3  UNL     1     -34.138  15.446  -4.171  1.00 20.00     0.147 C 
HETATM    7  N9  UNL     1     -34.306  14.157  -4.197  1.00 20.00    -0.163 NA
BRANCH   7   8
HETATM    8  N10 UNL     1     -34.078  13.648  -5.472  1.00 20.00    -0.168 NA
HETATM    9  C4  UNL     1     -34.285  14.556  -6.365  1.00 20.00     0.109 C 
HETATM   10  C8  UNL     1     -34.107  14.253  -7.818  1.00 20.00     0.059 C 
ENDBRANCH   7   8
ENDBRANCH   2   6
TORSDOF 2
ENDMDL
MODEL 7
REMARK VINA RESULT:      -3.9     11.263     12.206
REMARK  2 active torsions:
REMARK  status: ('A' for Active; 'I' for Inactive)
REMARK    1  A    between atoms: C2_2  and  C3_3 
REMARK    2  A    between atoms: N9_9  and  N10_10 
ROOT
HETATM    1  C1  UNL     1     -34.658  14.287  -4.784  1.00 20.00    -0.018 C 
HETATM    2  C2  UNL     1     -35.581  15.076  -4.225  1.00 20.00    -0.043 C 
HETATM    3  C5  UNL     1     -33.286  14.606  -4.292  1.00 20.00     0.028 C 
HETATM    4  C6  UNL     1     -34.972  16.050  -3.267  1.00 20.00     0.040 C 
HETATM    5  C7  UNL     1     -33.481  15.952  -3.594  1.00 20.00     0.008 C 
ENDROOT
BRANCH   2   6
HETATM    6  C3  UNL     1     -36.989  15.028  -4.459  1.00 20.00     0.147 C 
HETATM    7  N9  UNL     1     -37.592  13.987  -4.952  1.00 20.00    -0.163 NA
BRANCH   7   8
HETATM    8  N10 UNL     1     -38.959  14.212  -5.077  1.00 20.00    -0.168 NA
HETATM    9  C4  UNL     1     -39.241  15.441  -4.801  1.00 20.00     0.109 C 
HETATM   10  C8  UNL     1     -40.652  15.933  -4.862  1.00 20.00     0.059 C 
ENDBRANCH   7   8
ENDBRANCH   2   6
TORSDOF 2
ENDMDL
MODEL 8
REMARK VINA RESULT:      -3.8     11.388     11.886
REMARK  2 active torsions:
REMARK  status: ('A' for Active; 'I' for Inactive)
REMARK    1  A    between atoms: C2_2  and  C3_3 
REMARK    2  A    between atoms: N9_9  and  N10_10 
ROOT
HETATM    1  C1  UNL     1     -33.293  15.652  -4.196  1.00 20.00    -0.018 C 
HETATM    2  C2  UNL     1     -34.010  16.286  -3.262  1.00 20.00    -0.043 C 
HETATM    3  C5  UNL     1     -34.138  14.731  -5.010  1.00 20.00     0.028 C 
HETATM    4  C6  UNL     1     -35.451  15.889  -3.305  1.00 20.00     0.040 C 
HETATM    5  C7  UNL     1     -35.429  14.647  -4.197  1.00 20.00     0.008 C 
ENDROOT
BRANCH   2   6
HETATM    6  C3  UNL     1     -33.519  17.248  -2.327  1.00 20.00     0.147 C 
HETATM    7  N9  UNL     1     -32.918  18.344  -2.684  1.00 20.00    -0.163 NA
BRANCH   7   8
HETATM    8  N10 UNL     1     -32.543  19.094  -1.575  1.00 20.00    -0.168 NA
HETATM    9  C4  UNL     1     -32.200  18.320  -0.601  1.00 20.00     0.109 C 
HETATM   10  C8  UNL     1     -31.757  18.890   0.709  1.00 20.00     0.059 C 
ENDBRANCH   7   8
ENDBRANCH   2   6
TORSDOF 2
ENDMDL
MODEL 9
REMARK VINA RESULT:      -3.8     11.196     11.576
REMARK  2 active torsions:
REMARK  status: ('A' for Active; 'I' for Inactive)
REMARK    1  A    between atoms: C2_2  and  C3_3 
REMARK    2  A    between atoms: N9_9  and  N10_10 
ROOT
HETATM    1  C1  UNL     1     -33.833  14.638  -5.375  1.00 20.00    -0.018 C 
HETATM    2  C2  UNL     1     -34.640  15.022  -4.381  1.00 20.00    -0.043 C 
HETATM    3  C5  UNL     1     -34.564  13.842  -6.404  1.00 20.00     0.028 C 
HETATM    4  C6  UNL     1     -36.041  14.542  -4.587  1.00 20.00     0.040 C 
HETATM    5  C7  UNL     1     -35.880  13.508  -5.702  1.00 20.00     0.008 C 
ENDROOT
BRANCH   2   6
HETATM    6  C3  UNL     1     -34.270  15.809  -3.248  1.00 20.00     0.147 C 
HETATM    7  N9  UNL     1     -35.134  16.297  -2.408  1.00 20.00    -0.163 NA
BRANCH   7   8
HETATM    8  N10 UNL     1     -34.503  17.023  -1.404  1.00 20.00    -0.168 NA
HETATM    9  C4  UNL     1     -33.358  17.456  -1.812  1.00 20.00     0.109 C 
HETATM   10  C8  UNL     1     -32.482  18.266  -0.910  1.00 20.00     0.059 C 
ENDBRANCH   7   8
ENDBRANCH   2   6
TORSDOF 2
ENDMDL
