MODEL 1
REMARK VINA RESULT:      -4.5      0.000      0.000
REMARK  1 active torsions:
REMARK  status: ('A' for Active; 'I' for Inactive)
REMARK    1  A    between atoms: C3_3  and  C6_6 
ROOT
HETATM    1  C1  UNL     1     -33.751   7.050   5.095  1.00 20.00     0.100 C 
HETATM    2  C2  UNL     1     -32.438   7.274   2.909  1.00 20.00     0.169 A 
HETATM    3  C3  UNL     1     -33.565   6.673   3.726  1.00 20.00     0.174 A 
HETATM    4  C4  UNL     1     -31.466   8.260   3.455  1.00 20.00     0.044 C 
HETATM    5  N7  UNL     1     -33.901   7.355   6.204  1.00 20.00    -0.194 NA
HETATM    6  O8  UNL     1     -33.782   7.759   2.809  1.00 20.00    -0.354 OA
ENDROOT
BRANCH   3   7
HETATM    7  C6  UNL     1     -34.182   5.386   3.279  1.00 20.00     0.052 C 
HETATM    8  C5  UNL     1     -34.395   4.417   4.411  1.00 20.00     0.009 C 
ENDBRANCH   3   7
TORSDOF 1
ENDMDL
MODEL 2
REMARK VINA RESULT:      -4.5      1.962      3.435
REMARK  1 active torsions:
REMARK  status: ('A' for Active; 'I' for Inactive)
REMARK    1  A    between atoms: C3_3  and  C6_6 
ROOT
HETATM    1  C1  UNL     1     -32.988   5.772   3.022  1.00 20.00     0.100 C 
HETATM    2  C2  UNL     1     -33.630   7.209   5.040  1.00 20.00     0.169 A 
HETATM    3  C3  UNL     1     -32.956   7.037   3.693  1.00 20.00     0.174 A 
HETATM    4  C4  UNL     1     -34.342   6.110   5.747  1.00 20.00     0.044 C 
HETATM    5  N7  UNL     1     -33.013   4.747   2.478  1.00 20.00    -0.194 NA
HETATM    6  O8  UNL     1     -34.257   7.636   3.825  1.00 20.00    -0.354 OA
ENDROOT
BRANCH   3   7
HETATM    7  C6  UNL     1     -31.895   8.005   3.281  1.00 20.00     0.052 C 
HETATM    8  C5  UNL     1     -32.035   8.452   1.850  1.00 20.00     0.009 C 
ENDBRANCH   3   7
TORSDOF 1
ENDMDL
MODEL 3
REMARK VINA RESULT:      -4.2      2.089      2.507
REMARK  1 active torsions:
REMARK  status: ('A' for Active; 'I' for Inactive)
REMARK    1  A    between atoms: C3_3  and  C6_6 
ROOT
HETATM    1  C1  UNL     1     -32.985   5.951   3.000  1.00 20.00     0.100 C 
HETATM    2  C2  UNL     1     -32.643   8.481   2.825  1.00 20.00     0.169 A 
HETATM    3  C3  UNL     1     -32.948   7.235   3.632  1.00 20.00     0.174 A 
HETATM    4  C4  UNL     1     -32.380   8.463   1.360  1.00 20.00     0.044 C 
HETATM    5  N7  UNL     1     -33.016   4.910   2.488  1.00 20.00    -0.194 NA
HETATM    6  O8  UNL     1     -31.640   7.833   3.615  1.00 20.00    -0.354 OA
ENDROOT
BRANCH   3   7
HETATM    7  C6  UNL     1     -33.646   7.373   4.948  1.00 20.00     0.052 C 
HETATM    8  C5  UNL     1     -34.391   6.128   5.346  1.00 20.00     0.009 C 
ENDBRANCH   3   7
TORSDOF 1
ENDMDL
MODEL 4
REMARK VINA RESULT:      -4.2      1.774      2.936
REMARK  1 active torsions:
REMARK  status: ('A' for Active; 'I' for Inactive)
REMARK    1  A    between atoms: C3_3  and  C6_6 
ROOT
HETATM    1  C1  UNL     1     -32.905   7.333   3.380  1.00 20.00     0.100 C 
HETATM    2  C2  UNL     1     -33.823   4.947   3.484  1.00 20.00     0.169 A 
HETATM    3  C3  UNL     1     -33.780   6.376   3.987  1.00 20.00     0.174 A 
HETATM    4  C4  UNL     1     -32.978   4.446   2.365  1.00 20.00     0.044 C 
HETATM    5  N7  UNL     1     -32.195   8.109   2.889  1.00 20.00    -0.194 NA
HETATM    6  O8  UNL     1     -34.809   5.911   3.096  1.00 20.00    -0.354 OA
ENDROOT
BRANCH   3   7
HETATM    7  C6  UNL     1     -34.278   6.678   5.364  1.00 20.00     0.052 C 
HETATM    8  C5  UNL     1     -33.392   7.642   6.107  1.00 20.00     0.009 C 
ENDBRANCH   3   7
TORSDOF 1
ENDMDL
MODEL 5
REMARK VINA RESULT:      -4.0     11.595     12.431
REMARK  1 active torsions:
REMARK  status: ('A' for Active; 'I' for Inactive)
REMARK    1  A    between atoms: C3_3  and  C6_6 
ROOT
HETATM    1  C1  UNL     1     -37.035  14.094  -5.029  1.00 20.00     0.100 C 
HETATM    2  C2  UNL     1     -35.154  13.741  -6.729  1.00 20.00     0.169 A 
HETATM    3  C3  UNL     1     -35.649  13.858  -5.301  1.00 20.00     0.174 A 
HETATM    4  C4  UNL     1     -36.042  13.869  -7.916  1.00 20.00     0.044 C 
HETATM    5  N7  UNL     1     -38.158  14.286  -4.809  1.00 20.00    -0.194 NA
HETATM    6  O8  UNL     1     -35.406  12.584  -5.922  1.00 20.00    -0.354 OA
ENDROOT
BRANCH   3   7
HETATM    7  C6  UNL     1     -34.672  14.186  -4.217  1.00 20.00     0.052 C 
HETATM    8  C5  UNL     1     -34.897  15.550  -3.621  1.00 20.00     0.009 C 
ENDBRANCH   3   7
TORSDOF 1
ENDMDL
MODEL 6
REMARK VINA RESULT:      -3.9      1.103      2.987
REMARK  1 active torsions:
REMARK  status: ('A' for Active; 'I' for Inactive)
REMARK    1  A    between atoms: C3_3  and  C6_6 
ROOT
HETATM    1  C1  UNL     1     -33.339   7.241   4.864  1.00 20.00     0.100 C 
HETATM    2  C2  UNL     1     -34.037   5.447   3.177  1.00 20.00     0.169 A 
HETATM    3  C3  UNL     1     -33.397   6.781   3.509  1.00 20.00     0.174 A 
HETATM    4  C4  UNL     1     -34.641   4.551   4.201  1.00 20.00     0.044 C 
HETATM    5  N7  UNL     1     -33.292   7.615   5.962  1.00 20.00    -0.194 NA
HETATM    6  O8  UNL     1     -32.616   5.595   3.284  1.00 20.00    -0.354 OA
ENDROOT
BRANCH   3   7
HETATM    7  C6  UNL     1     -33.248   7.805   2.430  1.00 20.00     0.052 C 
HETATM    8  C5  UNL     1     -31.879   8.432   2.405  1.00 20.00     0.009 C 
ENDBRANCH   3   7
TORSDOF 1
ENDMDL
MODEL 7
REMARK VINA RESULT:      -3.6      1.752      2.349
REMARK  1 active torsions:
REMARK  status: ('A' for Active; 'I' for Inactive)
REMARK    1  A    between atoms: C3_3  and  C6_6 
ROOT
HETATM    1  C1  UNL     1     -34.458   5.114   4.430  1.00 20.00     0.100 C 
HETATM    2  C2  UNL     1     -33.285   7.377   4.660  1.00 20.00     0.169 A 
HETATM    3  C3  UNL     1     -33.722   6.186   3.830  1.00 20.00     0.174 A 
HETATM    4  C4  UNL     1     -33.571   7.511   6.114  1.00 20.00     0.044 C 
HETATM    5  N7  UNL     1     -35.054   4.245   4.916  1.00 20.00    -0.194 NA
HETATM    6  O8  UNL     1     -34.445   7.429   3.821  1.00 20.00    -0.354 OA
ENDROOT
BRANCH   3   7
HETATM    7  C6  UNL     1     -33.018   5.899   2.542  1.00 20.00     0.052 C 
HETATM    8  C5  UNL     1     -32.843   4.425   2.289  1.00 20.00     0.009 C 
ENDBRANCH   3   7
TORSDOF 1
ENDMDL
MODEL 8
REMARK VINA RESULT:      -3.6     11.891     12.443
REMARK  1 active torsions:
REMARK  status: ('A' for Active; 'I' for Inactive)
REMARK    1  A    between atoms: C3_3  and  C6_6 
ROOT
HETATM    1  C1  UNL     1     -36.817  14.350  -4.998  1.00 20.00     0.100 C 
HETATM    2  C2  UNL     1     -34.571  14.140  -6.207  1.00 20.00     0.169 A 
HETATM    3  C3  UNL     1     -35.446  14.745  -5.128  1.00 20.00     0.174 A 
HETATM    4  C4  UNL     1     -35.059  13.133  -7.188  1.00 20.00     0.044 C 
HETATM    5  N7  UNL     1     -37.928  14.032  -4.894  1.00 20.00    -0.194 NA
HETATM    6  O8  UNL     1     -34.525  13.675  -4.853  1.00 20.00    -0.354 OA
ENDROOT
BRANCH   3   7
HETATM    7  C6  UNL     1     -35.046  16.047  -4.510  1.00 20.00     0.052 C 
HETATM    8  C5  UNL     1     -34.964  15.980  -3.008  1.00 20.00     0.009 C 
ENDBRANCH   3   7
TORSDOF 1
ENDMDL
MODEL 9
REMARK VINA RESULT:      -3.6     11.885     12.495
REMARK  1 active torsions:
REMARK  status: ('A' for Active; 'I' for Inactive)
REMARK    1  A    between atoms: C3_3  and  C6_6 
ROOT
HETATM    1  C1  UNL     1     -35.818  13.782  -4.943  1.00 20.00     0.100 C 
HETATM    2  C2  UNL     1     -37.181  15.804  -4.166  1.00 20.00     0.169 A 
HETATM    3  C3  UNL     1     -35.858  15.089  -4.361  1.00 20.00     0.174 A 
HETATM    4  C4  UNL     1     -38.494  15.214  -4.544  1.00 20.00     0.044 C 
HETATM    5  N7  UNL     1     -35.786  12.722  -5.415  1.00 20.00    -0.194 NA
HETATM    6  O8  UNL     1     -36.322  16.098  -5.275  1.00 20.00    -0.354 OA
ENDROOT
BRANCH   3   7
HETATM    7  C6  UNL     1     -34.674  15.518  -3.555  1.00 20.00     0.052 C 
HETATM    8  C5  UNL     1     -33.365  15.197  -4.225  1.00 20.00     0.009 C 
ENDBRANCH   3   7
TORSDOF 1
ENDMDL
