MODEL 1
REMARK VINA RESULT:      -5.8      0.000      0.000
REMARK  0 active torsions:
REMARK  status: ('A' for Active; 'I' for Inactive)
ROOT
HETATM    1  C1  UNL     1     -33.603   4.659   3.382  1.00 20.00    -0.018 C 
HETATM    2  C2  UNL     1     -34.118   4.312   4.574  1.00 20.00    -0.025 C 
HETATM    3  C3  UNL     1     -33.366   6.914   4.101  1.00 20.00     0.135 C 
HETATM    4  C4  UNL     1     -33.953   6.622   5.482  1.00 20.00     0.087 C 
HETATM    5  C5  UNL     1     -35.459   6.005   3.732  1.00 20.00     0.025 C 
HETATM    6  C6  UNL     1     -34.079   6.050   3.069  1.00 20.00     0.078 C 
HETATM    7  C7  UNL     1     -34.929   5.490   5.078  1.00 20.00     0.016 C 
HETATM    8  O8  UNL     1     -32.444   7.680   3.873  1.00 20.00    -0.297 OA
ENDROOT
TORSDOF 0
ENDMDL
MODEL 2
REMARK VINA RESULT:      -5.7      1.038      1.378
REMARK  0 active torsions:
REMARK  status: ('A' for Active; 'I' for Inactive)
ROOT
HETATM    1  C1  UNL     1     -33.218   5.959   3.152  1.00 20.00    -0.018 C 
HETATM    2  C2  UNL     1     -33.560   4.696   3.457  1.00 20.00    -0.025 C 
HETATM    3  C3  UNL     1     -33.937   6.708   5.291  1.00 20.00     0.135 C 
HETATM    4  C4  UNL     1     -34.371   5.309   5.727  1.00 20.00     0.087 C 
HETATM    5  C5  UNL     1     -35.467   5.988   3.716  1.00 20.00     0.025 C 
HETATM    6  C6  UNL     1     -34.220   6.871   3.804  1.00 20.00     0.078 C 
HETATM    7  C7  UNL     1     -34.790   4.760   4.342  1.00 20.00     0.016 C 
HETATM    8  O8  UNL     1     -33.409   7.541   6.010  1.00 20.00    -0.297 OA
ENDROOT
TORSDOF 0
ENDMDL
MODEL 3
REMARK VINA RESULT:      -5.4      1.710      2.825
REMARK  0 active torsions:
REMARK  status: ('A' for Active; 'I' for Inactive)
ROOT
HETATM    1  C1  UNL     1     -34.089   6.589   5.245  1.00 20.00    -0.018 C 
HETATM    2  C2  UNL     1     -33.311   7.153   4.306  1.00 20.00    -0.025 C 
HETATM    3  C3  UNL     1     -34.082   4.526   4.059  1.00 20.00     0.135 C 
HETATM    4  C4  UNL     1     -33.209   5.081   2.933  1.00 20.00     0.087 C 
HETATM    5  C5  UNL     1     -35.203   6.366   3.222  1.00 20.00     0.025 C 
HETATM    6  C6  UNL     1     -35.013   5.627   4.550  1.00 20.00     0.078 C 
HETATM    7  C7  UNL     1     -33.699   6.549   2.970  1.00 20.00     0.016 C 
HETATM    8  O8  UNL     1     -34.010   3.399   4.519  1.00 20.00    -0.297 OA
ENDROOT
TORSDOF 0
ENDMDL
MODEL 4
REMARK VINA RESULT:      -4.6      1.119      2.291
REMARK  0 active torsions:
REMARK  status: ('A' for Active; 'I' for Inactive)
ROOT
HETATM    1  C1  UNL     1     -35.543   5.921   3.778  1.00 20.00    -0.018 C 
HETATM    2  C2  UNL     1     -34.898   6.268   2.651  1.00 20.00    -0.025 C 
HETATM    3  C3  UNL     1     -33.765   6.781   5.103  1.00 20.00     0.135 C 
HETATM    4  C4  UNL     1     -32.947   7.200   3.882  1.00 20.00     0.087 C 
HETATM    5  C5  UNL     1     -33.476   4.871   3.835  1.00 20.00     0.025 C 
HETATM    6  C6  UNL     1     -34.508   5.491   4.780  1.00 20.00     0.078 C 
HETATM    7  C7  UNL     1     -33.413   6.093   2.906  1.00 20.00     0.016 C 
HETATM    8  O8  UNL     1     -33.844   7.404   6.149  1.00 20.00    -0.297 OA
ENDROOT
TORSDOF 0
ENDMDL
MODEL 5
REMARK VINA RESULT:      -4.0      8.597      9.598
REMARK  0 active torsions:
REMARK  status: ('A' for Active; 'I' for Inactive)
ROOT
HETATM    1  C1  UNL     1     -43.417   5.898  -1.005  1.00 20.00    -0.018 C 
HETATM    2  C2  UNL     1     -42.429   5.081  -0.602  1.00 20.00    -0.025 C 
HETATM    3  C3  UNL     1     -41.987   7.787  -0.799  1.00 20.00     0.135 C 
HETATM    4  C4  UNL     1     -40.805   6.944  -0.319  1.00 20.00     0.087 C 
HETATM    5  C5  UNL     1     -42.723   6.654   1.076  1.00 20.00     0.025 C 
HETATM    6  C6  UNL     1     -43.275   7.190  -0.248  1.00 20.00     0.078 C 
HETATM    7  C7  UNL     1     -41.600   5.839   0.417  1.00 20.00     0.016 C 
HETATM    8  O8  UNL     1     -41.911   8.753  -1.540  1.00 20.00    -0.297 OA
ENDROOT
TORSDOF 0
ENDMDL
MODEL 6
REMARK VINA RESULT:      -4.0      1.437      2.324
REMARK  0 active torsions:
REMARK  status: ('A' for Active; 'I' for Inactive)
ROOT
HETATM    1  C1  UNL     1     -34.891   6.531   2.842  1.00 20.00    -0.018 C 
HETATM    2  C2  UNL     1     -35.685   6.019   3.798  1.00 20.00    -0.025 C 
HETATM    3  C3  UNL     1     -33.276   4.827   3.222  1.00 20.00     0.135 C 
HETATM    4  C4  UNL     1     -34.100   4.178   4.334  1.00 20.00     0.087 C 
HETATM    5  C5  UNL     1     -33.645   6.477   4.798  1.00 20.00     0.025 C 
HETATM    6  C6  UNL     1     -33.467   6.337   3.283  1.00 20.00     0.078 C 
HETATM    7  C7  UNL     1     -34.786   5.453   4.880  1.00 20.00     0.016 C 
HETATM    8  O8  UNL     1     -32.611   4.228   2.393  1.00 20.00    -0.297 OA
ENDROOT
TORSDOF 0
ENDMDL
MODEL 7
REMARK VINA RESULT:      -4.0     11.917     12.921
REMARK  0 active torsions:
REMARK  status: ('A' for Active; 'I' for Inactive)
ROOT
HETATM    1  C1  UNL     1     -33.195  14.468  -4.584  1.00 20.00    -0.018 C 
HETATM    2  C2  UNL     1     -33.296  15.547  -5.379  1.00 20.00    -0.025 C 
HETATM    3  C3  UNL     1     -35.441  13.855  -5.073  1.00 20.00     0.135 C 
HETATM    4  C4  UNL     1     -35.659  15.062  -5.986  1.00 20.00     0.087 C 
HETATM    5  C5  UNL     1     -34.978  15.724  -3.794  1.00 20.00     0.025 C 
HETATM    6  C6  UNL     1     -34.530  14.265  -3.923  1.00 20.00     0.078 C 
HETATM    7  C7  UNL     1     -34.719  16.061  -5.269  1.00 20.00     0.016 C 
HETATM    8  O8  UNL     1     -35.887  12.736  -5.262  1.00 20.00    -0.297 OA
ENDROOT
TORSDOF 0
ENDMDL
MODEL 8
REMARK VINA RESULT:      -3.9      8.583      9.739
REMARK  0 active torsions:
REMARK  status: ('A' for Active; 'I' for Inactive)
ROOT
HETATM    1  C1  UNL     1     -40.694   6.298  -0.105  1.00 20.00    -0.018 C 
HETATM    2  C2  UNL     1     -41.210   7.532  -0.238  1.00 20.00    -0.025 C 
HETATM    3  C3  UNL     1     -42.735   5.327  -0.846  1.00 20.00     0.135 C 
HETATM    4  C4  UNL     1     -43.416   6.685  -1.016  1.00 20.00     0.087 C 
HETATM    5  C5  UNL     1     -42.603   6.376   1.210  1.00 20.00     0.025 C 
HETATM    6  C6  UNL     1     -41.801   5.391   0.355  1.00 20.00     0.078 C 
HETATM    7  C7  UNL     1     -42.683   7.449   0.114  1.00 20.00     0.016 C 
HETATM    8  O8  UNL     1     -42.883   4.365  -1.582  1.00 20.00    -0.297 OA
ENDROOT
TORSDOF 0
ENDMDL
MODEL 9
REMARK VINA RESULT:      -3.9     12.227     13.182
REMARK  0 active torsions:
REMARK  status: ('A' for Active; 'I' for Inactive)
ROOT
HETATM    1  C1  UNL     1     -33.918  14.958  -3.941  1.00 20.00    -0.018 C 
HETATM    2  C2  UNL     1     -33.094  15.283  -4.952  1.00 20.00    -0.025 C 
HETATM    3  C3  UNL     1     -35.337  13.769  -5.434  1.00 20.00     0.135 C 
HETATM    4  C4  UNL     1     -34.471  14.097  -6.651  1.00 20.00     0.087 C 
HETATM    5  C5  UNL     1     -35.197  16.074  -5.522  1.00 20.00     0.025 C 
HETATM    6  C6  UNL     1     -35.321  14.957  -4.482  1.00 20.00     0.078 C 
HETATM    7  C7  UNL     1     -33.948  15.479  -6.190  1.00 20.00     0.016 C 
HETATM    8  O8  UNL     1     -35.909  12.709  -5.239  1.00 20.00    -0.297 OA
ENDROOT
TORSDOF 0
ENDMDL
