MODEL 1
REMARK VINA RESULT:      -5.1      0.000      0.000
REMARK  0 active torsions:
REMARK  status: ('A' for Active; 'I' for Inactive)
ROOT
HETATM    1  C1  UNL     1     -32.458   7.922   2.676  1.00 20.00     0.064 C 
HETATM    2  C2  UNL     1     -34.206   4.635   4.860  1.00 20.00     0.005 C 
HETATM    3  C3  UNL     1     -35.621   6.243   3.569  1.00 20.00     0.005 C 
HETATM    4  C4  UNL     1     -33.405   4.334   3.585  1.00 20.00     0.006 C 
HETATM    5  C5  UNL     1     -34.795   5.958   2.308  1.00 20.00     0.006 C 
HETATM    6  C6  UNL     1     -33.566   7.055   4.732  1.00 20.00     0.024 C 
HETATM    7  C7  UNL     1     -32.692   6.726   3.504  1.00 20.00     0.097 C 
HETATM    8  C8  UNL     1     -34.750   6.075   4.824  1.00 20.00    -0.013 C 
HETATM    9  C9  UNL     1     -33.347   5.585   2.688  1.00 20.00     0.003 C 
HETATM   10  N10 UNL     1     -32.272   8.863   2.024  1.00 20.00    -0.197 NA
ENDROOT
TORSDOF 0
ENDMDL
MODEL 2
REMARK VINA RESULT:      -4.6     11.262     12.508
REMARK  0 active torsions:
REMARK  status: ('A' for Active; 'I' for Inactive)
ROOT
HETATM    1  C1  UNL     1     -35.392  13.598  -4.781  1.00 20.00     0.064 C 
HETATM    2  C2  UNL     1     -33.539  17.073  -3.017  1.00 20.00     0.005 C 
HETATM    3  C3  UNL     1     -34.666  17.186  -5.247  1.00 20.00     0.005 C 
HETATM    4  C4  UNL     1     -34.838  16.534  -2.400  1.00 20.00     0.006 C 
HETATM    5  C5  UNL     1     -35.950  16.617  -4.627  1.00 20.00     0.006 C 
HETATM    6  C6  UNL     1     -33.430  15.120  -4.582  1.00 20.00     0.024 C 
HETATM    7  C7  UNL     1     -34.685  14.541  -3.897  1.00 20.00     0.097 C 
HETATM    8  C8  UNL     1     -33.435  16.658  -4.495  1.00 20.00    -0.013 C 
HETATM    9  C9  UNL     1     -35.609  15.695  -3.438  1.00 20.00     0.003 C 
HETATM   10  N10 UNL     1     -35.949  12.854  -5.476  1.00 20.00    -0.197 NA
ENDROOT
TORSDOF 0
ENDMDL
MODEL 3
REMARK VINA RESULT:      -4.5     11.473     12.731
REMARK  0 active torsions:
REMARK  status: ('A' for Active; 'I' for Inactive)
ROOT
HETATM    1  C1  UNL     1     -36.949  14.136  -5.183  1.00 20.00     0.064 C 
HETATM    2  C2  UNL     1     -32.911  15.644  -5.399  1.00 20.00     0.005 C 
HETATM    3  C3  UNL     1     -34.745  16.972  -4.336  1.00 20.00     0.005 C 
HETATM    4  C4  UNL     1     -33.217  14.480  -4.445  1.00 20.00     0.006 C 
HETATM    5  C5  UNL     1     -35.062  15.791  -3.408  1.00 20.00     0.006 C 
HETATM    6  C6  UNL     1     -35.238  15.543  -6.323  1.00 20.00     0.024 C 
HETATM    7  C7  UNL     1     -35.507  14.317  -5.426  1.00 20.00     0.097 C 
HETATM    8  C8  UNL     1     -34.187  16.461  -5.673  1.00 20.00    -0.013 C 
HETATM    9  C9  UNL     1     -34.719  14.457  -4.101  1.00 20.00     0.003 C 
HETATM   10  N10 UNL     1     -38.085  13.992  -4.992  1.00 20.00    -0.197 NA
ENDROOT
TORSDOF 0
ENDMDL
MODEL 4
REMARK VINA RESULT:      -4.2     11.627     12.857
REMARK  0 active torsions:
REMARK  status: ('A' for Active; 'I' for Inactive)
ROOT
HETATM    1  C1  UNL     1     -37.106  14.759  -4.906  1.00 20.00     0.064 C 
HETATM    2  C2  UNL     1     -33.396  16.945  -4.613  1.00 20.00     0.005 C 
HETATM    3  C3  UNL     1     -33.461  14.453  -4.414  1.00 20.00     0.005 C 
HETATM    4  C4  UNL     1     -34.089  16.842  -5.980  1.00 20.00     0.006 C 
HETATM    5  C5  UNL     1     -34.181  14.363  -5.766  1.00 20.00     0.006 C 
HETATM    6  C6  UNL     1     -35.341  15.821  -3.504  1.00 20.00     0.024 C 
HETATM    7  C7  UNL     1     -36.067  15.803  -4.865  1.00 20.00     0.097 C 
HETATM    8  C8  UNL     1     -33.816  15.772  -3.710  1.00 20.00    -0.013 C 
HETATM    9  C9  UNL     1     -35.034  15.625  -6.004  1.00 20.00     0.003 C 
HETATM   10  N10 UNL     1     -37.925  13.937  -4.938  1.00 20.00    -0.197 NA
ENDROOT
TORSDOF 0
ENDMDL
MODEL 5
REMARK VINA RESULT:      -4.1     11.306     12.511
REMARK  0 active torsions:
REMARK  status: ('A' for Active; 'I' for Inactive)
ROOT
HETATM    1  C1  UNL     1     -34.351  16.627  -2.426  1.00 20.00     0.064 C 
HETATM    2  C2  UNL     1     -35.546  14.780  -6.139  1.00 20.00     0.005 C 
HETATM    3  C3  UNL     1     -33.237  15.685  -5.816  1.00 20.00     0.005 C 
HETATM    4  C4  UNL     1     -35.360  13.895  -4.898  1.00 20.00     0.006 C 
HETATM    5  C5  UNL     1     -33.073  14.820  -4.559  1.00 20.00     0.006 C 
HETATM    6  C6  UNL     1     -35.183  16.843  -4.764  1.00 20.00     0.024 C 
HETATM    7  C7  UNL     1     -35.087  15.952  -3.509  1.00 20.00     0.097 C 
HETATM    8  C8  UNL     1     -34.713  16.067  -6.008  1.00 20.00    -0.013 C 
HETATM    9  C9  UNL     1     -34.440  14.596  -3.880  1.00 20.00     0.003 C 
HETATM   10  N10 UNL     1     -33.772  17.159  -1.573  1.00 20.00    -0.197 NA
ENDROOT
TORSDOF 0
ENDMDL
MODEL 6
REMARK VINA RESULT:      -4.1     11.323     12.873
REMARK  0 active torsions:
REMARK  status: ('A' for Active; 'I' for Inactive)
ROOT
HETATM    1  C1  UNL     1     -34.386  14.490  -4.121  1.00 20.00     0.064 C 
HETATM    2  C2  UNL     1     -33.312  18.522  -3.015  1.00 20.00     0.005 C 
HETATM    3  C3  UNL     1     -35.540  17.995  -4.023  1.00 20.00     0.005 C 
HETATM    4  C4  UNL     1     -33.585  17.497  -1.904  1.00 20.00     0.006 C 
HETATM    5  C5  UNL     1     -35.790  16.951  -2.926  1.00 20.00     0.006 C 
HETATM    6  C6  UNL     1     -33.514  16.734  -4.760  1.00 20.00     0.024 C 
HETATM    7  C7  UNL     1     -33.698  15.698  -3.633  1.00 20.00     0.097 C 
HETATM    8  C8  UNL     1     -34.035  18.112  -4.311  1.00 20.00    -0.013 C 
HETATM    9  C9  UNL     1     -34.454  16.346  -2.447  1.00 20.00     0.003 C 
HETATM   10  N10 UNL     1     -34.927  13.538  -4.505  1.00 20.00    -0.197 NA
ENDROOT
TORSDOF 0
ENDMDL
MODEL 7
REMARK VINA RESULT:      -4.1     11.529     12.517
REMARK  0 active torsions:
REMARK  status: ('A' for Active; 'I' for Inactive)
ROOT
HETATM    1  C1  UNL     1     -33.264  17.850  -2.709  1.00 20.00     0.064 C 
HETATM    2  C2  UNL     1     -35.074  14.255  -4.267  1.00 20.00     0.005 C 
HETATM    3  C3  UNL     1     -35.530  16.493  -5.286  1.00 20.00     0.005 C 
HETATM    4  C4  UNL     1     -33.570  14.478  -4.478  1.00 20.00     0.006 C 
HETATM    5  C5  UNL     1     -34.023  16.719  -5.465  1.00 20.00     0.006 C 
HETATM    6  C6  UNL     1     -35.207  16.295  -2.818  1.00 20.00     0.024 C 
HETATM    7  C7  UNL     1     -33.681  16.459  -2.963  1.00 20.00     0.097 C 
HETATM    8  C8  UNL     1     -35.792  15.602  -4.062  1.00 20.00    -0.013 C 
HETATM    9  C9  UNL     1     -33.235  15.978  -4.365  1.00 20.00     0.003 C 
HETATM   10  N10 UNL     1     -32.935  18.944  -2.507  1.00 20.00    -0.197 NA
ENDROOT
TORSDOF 0
ENDMDL
MODEL 8
REMARK VINA RESULT:      -4.1     11.393     12.971
REMARK  0 active torsions:
REMARK  status: ('A' for Active; 'I' for Inactive)
ROOT
HETATM    1  C1  UNL     1     -37.225  14.547  -5.380  1.00 20.00     0.064 C 
HETATM    2  C2  UNL     1     -33.506  16.731  -5.535  1.00 20.00     0.005 C 
HETATM    3  C3  UNL     1     -34.304  15.662  -3.419  1.00 20.00     0.005 C 
HETATM    4  C4  UNL     1     -33.596  15.371  -6.243  1.00 20.00     0.006 C 
HETATM    5  C5  UNL     1     -34.420  14.314  -4.144  1.00 20.00     0.006 C 
HETATM    6  C6  UNL     1     -35.954  16.657  -5.007  1.00 20.00     0.024 C 
HETATM    7  C7  UNL     1     -36.052  15.336  -5.797  1.00 20.00     0.097 C 
HETATM    8  C8  UNL     1     -34.546  16.817  -4.404  1.00 20.00    -0.013 C 
HETATM    9  C9  UNL     1     -34.739  14.534  -5.637  1.00 20.00     0.003 C 
HETATM   10  N10 UNL     1     -38.149  13.926  -5.052  1.00 20.00    -0.197 NA
ENDROOT
TORSDOF 0
ENDMDL
MODEL 9
REMARK VINA RESULT:      -4.0     11.725     12.871
REMARK  0 active torsions:
REMARK  status: ('A' for Active; 'I' for Inactive)
ROOT
HETATM    1  C1  UNL     1     -35.907  13.951  -5.176  1.00 20.00     0.064 C 
HETATM    2  C2  UNL     1     -35.689  18.096  -3.994  1.00 20.00     0.005 C 
HETATM    3  C3  UNL     1     -34.755  16.277  -2.553  1.00 20.00     0.005 C 
HETATM    4  C4  UNL     1     -34.811  17.610  -5.157  1.00 20.00     0.006 C 
HETATM    5  C5  UNL     1     -33.905  15.781  -3.730  1.00 20.00     0.006 C 
HETATM    6  C6  UNL     1     -36.830  15.868  -3.880  1.00 20.00     0.024 C 
HETATM    7  C7  UNL     1     -36.007  15.419  -5.105  1.00 20.00     0.097 C 
HETATM    8  C8  UNL     1     -36.052  16.920  -3.069  1.00 20.00    -0.013 C 
HETATM    9  C9  UNL     1     -34.610  16.085  -5.068  1.00 20.00     0.003 C 
HETATM   10  N10 UNL     1     -35.829  12.794  -5.233  1.00 20.00    -0.197 NA
ENDROOT
TORSDOF 0
ENDMDL
