MODEL 1
REMARK VINA RESULT:      -4.8      0.000      0.000
REMARK  0 active torsions:
REMARK  status: ('A' for Active; 'I' for Inactive)
ROOT
HETATM    1  C1  UNL     1     -33.653   7.629   5.973  1.00 20.00     0.002 A 
HETATM    2  C2  UNL     1     -34.109   6.332   5.737  1.00 20.00     0.016 A 
HETATM    3  C3  UNL     1     -32.925   8.320   4.990  1.00 20.00     0.019 A 
HETATM    4  C4  UNL     1     -33.814   5.770   4.508  1.00 20.00     0.017 A 
HETATM    5  C5  UNL     1     -33.096   6.436   3.522  1.00 20.00    -0.026 A 
HETATM    6  C6  UNL     1     -32.643   7.724   3.756  1.00 20.00     0.018 A 
HETATM    7  C7  UNL     1     -34.162   4.451   4.003  1.00 20.00     0.160 A 
HETATM    8  C8  UNL     1     -32.909   5.616   2.287  1.00 20.00     0.048 A 
HETATM    9  C9  UNL     1     -33.620   4.289   2.603  1.00 20.00     0.088 A 
HETATM   10  O10 UNL     1     -34.793   3.620   4.632  1.00 20.00    -0.292 OA
HETATM   11 BR11 UNL     1     -31.661   8.689   2.462  1.00 20.00    -0.051 Br
ENDROOT
TORSDOF 0
ENDMDL
MODEL 2
REMARK VINA RESULT:      -4.8     12.461     12.809
REMARK  0 active torsions:
REMARK  status: ('A' for Active; 'I' for Inactive)
ROOT
HETATM    1  C1  UNL     1     -31.820  18.882   0.401  1.00 20.00     0.002 A 
HETATM    2  C2  UNL     1     -32.142  18.229  -0.788  1.00 20.00     0.016 A 
HETATM    3  C3  UNL     1     -32.791  19.069   1.400  1.00 20.00     0.019 A 
HETATM    4  C4  UNL     1     -33.443  17.780  -0.932  1.00 20.00     0.017 A 
HETATM    5  C5  UNL     1     -34.417  17.953   0.042  1.00 20.00    -0.026 A 
HETATM    6  C6  UNL     1     -34.098  18.603   1.224  1.00 20.00     0.018 A 
HETATM    7  C7  UNL     1     -34.043  17.076  -2.055  1.00 20.00     0.160 A 
HETATM    8  C8  UNL     1     -35.740  17.380  -0.352  1.00 20.00     0.048 A 
HETATM    9  C9  UNL     1     -35.495  16.792  -1.752  1.00 20.00     0.088 A 
HETATM   10  O10 UNL     1     -33.447  16.774  -3.073  1.00 20.00    -0.292 OA
HETATM   11 BR11 UNL     1     -35.372  18.873   2.593  1.00 20.00    -0.051 Br
ENDROOT
TORSDOF 0
ENDMDL
MODEL 3
REMARK VINA RESULT:      -4.8      0.893      2.906
REMARK  0 active torsions:
REMARK  status: ('A' for Active; 'I' for Inactive)
ROOT
HETATM    1  C1  UNL     1     -33.427   4.713   2.276  1.00 20.00     0.002 A 
HETATM    2  C2  UNL     1     -33.968   4.571   3.554  1.00 20.00     0.016 A 
HETATM    3  C3  UNL     1     -32.840   5.927   1.879  1.00 20.00     0.019 A 
HETATM    4  C4  UNL     1     -33.899   5.666   4.397  1.00 20.00     0.017 A 
HETATM    5  C5  UNL     1     -33.323   6.875   4.024  1.00 20.00    -0.026 A 
HETATM    6  C6  UNL     1     -32.786   7.016   2.755  1.00 20.00     0.018 A 
HETATM    7  C7  UNL     1     -34.378   5.793   5.764  1.00 20.00     0.160 A 
HETATM    8  C8  UNL     1     -33.373   7.900   5.111  1.00 20.00     0.048 A 
HETATM    9  C9  UNL     1     -34.076   7.181   6.275  1.00 20.00     0.088 A 
HETATM   10  O10 UNL     1     -34.936   4.904   6.381  1.00 20.00    -0.292 OA
HETATM   11 BR11 UNL     1     -31.987   8.630   2.181  1.00 20.00    -0.051 Br
ENDROOT
TORSDOF 0
ENDMDL
MODEL 4
REMARK VINA RESULT:      -4.7     12.728     13.190
REMARK  0 active torsions:
REMARK  status: ('A' for Active; 'I' for Inactive)
ROOT
HETATM    1  C1  UNL     1     -34.883  17.027  -1.835  1.00 20.00     0.002 A 
HETATM    2  C2  UNL     1     -33.554  17.354  -1.564  1.00 20.00     0.016 A 
HETATM    3  C3  UNL     1     -35.903  17.376  -0.933  1.00 20.00     0.019 A 
HETATM    4  C4  UNL     1     -33.295  18.027  -0.383  1.00 20.00     0.017 A 
HETATM    5  C5  UNL     1     -34.288  18.381   0.522  1.00 20.00    -0.026 A 
HETATM    6  C6  UNL     1     -35.608  18.056   0.253  1.00 20.00     0.018 A 
HETATM    7  C7  UNL     1     -32.018  18.483   0.142  1.00 20.00     0.160 A 
HETATM    8  C8  UNL     1     -33.753  19.099   1.718  1.00 20.00     0.048 A 
HETATM    9  C9  UNL     1     -32.237  19.171   1.468  1.00 20.00     0.088 A 
HETATM   10  O10 UNL     1     -30.949  18.323  -0.419  1.00 20.00    -0.292 OA
HETATM   11 BR11 UNL     1     -37.009  18.507   1.438  1.00 20.00    -0.051 Br
ENDROOT
TORSDOF 0
ENDMDL
MODEL 5
REMARK VINA RESULT:      -4.7     12.155     12.587
REMARK  0 active torsions:
REMARK  status: ('A' for Active; 'I' for Inactive)
ROOT
HETATM    1  C1  UNL     1     -33.463  15.646  -3.487  1.00 20.00     0.002 A 
HETATM    2  C2  UNL     1     -33.971  14.608  -4.269  1.00 20.00     0.016 A 
HETATM    3  C3  UNL     1     -34.317  16.634  -2.968  1.00 20.00     0.019 A 
HETATM    4  C4  UNL     1     -35.334  14.601  -4.504  1.00 20.00     0.017 A 
HETATM    5  C5  UNL     1     -36.196  15.567  -4.001  1.00 20.00    -0.026 A 
HETATM    6  C6  UNL     1     -35.691  16.598  -3.223  1.00 20.00     0.018 A 
HETATM    7  C7  UNL     1     -36.119  13.650  -5.275  1.00 20.00     0.160 A 
HETATM    8  C8  UNL     1     -37.619  15.338  -4.394  1.00 20.00     0.048 A 
HETATM    9  C9  UNL     1     -37.573  14.057  -5.245  1.00 20.00     0.088 A 
HETATM   10  O10 UNL     1     -35.654  12.682  -5.849  1.00 20.00    -0.292 OA
HETATM   11 BR11 UNL     1     -36.804  17.946  -2.506  1.00 20.00    -0.051 Br
ENDROOT
TORSDOF 0
ENDMDL
MODEL 6
REMARK VINA RESULT:      -4.6     12.347     12.533
REMARK  0 active torsions:
REMARK  status: ('A' for Active; 'I' for Inactive)
ROOT
HETATM    1  C1  UNL     1     -35.736  18.056   1.507  1.00 20.00     0.002 A 
HETATM    2  C2  UNL     1     -36.000  17.486   0.262  1.00 20.00     0.016 A 
HETATM    3  C3  UNL     1     -34.465  18.582   1.798  1.00 20.00     0.019 A 
HETATM    4  C4  UNL     1     -34.967  17.465  -0.657  1.00 20.00     0.017 A 
HETATM    5  C5  UNL     1     -33.703  17.978  -0.391  1.00 20.00    -0.026 A 
HETATM    6  C6  UNL     1     -33.441  18.545   0.846  1.00 20.00     0.018 A 
HETATM    7  C7  UNL     1     -34.965  16.937  -2.013  1.00 20.00     0.160 A 
HETATM    8  C8  UNL     1     -32.763  17.835  -1.544  1.00 20.00     0.048 A 
HETATM    9  C9  UNL     1     -33.603  17.141  -2.630  1.00 20.00     0.088 A 
HETATM   10  O10 UNL     1     -35.928  16.415  -2.546  1.00 20.00    -0.292 OA
HETATM   11 BR11 UNL     1     -31.747  19.263   1.278  1.00 20.00    -0.051 Br
ENDROOT
TORSDOF 0
ENDMDL
MODEL 7
REMARK VINA RESULT:      -4.6     12.416     12.865
REMARK  0 active torsions:
REMARK  status: ('A' for Active; 'I' for Inactive)
ROOT
HETATM    1  C1  UNL     1     -36.017  17.506   0.444  1.00 20.00     0.002 A 
HETATM    2  C2  UNL     1     -35.159  18.072   1.386  1.00 20.00     0.016 A 
HETATM    3  C3  UNL     1     -35.563  17.213  -0.853  1.00 20.00     0.019 A 
HETATM    4  C4  UNL     1     -33.859  18.326   0.987  1.00 20.00     0.017 A 
HETATM    5  C5  UNL     1     -33.389  18.045  -0.290  1.00 20.00    -0.026 A 
HETATM    6  C6  UNL     1     -34.242  17.482  -1.226  1.00 20.00     0.018 A 
HETATM    7  C7  UNL     1     -32.768  18.905   1.755  1.00 20.00     0.160 A 
HETATM    8  C8  UNL     1     -31.952  18.411  -0.473  1.00 20.00     0.048 A 
HETATM    9  C9  UNL     1     -31.532  18.985   0.891  1.00 20.00     0.088 A 
HETATM   10  O10 UNL     1     -32.860  19.263   2.915  1.00 20.00    -0.292 OA
HETATM   11 BR11 UNL     1     -33.671  17.072  -2.980  1.00 20.00    -0.051 Br
ENDROOT
TORSDOF 0
ENDMDL
MODEL 8
REMARK VINA RESULT:      -4.4     12.161     13.033
REMARK  0 active torsions:
REMARK  status: ('A' for Active; 'I' for Inactive)
ROOT
HETATM    1  C1  UNL     1     -38.956  15.490  -4.999  1.00 20.00     0.002 A 
HETATM    2  C2  UNL     1     -38.043  14.469  -5.264  1.00 20.00     0.016 A 
HETATM    3  C3  UNL     1     -38.572  16.616  -4.251  1.00 20.00     0.019 A 
HETATM    4  C4  UNL     1     -36.762  14.619  -4.763  1.00 20.00     0.017 A 
HETATM    5  C5  UNL     1     -36.362  15.724  -4.021  1.00 20.00    -0.026 A 
HETATM    6  C6  UNL     1     -37.269  16.738  -3.758  1.00 20.00     0.018 A 
HETATM    7  C7  UNL     1     -35.626  13.720  -4.887  1.00 20.00     0.160 A 
HETATM    8  C8  UNL     1     -34.932  15.649  -3.594  1.00 20.00     0.048 A 
HETATM    9  C9  UNL     1     -34.436  14.312  -4.171  1.00 20.00     0.088 A 
HETATM   10  O10 UNL     1     -35.654  12.657  -5.481  1.00 20.00    -0.292 OA
HETATM   11 BR11 UNL     1     -36.795  18.269  -2.757  1.00 20.00    -0.051 Br
ENDROOT
TORSDOF 0
ENDMDL
MODEL 9
REMARK VINA RESULT:      -4.4     12.602     13.433
REMARK  0 active torsions:
REMARK  status: ('A' for Active; 'I' for Inactive)
ROOT
HETATM    1  C1  UNL     1     -33.667  16.013  -3.650  1.00 20.00     0.002 A 
HETATM    2  C2  UNL     1     -34.344  14.834  -3.959  1.00 20.00     0.016 A 
HETATM    3  C3  UNL     1     -33.611  17.069  -4.576  1.00 20.00     0.019 A 
HETATM    4  C4  UNL     1     -34.948  14.756  -5.201  1.00 20.00     0.017 A 
HETATM    5  C5  UNL     1     -34.905  15.788  -6.131  1.00 20.00    -0.026 A 
HETATM    6  C6  UNL     1     -34.233  16.960  -5.824  1.00 20.00     0.018 A 
HETATM    7  C7  UNL     1     -35.709  13.658  -5.776  1.00 20.00     0.160 A 
HETATM    8  C8  UNL     1     -35.632  15.460  -7.395  1.00 20.00     0.048 A 
HETATM    9  C9  UNL     1     -36.172  14.039  -7.162  1.00 20.00     0.088 A 
HETATM   10  O10 UNL     1     -35.926  12.603  -5.208  1.00 20.00    -0.292 OA
HETATM   11 BR11 UNL     1     -34.134  18.404  -7.040  1.00 20.00    -0.051 Br
ENDROOT
TORSDOF 0
ENDMDL
