MODEL 1
REMARK VINA RESULT:      -4.6      0.000      0.000
REMARK  1 active torsions:
REMARK  status: ('A' for Active; 'I' for Inactive)
REMARK    1  A    between atoms: C1_1  and  C2_2 
ROOT
HETATM    1  C1  UNL     1     -33.569   6.783   4.096  1.00 20.00    -0.005 C 
HETATM    2  C3  UNL     1     -34.336   5.689   4.209  1.00 20.00    -0.031 C 
HETATM    3  C5  UNL     1     -34.693   5.060   5.516  1.00 20.00     0.036 C 
ENDROOT
BRANCH   1   4
HETATM    4  C2  UNL     1     -33.229   7.383   2.825  1.00 20.00    -0.005 C 
HETATM    5  C4  UNL     1     -32.108   8.090   2.624  1.00 20.00    -0.031 C 
HETATM    6  C6  UNL     1     -31.746   8.715   1.317  1.00 20.00     0.036 C 
ENDBRANCH   1   4
TORSDOF 1
ENDMDL
MODEL 2
REMARK VINA RESULT:      -4.6      0.083      4.277
REMARK  1 active torsions:
REMARK  status: ('A' for Active; 'I' for Inactive)
REMARK    1  A    between atoms: C1_1  and  C2_2 
ROOT
HETATM    1  C1  UNL     1     -33.271   7.449   2.902  1.00 20.00    -0.005 C 
HETATM    2  C3  UNL     1     -32.105   8.063   2.652  1.00 20.00    -0.031 C 
HETATM    3  C5  UNL     1     -31.768   8.698   1.344  1.00 20.00     0.036 C 
ENDROOT
BRANCH   1   4
HETATM    4  C2  UNL     1     -33.586   6.836   4.172  1.00 20.00    -0.005 C 
HETATM    5  C4  UNL     1     -34.352   5.742   4.289  1.00 20.00    -0.031 C 
HETATM    6  C6  UNL     1     -34.686   5.100   5.596  1.00 20.00     0.036 C 
ENDBRANCH   1   4
TORSDOF 1
ENDMDL
MODEL 3
REMARK VINA RESULT:      -4.3      1.138      1.776
REMARK  1 active torsions:
REMARK  status: ('A' for Active; 'I' for Inactive)
REMARK    1  A    between atoms: C1_1  and  C2_2 
ROOT
HETATM    1  C1  UNL     1     -32.329   7.412   3.218  1.00 20.00    -0.005 C 
HETATM    2  C3  UNL     1     -33.502   7.530   3.856  1.00 20.00    -0.031 C 
HETATM    3  C5  UNL     1     -33.932   6.633   4.970  1.00 20.00     0.036 C 
ENDROOT
BRANCH   1   4
HETATM    4  C2  UNL     1     -31.923   8.286   2.140  1.00 20.00    -0.005 C 
HETATM    5  C4  UNL     1     -32.751   9.162   1.554  1.00 20.00    -0.031 C 
HETATM    6  C6  UNL     1     -32.344  10.069   0.440  1.00 20.00     0.036 C 
ENDBRANCH   1   4
TORSDOF 1
ENDMDL
MODEL 4
REMARK VINA RESULT:      -3.3     11.359     11.683
REMARK  1 active torsions:
REMARK  status: ('A' for Active; 'I' for Inactive)
REMARK    1  A    between atoms: C1_1  and  C2_2 
ROOT
HETATM    1  C1  UNL     1     -35.019  16.583  -2.147  1.00 20.00    -0.005 C 
HETATM    2  C3  UNL     1     -34.441  15.898  -3.144  1.00 20.00    -0.031 C 
HETATM    3  C5  UNL     1     -35.203  15.112  -4.160  1.00 20.00     0.036 C 
ENDROOT
BRANCH   1   4
HETATM    4  C2  UNL     1     -34.270  17.339  -1.169  1.00 20.00    -0.005 C 
HETATM    5  C4  UNL     1     -33.038  17.816  -1.397  1.00 20.00    -0.031 C 
HETATM    6  C6  UNL     1     -32.254  18.599  -0.395  1.00 20.00     0.036 C 
ENDBRANCH   1   4
TORSDOF 1
ENDMDL
MODEL 5
REMARK VINA RESULT:      -3.3     11.366     11.831
REMARK  1 active torsions:
REMARK  status: ('A' for Active; 'I' for Inactive)
REMARK    1  A    between atoms: C1_1  and  C2_2 
ROOT
HETATM    1  C1  UNL     1     -34.268  17.323  -1.173  1.00 20.00    -0.005 C 
HETATM    2  C3  UNL     1     -33.048  17.822  -1.418  1.00 20.00    -0.031 C 
HETATM    3  C5  UNL     1     -32.262  18.613  -0.425  1.00 20.00     0.036 C 
ENDROOT
BRANCH   1   4
HETATM    4  C2  UNL     1     -35.020  16.559  -2.143  1.00 20.00    -0.005 C 
HETATM    5  C4  UNL     1     -34.448  15.902  -3.162  1.00 20.00    -0.031 C 
HETATM    6  C6  UNL     1     -35.214  15.111  -4.171  1.00 20.00     0.036 C 
ENDBRANCH   1   4
TORSDOF 1
ENDMDL
MODEL 6
REMARK VINA RESULT:      -3.2     11.033     11.600
REMARK  1 active torsions:
REMARK  status: ('A' for Active; 'I' for Inactive)
REMARK    1  A    between atoms: C1_1  and  C2_2 
ROOT
HETATM    1  C1  UNL     1     -33.848  16.273  -3.084  1.00 20.00    -0.005 C 
HETATM    2  C3  UNL     1     -34.025  17.034  -1.994  1.00 20.00    -0.031 C 
HETATM    3  C5  UNL     1     -32.940  17.842  -1.363  1.00 20.00     0.036 C 
ENDROOT
BRANCH   1   4
HETATM    4  C2  UNL     1     -34.907  15.495  -3.686  1.00 20.00    -0.005 C 
HETATM    5  C4  UNL     1     -34.689  14.351  -4.351  1.00 20.00    -0.031 C 
HETATM    6  C6  UNL     1     -35.774  13.538  -4.979  1.00 20.00     0.036 C 
ENDBRANCH   1   4
TORSDOF 1
ENDMDL
MODEL 7
REMARK VINA RESULT:      -3.2     11.063     11.419
REMARK  1 active torsions:
REMARK  status: ('A' for Active; 'I' for Inactive)
REMARK    1  A    between atoms: C1_1  and  C2_2 
ROOT
HETATM    1  C1  UNL     1     -34.890  15.462  -3.711  1.00 20.00    -0.005 C 
HETATM    2  C3  UNL     1     -34.661  14.345  -4.416  1.00 20.00    -0.031 C 
HETATM    3  C5  UNL     1     -35.742  13.516  -5.027  1.00 20.00     0.036 C 
ENDROOT
BRANCH   1   4
HETATM    4  C2  UNL     1     -33.835  16.257  -3.123  1.00 20.00    -0.005 C 
HETATM    5  C4  UNL     1     -34.006  17.006  -2.024  1.00 20.00    -0.031 C 
HETATM    6  C6  UNL     1     -32.925  17.832  -1.408  1.00 20.00     0.036 C 
ENDBRANCH   1   4
TORSDOF 1
ENDMDL
MODEL 8
REMARK VINA RESULT:      -3.2     11.215     11.384
REMARK  1 active torsions:
REMARK  status: ('A' for Active; 'I' for Inactive)
REMARK    1  A    between atoms: C1_1  and  C2_2 
ROOT
HETATM    1  C1  UNL     1     -34.083  17.156  -1.708  1.00 20.00    -0.005 C 
HETATM    2  C3  UNL     1     -35.251  16.935  -1.089  1.00 20.00    -0.031 C 
HETATM    3  C5  UNL     1     -35.653  17.602   0.185  1.00 20.00     0.036 C 
ENDROOT
BRANCH   1   4
HETATM    4  C2  UNL     1     -33.705  16.504  -2.941  1.00 20.00    -0.005 C 
HETATM    5  C4  UNL     1     -34.414  15.509  -3.493  1.00 20.00    -0.031 C 
HETATM    6  C6  UNL     1     -34.034  14.827  -4.766  1.00 20.00     0.036 C 
ENDBRANCH   1   4
TORSDOF 1
ENDMDL
MODEL 9
REMARK VINA RESULT:      -3.2     11.383     11.539
REMARK  1 active torsions:
REMARK  status: ('A' for Active; 'I' for Inactive)
REMARK    1  A    between atoms: C1_1  and  C2_2 
ROOT
HETATM    1  C1  UNL     1     -35.129  16.705  -1.785  1.00 20.00    -0.005 C 
HETATM    2  C3  UNL     1     -34.237  17.403  -1.068  1.00 20.00    -0.031 C 
HETATM    3  C5  UNL     1     -34.566  18.099   0.211  1.00 20.00     0.036 C 
ENDROOT
BRANCH   1   4
HETATM    4  C2  UNL     1     -34.799  16.035  -3.023  1.00 20.00    -0.005 C 
HETATM    5  C4  UNL     1     -33.574  16.063  -3.568  1.00 20.00    -0.031 C 
HETATM    6  C6  UNL     1     -33.221  15.377  -4.847  1.00 20.00     0.036 C 
ENDBRANCH   1   4
TORSDOF 1
ENDMDL
