MODEL 1
REMARK VINA RESULT:      -3.8      0.000      0.000
REMARK  0 active torsions:
REMARK  status: ('A' for Active; 'I' for Inactive)
ROOT
HETATM    1  C1  UNL     1     -33.086   7.259   3.519  1.00 20.00     0.111 C 
HETATM    2  C2  UNL     1     -33.760   7.250   5.833  1.00 20.00     0.049 C 
HETATM    3  C3  UNL     1     -33.915   6.811   4.580  1.00 20.00     0.104 C 
HETATM    4  N4  UNL     1     -32.409   7.624   2.651  1.00 20.00    -0.190 NA
HETATM    5 CL5  UNL     1     -35.149   5.668   4.192  1.00 20.00    -0.073 Cl
ENDROOT
TORSDOF 0
ENDMDL
MODEL 2
REMARK VINA RESULT:      -3.7      1.431      1.694
REMARK  0 active torsions:
REMARK  status: ('A' for Active; 'I' for Inactive)
ROOT
HETATM    1  C1  UNL     1     -33.181   7.182   3.374  1.00 20.00     0.111 C 
HETATM    2  C2  UNL     1     -34.910   5.691   4.143  1.00 20.00     0.049 C 
HETATM    3  C3  UNL     1     -34.008   6.645   4.393  1.00 20.00     0.104 C 
HETATM    4  N4  UNL     1     -32.503   7.623   2.541  1.00 20.00    -0.190 NA
HETATM    5 CL5  UNL     1     -33.807   7.273   5.989  1.00 20.00    -0.073 Cl
ENDROOT
TORSDOF 0
ENDMDL
MODEL 3
REMARK VINA RESULT:      -3.6      2.455      2.618
REMARK  0 active torsions:
REMARK  status: ('A' for Active; 'I' for Inactive)
ROOT
HETATM    1  C1  UNL     1     -34.354   5.298   4.590  1.00 20.00     0.111 C 
HETATM    2  C2  UNL     1     -33.834   7.268   5.877  1.00 20.00     0.049 C 
HETATM    3  C3  UNL     1     -33.885   6.632   4.703  1.00 20.00     0.104 C 
HETATM    4  N4  UNL     1     -34.737   4.206   4.497  1.00 20.00    -0.190 NA
HETATM    5 CL5  UNL     1     -33.374   7.416   3.252  1.00 20.00    -0.073 Cl
ENDROOT
TORSDOF 0
ENDMDL
MODEL 4
REMARK VINA RESULT:      -3.6      2.511      2.877
REMARK  0 active torsions:
REMARK  status: ('A' for Active; 'I' for Inactive)
ROOT
HETATM    1  C1  UNL     1     -34.310   5.221   4.455  1.00 20.00     0.111 C 
HETATM    2  C2  UNL     1     -33.488   7.199   3.351  1.00 20.00     0.049 C 
HETATM    3  C3  UNL     1     -33.864   6.568   4.468  1.00 20.00     0.104 C 
HETATM    4  N4  UNL     1     -34.675   4.119   4.446  1.00 20.00    -0.190 NA
HETATM    5 CL5  UNL     1     -33.824   7.374   5.993  1.00 20.00    -0.073 Cl
ENDROOT
TORSDOF 0
ENDMDL
MODEL 5
REMARK VINA RESULT:      -3.5      2.289      2.610
REMARK  0 active torsions:
REMARK  status: ('A' for Active; 'I' for Inactive)
ROOT
HETATM    1  C1  UNL     1     -34.002   6.607   5.232  1.00 20.00     0.111 C 
HETATM    2  C2  UNL     1     -34.553   4.352   4.585  1.00 20.00     0.049 C 
HETATM    3  C3  UNL     1     -34.194   5.597   4.255  1.00 20.00     0.104 C 
HETATM    4  N4  UNL     1     -33.843   7.435   6.031  1.00 20.00    -0.190 NA
HETATM    5 CL5  UNL     1     -33.949   6.036   2.604  1.00 20.00    -0.073 Cl
ENDROOT
TORSDOF 0
ENDMDL
MODEL 6
REMARK VINA RESULT:      -3.5      2.003      2.512
REMARK  0 active torsions:
REMARK  status: ('A' for Active; 'I' for Inactive)
ROOT
HETATM    1  C1  UNL     1     -33.926   6.693   5.096  1.00 20.00     0.111 C 
HETATM    2  C2  UNL     1     -33.850   6.090   2.765  1.00 20.00     0.049 C 
HETATM    3  C3  UNL     1     -34.054   5.753   4.042  1.00 20.00     0.104 C 
HETATM    4  N4  UNL     1     -33.821   7.461   5.960  1.00 20.00    -0.190 NA
HETATM    5 CL5  UNL     1     -34.485   4.137   4.470  1.00 20.00    -0.073 Cl
ENDROOT
TORSDOF 0
ENDMDL
MODEL 7
REMARK VINA RESULT:      -3.4      2.583      2.998
REMARK  0 active torsions:
REMARK  status: ('A' for Active; 'I' for Inactive)
ROOT
HETATM    1  C1  UNL     1     -33.575   7.139   4.868  1.00 20.00     0.111 C 
HETATM    2  C2  UNL     1     -33.782   5.971   2.771  1.00 20.00     0.049 C 
HETATM    3  C3  UNL     1     -33.226   6.937   3.508  1.00 20.00     0.104 C 
HETATM    4  N4  UNL     1     -33.859   7.305   5.981  1.00 20.00    -0.190 NA
HETATM    5 CL5  UNL     1     -32.046   7.997   2.827  1.00 20.00    -0.073 Cl
ENDROOT
TORSDOF 0
ENDMDL
MODEL 8
REMARK VINA RESULT:      -3.4      1.974      2.552
REMARK  0 active torsions:
REMARK  status: ('A' for Active; 'I' for Inactive)
ROOT
HETATM    1  C1  UNL     1     -33.495   7.198   4.868  1.00 20.00     0.111 C 
HETATM    2  C2  UNL     1     -32.229   7.891   2.938  1.00 20.00     0.049 C 
HETATM    3  C3  UNL     1     -33.083   7.043   3.519  1.00 20.00     0.104 C 
HETATM    4  N4  UNL     1     -33.833   7.324   5.971  1.00 20.00    -0.190 NA
HETATM    5 CL5  UNL     1     -33.728   5.702   2.644  1.00 20.00    -0.073 Cl
ENDROOT
TORSDOF 0
ENDMDL
MODEL 9
REMARK VINA RESULT:      -3.2      3.849      4.447
REMARK  0 active torsions:
REMARK  status: ('A' for Active; 'I' for Inactive)
ROOT
HETATM    1  C1  UNL     1     -32.442   8.466   1.934  1.00 20.00     0.111 C 
HETATM    2  C2  UNL     1     -32.554  10.820   1.432  1.00 20.00     0.049 C 
HETATM    3  C3  UNL     1     -32.660   9.546   1.041  1.00 20.00     0.104 C 
HETATM    4  N4  UNL     1     -32.263   7.581   2.664  1.00 20.00    -0.190 NA
HETATM    5 CL5  UNL     1     -33.072   9.155  -0.589  1.00 20.00    -0.073 Cl
ENDROOT
TORSDOF 0
ENDMDL
