MODEL 1
REMARK VINA RESULT:      -6.2      0.000      0.000
REMARK  1 active torsions:
REMARK  status: ('A' for Active; 'I' for Inactive)
REMARK    1  A    between atoms: C4_4  and  C9_9 
ROOT
HETATM    1  C1  UNL     1     -34.421   4.659   5.362  1.00 20.00    -0.025 C 
HETATM    2  C2  UNL     1     -33.987   4.234   4.165  1.00 20.00    -0.025 C 
HETATM    3  C5  UNL     1     -35.400   6.017   3.772  1.00 20.00     0.017 C 
HETATM    4  C6  UNL     1     -33.582   6.957   4.976  1.00 20.00     0.017 C 
HETATM    5  C7  UNL     1     -34.850   6.100   5.196  1.00 20.00     0.009 C 
HETATM    6  C8  UNL     1     -34.113   5.397   3.207  1.00 20.00     0.016 C 
HETATM    7  C9  UNL     1     -33.046   6.435   3.617  1.00 20.00     0.015 C 
ENDROOT
BRANCH   7   8
HETATM    8  C4  UNL     1     -32.888   7.529   2.608  1.00 20.00    -0.031 C 
HETATM    9  C3  UNL     1     -31.859   8.382   2.583  1.00 20.00     0.007 C 
ENDBRANCH   7   8
TORSDOF 1
ENDMDL
MODEL 2
REMARK VINA RESULT:      -4.6      1.029      3.503
REMARK  1 active torsions:
REMARK  status: ('A' for Active; 'I' for Inactive)
REMARK    1  A    between atoms: C4_4  and  C9_9 
ROOT
HETATM    1  C1  UNL     1     -32.507   8.446   2.602  1.00 20.00    -0.025 C 
HETATM    2  C2  UNL     1     -33.475   7.868   1.873  1.00 20.00    -0.025 C 
HETATM    3  C5  UNL     1     -32.318   6.167   2.922  1.00 20.00     0.017 C 
HETATM    4  C6  UNL     1     -33.301   7.396   4.699  1.00 20.00     0.017 C 
HETATM    5  C7  UNL     1     -32.129   7.473   3.695  1.00 20.00     0.009 C 
HETATM    6  C8  UNL     1     -33.751   6.516   2.493  1.00 20.00     0.016 C 
HETATM    7  C9  UNL     1     -34.441   6.776   3.849  1.00 20.00     0.015 C 
ENDROOT
BRANCH   7   8
HETATM    8  C4  UNL     1     -34.995   5.528   4.463  1.00 20.00    -0.031 C 
HETATM    9  C3  UNL     1     -34.602   5.034   5.641  1.00 20.00     0.007 C 
ENDBRANCH   7   8
TORSDOF 1
ENDMDL
MODEL 3
REMARK VINA RESULT:      -4.5      0.930      1.795
REMARK  1 active torsions:
REMARK  status: ('A' for Active; 'I' for Inactive)
REMARK    1  A    between atoms: C4_4  and  C9_9 
ROOT
HETATM    1  C1  UNL     1     -35.151   4.929   4.122  1.00 20.00    -0.025 C 
HETATM    2  C2  UNL     1     -35.520   6.187   3.832  1.00 20.00    -0.025 C 
HETATM    3  C5  UNL     1     -33.621   6.330   5.138  1.00 20.00     0.017 C 
HETATM    4  C6  UNL     1     -32.893   5.248   3.154  1.00 20.00     0.017 C 
HETATM    5  C7  UNL     1     -33.677   4.962   4.456  1.00 20.00     0.009 C 
HETATM    6  C8  UNL     1     -34.286   7.053   3.958  1.00 20.00     0.016 C 
HETATM    7  C9  UNL     1     -33.354   6.682   2.784  1.00 20.00     0.015 C 
ENDROOT
BRANCH   7   8
HETATM    8  C4  UNL     1     -32.205   7.630   2.637  1.00 20.00    -0.031 C 
HETATM    9  C3  UNL     1     -32.159   8.617   1.737  1.00 20.00     0.007 C 
ENDBRANCH   7   8
TORSDOF 1
ENDMDL
MODEL 4
REMARK VINA RESULT:      -4.3      1.143      2.365
REMARK  1 active torsions:
REMARK  status: ('A' for Active; 'I' for Inactive)
REMARK    1  A    between atoms: C4_4  and  C9_9 
ROOT
HETATM    1  C1  UNL     1     -34.802   6.059   3.994  1.00 20.00    -0.025 C 
HETATM    2  C2  UNL     1     -33.956   6.846   4.678  1.00 20.00    -0.025 C 
HETATM    3  C5  UNL     1     -32.683   5.629   3.185  1.00 20.00     0.017 C 
HETATM    4  C6  UNL     1     -34.074   6.977   1.813  1.00 20.00     0.017 C 
HETATM    5  C7  UNL     1     -34.127   5.704   2.689  1.00 20.00     0.009 C 
HETATM    6  C8  UNL     1     -32.725   7.027   3.818  1.00 20.00     0.016 C 
HETATM    7  C9  UNL     1     -33.138   7.912   2.622  1.00 20.00     0.015 C 
ENDROOT
BRANCH   7   8
HETATM    8  C4  UNL     1     -31.965   8.380   1.819  1.00 20.00    -0.031 C 
HETATM    9  C3  UNL     1     -32.034   9.315   0.866  1.00 20.00     0.007 C 
ENDBRANCH   7   8
TORSDOF 1
ENDMDL
MODEL 5
REMARK VINA RESULT:      -4.2      0.991      3.639
REMARK  1 active torsions:
REMARK  status: ('A' for Active; 'I' for Inactive)
REMARK    1  A    between atoms: C4_4  and  C9_9 
ROOT
HETATM    1  C1  UNL     1     -31.795   8.014   2.739  1.00 20.00    -0.025 C 
HETATM    2  C2  UNL     1     -31.942   7.958   4.072  1.00 20.00    -0.025 C 
HETATM    3  C5  UNL     1     -34.065   7.978   3.163  1.00 20.00     0.017 C 
HETATM    4  C6  UNL     1     -33.111   5.944   2.394  1.00 20.00     0.017 C 
HETATM    5  C7  UNL     1     -33.064   7.466   2.126  1.00 20.00     0.009 C 
HETATM    6  C8  UNL     1     -33.303   7.359   4.345  1.00 20.00     0.016 C 
HETATM    7  C9  UNL     1     -33.229   5.871   3.939  1.00 20.00     0.015 C 
ENDROOT
BRANCH   7   8
HETATM    8  C4  UNL     1     -34.427   5.091   4.383  1.00 20.00    -0.031 C 
HETATM    9  C3  UNL     1     -34.784   4.930   5.661  1.00 20.00     0.007 C 
ENDBRANCH   7   8
TORSDOF 1
ENDMDL
MODEL 6
REMARK VINA RESULT:      -4.2      1.248      2.208
REMARK  1 active torsions:
REMARK  status: ('A' for Active; 'I' for Inactive)
REMARK    1  A    between atoms: C4_4  and  C9_9 
ROOT
HETATM    1  C1  UNL     1     -34.347   6.489   5.887  1.00 20.00    -0.025 C 
HETATM    2  C2  UNL     1     -34.360   5.157   5.722  1.00 20.00    -0.025 C 
HETATM    3  C5  UNL     1     -35.408   6.072   3.879  1.00 20.00     0.017 C 
HETATM    4  C6  UNL     1     -33.172   6.858   3.739  1.00 20.00     0.017 C 
HETATM    5  C7  UNL     1     -34.484   7.111   4.516  1.00 20.00     0.009 C 
HETATM    6  C8  UNL     1     -34.490   4.895   4.238  1.00 20.00     0.016 C 
HETATM    7  C9  UNL     1     -33.154   5.314   3.589  1.00 20.00     0.015 C 
ENDROOT
BRANCH   7   8
HETATM    8  C4  UNL     1     -33.047   4.882   2.160  1.00 20.00    -0.031 C 
HETATM    9  C3  UNL     1     -32.646   3.667   1.773  1.00 20.00     0.007 C 
ENDBRANCH   7   8
TORSDOF 1
ENDMDL
MODEL 7
REMARK VINA RESULT:      -4.1     11.748     12.787
REMARK  1 active torsions:
REMARK  status: ('A' for Active; 'I' for Inactive)
REMARK    1  A    between atoms: C4_4  and  C9_9 
ROOT
HETATM    1  C1  UNL     1     -34.054  14.852  -6.302  1.00 20.00    -0.025 C 
HETATM    2  C2  UNL     1     -34.937  14.275  -5.471  1.00 20.00    -0.025 C 
HETATM    3  C5  UNL     1     -32.963  14.509  -4.297  1.00 20.00     0.017 C 
HETATM    4  C6  UNL     1     -33.649  16.737  -4.748  1.00 20.00     0.017 C 
HETATM    5  C7  UNL     1     -33.002  15.518  -5.445  1.00 20.00     0.009 C 
HETATM    6  C8  UNL     1     -34.479  14.572  -4.060  1.00 20.00     0.016 C 
HETATM    7  C9  UNL     1     -34.707  16.080  -3.822  1.00 20.00     0.015 C 
ENDROOT
BRANCH   7   8
HETATM    8  C4  UNL     1     -34.530  16.471  -2.388  1.00 20.00    -0.031 C 
HETATM    9  C3  UNL     1     -33.557  17.273  -1.945  1.00 20.00     0.007 C 
ENDBRANCH   7   8
TORSDOF 1
ENDMDL
MODEL 8
REMARK VINA RESULT:      -4.0     11.729     12.594
REMARK  1 active torsions:
REMARK  status: ('A' for Active; 'I' for Inactive)
REMARK    1  A    between atoms: C4_4  and  C9_9 
ROOT
HETATM    1  C1  UNL     1     -34.846  14.235  -4.319  1.00 20.00    -0.025 C 
HETATM    2  C2  UNL     1     -33.540  14.517  -4.440  1.00 20.00    -0.025 C 
HETATM    3  C5  UNL     1     -34.696  16.433  -5.009  1.00 20.00     0.017 C 
HETATM    4  C6  UNL     1     -35.215  16.088  -2.718  1.00 20.00     0.017 C 
HETATM    5  C7  UNL     1     -35.571  15.546  -4.122  1.00 20.00     0.009 C 
HETATM    6  C8  UNL     1     -33.395  16.017  -4.307  1.00 20.00     0.016 C 
HETATM    7  C9  UNL     1     -33.694  16.369  -2.834  1.00 20.00     0.015 C 
ENDROOT
BRANCH   7   8
HETATM    8  C4  UNL     1     -33.349  17.786  -2.498  1.00 20.00    -0.031 C 
HETATM    9  C3  UNL     1     -32.782  18.167  -1.350  1.00 20.00     0.007 C 
ENDBRANCH   7   8
TORSDOF 1
ENDMDL
MODEL 9
REMARK VINA RESULT:      -4.0     11.659     13.131
REMARK  1 active torsions:
REMARK  status: ('A' for Active; 'I' for Inactive)
REMARK    1  A    between atoms: C4_4  and  C9_9 
ROOT
HETATM    1  C1  UNL     1     -34.518  15.808  -3.239  1.00 20.00    -0.025 C 
HETATM    2  C2  UNL     1     -33.671  16.622  -3.889  1.00 20.00    -0.025 C 
HETATM    3  C5  UNL     1     -33.073  14.459  -4.431  1.00 20.00     0.017 C 
HETATM    4  C6  UNL     1     -35.254  14.713  -5.334  1.00 20.00     0.017 C 
HETATM    5  C7  UNL     1     -34.535  14.493  -3.983  1.00 20.00     0.009 C 
HETATM    6  C8  UNL     1     -33.137  15.851  -5.076  1.00 20.00     0.016 C 
HETATM    7  C9  UNL     1     -34.306  15.694  -6.072  1.00 20.00     0.015 C 
ENDROOT
BRANCH   7   8
HETATM    8  C4  UNL     1     -33.863  15.167  -7.402  1.00 20.00    -0.031 C 
HETATM    9  C3  UNL     1     -34.265  14.001  -7.917  1.00 20.00     0.007 C 
ENDBRANCH   7   8
TORSDOF 1
ENDMDL
