MODEL 1
REMARK VINA RESULT:      -4.9      0.000      0.000
REMARK  1 active torsions:
REMARK  status: ('A' for Active; 'I' for Inactive)
REMARK    1  A    between atoms: C1_1  and  C4_4 
REMARK       I    between atoms: C1_1  and  N5_5 
ROOT
HETATM    1  C1  UNL     1     -33.787   6.891   4.795  1.00 20.00     0.326 C 
HETATM    2  C2  UNL     1     -33.391   7.009   2.292  1.00 20.00     0.152 C 
HETATM    3  C3  UNL     1     -31.804   8.029   3.877  1.00 20.00     0.152 C 
HETATM    4  N5  UNL     1     -33.041   7.283   3.684  1.00 20.00    -0.353 N 
HETATM    5  O6  UNL     1     -33.820   7.518   5.858  1.00 20.00    -0.263 OA
ENDROOT
BRANCH   1   6
HETATM    6  C4  UNL     1     -34.592   5.625   4.671  1.00 20.00     0.472 C 
HETATM    7  F7  UNL     1     -35.735   5.807   3.963  1.00 20.00    -0.162 F 
HETATM    8  F8  UNL     1     -33.897   4.625   4.075  1.00 20.00    -0.162 F 
HETATM    9  F9  UNL     1     -34.971   5.152   5.889  1.00 20.00    -0.162 F 
ENDBRANCH   1   6
TORSDOF 1
ENDMDL
MODEL 2
REMARK VINA RESULT:      -4.9      1.653      2.242
REMARK  1 active torsions:
REMARK  status: ('A' for Active; 'I' for Inactive)
REMARK    1  A    between atoms: C1_1  and  C4_4 
REMARK       I    between atoms: C1_1  and  N5_5 
ROOT
HETATM    1  C1  UNL     1     -33.518   5.709   3.517  1.00 20.00     0.326 C 
HETATM    2  C2  UNL     1     -33.159   7.717   5.027  1.00 20.00     0.152 C 
HETATM    3  C3  UNL     1     -32.565   7.804   2.638  1.00 20.00     0.152 C 
HETATM    4  N5  UNL     1     -33.104   7.022   3.743  1.00 20.00    -0.353 N 
HETATM    5  O6  UNL     1     -33.023   4.969   2.662  1.00 20.00    -0.263 OA
ENDROOT
BRANCH   1   6
HETATM    6  C4  UNL     1     -34.635   5.183   4.377  1.00 20.00     0.472 C 
HETATM    7  F7  UNL     1     -34.432   5.428   5.696  1.00 20.00    -0.162 F 
HETATM    8  F8  UNL     1     -35.839   5.712   4.044  1.00 20.00    -0.162 F 
HETATM    9  F9  UNL     1     -34.766   3.835   4.257  1.00 20.00    -0.162 F 
ENDBRANCH   1   6
TORSDOF 1
ENDMDL
MODEL 3
REMARK VINA RESULT:      -4.2      2.752      3.557
REMARK  1 active torsions:
REMARK  status: ('A' for Active; 'I' for Inactive)
REMARK    1  A    between atoms: C1_1  and  C4_4 
REMARK       I    between atoms: C1_1  and  N5_5 
ROOT
HETATM    1  C1  UNL     1     -33.891   6.456   3.622  1.00 20.00     0.326 C 
HETATM    2  C2  UNL     1     -33.872   7.351   5.996  1.00 20.00     0.152 C 
HETATM    3  C3  UNL     1     -34.567   5.037   5.518  1.00 20.00     0.152 C 
HETATM    4  N5  UNL     1     -34.095   6.312   4.994  1.00 20.00    -0.353 N 
HETATM    5  O6  UNL     1     -34.533   5.845   2.762  1.00 20.00    -0.263 OA
ENDROOT
BRANCH   1   6
HETATM    6  C4  UNL     1     -32.822   7.421   3.183  1.00 20.00     0.472 C 
HETATM    7  F7  UNL     1     -33.336   8.567   2.671  1.00 20.00    -0.162 F 
HETATM    8  F8  UNL     1     -31.987   7.764   4.196  1.00 20.00    -0.162 F 
HETATM    9  F9  UNL     1     -32.038   6.887   2.208  1.00 20.00    -0.162 F 
ENDBRANCH   1   6
TORSDOF 1
ENDMDL
MODEL 4
REMARK VINA RESULT:      -4.1      1.849      2.910
REMARK  1 active torsions:
REMARK  status: ('A' for Active; 'I' for Inactive)
REMARK    1  A    between atoms: C1_1  and  C4_4 
REMARK       I    between atoms: C1_1  and  N5_5 
ROOT
HETATM    1  C1  UNL     1     -33.333   6.780   3.984  1.00 20.00     0.326 C 
HETATM    2  C2  UNL     1     -34.502   5.239   5.627  1.00 20.00     0.152 C 
HETATM    3  C3  UNL     1     -33.895   7.542   6.259  1.00 20.00     0.152 C 
HETATM    4  N5  UNL     1     -33.894   6.507   5.232  1.00 20.00    -0.353 N 
HETATM    5  O6  UNL     1     -32.402   7.570   3.806  1.00 20.00    -0.263 OA
ENDROOT
BRANCH   1   6
HETATM    6  C4  UNL     1     -33.913   6.057   2.798  1.00 20.00     0.472 C 
HETATM    7  F7  UNL     1     -33.398   4.811   2.649  1.00 20.00    -0.162 F 
HETATM    8  F8  UNL     1     -35.262   5.936   2.874  1.00 20.00    -0.162 F 
HETATM    9  F9  UNL     1     -33.654   6.716   1.637  1.00 20.00    -0.162 F 
ENDBRANCH   1   6
TORSDOF 1
ENDMDL
MODEL 5
REMARK VINA RESULT:      -4.1      1.843      2.648
REMARK  1 active torsions:
REMARK  status: ('A' for Active; 'I' for Inactive)
REMARK    1  A    between atoms: C1_1  and  C4_4 
REMARK       I    between atoms: C1_1  and  N5_5 
ROOT
HETATM    1  C1  UNL     1     -33.334   6.774   3.973  1.00 20.00     0.326 C 
HETATM    2  C2  UNL     1     -34.507   5.240   5.618  1.00 20.00     0.152 C 
HETATM    3  C3  UNL     1     -33.894   7.542   6.246  1.00 20.00     0.152 C 
HETATM    4  N5  UNL     1     -33.895   6.506   5.221  1.00 20.00    -0.353 N 
HETATM    5  O6  UNL     1     -32.399   7.561   3.793  1.00 20.00    -0.263 OA
ENDROOT
BRANCH   1   6
HETATM    6  C4  UNL     1     -33.915   6.051   2.788  1.00 20.00     0.472 C 
HETATM    7  F7  UNL     1     -33.687   6.703   1.620  1.00 20.00    -0.162 F 
HETATM    8  F8  UNL     1     -33.423   4.794   2.656  1.00 20.00    -0.162 F 
HETATM    9  F9  UNL     1     -35.265   5.923   2.894  1.00 20.00    -0.162 F 
ENDBRANCH   1   6
TORSDOF 1
ENDMDL
MODEL 6
REMARK VINA RESULT:      -3.9      2.689      3.438
REMARK  1 active torsions:
REMARK  status: ('A' for Active; 'I' for Inactive)
REMARK    1  A    between atoms: C1_1  and  C4_4 
REMARK       I    between atoms: C1_1  and  N5_5 
ROOT
HETATM    1  C1  UNL     1     -33.204   7.096   4.182  1.00 20.00     0.326 C 
HETATM    2  C2  UNL     1     -33.354   5.023   2.726  1.00 20.00     0.152 C 
HETATM    3  C3  UNL     1     -35.112   5.549   4.370  1.00 20.00     0.152 C 
HETATM    4  N5  UNL     1     -33.845   5.932   3.759  1.00 20.00    -0.353 N 
HETATM    5  O6  UNL     1     -33.290   7.553   5.325  1.00 20.00    -0.263 OA
ENDROOT
BRANCH   1   6
HETATM    6  C4  UNL     1     -32.362   7.823   3.168  1.00 20.00     0.472 C 
HETATM    7  F7  UNL     1     -31.690   6.975   2.349  1.00 20.00    -0.162 F 
HETATM    8  F8  UNL     1     -33.095   8.653   2.384  1.00 20.00    -0.162 F 
HETATM    9  F9  UNL     1     -31.419   8.599   3.766  1.00 20.00    -0.162 F 
ENDBRANCH   1   6
TORSDOF 1
ENDMDL
MODEL 7
REMARK VINA RESULT:      -3.9      1.814      2.390
REMARK  1 active torsions:
REMARK  status: ('A' for Active; 'I' for Inactive)
REMARK    1  A    between atoms: C1_1  and  C4_4 
REMARK       I    between atoms: C1_1  and  N5_5 
ROOT
HETATM    1  C1  UNL     1     -33.563   6.567   3.263  1.00 20.00     0.326 C 
HETATM    2  C2  UNL     1     -31.838   8.175   4.201  1.00 20.00     0.152 C 
HETATM    3  C3  UNL     1     -32.472   8.239   1.821  1.00 20.00     0.152 C 
HETATM    4  N5  UNL     1     -32.655   7.617   3.126  1.00 20.00    -0.353 N 
HETATM    5  O6  UNL     1     -33.837   5.771   2.361  1.00 20.00    -0.263 OA
ENDROOT
BRANCH   1   6
HETATM    6  C4  UNL     1     -34.236   6.412   4.601  1.00 20.00     0.472 C 
HETATM    7  F7  UNL     1     -33.568   5.564   5.422  1.00 20.00    -0.162 F 
HETATM    8  F8  UNL     1     -34.369   7.593   5.254  1.00 20.00    -0.162 F 
HETATM    9  F9  UNL     1     -35.492   5.906   4.472  1.00 20.00    -0.162 F 
ENDBRANCH   1   6
TORSDOF 1
ENDMDL
MODEL 8
REMARK VINA RESULT:      -3.9      1.963      2.406
REMARK  1 active torsions:
REMARK  status: ('A' for Active; 'I' for Inactive)
REMARK    1  A    between atoms: C1_1  and  C4_4 
REMARK       I    between atoms: C1_1  and  N5_5 
ROOT
HETATM    1  C1  UNL     1     -34.199   6.142   4.000  1.00 20.00     0.326 C 
HETATM    2  C2  UNL     1     -32.475   8.001   3.927  1.00 20.00     0.152 C 
HETATM    3  C3  UNL     1     -33.612   7.408   6.030  1.00 20.00     0.152 C 
HETATM    4  N5  UNL     1     -33.447   7.149   4.605  1.00 20.00    -0.353 N 
HETATM    5  O6  UNL     1     -35.325   5.803   4.376  1.00 20.00    -0.263 OA
ENDROOT
BRANCH   1   6
HETATM    6  C4  UNL     1     -33.584   5.440   2.820  1.00 20.00     0.472 C 
HETATM    7  F7  UNL     1     -34.206   5.745   1.653  1.00 20.00    -0.162 F 
HETATM    8  F8  UNL     1     -32.268   5.734   2.670  1.00 20.00    -0.162 F 
HETATM    9  F9  UNL     1     -33.659   4.087   2.948  1.00 20.00    -0.162 F 
ENDBRANCH   1   6
TORSDOF 1
ENDMDL
MODEL 9
REMARK VINA RESULT:      -3.8      3.387      4.149
REMARK  1 active torsions:
REMARK  status: ('A' for Active; 'I' for Inactive)
REMARK    1  A    between atoms: C1_1  and  C4_4 
REMARK       I    between atoms: C1_1  and  N5_5 
ROOT
HETATM    1  C1  UNL     1     -32.124   8.109   3.168  1.00 20.00     0.326 C 
HETATM    2  C2  UNL     1     -33.655   6.170   2.589  1.00 20.00     0.152 C 
HETATM    3  C3  UNL     1     -33.554   7.066   4.882  1.00 20.00     0.152 C 
HETATM    4  N5  UNL     1     -33.073   7.145   3.508  1.00 20.00    -0.353 N 
HETATM    5  O6  UNL     1     -31.275   8.545   3.950  1.00 20.00    -0.263 OA
ENDROOT
BRANCH   1   6
HETATM    6  C4  UNL     1     -32.153   8.634   1.757  1.00 20.00     0.472 C 
HETATM    7  F7  UNL     1     -31.104   8.193   1.019  1.00 20.00    -0.162 F 
HETATM    8  F8  UNL     1     -33.289   8.289   1.099  1.00 20.00    -0.162 F 
HETATM    9  F9  UNL     1     -32.094   9.992   1.729  1.00 20.00    -0.162 F 
ENDBRANCH   1   6
TORSDOF 1
ENDMDL
