MODEL 1
REMARK VINA RESULT:      -5.0      0.000      0.000
REMARK  2 active torsions:
REMARK  status: ('A' for Active; 'I' for Inactive)
REMARK    1  A    between atoms: C6_6  and  C11_11 
REMARK    2  A    between atoms: C11_11  and  O12_12 
ROOT
HETATM    1  C1  UNL     1     -33.183  17.559  -1.774  1.00 20.00    -0.024 C 
HETATM    2  C2  UNL     1     -34.200  17.640  -0.899  1.00 20.00    -0.087 C 
HETATM    3  C3  UNL     1     -33.245  16.774  -3.051  1.00 20.00     0.035 C 
HETATM    4  C4  UNL     1     -35.523  16.961  -1.148  1.00 20.00     0.034 C 
HETATM    5  C5  UNL     1     -35.700  16.463  -2.587  1.00 20.00     0.012 C 
HETATM    6  C6  UNL     1     -34.424  15.788  -3.100  1.00 20.00     0.023 C 
HETATM    7  C7  UNL     1     -34.084  18.409   0.384  1.00 20.00     0.043 C 
ENDROOT
BRANCH   6   8
HETATM    8  C11 UNL     1     -34.617  15.245  -4.514  1.00 20.00     0.057 C 
HETATM    9  C8  UNL     1     -33.367  15.482  -5.357  1.00 20.00     0.046 C 
HETATM   10  C9  UNL     1     -35.841  15.874  -5.178  1.00 20.00     0.046 C 
BRANCH   8  11
HETATM   11  O12 UNL     1     -34.820  13.833  -4.434  1.00 20.00    -0.385 OA
HETATM   12  C10 UNL     1     -35.932  13.428  -5.217  1.00 20.00     0.202 C 
ENDBRANCH   8  11
ENDBRANCH   6   8
TORSDOF 2
ENDMDL
MODEL 2
REMARK VINA RESULT:      -5.0     10.334     10.940
REMARK  2 active torsions:
REMARK  status: ('A' for Active; 'I' for Inactive)
REMARK    1  A    between atoms: C6_6  and  C11_11 
REMARK    2  A    between atoms: C11_11  and  O12_12 
ROOT
HETATM    1  C1  UNL     1     -34.082   5.590   3.351  1.00 20.00    -0.024 C 
HETATM    2  C2  UNL     1     -34.129   5.899   4.659  1.00 20.00    -0.087 C 
HETATM    3  C3  UNL     1     -33.531   6.508   2.300  1.00 20.00     0.035 C 
HETATM    4  C4  UNL     1     -33.592   7.205   5.190  1.00 20.00     0.034 C 
HETATM    5  C5  UNL     1     -32.729   7.972   4.184  1.00 20.00     0.012 C 
HETATM    6  C6  UNL     1     -33.359   7.956   2.787  1.00 20.00     0.023 C 
HETATM    7  C7  UNL     1     -34.720   4.966   5.673  1.00 20.00     0.043 C 
ENDROOT
BRANCH   6   8
HETATM    8  C11 UNL     1     -32.526   8.766   1.797  1.00 20.00     0.057 C 
HETATM    9  C8  UNL     1     -31.035   8.562   2.054  1.00 20.00     0.046 C 
HETATM   10  C9  UNL     1     -32.885  10.250   1.867  1.00 20.00     0.046 C 
BRANCH   8  11
HETATM   11  O12 UNL     1     -32.803   8.294   0.477  1.00 20.00    -0.385 OA
HETATM   12  C10 UNL     1     -33.099   9.368  -0.402  1.00 20.00     0.202 C 
ENDBRANCH   8  11
ENDBRANCH   6   8
TORSDOF 2
ENDMDL
MODEL 3
REMARK VINA RESULT:      -4.9     10.774     11.447
REMARK  2 active torsions:
REMARK  status: ('A' for Active; 'I' for Inactive)
REMARK    1  A    between atoms: C6_6  and  C11_11 
REMARK    2  A    between atoms: C11_11  and  O12_12 
ROOT
HETATM    1  C1  UNL     1     -33.934   5.209   3.546  1.00 20.00    -0.024 C 
HETATM    2  C2  UNL     1     -34.281   5.525   4.806  1.00 20.00    -0.087 C 
HETATM    3  C3  UNL     1     -33.244   6.159   2.612  1.00 20.00     0.035 C 
HETATM    4  C4  UNL     1     -33.970   6.873   5.406  1.00 20.00     0.034 C 
HETATM    5  C5  UNL     1     -32.973   7.698   4.585  1.00 20.00     0.012 C 
HETATM    6  C6  UNL     1     -33.290   7.620   3.088  1.00 20.00     0.023 C 
HETATM    7  C7  UNL     1     -35.001   4.556   5.697  1.00 20.00     0.043 C 
ENDROOT
BRANCH   6   8
HETATM    8  C11 UNL     1     -32.330   8.485   2.275  1.00 20.00     0.057 C 
HETATM    9  C8  UNL     1     -32.040   7.840   0.921  1.00 20.00     0.046 C 
HETATM   10  C9  UNL     1     -31.031   8.729   3.043  1.00 20.00     0.046 C 
BRANCH   8  11
HETATM   11  O12 UNL     1     -32.954   9.745   2.026  1.00 20.00    -0.385 OA
HETATM   12  C10 UNL     1     -32.620  10.239   0.738  1.00 20.00     0.202 C 
ENDBRANCH   8  11
ENDBRANCH   6   8
TORSDOF 2
ENDMDL
MODEL 4
REMARK VINA RESULT:      -4.8      1.156      1.503
REMARK  2 active torsions:
REMARK  status: ('A' for Active; 'I' for Inactive)
REMARK    1  A    between atoms: C6_6  and  C11_11 
REMARK    2  A    between atoms: C11_11  and  O12_12 
ROOT
HETATM    1  C1  UNL     1     -33.351  16.788  -2.721  1.00 20.00    -0.024 C 
HETATM    2  C2  UNL     1     -34.277  17.130  -1.808  1.00 20.00    -0.087 C 
HETATM    3  C3  UNL     1     -33.651  15.973  -3.944  1.00 20.00     0.035 C 
HETATM    4  C4  UNL     1     -35.727  16.743  -1.959  1.00 20.00     0.034 C 
HETATM    5  C5  UNL     1     -36.085  16.226  -3.356  1.00 20.00     0.012 C 
HETATM    6  C6  UNL     1     -35.014  15.265  -3.883  1.00 20.00     0.023 C 
HETATM    7  C7  UNL     1     -33.928  17.918  -0.580  1.00 20.00     0.043 C 
ENDROOT
BRANCH   6   8
HETATM    8  C11 UNL     1     -35.398  14.708  -5.251  1.00 20.00     0.057 C 
HETATM    9  C8  UNL     1     -35.461  15.826  -6.289  1.00 20.00     0.046 C 
HETATM   10  C9  UNL     1     -36.730  13.962  -5.183  1.00 20.00     0.046 C 
BRANCH   8  11
HETATM   11  O12 UNL     1     -34.386  13.791  -5.669  1.00 20.00    -0.385 OA
HETATM   12  C10 UNL     1     -34.378  13.640  -7.080  1.00 20.00     0.202 C 
ENDBRANCH   8  11
ENDBRANCH   6   8
TORSDOF 2
ENDMDL
MODEL 5
REMARK VINA RESULT:      -4.7      1.029      1.603
REMARK  2 active torsions:
REMARK  status: ('A' for Active; 'I' for Inactive)
REMARK    1  A    between atoms: C6_6  and  C11_11 
REMARK    2  A    between atoms: C11_11  and  O12_12 
ROOT
HETATM    1  C1  UNL     1     -33.205  17.789  -1.511  1.00 20.00    -0.024 C 
HETATM    2  C2  UNL     1     -34.211  17.763  -0.620  1.00 20.00    -0.087 C 
HETATM    3  C3  UNL     1     -33.260  17.108  -2.847  1.00 20.00     0.035 C 
HETATM    4  C4  UNL     1     -35.514  17.061  -0.908  1.00 20.00     0.034 C 
HETATM    5  C5  UNL     1     -35.695  16.676  -2.380  1.00 20.00     0.012 C 
HETATM    6  C6  UNL     1     -34.405  16.089  -2.962  1.00 20.00     0.023 C 
HETATM    7  C7  UNL     1     -34.102  18.430   0.720  1.00 20.00     0.043 C 
ENDROOT
BRANCH   6   8
HETATM    8  C11 UNL     1     -34.601  15.655  -4.412  1.00 20.00     0.057 C 
HETATM    9  C8  UNL     1     -34.976  14.177  -4.486  1.00 20.00     0.046 C 
HETATM   10  C9  UNL     1     -33.346  15.932  -5.239  1.00 20.00     0.046 C 
BRANCH   8  11
HETATM   11  O12 UNL     1     -35.685  16.402  -4.967  1.00 20.00    -0.385 OA
HETATM   12  C10 UNL     1     -35.565  16.512  -6.377  1.00 20.00     0.202 C 
ENDBRANCH   8  11
ENDBRANCH   6   8
TORSDOF 2
ENDMDL
MODEL 6
REMARK VINA RESULT:      -4.7      1.280      1.411
REMARK  2 active torsions:
REMARK  status: ('A' for Active; 'I' for Inactive)
REMARK    1  A    between atoms: C6_6  and  C11_11 
REMARK    2  A    between atoms: C11_11  and  O12_12 
ROOT
HETATM    1  C1  UNL     1     -33.021  18.174  -1.157  1.00 20.00    -0.024 C 
HETATM    2  C2  UNL     1     -33.849  18.208  -0.098  1.00 20.00    -0.087 C 
HETATM    3  C3  UNL     1     -33.325  17.433  -2.426  1.00 20.00     0.035 C 
HETATM    4  C4  UNL     1     -35.190  17.519  -0.111  1.00 20.00     0.034 C 
HETATM    5  C5  UNL     1     -35.639  17.070  -1.505  1.00 20.00     0.012 C 
HETATM    6  C6  UNL     1     -34.483  16.432  -2.282  1.00 20.00     0.023 C 
HETATM    7  C7  UNL     1     -33.491  18.933   1.166  1.00 20.00     0.043 C 
ENDROOT
BRANCH   6   8
HETATM    8  C11 UNL     1     -34.944  15.937  -3.651  1.00 20.00     0.057 C 
HETATM    9  C8  UNL     1     -34.285  16.746  -4.766  1.00 20.00     0.046 C 
HETATM   10  C9  UNL     1     -36.466  15.999  -3.769  1.00 20.00     0.046 C 
BRANCH   8  11
HETATM   11  O12 UNL     1     -34.532  14.578  -3.805  1.00 20.00    -0.385 OA
HETATM   12  C10 UNL     1     -33.335  14.486  -4.562  1.00 20.00     0.202 C 
ENDBRANCH   8  11
ENDBRANCH   6   8
TORSDOF 2
ENDMDL
MODEL 7
REMARK VINA RESULT:      -4.6     10.246     10.834
REMARK  2 active torsions:
REMARK  status: ('A' for Active; 'I' for Inactive)
REMARK    1  A    between atoms: C6_6  and  C11_11 
REMARK    2  A    between atoms: C11_11  and  O12_12 
ROOT
HETATM    1  C1  UNL     1     -33.684   7.225   4.917  1.00 20.00    -0.024 C 
HETATM    2  C2  UNL     1     -34.050   5.972   4.597  1.00 20.00    -0.087 C 
HETATM    3  C3  UNL     1     -33.129   8.207   3.928  1.00 20.00     0.035 C 
HETATM    4  C4  UNL     1     -33.962   5.451   3.185  1.00 20.00     0.034 C 
HETATM    5  C5  UNL     1     -33.733   6.545   2.137  1.00 20.00     0.012 C 
HETATM    6  C6  UNL     1     -32.682   7.554   2.610  1.00 20.00     0.023 C 
HETATM    7  C7  UNL     1     -34.569   5.010   5.625  1.00 20.00     0.043 C 
ENDROOT
BRANCH   6   8
HETATM    8  C11 UNL     1     -32.414   8.613   1.543  1.00 20.00     0.057 C 
HETATM    9  C8  UNL     1     -31.014   8.445   0.957  1.00 20.00     0.046 C 
HETATM   10  C9  UNL     1     -32.592  10.020   2.114  1.00 20.00     0.046 C 
BRANCH   8  11
HETATM   11  O12 UNL     1     -33.350   8.433   0.479  1.00 20.00    -0.385 OA
HETATM   12  C10 UNL     1     -33.201   9.437  -0.512  1.00 20.00     0.202 C 
ENDBRANCH   8  11
ENDBRANCH   6   8
TORSDOF 2
ENDMDL
MODEL 8
REMARK VINA RESULT:      -4.5      1.362      2.401
REMARK  2 active torsions:
REMARK  status: ('A' for Active; 'I' for Inactive)
REMARK    1  A    between atoms: C6_6  and  C11_11 
REMARK    2  A    between atoms: C11_11  and  O12_12 
ROOT
HETATM    1  C1  UNL     1     -35.254  17.348  -0.509  1.00 20.00    -0.024 C 
HETATM    2  C2  UNL     1     -34.077  17.966  -0.308  1.00 20.00    -0.087 C 
HETATM    3  C3  UNL     1     -35.610  16.632  -1.780  1.00 20.00     0.035 C 
HETATM    4  C4  UNL     1     -32.986  17.965  -1.349  1.00 20.00     0.034 C 
HETATM    5  C5  UNL     1     -33.214  16.956  -2.479  1.00 20.00     0.012 C 
HETATM    6  C6  UNL     1     -34.672  16.969  -2.950  1.00 20.00     0.023 C 
HETATM    7  C7  UNL     1     -33.775  18.701   0.964  1.00 20.00     0.043 C 
ENDROOT
BRANCH   6   8
HETATM    8  C11 UNL     1     -34.886  16.003  -4.112  1.00 20.00     0.057 C 
HETATM    9  C8  UNL     1     -36.319  15.474  -4.115  1.00 20.00     0.046 C 
HETATM   10  C9  UNL     1     -33.888  14.848  -4.053  1.00 20.00     0.046 C 
BRANCH   8  11
HETATM   11  O12 UNL     1     -34.688  16.712  -5.336  1.00 20.00    -0.385 OA
HETATM   12  C10 UNL     1     -33.649  16.129  -6.106  1.00 20.00     0.202 C 
ENDBRANCH   8  11
ENDBRANCH   6   8
TORSDOF 2
ENDMDL
MODEL 9
REMARK VINA RESULT:      -4.5      1.822      4.892
REMARK  2 active torsions:
REMARK  status: ('A' for Active; 'I' for Inactive)
REMARK    1  A    between atoms: C6_6  and  C11_11 
REMARK    2  A    between atoms: C11_11  and  O12_12 
ROOT
HETATM    1  C1  UNL     1     -36.458  15.341  -4.174  1.00 20.00    -0.024 C 
HETATM    2  C2  UNL     1     -35.550  14.460  -4.629  1.00 20.00    -0.087 C 
HETATM    3  C3  UNL     1     -36.134  16.444  -3.210  1.00 20.00     0.035 C 
HETATM    4  C4  UNL     1     -34.099  14.530  -4.226  1.00 20.00     0.034 C 
HETATM    5  C5  UNL     1     -33.712  15.842  -3.536  1.00 20.00     0.012 C 
HETATM    6  C6  UNL     1     -34.775  16.265  -2.516  1.00 20.00     0.023 C 
HETATM    7  C7  UNL     1     -35.923  13.349  -5.566  1.00 20.00     0.043 C 
ENDROOT
BRANCH   6   8
HETATM    8  C11 UNL     1     -34.364  17.544  -1.790  1.00 20.00     0.057 C 
HETATM    9  C8  UNL     1     -34.944  17.570  -0.378  1.00 20.00     0.046 C 
HETATM   10  C9  UNL     1     -34.801  18.781  -2.573  1.00 20.00     0.046 C 
BRANCH   8  11
HETATM   11  O12 UNL     1     -32.941  17.562  -1.671  1.00 20.00    -0.385 OA
HETATM   12  C10 UNL     1     -32.516  18.524  -0.718  1.00 20.00     0.202 C 
ENDBRANCH   8  11
ENDBRANCH   6   8
TORSDOF 2
ENDMDL
