MODEL 1
REMARK VINA RESULT:      -3.5      0.000      0.000
REMARK  1 active torsions:
REMARK  status: ('A' for Active; 'I' for Inactive)
REMARK    1  A    between atoms: C5_5  and  S6_6 
ROOT
HETATM    1  C1  UNL     1     -35.691   6.129   3.636  1.00 20.00     0.026 C 
HETATM    2  C2  UNL     1     -34.367   4.344   4.810  1.00 20.00     0.026 C 
HETATM    3  C3  UNL     1     -33.978   6.765   5.362  1.00 20.00     0.026 C 
HETATM    4  C5  UNL     1     -34.337   5.771   4.254  1.00 20.00    -0.003 C 
ENDROOT
BRANCH   4   5
HETATM    5  S6  UNL     1     -33.052   5.855   2.947  1.00 20.00    -0.165 SA
HETATM    6  C4  UNL     1     -32.469   7.530   3.287  1.00 20.00     0.090 C 
ENDBRANCH   4   5
TORSDOF 1
ENDMDL
MODEL 2
REMARK VINA RESULT:      -3.5      0.016      1.781
REMARK  1 active torsions:
REMARK  status: ('A' for Active; 'I' for Inactive)
REMARK    1  A    between atoms: C5_5  and  S6_6 
ROOT
HETATM    1  C1  UNL     1     -33.972   6.744   5.368  1.00 20.00     0.026 C 
HETATM    2  C2  UNL     1     -35.688   6.124   3.639  1.00 20.00     0.026 C 
HETATM    3  C3  UNL     1     -34.365   4.327   4.796  1.00 20.00     0.026 C 
HETATM    4  C5  UNL     1     -34.333   5.759   4.252  1.00 20.00    -0.003 C 
ENDROOT
BRANCH   4   5
HETATM    5  S6  UNL     1     -33.056   5.862   2.939  1.00 20.00    -0.165 SA
HETATM    6  C4  UNL     1     -32.472   7.532   3.300  1.00 20.00     0.090 C 
ENDBRANCH   4   5
TORSDOF 1
ENDMDL
MODEL 3
REMARK VINA RESULT:      -3.5      0.042      1.766
REMARK  1 active torsions:
REMARK  status: ('A' for Active; 'I' for Inactive)
REMARK    1  A    between atoms: C5_5  and  S6_6 
ROOT
HETATM    1  C1  UNL     1     -34.385   4.308   4.754  1.00 20.00     0.026 C 
HETATM    2  C2  UNL     1     -33.981   6.711   5.372  1.00 20.00     0.026 C 
HETATM    3  C3  UNL     1     -35.691   6.134   3.622  1.00 20.00     0.026 C 
HETATM    4  C5  UNL     1     -34.342   5.749   4.236  1.00 20.00    -0.003 C 
ENDROOT
BRANCH   4   5
HETATM    5  S6  UNL     1     -33.049   5.871   2.941  1.00 20.00    -0.165 SA
HETATM    6  C4  UNL     1     -32.496   7.550   3.308  1.00 20.00     0.090 C 
ENDBRANCH   4   5
TORSDOF 1
ENDMDL
MODEL 4
REMARK VINA RESULT:      -3.4      1.192      1.553
REMARK  1 active torsions:
REMARK  status: ('A' for Active; 'I' for Inactive)
REMARK    1  A    between atoms: C5_5  and  S6_6 
ROOT
HETATM    1  C1  UNL     1     -35.631   6.111   3.582  1.00 20.00     0.026 C 
HETATM    2  C2  UNL     1     -33.402   5.080   3.045  1.00 20.00     0.026 C 
HETATM    3  C3  UNL     1     -34.458   4.690   5.292  1.00 20.00     0.026 C 
HETATM    4  C5  UNL     1     -34.272   5.691   4.148  1.00 20.00    -0.003 C 
ENDROOT
BRANCH   4   5
HETATM    5  S6  UNL     1     -33.419   7.179   4.799  1.00 20.00    -0.165 SA
HETATM    6  C4  UNL     1     -32.451   7.568   3.325  1.00 20.00     0.090 C 
ENDBRANCH   4   5
TORSDOF 1
ENDMDL
MODEL 5
REMARK VINA RESULT:      -3.4      1.191      2.100
REMARK  1 active torsions:
REMARK  status: ('A' for Active; 'I' for Inactive)
REMARK    1  A    between atoms: C5_5  and  S6_6 
ROOT
HETATM    1  C1  UNL     1     -34.465   4.708   5.263  1.00 20.00     0.026 C 
HETATM    2  C2  UNL     1     -35.621   6.117   3.532  1.00 20.00     0.026 C 
HETATM    3  C3  UNL     1     -33.392   5.074   3.019  1.00 20.00     0.026 C 
HETATM    4  C5  UNL     1     -34.266   5.697   4.111  1.00 20.00    -0.003 C 
ENDROOT
BRANCH   4   5
HETATM    5  S6  UNL     1     -33.424   7.193   4.758  1.00 20.00    -0.165 SA
HETATM    6  C4  UNL     1     -32.459   7.585   3.284  1.00 20.00     0.090 C 
ENDBRANCH   4   5
TORSDOF 1
ENDMDL
MODEL 6
REMARK VINA RESULT:      -3.4      1.196      1.777
REMARK  1 active torsions:
REMARK  status: ('A' for Active; 'I' for Inactive)
REMARK    1  A    between atoms: C5_5  and  S6_6 
ROOT
HETATM    1  C1  UNL     1     -33.402   5.057   3.082  1.00 20.00     0.026 C 
HETATM    2  C2  UNL     1     -34.473   4.717   5.331  1.00 20.00     0.026 C 
HETATM    3  C3  UNL     1     -35.646   6.080   3.575  1.00 20.00     0.026 C 
HETATM    4  C5  UNL     1     -34.286   5.689   4.162  1.00 20.00    -0.003 C 
ENDROOT
BRANCH   4   5
HETATM    5  S6  UNL     1     -33.458   7.199   4.791  1.00 20.00    -0.165 SA
HETATM    6  C4  UNL     1     -32.455   7.552   3.332  1.00 20.00     0.090 C 
ENDBRANCH   4   5
TORSDOF 1
ENDMDL
MODEL 7
REMARK VINA RESULT:      -3.0      1.589      2.608
REMARK  1 active torsions:
REMARK  status: ('A' for Active; 'I' for Inactive)
REMARK    1  A    between atoms: C5_5  and  S6_6 
ROOT
HETATM    1  C1  UNL     1     -35.103   6.382   2.628  1.00 20.00     0.026 C 
HETATM    2  C2  UNL     1     -32.909   7.294   3.449  1.00 20.00     0.026 C 
HETATM    3  C3  UNL     1     -33.128   4.851   2.899  1.00 20.00     0.026 C 
HETATM    4  C5  UNL     1     -33.848   6.083   3.453  1.00 20.00    -0.003 C 
ENDROOT
BRANCH   4   5
HETATM    5  S6  UNL     1     -34.349   5.745   5.185  1.00 20.00    -0.165 SA
HETATM    6  C4  UNL     1     -33.720   7.269   5.921  1.00 20.00     0.090 C 
ENDBRANCH   4   5
TORSDOF 1
ENDMDL
MODEL 8
REMARK VINA RESULT:      -3.0      1.576      2.559
REMARK  1 active torsions:
REMARK  status: ('A' for Active; 'I' for Inactive)
REMARK    1  A    between atoms: C5_5  and  S6_6 
ROOT
HETATM    1  C1  UNL     1     -33.145   4.799   2.940  1.00 20.00     0.026 C 
HETATM    2  C2  UNL     1     -35.116   6.338   2.681  1.00 20.00     0.026 C 
HETATM    3  C3  UNL     1     -32.903   7.248   3.452  1.00 20.00     0.026 C 
HETATM    4  C5  UNL     1     -33.848   6.043   3.489  1.00 20.00    -0.003 C 
ENDROOT
BRANCH   4   5
HETATM    5  S6  UNL     1     -34.333   5.727   5.230  1.00 20.00    -0.165 SA
HETATM    6  C4  UNL     1     -33.746   7.283   5.932  1.00 20.00     0.090 C 
ENDBRANCH   4   5
TORSDOF 1
ENDMDL
MODEL 9
REMARK VINA RESULT:      -3.0      1.586      2.574
REMARK  1 active torsions:
REMARK  status: ('A' for Active; 'I' for Inactive)
REMARK    1  A    between atoms: C5_5  and  S6_6 
ROOT
HETATM    1  C1  UNL     1     -32.879   7.245   3.458  1.00 20.00     0.026 C 
HETATM    2  C2  UNL     1     -33.136   4.800   2.932  1.00 20.00     0.026 C 
HETATM    3  C3  UNL     1     -35.079   6.364   2.616  1.00 20.00     0.026 C 
HETATM    4  C5  UNL     1     -33.841   6.053   3.462  1.00 20.00    -0.003 C 
ENDROOT
BRANCH   4   5
HETATM    5  S6  UNL     1     -34.372   5.730   5.188  1.00 20.00    -0.165 SA
HETATM    6  C4  UNL     1     -33.753   7.260   5.922  1.00 20.00     0.090 C 
ENDBRANCH   4   5
TORSDOF 1
ENDMDL
