MODEL 1
REMARK VINA RESULT:      -2.7      0.000      0.000
REMARK  3 active torsions:
REMARK  status: ('A' for Active; 'I' for Inactive)
REMARK    1  A    between atoms: C1_1  and  S7_7 
REMARK    2  A    between atoms: C1_1  and  S8_8 
REMARK    3  A    between atoms: C5_5  and  S8_8 
ROOT
HETATM    1  S8  UNL     1     -35.541  14.848  -4.674  1.00 20.00    -0.103 SA
ENDROOT
BRANCH   1   2
HETATM    2  C1  UNL     1     -35.486  14.778  -6.426  1.00 20.00     0.102 C 
HETATM    3  S6  UNL     1     -34.683  13.572  -7.264  1.00 20.00    -0.065 SA
BRANCH   2   4
HETATM    4  S7  UNL     1     -36.407  16.036  -7.236  1.00 20.00    -0.124 SA
HETATM    5  H18 UNL     1     -37.380  15.244  -7.711  1.00 20.00     0.108 HD
ENDBRANCH   2   4
ENDBRANCH   1   2
BRANCH   1   6
HETATM    6  C5  UNL     1     -33.862  15.523  -4.373  1.00 20.00     0.003 C 
HETATM    7  C2  UNL     1     -33.491  16.454  -5.532  1.00 20.00     0.026 C 
HETATM    8  C3  UNL     1     -33.883  16.301  -3.054  1.00 20.00     0.026 C 
HETATM    9  C4  UNL     1     -32.871  14.359  -4.287  1.00 20.00     0.026 C 
ENDBRANCH   1   6
TORSDOF 3
ENDMDL
MODEL 2
REMARK VINA RESULT:      -2.7      0.020      1.542
REMARK  3 active torsions:
REMARK  status: ('A' for Active; 'I' for Inactive)
REMARK    1  A    between atoms: C1_1  and  S7_7 
REMARK    2  A    between atoms: C1_1  and  S8_8 
REMARK    3  A    between atoms: C5_5  and  S8_8 
ROOT
HETATM    1  S8  UNL     1     -35.534  14.822  -4.667  1.00 20.00    -0.103 SA
ENDROOT
BRANCH   1   2
HETATM    2  C1  UNL     1     -35.484  14.766  -6.419  1.00 20.00     0.102 C 
HETATM    3  S6  UNL     1     -34.665  13.580  -7.269  1.00 20.00    -0.065 SA
BRANCH   2   4
HETATM    4  S7  UNL     1     -36.428  16.016  -7.216  1.00 20.00    -0.124 SA
HETATM    5  H18 UNL     1     -37.632  15.599  -6.798  1.00 20.00     0.108 HD
ENDBRANCH   2   4
ENDBRANCH   1   2
BRANCH   1   6
HETATM    6  C5  UNL     1     -33.866  15.523  -4.366  1.00 20.00     0.003 C 
HETATM    7  C2  UNL     1     -33.889  16.297  -3.044  1.00 20.00     0.026 C 
HETATM    8  C3  UNL     1     -32.863  14.368  -4.286  1.00 20.00     0.026 C 
HETATM    9  C4  UNL     1     -33.508  16.457  -5.525  1.00 20.00     0.026 C 
ENDBRANCH   1   6
TORSDOF 3
ENDMDL
MODEL 3
REMARK VINA RESULT:      -2.7      0.088      1.544
REMARK  3 active torsions:
REMARK  status: ('A' for Active; 'I' for Inactive)
REMARK    1  A    between atoms: C1_1  and  S7_7 
REMARK    2  A    between atoms: C1_1  and  S8_8 
REMARK    3  A    between atoms: C5_5  and  S8_8 
ROOT
HETATM    1  S8  UNL     1     -35.559  14.963  -4.620  1.00 20.00    -0.103 SA
ENDROOT
BRANCH   1   2
HETATM    2  C1  UNL     1     -35.525  14.821  -6.369  1.00 20.00     0.102 C 
HETATM    3  S6  UNL     1     -34.783  13.550  -7.165  1.00 20.00    -0.065 SA
BRANCH   2   4
HETATM    4  S7  UNL     1     -36.401  16.085  -7.219  1.00 20.00    -0.124 SA
HETATM    5  H18 UNL     1     -37.278  15.283  -7.841  1.00 20.00     0.108 HD
ENDBRANCH   2   4
ENDBRANCH   1   2
BRANCH   1   6
HETATM    6  C5  UNL     1     -33.849  15.575  -4.361  1.00 20.00     0.003 C 
HETATM    7  C2  UNL     1     -32.902  14.373  -4.290  1.00 20.00     0.026 C 
HETATM    8  C3  UNL     1     -33.475  16.477  -5.540  1.00 20.00     0.026 C 
HETATM    9  C4  UNL     1     -33.803  16.367  -3.051  1.00 20.00     0.026 C 
ENDBRANCH   1   6
TORSDOF 3
ENDMDL
MODEL 4
REMARK VINA RESULT:      -2.6      1.602      2.200
REMARK  3 active torsions:
REMARK  status: ('A' for Active; 'I' for Inactive)
REMARK    1  A    between atoms: C1_1  and  S7_7 
REMARK    2  A    between atoms: C1_1  and  S8_8 
REMARK    3  A    between atoms: C5_5  and  S8_8 
ROOT
HETATM    1  S8  UNL     1     -33.483  14.883  -4.379  1.00 20.00    -0.103 SA
ENDROOT
BRANCH   1   2
HETATM    2  C1  UNL     1     -34.556  14.578  -5.733  1.00 20.00     0.102 C 
HETATM    3  S6  UNL     1     -34.284  15.192  -7.266  1.00 20.00    -0.065 SA
BRANCH   2   4
HETATM    4  S7  UNL     1     -35.904  13.511  -5.369  1.00 20.00    -0.124 SA
HETATM    5  H18 UNL     1     -35.577  13.270  -4.090  1.00 20.00     0.108 HD
ENDBRANCH   2   4
ENDBRANCH   1   2
BRANCH   1   6
HETATM    6  C5  UNL     1     -34.118  16.534  -3.891  1.00 20.00     0.003 C 
HETATM    7  C2  UNL     1     -35.646  16.526  -4.004  1.00 20.00     0.026 C 
HETATM    8  C3  UNL     1     -33.694  16.807  -2.445  1.00 20.00     0.026 C 
HETATM    9  C4  UNL     1     -33.520  17.588  -4.827  1.00 20.00     0.026 C 
ENDBRANCH   1   6
TORSDOF 3
ENDMDL
MODEL 5
REMARK VINA RESULT:      -2.6      1.260      1.796
REMARK  3 active torsions:
REMARK  status: ('A' for Active; 'I' for Inactive)
REMARK    1  A    between atoms: C1_1  and  S7_7 
REMARK    2  A    between atoms: C1_1  and  S8_8 
REMARK    3  A    between atoms: C5_5  and  S8_8 
ROOT
HETATM    1  S8  UNL     1     -34.746  16.356  -5.851  1.00 20.00    -0.103 SA
ENDROOT
BRANCH   1   2
HETATM    2  C1  UNL     1     -35.255  15.206  -7.074  1.00 20.00     0.102 C 
HETATM    3  S6  UNL     1     -34.182  14.238  -7.918  1.00 20.00    -0.065 SA
BRANCH   2   4
HETATM    4  S7  UNL     1     -36.996  15.097  -7.291  1.00 20.00    -0.124 SA
HETATM    5  H18 UNL     1     -36.976  14.235  -8.319  1.00 20.00     0.108 HD
ENDBRANCH   2   4
ENDBRANCH   1   2
BRANCH   1   6
HETATM    6  C5  UNL     1     -34.445  15.180  -4.476  1.00 20.00     0.003 C 
HETATM    7  C2  UNL     1     -34.755  15.884  -3.151  1.00 20.00     0.026 C 
HETATM    8  C3  UNL     1     -35.367  13.972  -4.663  1.00 20.00     0.026 C 
HETATM    9  C4  UNL     1     -32.979  14.740  -4.515  1.00 20.00     0.026 C 
ENDBRANCH   1   6
TORSDOF 3
ENDMDL
MODEL 6
REMARK VINA RESULT:      -2.6      2.296      3.587
REMARK  3 active torsions:
REMARK  status: ('A' for Active; 'I' for Inactive)
REMARK    1  A    between atoms: C1_1  and  S7_7 
REMARK    2  A    between atoms: C1_1  and  S8_8 
REMARK    3  A    between atoms: C5_5  and  S8_8 
ROOT
HETATM    1  S8  UNL     1     -33.275  15.233  -5.017  1.00 20.00    -0.103 SA
ENDROOT
BRANCH   1   2
HETATM    2  C1  UNL     1     -33.982  16.575  -4.135  1.00 20.00     0.102 C 
HETATM    3  S6  UNL     1     -34.863  16.375  -2.726  1.00 20.00    -0.065 SA
BRANCH   2   4
HETATM    4  S7  UNL     1     -33.627  18.158  -4.810  1.00 20.00    -0.124 SA
HETATM    5  H18 UNL     1     -32.623  17.771  -5.610  1.00 20.00     0.108 HD
ENDBRANCH   2   4
ENDBRANCH   1   2
BRANCH   1   6
HETATM    6  C5  UNL     1     -34.785  14.642  -5.876  1.00 20.00     0.003 C 
HETATM    7  C2  UNL     1     -35.636  15.855  -6.264  1.00 20.00     0.026 C 
HETATM    8  C3  UNL     1     -34.358  13.871  -7.128  1.00 20.00     0.026 C 
HETATM    9  C4  UNL     1     -35.564  13.727  -4.927  1.00 20.00     0.026 C 
ENDBRANCH   1   6
TORSDOF 3
ENDMDL
MODEL 7
REMARK VINA RESULT:      -2.6      2.080      3.614
REMARK  3 active torsions:
REMARK  status: ('A' for Active; 'I' for Inactive)
REMARK    1  A    between atoms: C1_1  and  S7_7 
REMARK    2  A    between atoms: C1_1  and  S8_8 
REMARK    3  A    between atoms: C5_5  and  S8_8 
ROOT
HETATM    1  S8  UNL     1     -36.076  16.065  -4.848  1.00 20.00    -0.103 SA
ENDROOT
BRANCH   1   2
HETATM    2  C1  UNL     1     -34.911  16.908  -3.844  1.00 20.00     0.102 C 
HETATM    3  S6  UNL     1     -33.653  17.814  -4.474  1.00 20.00    -0.065 SA
BRANCH   2   4
HETATM    4  S7  UNL     1     -35.215  16.787  -2.117  1.00 20.00    -0.124 SA
HETATM    5  H18 UNL     1     -34.175  17.535  -1.718  1.00 20.00     0.108 HD
ENDBRANCH   2   4
ENDBRANCH   1   2
BRANCH   1   6
HETATM    6  C5  UNL     1     -35.083  14.570  -5.228  1.00 20.00     0.003 C 
HETATM    7  C2  UNL     1     -34.112  14.318  -4.070  1.00 20.00     0.026 C 
HETATM    8  C3  UNL     1     -36.037  13.383  -5.387  1.00 20.00     0.026 C 
HETATM    9  C4  UNL     1     -34.311  14.809  -6.528  1.00 20.00     0.026 C 
ENDBRANCH   1   6
TORSDOF 3
ENDMDL
MODEL 8
REMARK VINA RESULT:      -2.5      1.601      2.369
REMARK  3 active torsions:
REMARK  status: ('A' for Active; 'I' for Inactive)
REMARK    1  A    between atoms: C1_1  and  S7_7 
REMARK    2  A    between atoms: C1_1  and  S8_8 
REMARK    3  A    between atoms: C5_5  and  S8_8 
ROOT
HETATM    1  S8  UNL     1     -33.352  14.903  -4.433  1.00 20.00    -0.103 SA
ENDROOT
BRANCH   1   2
HETATM    2  C1  UNL     1     -34.521  14.451  -5.660  1.00 20.00     0.102 C 
HETATM    3  S6  UNL     1     -35.874  13.522  -5.331  1.00 20.00    -0.065 SA
BRANCH   2   4
HETATM    4  S7  UNL     1     -34.198  15.116  -7.254  1.00 20.00    -0.124 SA
HETATM    5  H18 UNL     1     -35.218  15.986  -7.276  1.00 20.00     0.108 HD
ENDBRANCH   2   4
ENDBRANCH   1   2
BRANCH   1   6
HETATM    6  C5  UNL     1     -34.091  16.504  -3.926  1.00 20.00     0.003 C 
HETATM    7  C2  UNL     1     -33.705  16.786  -2.471  1.00 20.00     0.026 C 
HETATM    8  C3  UNL     1     -33.541  17.601  -4.843  1.00 20.00     0.026 C 
HETATM    9  C4  UNL     1     -35.613  16.410  -4.065  1.00 20.00     0.026 C 
ENDBRANCH   1   6
TORSDOF 3
ENDMDL
MODEL 9
REMARK VINA RESULT:      -2.5      1.936      3.372
REMARK  3 active torsions:
REMARK  status: ('A' for Active; 'I' for Inactive)
REMARK    1  A    between atoms: C1_1  and  S7_7 
REMARK    2  A    between atoms: C1_1  and  S8_8 
REMARK    3  A    between atoms: C5_5  and  S8_8 
ROOT
HETATM    1  S8  UNL     1     -35.515  15.960  -6.210  1.00 20.00    -0.103 SA
ENDROOT
BRANCH   1   2
HETATM    2  C1  UNL     1     -35.119  16.726  -4.682  1.00 20.00     0.102 C 
HETATM    3  S6  UNL     1     -35.995  16.466  -3.280  1.00 20.00    -0.065 SA
BRANCH   2   4
HETATM    4  S7  UNL     1     -33.680  17.734  -4.723  1.00 20.00    -0.124 SA
HETATM    5  H18 UNL     1     -33.776  18.202  -3.470  1.00 20.00     0.108 HD
ENDBRANCH   2   4
ENDBRANCH   1   2
BRANCH   1   6
HETATM    6  C5  UNL     1     -34.868  14.281  -5.852  1.00 20.00     0.003 C 
HETATM    7  C2  UNL     1     -33.687  14.406  -4.884  1.00 20.00     0.026 C 
HETATM    8  C3  UNL     1     -35.991  13.457  -5.215  1.00 20.00     0.026 C 
HETATM    9  C4  UNL     1     -34.416  13.637  -7.165  1.00 20.00     0.026 C 
ENDBRANCH   1   6
TORSDOF 3
ENDMDL
