MODEL 1
REMARK VINA RESULT:      -4.4      0.000      0.000
REMARK  1 active torsions:
REMARK  status: ('A' for Active; 'I' for Inactive)
REMARK    1  A    between atoms: C8_8  and  O10_10 
ROOT
HETATM    1  C1  UNL     1     -35.451  15.908  -3.956  1.00 20.00     0.005 C 
HETATM    2  C2  UNL     1     -34.640  16.579  -6.229  1.00 20.00     0.005 C 
HETATM    3  C3  UNL     1     -34.347  14.843  -3.900  1.00 20.00     0.008 C 
HETATM    4  C4  UNL     1     -33.558  15.492  -6.156  1.00 20.00     0.008 C 
HETATM    5  C5  UNL     1     -36.443  14.854  -6.002  1.00 20.00     0.042 C 
HETATM    6  C6  UNL     1     -35.876  16.161  -5.411  1.00 20.00    -0.012 C 
HETATM    7  C7  UNL     1     -34.065  14.302  -5.319  1.00 20.00     0.019 C 
HETATM    8  C8  UNL     1     -35.376  13.735  -5.934  1.00 20.00     0.058 C 
HETATM    9  C9  UNL     1     -35.160  13.094  -7.308  1.00 20.00     0.046 C 
ENDROOT
BRANCH   8  10
HETATM   10  O10 UNL     1     -35.878  12.702  -5.076  1.00 20.00    -0.390 OA
HETATM   11  H26 UNL     1     -35.252  12.634  -4.342  1.00 20.00     0.210 HD
ENDBRANCH   8  10
TORSDOF 1
ENDMDL
MODEL 2
REMARK VINA RESULT:      -4.3      1.323      3.041
REMARK  1 active torsions:
REMARK  status: ('A' for Active; 'I' for Inactive)
REMARK    1  A    between atoms: C8_8  and  O10_10 
ROOT
HETATM    1  C1  UNL     1     -34.042  14.355  -7.918  1.00 20.00     0.005 C 
HETATM    2  C2  UNL     1     -35.527  16.160  -7.015  1.00 20.00     0.005 C 
HETATM    3  C3  UNL     1     -34.735  13.349  -6.988  1.00 20.00     0.008 C 
HETATM    4  C4  UNL     1     -36.189  15.137  -6.080  1.00 20.00     0.008 C 
HETATM    5  C5  UNL     1     -33.293  15.734  -5.964  1.00 20.00     0.042 C 
HETATM    6  C6  UNL     1     -34.067  15.761  -7.298  1.00 20.00    -0.012 C 
HETATM    7  C7  UNL     1     -35.169  14.053  -5.683  1.00 20.00     0.019 C 
HETATM    8  C8  UNL     1     -33.932  14.704  -5.001  1.00 20.00     0.058 C 
HETATM    9  C9  UNL     1     -34.265  15.345  -3.651  1.00 20.00     0.046 C 
ENDROOT
BRANCH   8  10
HETATM   10  O10 UNL     1     -32.959  13.685  -4.741  1.00 20.00    -0.390 OA
HETATM   11  H26 UNL     1     -32.987  13.523  -3.788  1.00 20.00     0.210 HD
ENDBRANCH   8  10
TORSDOF 1
ENDMDL
MODEL 3
REMARK VINA RESULT:      -4.2      1.249      2.013
REMARK  1 active torsions:
REMARK  status: ('A' for Active; 'I' for Inactive)
REMARK    1  A    between atoms: C8_8  and  O10_10 
ROOT
HETATM    1  C1  UNL     1     -33.339  15.267  -4.068  1.00 20.00     0.005 C 
HETATM    2  C2  UNL     1     -35.625  16.279  -4.237  1.00 20.00     0.005 C 
HETATM    3  C3  UNL     1     -33.066  15.695  -5.516  1.00 20.00     0.008 C 
HETATM    4  C4  UNL     1     -35.332  16.678  -5.691  1.00 20.00     0.008 C 
HETATM    5  C5  UNL     1     -35.283  13.859  -4.791  1.00 20.00     0.042 C 
HETATM    6  C6  UNL     1     -34.841  15.008  -3.861  1.00 20.00    -0.012 C 
HETATM    7  C7  UNL     1     -34.376  15.655  -6.333  1.00 20.00     0.019 C 
HETATM    8  C8  UNL     1     -34.992  14.229  -6.266  1.00 20.00     0.058 C 
HETATM    9  C9  UNL     1     -36.249  14.082  -7.129  1.00 20.00     0.046 C 
ENDROOT
BRANCH   8  10
HETATM   10  O10 UNL     1     -34.037  13.289  -6.773  1.00 20.00    -0.390 OA
HETATM   11  H26 UNL     1     -34.529  12.691  -7.353  1.00 20.00     0.210 HD
ENDBRANCH   8  10
TORSDOF 1
ENDMDL
MODEL 4
REMARK VINA RESULT:      -4.2      1.419      1.835
REMARK  1 active torsions:
REMARK  status: ('A' for Active; 'I' for Inactive)
REMARK    1  A    between atoms: C8_8  and  O10_10 
ROOT
HETATM    1  C1  UNL     1     -34.759  16.016  -3.041  1.00 20.00     0.005 C 
HETATM    2  C2  UNL     1     -36.160  16.526  -5.055  1.00 20.00     0.005 C 
HETATM    3  C3  UNL     1     -33.502  16.341  -3.860  1.00 20.00     0.008 C 
HETATM    4  C4  UNL     1     -34.885  16.826  -5.857  1.00 20.00     0.008 C 
HETATM    5  C5  UNL     1     -35.388  14.180  -4.629  1.00 20.00     0.042 C 
HETATM    6  C6  UNL     1     -35.872  15.483  -3.959  1.00 20.00    -0.012 C 
HETATM    7  C7  UNL     1     -33.723  15.956  -5.340  1.00 20.00     0.019 C 
HETATM    8  C8  UNL     1     -34.096  14.449  -5.439  1.00 20.00     0.058 C 
HETATM    9  C9  UNL     1     -34.243  13.966  -6.885  1.00 20.00     0.046 C 
ENDROOT
BRANCH   8  10
HETATM   10  O10 UNL     1     -33.043  13.674  -4.854  1.00 20.00    -0.390 OA
HETATM   11  H26 UNL     1     -33.439  12.827  -4.605  1.00 20.00     0.210 HD
ENDBRANCH   8  10
TORSDOF 1
ENDMDL
MODEL 5
REMARK VINA RESULT:      -4.1      1.298      2.388
REMARK  1 active torsions:
REMARK  status: ('A' for Active; 'I' for Inactive)
REMARK    1  A    between atoms: C8_8  and  O10_10 
ROOT
HETATM    1  C1  UNL     1     -33.325  16.451  -4.407  1.00 20.00     0.005 C 
HETATM    2  C2  UNL     1     -35.713  16.318  -3.658  1.00 20.00     0.005 C 
HETATM    3  C3  UNL     1     -33.807  16.498  -5.863  1.00 20.00     0.008 C 
HETATM    4  C4  UNL     1     -36.166  16.346  -5.125  1.00 20.00     0.008 C 
HETATM    5  C5  UNL     1     -34.408  14.217  -4.061  1.00 20.00     0.042 C 
HETATM    6  C6  UNL     1     -34.323  15.666  -3.539  1.00 20.00    -0.012 C 
HETATM    7  C7  UNL     1     -35.104  15.674  -6.016  1.00 20.00     0.019 C 
HETATM    8  C8  UNL     1     -34.855  14.213  -5.544  1.00 20.00     0.058 C 
HETATM    9  C9  UNL     1     -36.072  13.305  -5.750  1.00 20.00     0.046 C 
ENDROOT
BRANCH   8  10
HETATM   10  O10 UNL     1     -33.790  13.652  -6.321  1.00 20.00    -0.390 OA
HETATM   11  H26 UNL     1     -33.135  14.356  -6.427  1.00 20.00     0.210 HD
ENDBRANCH   8  10
TORSDOF 1
ENDMDL
MODEL 6
REMARK VINA RESULT:      -4.1      1.105      2.618
REMARK  1 active torsions:
REMARK  status: ('A' for Active; 'I' for Inactive)
REMARK    1  A    between atoms: C8_8  and  O10_10 
ROOT
HETATM    1  C1  UNL     1     -36.794  14.684  -7.638  1.00 20.00     0.005 C 
HETATM    2  C2  UNL     1     -35.100  16.371  -6.888  1.00 20.00     0.005 C 
HETATM    3  C3  UNL     1     -37.466  14.779  -6.261  1.00 20.00     0.008 C 
HETATM    4  C4  UNL     1     -35.779  16.431  -5.512  1.00 20.00     0.008 C 
HETATM    5  C5  UNL     1     -34.642  13.924  -6.599  1.00 20.00     0.042 C 
HETATM    6  C6  UNL     1     -35.289  14.980  -7.520  1.00 20.00    -0.012 C 
HETATM    7  C7  UNL     1     -36.404  15.064  -5.176  1.00 20.00     0.019 C 
HETATM    8  C8  UNL     1     -35.314  13.955  -5.205  1.00 20.00     0.058 C 
HETATM    9  C9  UNL     1     -34.271  14.115  -4.095  1.00 20.00     0.046 C 
ENDROOT
BRANCH   8  10
HETATM   10  O10 UNL     1     -35.943  12.684  -4.994  1.00 20.00    -0.390 OA
HETATM   11  H26 UNL     1     -36.759  12.866  -4.507  1.00 20.00     0.210 HD
ENDBRANCH   8  10
TORSDOF 1
ENDMDL
MODEL 7
REMARK VINA RESULT:      -4.0      2.029      3.245
REMARK  1 active torsions:
REMARK  status: ('A' for Active; 'I' for Inactive)
REMARK    1  A    between atoms: C8_8  and  O10_10 
ROOT
HETATM    1  C1  UNL     1     -35.273  14.145  -4.599  1.00 20.00     0.005 C 
HETATM    2  C2  UNL     1     -36.005  16.090  -3.199  1.00 20.00     0.005 C 
HETATM    3  C3  UNL     1     -33.838  14.350  -4.095  1.00 20.00     0.008 C 
HETATM    4  C4  UNL     1     -34.558  16.285  -2.726  1.00 20.00     0.008 C 
HETATM    5  C5  UNL     1     -35.318  16.451  -5.582  1.00 20.00     0.042 C 
HETATM    6  C6  UNL     1     -36.031  15.483  -4.614  1.00 20.00    -0.012 C 
HETATM    7  C7  UNL     1     -33.581  15.851  -3.836  1.00 20.00     0.019 C 
HETATM    8  C8  UNL     1     -33.851  16.661  -5.135  1.00 20.00     0.058 C 
HETATM    9  C9  UNL     1     -33.529  18.151  -4.987  1.00 20.00     0.046 C 
ENDROOT
BRANCH   8  10
HETATM   10  O10 UNL     1     -33.001  16.161  -6.175  1.00 20.00    -0.390 OA
HETATM   11  H26 UNL     1     -32.507  16.923  -6.508  1.00 20.00     0.210 HD
ENDBRANCH   8  10
TORSDOF 1
ENDMDL
MODEL 8
REMARK VINA RESULT:      -4.0      1.756      2.475
REMARK  1 active torsions:
REMARK  status: ('A' for Active; 'I' for Inactive)
REMARK    1  A    between atoms: C8_8  and  O10_10 
ROOT
HETATM    1  C1  UNL     1     -34.485  14.052  -4.078  1.00 20.00     0.005 C 
HETATM    2  C2  UNL     1     -35.059  16.482  -3.870  1.00 20.00     0.005 C 
HETATM    3  C3  UNL     1     -33.044  14.445  -4.432  1.00 20.00     0.008 C 
HETATM    4  C4  UNL     1     -33.616  16.848  -4.246  1.00 20.00     0.008 C 
HETATM    5  C5  UNL     1     -35.374  15.305  -6.059  1.00 20.00     0.042 C 
HETATM    6  C6  UNL     1     -35.464  15.149  -4.527  1.00 20.00    -0.012 C 
HETATM    7  C7  UNL     1     -33.038  15.785  -5.200  1.00 20.00     0.019 C 
HETATM    8  C8  UNL     1     -33.926  15.665  -6.471  1.00 20.00     0.058 C 
HETATM    9  C9  UNL     1     -33.898  16.928  -7.338  1.00 20.00     0.046 C 
ENDROOT
BRANCH   8  10
HETATM   10  O10 UNL     1     -33.424  14.599  -7.285  1.00 20.00    -0.390 OA
HETATM   11  H26 UNL     1     -32.746  14.154  -6.758  1.00 20.00     0.210 HD
ENDBRANCH   8  10
TORSDOF 1
ENDMDL
MODEL 9
REMARK VINA RESULT:      -4.0      1.598      2.189
REMARK  1 active torsions:
REMARK  status: ('A' for Active; 'I' for Inactive)
REMARK    1  A    between atoms: C8_8  and  O10_10 
ROOT
HETATM    1  C1  UNL     1     -33.970  17.495  -3.963  1.00 20.00     0.005 C 
HETATM    2  C2  UNL     1     -33.084  15.806  -5.587  1.00 20.00     0.005 C 
HETATM    3  C3  UNL     1     -34.121  16.380  -2.919  1.00 20.00     0.008 C 
HETATM    4  C4  UNL     1     -33.264  14.706  -4.531  1.00 20.00     0.008 C 
HETATM    5  C5  UNL     1     -35.536  16.319  -5.529  1.00 20.00     0.042 C 
HETATM    6  C6  UNL     1     -34.123  16.923  -5.382  1.00 20.00    -0.012 C 
HETATM    7  C7  UNL     1     -34.459  15.045  -3.619  1.00 20.00     0.019 C 
HETATM    8  C8  UNL     1     -35.751  15.211  -4.469  1.00 20.00     0.058 C 
HETATM    9  C9  UNL     1     -36.205  13.904  -5.124  1.00 20.00     0.046 C 
ENDROOT
BRANCH   8  10
HETATM   10  O10 UNL     1     -36.818  15.630  -3.609  1.00 20.00    -0.390 OA
HETATM   11  H26 UNL     1     -36.527  15.437  -2.706  1.00 20.00     0.210 HD
ENDBRANCH   8  10
TORSDOF 1
ENDMDL
