MODEL 1
REMARK VINA RESULT:      -3.9      0.000      0.000
REMARK  1 active torsions:
REMARK  status: ('A' for Active; 'I' for Inactive)
REMARK    1  A    between atoms: C3_3  and  C4_4 
ROOT
HETATM    1  C1  UNL     1     -34.406   4.812   5.272  1.00 20.00     0.033 C 
HETATM    2  C2  UNL     1     -35.619   6.064   3.459  1.00 20.00     0.033 C 
HETATM    3  C4  UNL     1     -34.249   5.755   4.074  1.00 20.00     0.042 C 
HETATM    4 CL6  UNL     1     -33.274   4.887   2.823  1.00 20.00    -0.119 Cl
ENDROOT
BRANCH   3   5
HETATM    5  C3  UNL     1     -33.477   7.034   4.441  1.00 20.00     0.139 C 
HETATM    6 CL5  UNL     1     -33.645   7.504   6.154  1.00 20.00    -0.129 Cl
ENDBRANCH   3   5
TORSDOF 1
ENDMDL
MODEL 2
REMARK VINA RESULT:      -3.8      1.407      2.505
REMARK  1 active torsions:
REMARK  status: ('A' for Active; 'I' for Inactive)
REMARK    1  A    between atoms: C3_3  and  C4_4 
ROOT
HETATM    1  C1  UNL     1     -35.670   6.117   3.604  1.00 20.00     0.033 C 
HETATM    2  C2  UNL     1     -34.285   4.295   4.648  1.00 20.00     0.033 C 
HETATM    3  C4  UNL     1     -34.274   5.728   4.103  1.00 20.00     0.042 C 
HETATM    4 CL6  UNL     1     -33.862   6.829   5.478  1.00 20.00    -0.119 Cl
ENDROOT
BRANCH   3   5
HETATM    5  C3  UNL     1     -33.196   5.930   3.024  1.00 20.00     0.139 C 
HETATM    6 CL5  UNL     1     -32.359   7.501   3.134  1.00 20.00    -0.129 Cl
ENDBRANCH   3   5
TORSDOF 1
ENDMDL
MODEL 3
REMARK VINA RESULT:      -3.8      1.339      1.863
REMARK  1 active torsions:
REMARK  status: ('A' for Active; 'I' for Inactive)
REMARK    1  A    between atoms: C3_3  and  C4_4 
ROOT
HETATM    1  C1  UNL     1     -35.606   6.106   3.433  1.00 20.00     0.033 C 
HETATM    2  C2  UNL     1     -33.408   5.001   2.915  1.00 20.00     0.033 C 
HETATM    3  C4  UNL     1     -34.200   5.798   3.958  1.00 20.00     0.042 C 
HETATM    4 CL6  UNL     1     -34.384   4.749   5.420  1.00 20.00    -0.119 Cl
ENDROOT
BRANCH   3   5
HETATM    5  C3  UNL     1     -33.456   7.068   4.404  1.00 20.00     0.139 C 
HETATM    6 CL5  UNL     1     -33.671   7.452   6.133  1.00 20.00    -0.129 Cl
ENDBRANCH   3   5
TORSDOF 1
ENDMDL
MODEL 4
REMARK VINA RESULT:      -3.8      1.791      1.940
REMARK  1 active torsions:
REMARK  status: ('A' for Active; 'I' for Inactive)
REMARK    1  A    between atoms: C3_3  and  C4_4 
ROOT
HETATM    1  C1  UNL     1     -33.942   6.693   5.353  1.00 20.00     0.033 C 
HETATM    2  C2  UNL     1     -35.649   6.125   3.596  1.00 20.00     0.033 C 
HETATM    3  C4  UNL     1     -34.236   5.838   4.116  1.00 20.00     0.042 C 
HETATM    4 CL6  UNL     1     -34.186   4.104   4.628  1.00 20.00    -0.119 Cl
ENDROOT
BRANCH   3   5
HETATM    5  C3  UNL     1     -33.169   6.016   3.022  1.00 20.00     0.139 C 
HETATM    6 CL5  UNL     1     -32.258   7.545   3.153  1.00 20.00    -0.129 Cl
ENDBRANCH   3   5
TORSDOF 1
ENDMDL
MODEL 5
REMARK VINA RESULT:      -3.8      1.362      1.877
REMARK  1 active torsions:
REMARK  status: ('A' for Active; 'I' for Inactive)
REMARK    1  A    between atoms: C3_3  and  C4_4 
ROOT
HETATM    1  C1  UNL     1     -33.464   4.993   2.921  1.00 20.00     0.033 C 
HETATM    2  C2  UNL     1     -34.436   4.823   5.233  1.00 20.00     0.033 C 
HETATM    3  C4  UNL     1     -34.233   5.735   4.018  1.00 20.00     0.042 C 
HETATM    4 CL6  UNL     1     -35.868   6.137   3.359  1.00 20.00    -0.119 Cl
ENDROOT
BRANCH   3   5
HETATM    5  C3  UNL     1     -33.560   7.066   4.398  1.00 20.00     0.139 C 
HETATM    6 CL5  UNL     1     -33.670   7.452   6.136  1.00 20.00    -0.129 Cl
ENDBRANCH   3   5
TORSDOF 1
ENDMDL
MODEL 6
REMARK VINA RESULT:      -3.8      1.964      2.259
REMARK  1 active torsions:
REMARK  status: ('A' for Active; 'I' for Inactive)
REMARK    1  A    between atoms: C3_3  and  C4_4 
ROOT
HETATM    1  C1  UNL     1     -34.310   4.284   4.665  1.00 20.00     0.033 C 
HETATM    2  C2  UNL     1     -33.989   6.681   5.352  1.00 20.00     0.033 C 
HETATM    3  C4  UNL     1     -34.263   5.736   4.177  1.00 20.00     0.042 C 
HETATM    4 CL6  UNL     1     -35.898   6.143   3.521  1.00 20.00    -0.119 Cl
ENDROOT
BRANCH   3   5
HETATM    5  C3  UNL     1     -33.256   5.929   3.030  1.00 20.00     0.139 C 
HETATM    6 CL5  UNL     1     -32.466   7.528   3.034  1.00 20.00    -0.129 Cl
ENDBRANCH   3   5
TORSDOF 1
ENDMDL
MODEL 7
REMARK VINA RESULT:      -3.7      1.113      1.172
REMARK  1 active torsions:
REMARK  status: ('A' for Active; 'I' for Inactive)
REMARK    1  A    between atoms: C3_3  and  C4_4 
ROOT
HETATM    1  C1  UNL     1     -34.140   4.083   4.195  1.00 20.00     0.033 C 
HETATM    2  C2  UNL     1     -35.673   5.988   3.611  1.00 20.00     0.033 C 
HETATM    3  C4  UNL     1     -34.371   5.593   4.317  1.00 20.00     0.042 C 
HETATM    4 CL6  UNL     1     -33.013   6.422   3.458  1.00 20.00    -0.119 Cl
ENDROOT
BRANCH   3   5
HETATM    5  C3  UNL     1     -34.337   6.068   5.780  1.00 20.00     0.139 C 
HETATM    6 CL5  UNL     1     -33.464   7.606   6.012  1.00 20.00    -0.129 Cl
ENDBRANCH   3   5
TORSDOF 1
ENDMDL
MODEL 8
REMARK VINA RESULT:      -3.7      1.120      1.771
REMARK  1 active torsions:
REMARK  status: ('A' for Active; 'I' for Inactive)
REMARK    1  A    between atoms: C3_3  and  C4_4 
ROOT
HETATM    1  C1  UNL     1     -35.699   6.036   3.577  1.00 20.00     0.033 C 
HETATM    2  C2  UNL     1     -33.205   6.304   3.405  1.00 20.00     0.033 C 
HETATM    3  C4  UNL     1     -34.351   5.708   4.229  1.00 20.00     0.042 C 
HETATM    4 CL6  UNL     1     -34.160   3.910   4.208  1.00 20.00    -0.119 Cl
ENDROOT
BRANCH   3   5
HETATM    5  C3  UNL     1     -34.297   6.151   5.701  1.00 20.00     0.139 C 
HETATM    6 CL5  UNL     1     -33.339   7.631   5.969  1.00 20.00    -0.129 Cl
ENDBRANCH   3   5
TORSDOF 1
ENDMDL
MODEL 9
REMARK VINA RESULT:      -3.6      1.585      2.072
REMARK  1 active torsions:
REMARK  status: ('A' for Active; 'I' for Inactive)
REMARK    1  A    between atoms: C3_3  and  C4_4 
ROOT
HETATM    1  C1  UNL     1     -33.269   6.265   3.403  1.00 20.00     0.033 C 
HETATM    2  C2  UNL     1     -34.208   4.086   4.235  1.00 20.00     0.033 C 
HETATM    3  C4  UNL     1     -34.349   5.611   4.272  1.00 20.00     0.042 C 
HETATM    4 CL6  UNL     1     -35.954   6.027   3.549  1.00 20.00    -0.119 Cl
ENDROOT
BRANCH   3   5
HETATM    5  C3  UNL     1     -34.346   6.159   5.709  1.00 20.00     0.139 C 
HETATM    6 CL5  UNL     1     -33.334   7.613   5.918  1.00 20.00    -0.129 Cl
ENDBRANCH   3   5
TORSDOF 1
ENDMDL
