MODEL 1
REMARK VINA RESULT:      -5.2      0.000      0.000
REMARK  1 active torsions:
REMARK  status: ('A' for Active; 'I' for Inactive)
REMARK    1  A    between atoms: C7_7  and  C8_8 
ROOT
HETATM    1  C1  UNL     1     -34.296   6.538   5.571  1.00 20.00     0.064 C 
HETATM    2  C2  UNL     1     -33.107   4.146   3.873  1.00 20.00     0.002 C 
HETATM    3  C3  UNL     1     -34.476   4.292   4.533  1.00 20.00     0.019 C 
HETATM    4  C4  UNL     1     -33.100   4.734   2.465  1.00 20.00     0.005 C 
HETATM    5  C5  UNL     1     -34.898   6.387   3.158  1.00 20.00     0.024 C 
HETATM    6  C6  UNL     1     -34.988   5.736   4.546  1.00 20.00     0.093 C 
HETATM    7  C7  UNL     1     -33.555   6.198   2.425  1.00 20.00    -0.003 C 
HETATM    8  N9  UNL     1     -33.753   7.170   6.379  1.00 20.00    -0.197 NA
ENDROOT
BRANCH   7   9
HETATM    9  C8  UNL     1     -32.465   7.144   2.935  1.00 20.00     0.089 C 
HETATM   10 BR10 UNL     1     -32.240   8.604   1.679  1.00 20.00    -0.096 Br
ENDBRANCH   7   9
TORSDOF 1
ENDMDL
MODEL 2
REMARK VINA RESULT:      -4.3     11.999     13.270
REMARK  1 active torsions:
REMARK  status: ('A' for Active; 'I' for Inactive)
REMARK    1  A    between atoms: C7_7  and  C8_8 
ROOT
HETATM    1  C1  UNL     1     -35.108  13.818  -4.573  1.00 20.00     0.064 C 
HETATM    2  C2  UNL     1     -35.437  16.919  -4.027  1.00 20.00     0.002 C 
HETATM    3  C3  UNL     1     -34.797  15.835  -3.163  1.00 20.00     0.019 C 
HETATM    4  C4  UNL     1     -34.432  17.518  -5.006  1.00 20.00     0.005 C 
HETATM    5  C5  UNL     1     -33.173  15.315  -5.046  1.00 20.00     0.024 C 
HETATM    6  C6  UNL     1     -34.116  14.734  -3.982  1.00 20.00     0.093 C 
HETATM    7  C7  UNL     1     -33.756  16.463  -5.891  1.00 20.00    -0.003 C 
HETATM    8  N9  UNL     1     -35.889  13.096  -5.038  1.00 20.00    -0.197 NA
ENDROOT
BRANCH   7   9
HETATM    9  C8  UNL     1     -34.692  15.969  -6.997  1.00 20.00     0.089 C 
HETATM   10 BR10 UNL     1     -33.870  14.473  -7.916  1.00 20.00    -0.096 Br
ENDBRANCH   7   9
TORSDOF 1
ENDMDL
MODEL 3
REMARK VINA RESULT:      -4.2     12.360     13.375
REMARK  1 active torsions:
REMARK  status: ('A' for Active; 'I' for Inactive)
REMARK    1  A    between atoms: C7_7  and  C8_8 
ROOT
HETATM    1  C1  UNL     1     -35.624  13.845  -5.812  1.00 20.00     0.064 C 
HETATM    2  C2  UNL     1     -33.019  15.616  -5.497  1.00 20.00     0.002 C 
HETATM    3  C3  UNL     1     -33.805  15.246  -6.752  1.00 20.00     0.019 C 
HETATM    4  C4  UNL     1     -33.575  16.876  -4.841  1.00 20.00     0.005 C 
HETATM    5  C5  UNL     1     -35.878  16.323  -5.751  1.00 20.00     0.024 C 
HETATM    6  C6  UNL     1     -35.311  15.109  -6.502  1.00 20.00     0.093 C 
HETATM    7  C7  UNL     1     -35.071  16.775  -4.519  1.00 20.00    -0.003 C 
HETATM    8  N9  UNL     1     -35.870  12.849  -5.269  1.00 20.00    -0.197 NA
ENDROOT
BRANCH   7   9
HETATM    9  C8  UNL     1     -35.327  15.900  -3.290  1.00 20.00     0.089 C 
HETATM   10 BR10 UNL     1     -35.029  16.943  -1.683  1.00 20.00    -0.096 Br
ENDBRANCH   7   9
TORSDOF 1
ENDMDL
MODEL 4
REMARK VINA RESULT:      -4.1     12.254     13.362
REMARK  1 active torsions:
REMARK  status: ('A' for Active; 'I' for Inactive)
REMARK    1  A    between atoms: C7_7  and  C8_8 
ROOT
HETATM    1  C1  UNL     1     -33.709  16.973  -6.067  1.00 20.00     0.064 C 
HETATM    2  C2  UNL     1     -35.529  14.388  -6.223  1.00 20.00     0.002 C 
HETATM    3  C3  UNL     1     -34.185  14.680  -6.884  1.00 20.00     0.019 C 
HETATM    4  C4  UNL     1     -35.349  13.794  -4.829  1.00 20.00     0.005 C 
HETATM    5  C5  UNL     1     -33.153  15.045  -4.590  1.00 20.00     0.024 C 
HETATM    6  C6  UNL     1     -33.272  15.566  -6.030  1.00 20.00     0.093 C 
HETATM    7  C7  UNL     1     -34.485  14.668  -3.912  1.00 20.00    -0.003 C 
HETATM    8  N9  UNL     1     -34.052  18.082  -6.097  1.00 20.00    -0.197 NA
ENDROOT
BRANCH   7   9
HETATM    9  C8  UNL     1     -35.255  15.888  -3.402  1.00 20.00     0.089 C 
HETATM   10 BR10 UNL     1     -34.119  16.920  -2.219  1.00 20.00    -0.096 Br
ENDBRANCH   7   9
TORSDOF 1
ENDMDL
MODEL 5
REMARK VINA RESULT:      -3.9     12.262     13.389
REMARK  1 active torsions:
REMARK  status: ('A' for Active; 'I' for Inactive)
REMARK    1  A    between atoms: C7_7  and  C8_8 
ROOT
HETATM    1  C1  UNL     1     -36.710  13.949  -5.180  1.00 20.00     0.064 C 
HETATM    2  C2  UNL     1     -34.409  15.535  -3.693  1.00 20.00     0.002 C 
HETATM    3  C3  UNL     1     -34.472  14.069  -4.117  1.00 20.00     0.019 C 
HETATM    4  C4  UNL     1     -33.863  16.417  -4.811  1.00 20.00     0.005 C 
HETATM    5  C5  UNL     1     -34.795  14.798  -6.530  1.00 20.00     0.024 C 
HETATM    6  C6  UNL     1     -35.258  13.850  -5.414  1.00 20.00     0.093 C 
HETATM    7  C7  UNL     1     -34.647  16.277  -6.122  1.00 20.00    -0.003 C 
HETATM    8  N9  UNL     1     -37.853  14.026  -4.996  1.00 20.00    -0.197 NA
ENDROOT
BRANCH   7   9
HETATM    9  C8  UNL     1     -35.988  17.011  -6.060  1.00 20.00     0.089 C 
HETATM   10 BR10 UNL     1     -36.923  16.789  -7.743  1.00 20.00    -0.096 Br
ENDBRANCH   7   9
TORSDOF 1
ENDMDL
MODEL 6
REMARK VINA RESULT:      -3.9     12.320     13.516
REMARK  1 active torsions:
REMARK  status: ('A' for Active; 'I' for Inactive)
REMARK    1  A    between atoms: C7_7  and  C8_8 
ROOT
HETATM    1  C1  UNL     1     -35.821  16.133  -6.806  1.00 20.00     0.064 C 
HETATM    2  C2  UNL     1     -35.025  14.047  -4.561  1.00 20.00     0.002 C 
HETATM    3  C3  UNL     1     -35.187  13.851  -6.066  1.00 20.00     0.019 C 
HETATM    4  C4  UNL     1     -33.610  14.495  -4.205  1.00 20.00     0.005 C 
HETATM    5  C5  UNL     1     -33.406  15.617  -6.472  1.00 20.00     0.024 C 
HETATM    6  C6  UNL     1     -34.787  15.085  -6.882  1.00 20.00     0.093 C 
HETATM    7  C7  UNL     1     -33.175  15.760  -4.956  1.00 20.00    -0.003 C 
HETATM    8  N9  UNL     1     -36.635  16.958  -6.747  1.00 20.00    -0.197 NA
ENDROOT
BRANCH   7   9
HETATM    9  C8  UNL     1     -33.827  17.016  -4.373  1.00 20.00     0.089 C 
HETATM   10 BR10 UNL     1     -33.738  16.950  -2.438  1.00 20.00    -0.096 Br
ENDBRANCH   7   9
TORSDOF 1
ENDMDL
MODEL 7
REMARK VINA RESULT:      -3.8     12.112     13.047
REMARK  1 active torsions:
REMARK  status: ('A' for Active; 'I' for Inactive)
REMARK    1  A    between atoms: C7_7  and  C8_8 
ROOT
HETATM    1  C1  UNL     1     -33.808  14.848  -4.175  1.00 20.00     0.064 C 
HETATM    2  C2  UNL     1     -35.059  16.622  -1.870  1.00 20.00     0.002 C 
HETATM    3  C3  UNL     1     -33.741  16.783  -2.624  1.00 20.00     0.019 C 
HETATM    4  C4  UNL     1     -36.207  17.315  -2.596  1.00 20.00     0.005 C 
HETATM    5  C5  UNL     1     -35.029  16.925  -4.810  1.00 20.00     0.024 C 
HETATM    6  C6  UNL     1     -33.820  16.319  -4.082  1.00 20.00     0.093 C 
HETATM    7  C7  UNL     1     -36.366  16.848  -4.049  1.00 20.00    -0.003 C 
HETATM    8  N9  UNL     1     -33.797  13.690  -4.248  1.00 20.00    -0.197 NA
ENDROOT
BRANCH   7   9
HETATM    9  C8  UNL     1     -37.016  15.465  -4.131  1.00 20.00     0.089 C 
HETATM   10 BR10 UNL     1     -37.173  14.936  -5.989  1.00 20.00    -0.096 Br
ENDBRANCH   7   9
TORSDOF 1
ENDMDL
MODEL 8
REMARK VINA RESULT:      -3.8     11.952     12.949
REMARK  1 active torsions:
REMARK  status: ('A' for Active; 'I' for Inactive)
REMARK    1  A    between atoms: C7_7  and  C8_8 
ROOT
HETATM    1  C1  UNL     1     -34.957  15.873  -3.386  1.00 20.00     0.064 C 
HETATM    2  C2  UNL     1     -33.457  15.681  -6.167  1.00 20.00     0.002 C 
HETATM    3  C3  UNL     1     -33.049  15.148  -4.796  1.00 20.00     0.019 C 
HETATM    4  C4  UNL     1     -34.324  14.677  -6.922  1.00 20.00     0.005 C 
HETATM    5  C5  UNL     1     -35.186  13.775  -4.712  1.00 20.00     0.024 C 
HETATM    6  C6  UNL     1     -34.242  14.709  -3.940  1.00 20.00     0.093 C 
HETATM    7  C7  UNL     1     -35.563  14.242  -6.131  1.00 20.00    -0.003 C 
HETATM    8  N9  UNL     1     -35.520  16.789  -2.948  1.00 20.00    -0.197 NA
ENDROOT
BRANCH   7   9
HETATM    9  C8  UNL     1     -36.644  15.327  -6.130  1.00 20.00     0.089 C 
HETATM   10 BR10 UNL     1     -38.176  14.709  -5.116  1.00 20.00    -0.096 Br
ENDBRANCH   7   9
TORSDOF 1
ENDMDL
MODEL 9
REMARK VINA RESULT:      -3.8     12.406     13.434
REMARK  1 active torsions:
REMARK  status: ('A' for Active; 'I' for Inactive)
REMARK    1  A    between atoms: C7_7  and  C8_8 
ROOT
HETATM    1  C1  UNL     1     -35.118  13.689  -5.418  1.00 20.00     0.064 C 
HETATM    2  C2  UNL     1     -34.150  15.898  -3.368  1.00 20.00     0.002 C 
HETATM    3  C3  UNL     1     -33.336  14.992  -4.287  1.00 20.00     0.019 C 
HETATM    4  C4  UNL     1     -34.565  17.185  -4.075  1.00 20.00     0.005 C 
HETATM    5  C5  UNL     1     -34.562  15.954  -6.295  1.00 20.00     0.024 C 
HETATM    6  C6  UNL     1     -34.045  14.680  -5.609  1.00 20.00     0.093 C 
HETATM    7  C7  UNL     1     -35.327  16.932  -5.381  1.00 20.00    -0.003 C 
HETATM    8  N9  UNL     1     -35.963  12.907  -5.267  1.00 20.00    -0.197 NA
ENDROOT
BRANCH   7   9
HETATM    9  C8  UNL     1     -36.769  16.492  -5.119  1.00 20.00     0.089 C 
HETATM   10 BR10 UNL     1     -37.659  16.159  -6.809  1.00 20.00    -0.096 Br
ENDBRANCH   7   9
TORSDOF 1
ENDMDL
