MODEL 1
REMARK VINA RESULT:      -3.8      0.000      0.000
REMARK  1 active torsions:
REMARK  status: ('A' for Active; 'I' for Inactive)
REMARK    1  A    between atoms: C7_7  and  C8_8 
ROOT
HETATM    1  C1  UNL     1     -34.261   6.340   1.642  1.00 20.00     0.015 C 
HETATM    2  C2  UNL     1     -32.416   7.091   3.129  1.00 20.00     0.015 C 
HETATM    3  C3  UNL     1     -32.698   4.673   2.620  1.00 20.00     0.015 C 
HETATM    4  C7  UNL     1     -33.473   5.978   2.924  1.00 20.00    -0.045 C 
ENDROOT
BRANCH   4   5
HETATM    5  C8  UNL     1     -34.433   5.823   4.191  1.00 20.00    -0.045 C 
HETATM    6  C4  UNL     1     -34.039   6.783   5.339  1.00 20.00     0.015 C 
HETATM    7  C5  UNL     1     -34.396   4.388   4.774  1.00 20.00     0.015 C 
HETATM    8  C6  UNL     1     -35.910   6.126   3.841  1.00 20.00     0.015 C 
ENDBRANCH   4   5
TORSDOF 1
ENDMDL
MODEL 2
REMARK VINA RESULT:      -3.8      0.021      3.071
REMARK  1 active torsions:
REMARK  status: ('A' for Active; 'I' for Inactive)
REMARK    1  A    between atoms: C7_7  and  C8_8 
ROOT
HETATM    1  C1  UNL     1     -35.913   6.138   3.829  1.00 20.00     0.015 C 
HETATM    2  C2  UNL     1     -34.405   4.394   4.760  1.00 20.00     0.015 C 
HETATM    3  C3  UNL     1     -34.048   6.785   5.340  1.00 20.00     0.015 C 
HETATM    4  C7  UNL     1     -34.438   5.831   4.185  1.00 20.00    -0.045 C 
ENDROOT
BRANCH   4   5
HETATM    5  C8  UNL     1     -33.473   5.993   2.923  1.00 20.00    -0.045 C 
HETATM    6  C4  UNL     1     -34.250   6.379   1.642  1.00 20.00     0.015 C 
HETATM    7  C5  UNL     1     -32.708   4.684   2.606  1.00 20.00     0.015 C 
HETATM    8  C6  UNL     1     -32.405   7.092   3.147  1.00 20.00     0.015 C 
ENDBRANCH   4   5
TORSDOF 1
ENDMDL
MODEL 3
REMARK VINA RESULT:      -3.8      0.025      1.521
REMARK  1 active torsions:
REMARK  status: ('A' for Active; 'I' for Inactive)
REMARK    1  A    between atoms: C7_7  and  C8_8 
ROOT
HETATM    1  C1  UNL     1     -34.271   6.303   1.650  1.00 20.00     0.015 C 
HETATM    2  C2  UNL     1     -32.423   7.076   3.123  1.00 20.00     0.015 C 
HETATM    3  C3  UNL     1     -32.697   4.653   2.637  1.00 20.00     0.015 C 
HETATM    4  C7  UNL     1     -33.477   5.957   2.932  1.00 20.00    -0.045 C 
ENDROOT
BRANCH   4   5
HETATM    5  C8  UNL     1     -34.430   5.809   4.205  1.00 20.00    -0.045 C 
HETATM    6  C4  UNL     1     -34.390   4.380   4.798  1.00 20.00     0.015 C 
HETATM    7  C5  UNL     1     -35.910   6.109   3.859  1.00 20.00     0.015 C 
HETATM    8  C6  UNL     1     -34.031   6.778   5.344  1.00 20.00     0.015 C 
ENDBRANCH   4   5
TORSDOF 1
ENDMDL
MODEL 4
REMARK VINA RESULT:      -3.8      0.021      3.071
REMARK  1 active torsions:
REMARK  status: ('A' for Active; 'I' for Inactive)
REMARK    1  A    between atoms: C7_7  and  C8_8 
ROOT
HETATM    1  C1  UNL     1     -35.913   6.138   3.828  1.00 20.00     0.015 C 
HETATM    2  C2  UNL     1     -34.407   4.394   4.763  1.00 20.00     0.015 C 
HETATM    3  C3  UNL     1     -34.049   6.786   5.340  1.00 20.00     0.015 C 
HETATM    4  C7  UNL     1     -34.439   5.831   4.186  1.00 20.00    -0.045 C 
ENDROOT
BRANCH   4   5
HETATM    5  C8  UNL     1     -33.472   5.991   2.925  1.00 20.00    -0.045 C 
HETATM    6  C4  UNL     1     -32.709   4.682   2.608  1.00 20.00     0.015 C 
HETATM    7  C5  UNL     1     -32.404   7.090   3.149  1.00 20.00     0.015 C 
HETATM    8  C6  UNL     1     -34.250   6.377   1.643  1.00 20.00     0.015 C 
ENDBRANCH   4   5
TORSDOF 1
ENDMDL
MODEL 5
REMARK VINA RESULT:      -3.8      0.010      2.152
REMARK  1 active torsions:
REMARK  status: ('A' for Active; 'I' for Inactive)
REMARK    1  A    between atoms: C7_7  and  C8_8 
ROOT
HETATM    1  C1  UNL     1     -32.709   4.670   2.618  1.00 20.00     0.015 C 
HETATM    2  C2  UNL     1     -34.263   6.348   1.644  1.00 20.00     0.015 C 
HETATM    3  C3  UNL     1     -32.410   7.084   3.129  1.00 20.00     0.015 C 
HETATM    4  C7  UNL     1     -33.475   5.979   2.924  1.00 20.00    -0.045 C 
ENDROOT
BRANCH   4   5
HETATM    5  C8  UNL     1     -34.432   5.828   4.194  1.00 20.00    -0.045 C 
HETATM    6  C4  UNL     1     -35.910   6.127   3.846  1.00 20.00     0.015 C 
HETATM    7  C5  UNL     1     -34.036   6.796   5.337  1.00 20.00     0.015 C 
HETATM    8  C6  UNL     1     -34.391   4.398   4.785  1.00 20.00     0.015 C 
ENDBRANCH   4   5
TORSDOF 1
ENDMDL
MODEL 6
REMARK VINA RESULT:      -3.8      0.014      2.153
REMARK  1 active torsions:
REMARK  status: ('A' for Active; 'I' for Inactive)
REMARK    1  A    between atoms: C7_7  and  C8_8 
ROOT
HETATM    1  C1  UNL     1     -32.414   7.072   3.130  1.00 20.00     0.015 C 
HETATM    2  C2  UNL     1     -32.708   4.654   2.629  1.00 20.00     0.015 C 
HETATM    3  C3  UNL     1     -34.263   6.327   1.645  1.00 20.00     0.015 C 
HETATM    4  C7  UNL     1     -33.476   5.965   2.929  1.00 20.00    -0.045 C 
ENDROOT
BRANCH   4   5
HETATM    5  C8  UNL     1     -34.436   5.820   4.197  1.00 20.00    -0.045 C 
HETATM    6  C4  UNL     1     -35.911   6.128   3.848  1.00 20.00     0.015 C 
HETATM    7  C5  UNL     1     -34.035   6.784   5.341  1.00 20.00     0.015 C 
HETATM    8  C6  UNL     1     -34.405   4.389   4.787  1.00 20.00     0.015 C 
ENDBRANCH   4   5
TORSDOF 1
ENDMDL
MODEL 7
REMARK VINA RESULT:      -3.8      0.007      3.071
REMARK  1 active torsions:
REMARK  status: ('A' for Active; 'I' for Inactive)
REMARK    1  A    between atoms: C7_7  and  C8_8 
ROOT
HETATM    1  C1  UNL     1     -35.909   6.131   3.844  1.00 20.00     0.015 C 
HETATM    2  C2  UNL     1     -34.394   4.396   4.780  1.00 20.00     0.015 C 
HETATM    3  C3  UNL     1     -34.037   6.792   5.339  1.00 20.00     0.015 C 
HETATM    4  C7  UNL     1     -34.432   5.829   4.194  1.00 20.00    -0.045 C 
ENDROOT
BRANCH   4   5
HETATM    5  C8  UNL     1     -33.474   5.982   2.926  1.00 20.00    -0.045 C 
HETATM    6  C4  UNL     1     -32.412   7.089   3.131  1.00 20.00     0.015 C 
HETATM    7  C5  UNL     1     -34.262   6.350   1.644  1.00 20.00     0.015 C 
HETATM    8  C6  UNL     1     -32.703   4.675   2.619  1.00 20.00     0.015 C 
ENDBRANCH   4   5
TORSDOF 1
ENDMDL
MODEL 8
REMARK VINA RESULT:      -3.2     11.633     12.886
REMARK  1 active torsions:
REMARK  status: ('A' for Active; 'I' for Inactive)
REMARK    1  A    between atoms: C7_7  and  C8_8 
ROOT
HETATM    1  C1  UNL     1     -34.352  13.808  -7.024  1.00 20.00     0.015 C 
HETATM    2  C2  UNL     1     -35.983  13.422  -5.188  1.00 20.00     0.015 C 
HETATM    3  C3  UNL     1     -36.083  15.519  -6.520  1.00 20.00     0.015 C 
HETATM    4  C7  UNL     1     -35.111  14.505  -5.870  1.00 20.00    -0.045 C 
ENDROOT
BRANCH   4   5
HETATM    5  C8  UNL     1     -34.115  15.208  -4.838  1.00 20.00    -0.045 C 
HETATM    6  C4  UNL     1     -33.402  16.432  -5.461  1.00 20.00     0.015 C 
HETATM    7  C5  UNL     1     -33.006  14.242  -4.353  1.00 20.00     0.015 C 
HETATM    8  C6  UNL     1     -34.852  15.715  -3.574  1.00 20.00     0.015 C 
ENDBRANCH   4   5
TORSDOF 1
ENDMDL
MODEL 9
REMARK VINA RESULT:      -3.2     11.695     12.932
REMARK  1 active torsions:
REMARK  status: ('A' for Active; 'I' for Inactive)
REMARK    1  A    between atoms: C7_7  and  C8_8 
ROOT
HETATM    1  C1  UNL     1     -32.975  14.365  -4.356  1.00 20.00     0.015 C 
HETATM    2  C2  UNL     1     -33.501  16.569  -5.380  1.00 20.00     0.015 C 
HETATM    3  C3  UNL     1     -34.876  15.714  -3.493  1.00 20.00     0.015 C 
HETATM    4  C7  UNL     1     -34.140  15.289  -4.787  1.00 20.00    -0.045 C 
ENDROOT
BRANCH   4   5
HETATM    5  C8  UNL     1     -35.119  14.572  -5.825  1.00 20.00    -0.045 C 
HETATM    6  C4  UNL     1     -36.110  15.569  -6.472  1.00 20.00     0.015 C 
HETATM    7  C5  UNL     1     -35.971  13.468  -5.151  1.00 20.00     0.015 C 
HETATM    8  C6  UNL     1     -34.344  13.897  -6.982  1.00 20.00     0.015 C 
ENDBRANCH   4   5
TORSDOF 1
ENDMDL
