MODEL 1
REMARK VINA RESULT:      -4.1      0.000      0.000
REMARK  2 active torsions:
REMARK  status: ('A' for Active; 'I' for Inactive)
REMARK    1  A    between atoms: C1_1  and  C3_3 
REMARK    2  A    between atoms: C2_2  and  C3_3 
ROOT
HETATM    1  C3  UNL     1     -34.112   6.917   4.044  1.00 20.00     0.109 C 
HETATM    2 CL6  UNL     1     -33.542   7.299   5.704  1.00 20.00    -0.123 Cl
ENDROOT
BRANCH   1   3
HETATM    3  C1  UNL     1     -35.093   5.740   4.087  1.00 20.00     0.135 C 
HETATM    4 CL4  UNL     1     -34.324   4.186   4.495  1.00 20.00    -0.129 Cl
ENDBRANCH   1   3
BRANCH   1   5
HETATM    5  C2  UNL     1     -32.893   6.735   3.139  1.00 20.00     0.135 C 
HETATM    6 CL5  UNL     1     -31.739   8.080   3.299  1.00 20.00    -0.129 Cl
ENDBRANCH   1   5
TORSDOF 2
ENDMDL
MODEL 2
REMARK VINA RESULT:      -4.0      1.373      3.380
REMARK  2 active torsions:
REMARK  status: ('A' for Active; 'I' for Inactive)
REMARK    1  A    between atoms: C1_1  and  C3_3 
REMARK    2  A    between atoms: C2_2  and  C3_3 
ROOT
HETATM    1  C3  UNL     1     -33.952   6.258   3.237  1.00 20.00     0.109 C 
HETATM    2 CL6  UNL     1     -32.936   4.915   2.611  1.00 20.00    -0.123 Cl
ENDROOT
BRANCH   1   3
HETATM    3  C1  UNL     1     -33.069   7.300   3.933  1.00 20.00     0.135 C 
HETATM    4 CL4  UNL     1     -33.432   7.498   5.666  1.00 20.00    -0.129 Cl
ENDBRANCH   1   3
BRANCH   1   5
HETATM    5  C2  UNL     1     -35.077   5.665   4.086  1.00 20.00     0.135 C 
HETATM    6 CL5  UNL     1     -34.523   4.267   5.040  1.00 20.00    -0.129 Cl
ENDBRANCH   1   5
TORSDOF 2
ENDMDL
MODEL 3
REMARK VINA RESULT:      -3.9      1.389      3.502
REMARK  2 active torsions:
REMARK  status: ('A' for Active; 'I' for Inactive)
REMARK    1  A    between atoms: C1_1  and  C3_3 
REMARK    2  A    between atoms: C2_2  and  C3_3 
ROOT
HETATM    1  C3  UNL     1     -34.002   6.144   3.199  1.00 20.00     0.109 C 
HETATM    2 CL6  UNL     1     -32.971   4.797   2.608  1.00 20.00    -0.123 Cl
ENDROOT
BRANCH   1   3
HETATM    3  C1  UNL     1     -33.122   7.306   3.671  1.00 20.00     0.135 C 
HETATM    4 CL4  UNL     1     -32.085   7.981   2.390  1.00 20.00    -0.129 Cl
ENDBRANCH   1   3
BRANCH   1   5
HETATM    5  C2  UNL     1     -34.985   5.591   4.231  1.00 20.00     0.135 C 
HETATM    6 CL5  UNL     1     -34.440   5.896   5.898  1.00 20.00    -0.129 Cl
ENDBRANCH   1   5
TORSDOF 2
ENDMDL
MODEL 4
REMARK VINA RESULT:      -3.9      1.517      2.293
REMARK  2 active torsions:
REMARK  status: ('A' for Active; 'I' for Inactive)
REMARK    1  A    between atoms: C1_1  and  C3_3 
REMARK    2  A    between atoms: C2_2  and  C3_3 
ROOT
HETATM    1  C3  UNL     1     -33.757   7.180   3.838  1.00 20.00     0.109 C 
HETATM    2 CL6  UNL     1     -32.092   7.593   3.304  1.00 20.00    -0.123 Cl
ENDROOT
BRANCH   1   3
HETATM    3  C1  UNL     1     -33.790   7.010   5.361  1.00 20.00     0.135 C 
HETATM    4 CL4  UNL     1     -34.548   5.489   5.892  1.00 20.00    -0.129 Cl
ENDBRANCH   1   3
BRANCH   1   5
HETATM    5  C2  UNL     1     -34.249   5.983   3.024  1.00 20.00     0.135 C 
HETATM    6 CL5  UNL     1     -32.932   4.843   2.656  1.00 20.00    -0.129 Cl
ENDBRANCH   1   5
TORSDOF 2
ENDMDL
MODEL 5
REMARK VINA RESULT:      -3.9      1.338      2.873
REMARK  2 active torsions:
REMARK  status: ('A' for Active; 'I' for Inactive)
REMARK    1  A    between atoms: C1_1  and  C3_3 
REMARK    2  A    between atoms: C2_2  and  C3_3 
ROOT
HETATM    1  C3  UNL     1     -34.874   5.426   4.501  1.00 20.00     0.109 C 
HETATM    2 CL6  UNL     1     -34.135   3.808   4.246  1.00 20.00    -0.123 Cl
ENDROOT
BRANCH   1   3
HETATM    3  C1  UNL     1     -34.480   6.366   3.357  1.00 20.00     0.135 C 
HETATM    4 CL4  UNL     1     -32.838   6.076   2.730  1.00 20.00    -0.129 Cl
ENDBRANCH   1   3
BRANCH   1   5
HETATM    5  C2  UNL     1     -34.523   5.907   5.909  1.00 20.00     0.135 C 
HETATM    6 CL5  UNL     1     -33.620   7.441   5.881  1.00 20.00    -0.129 Cl
ENDBRANCH   1   5
TORSDOF 2
ENDMDL
MODEL 6
REMARK VINA RESULT:      -3.9      1.632      3.678
REMARK  2 active torsions:
REMARK  status: ('A' for Active; 'I' for Inactive)
REMARK    1  A    between atoms: C1_1  and  C3_3 
REMARK    2  A    between atoms: C2_2  and  C3_3 
ROOT
HETATM    1  C3  UNL     1     -33.476   7.138   3.714  1.00 20.00     0.109 C 
HETATM    2 CL6  UNL     1     -33.589   5.488   3.010  1.00 20.00    -0.123 Cl
ENDROOT
BRANCH   1   3
HETATM    3  C1  UNL     1     -32.114   7.756   3.378  1.00 20.00     0.135 C 
HETATM    4 CL4  UNL     1     -32.054   8.517   1.768  1.00 20.00    -0.129 Cl
ENDBRANCH   1   3
BRANCH   1   5
HETATM    5  C2  UNL     1     -33.823   7.060   5.201  1.00 20.00     0.135 C 
HETATM    6 CL5  UNL     1     -34.560   5.498   5.631  1.00 20.00    -0.129 Cl
ENDBRANCH   1   5
TORSDOF 2
ENDMDL
MODEL 7
REMARK VINA RESULT:      -3.8      0.539      3.301
REMARK  2 active torsions:
REMARK  status: ('A' for Active; 'I' for Inactive)
REMARK    1  A    between atoms: C1_1  and  C3_3 
REMARK    2  A    between atoms: C2_2  and  C3_3 
ROOT
HETATM    1  C3  UNL     1     -33.498   6.634   4.222  1.00 20.00     0.109 C 
HETATM    2 CL6  UNL     1     -33.699   7.481   5.794  1.00 20.00    -0.123 Cl
ENDROOT
BRANCH   1   3
HETATM    3  C1  UNL     1     -33.138   7.645   3.127  1.00 20.00     0.135 C 
HETATM    4 CL4  UNL     1     -31.487   8.296   3.273  1.00 20.00    -0.129 Cl
ENDBRANCH   1   3
BRANCH   1   5
HETATM    5  C2  UNL     1     -34.743   5.785   3.961  1.00 20.00     0.135 C 
HETATM    6 CL5  UNL     1     -34.521   4.100   4.490  1.00 20.00    -0.129 Cl
ENDBRANCH   1   5
TORSDOF 2
ENDMDL
MODEL 8
REMARK VINA RESULT:      -3.7      1.318      1.942
REMARK  2 active torsions:
REMARK  status: ('A' for Active; 'I' for Inactive)
REMARK    1  A    between atoms: C1_1  and  C3_3 
REMARK    2  A    between atoms: C2_2  and  C3_3 
ROOT
HETATM    1  C3  UNL     1     -33.265   6.155   3.492  1.00 20.00     0.109 C 
HETATM    2 CL6  UNL     1     -32.949   4.720   2.458  1.00 20.00    -0.123 Cl
ENDROOT
BRANCH   1   3
HETATM    3  C1  UNL     1     -34.672   6.065   4.094  1.00 20.00     0.135 C 
HETATM    4 CL4  UNL     1     -34.731   5.176   5.637  1.00 20.00    -0.129 Cl
ENDBRANCH   1   3
BRANCH   1   5
HETATM    5  C2  UNL     1     -32.969   7.417   2.681  1.00 20.00     0.135 C 
HETATM    6 CL5  UNL     1     -31.521   8.265   3.276  1.00 20.00    -0.129 Cl
ENDBRANCH   1   5
TORSDOF 2
ENDMDL
MODEL 9
REMARK VINA RESULT:      -3.6      1.028      2.445
REMARK  2 active torsions:
REMARK  status: ('A' for Active; 'I' for Inactive)
REMARK    1  A    between atoms: C1_1  and  C3_3 
REMARK    2  A    between atoms: C2_2  and  C3_3 
ROOT
HETATM    1  C3  UNL     1     -33.010   6.645   3.448  1.00 20.00     0.109 C 
HETATM    2 CL6  UNL     1     -32.576   7.763   2.110  1.00 20.00    -0.123 Cl
ENDROOT
BRANCH   1   3
HETATM    3  C1  UNL     1     -33.339   5.259   2.884  1.00 20.00     0.135 C 
HETATM    4 CL4  UNL     1     -34.146   4.185   4.054  1.00 20.00    -0.129 Cl
ENDBRANCH   1   3
BRANCH   1   5
HETATM    5  C2  UNL     1     -34.106   7.296   4.293  1.00 20.00     0.135 C 
HETATM    6 CL5  UNL     1     -33.716   7.259   6.030  1.00 20.00    -0.129 Cl
ENDBRANCH   1   5
TORSDOF 2
ENDMDL
