MODEL 1
REMARK VINA RESULT:      -5.4      0.000      0.000
REMARK  3 active torsions:
REMARK  status: ('A' for Active; 'I' for Inactive)
REMARK    1  A    between atoms: C6_6  and  C7_7 
REMARK    2  A    between atoms: C6_6  and  C8_8 
REMARK    3  A    between atoms: C7_7  and  C9_9 
ROOT
HETATM    1  C7  UNL     1     -33.165   5.948   3.250  1.00 20.00     0.008 C 
ENDROOT
BRANCH   1   2
HETATM    2  C6  UNL     1     -33.330   7.198   2.373  1.00 20.00     0.004 C 
BRANCH   2   3
HETATM    3  C8  UNL     1     -32.037   8.030   2.249  1.00 20.00    -0.023 C 
HETATM    4  C1  UNL     1     -31.415   8.355   3.608  1.00 20.00     0.009 C 
HETATM    5  C2  UNL     1     -32.327   9.329   1.491  1.00 20.00     0.009 C 
ENDBRANCH   2   3
ENDBRANCH   1   2
BRANCH   1   6
HETATM    6  C9  UNL     1     -34.279   5.714   4.306  1.00 20.00    -0.051 C 
HETATM    7  C3  UNL     1     -34.327   4.241   4.746  1.00 20.00     0.014 C 
HETATM    8  C4  UNL     1     -35.633   6.077   3.662  1.00 20.00     0.014 C 
HETATM    9  C5  UNL     1     -34.076   6.607   5.541  1.00 20.00     0.014 C 
ENDBRANCH   1   6
TORSDOF 3
ENDMDL
MODEL 2
REMARK VINA RESULT:      -5.4      0.052      1.433
REMARK  3 active torsions:
REMARK  status: ('A' for Active; 'I' for Inactive)
REMARK    1  A    between atoms: C6_6  and  C7_7 
REMARK    2  A    between atoms: C6_6  and  C8_8 
REMARK    3  A    between atoms: C7_7  and  C9_9 
ROOT
HETATM    1  C7  UNL     1     -33.123   5.961   3.280  1.00 20.00     0.008 C 
ENDROOT
BRANCH   1   2
HETATM    2  C6  UNL     1     -33.277   7.161   2.335  1.00 20.00     0.004 C 
BRANCH   2   3
HETATM    3  C8  UNL     1     -32.008   8.032   2.245  1.00 20.00    -0.023 C 
HETATM    4  C1  UNL     1     -31.426   8.365   3.620  1.00 20.00     0.009 C 
HETATM    5  C2  UNL     1     -32.321   9.328   1.491  1.00 20.00     0.009 C 
ENDBRANCH   2   3
ENDBRANCH   1   2
BRANCH   1   6
HETATM    6  C9  UNL     1     -34.290   5.735   4.279  1.00 20.00    -0.051 C 
HETATM    7  C3  UNL     1     -34.090   6.555   5.564  1.00 20.00     0.014 C 
HETATM    8  C4  UNL     1     -34.318   4.239   4.653  1.00 20.00     0.014 C 
HETATM    9  C5  UNL     1     -35.644   6.101   3.649  1.00 20.00     0.014 C 
ENDBRANCH   1   6
TORSDOF 3
ENDMDL
MODEL 3
REMARK VINA RESULT:      -5.4      0.034      1.444
REMARK  3 active torsions:
REMARK  status: ('A' for Active; 'I' for Inactive)
REMARK    1  A    between atoms: C6_6  and  C7_7 
REMARK    2  A    between atoms: C6_6  and  C8_8 
REMARK    3  A    between atoms: C7_7  and  C9_9 
ROOT
HETATM    1  C7  UNL     1     -33.121   5.968   3.299  1.00 20.00     0.008 C 
ENDROOT
BRANCH   1   2
HETATM    2  C6  UNL     1     -33.287   7.168   2.355  1.00 20.00     0.004 C 
BRANCH   2   3
HETATM    3  C8  UNL     1     -32.016   8.033   2.239  1.00 20.00    -0.023 C 
HETATM    4  C1  UNL     1     -31.407   8.366   3.601  1.00 20.00     0.009 C 
HETATM    5  C2  UNL     1     -32.336   9.328   1.487  1.00 20.00     0.009 C 
ENDBRANCH   2   3
ENDBRANCH   1   2
BRANCH   1   6
HETATM    6  C9  UNL     1     -34.293   5.721   4.288  1.00 20.00    -0.051 C 
HETATM    7  C3  UNL     1     -35.644   6.090   3.654  1.00 20.00     0.014 C 
HETATM    8  C4  UNL     1     -34.072   6.615   5.525  1.00 20.00     0.014 C 
HETATM    9  C5  UNL     1     -34.333   4.255   4.752  1.00 20.00     0.014 C 
ENDBRANCH   1   6
TORSDOF 3
ENDMDL
MODEL 4
REMARK VINA RESULT:      -4.9      0.874      4.405
REMARK  3 active torsions:
REMARK  status: ('A' for Active; 'I' for Inactive)
REMARK    1  A    between atoms: C6_6  and  C7_7 
REMARK    2  A    between atoms: C6_6  and  C8_8 
REMARK    3  A    between atoms: C7_7  and  C9_9 
ROOT
HETATM    1  C7  UNL     1     -33.319   7.624   2.038  1.00 20.00     0.008 C 
ENDROOT
BRANCH   1   2
HETATM    2  C6  UNL     1     -33.088   6.616   3.172  1.00 20.00     0.004 C 
BRANCH   2   3
HETATM    3  C8  UNL     1     -34.211   6.620   4.229  1.00 20.00    -0.023 C 
HETATM    4  C1  UNL     1     -33.754   7.197   5.569  1.00 20.00     0.009 C 
HETATM    5  C2  UNL     1     -34.735   5.195   4.433  1.00 20.00     0.009 C 
ENDBRANCH   2   3
ENDBRANCH   1   2
BRANCH   1   6
HETATM    6  C9  UNL     1     -32.220   8.708   1.863  1.00 20.00    -0.051 C 
HETATM    7  C3  UNL     1     -31.356   8.430   0.622  1.00 20.00     0.014 C 
HETATM    8  C4  UNL     1     -31.313   8.674   3.110  1.00 20.00     0.014 C 
HETATM    9  C5  UNL     1     -32.834  10.114   1.750  1.00 20.00     0.014 C 
ENDBRANCH   1   6
TORSDOF 3
ENDMDL
MODEL 5
REMARK VINA RESULT:      -4.8      1.309      4.728
REMARK  3 active torsions:
REMARK  status: ('A' for Active; 'I' for Inactive)
REMARK    1  A    between atoms: C6_6  and  C7_7 
REMARK    2  A    between atoms: C6_6  and  C8_8 
REMARK    3  A    between atoms: C7_7  and  C9_9 
ROOT
HETATM    1  C7  UNL     1     -33.243   8.255   1.851  1.00 20.00     0.008 C 
ENDROOT
BRANCH   1   2
HETATM    2  C6  UNL     1     -32.426   7.775   3.060  1.00 20.00     0.004 C 
BRANCH   2   3
HETATM    3  C8  UNL     1     -33.151   6.703   3.898  1.00 20.00    -0.023 C 
HETATM    4  C1  UNL     1     -34.332   6.075   3.154  1.00 20.00     0.009 C 
HETATM    5  C2  UNL     1     -33.639   7.315   5.214  1.00 20.00     0.009 C 
ENDBRANCH   2   3
ENDBRANCH   1   2
BRANCH   1   6
HETATM    6  C9  UNL     1     -32.513   9.233   0.890  1.00 20.00    -0.051 C 
HETATM    7  C3  UNL     1     -32.540  10.671   1.433  1.00 20.00     0.014 C 
HETATM    8  C4  UNL     1     -33.246   9.207  -0.466  1.00 20.00     0.014 C 
HETATM    9  C5  UNL     1     -31.054   8.805   0.659  1.00 20.00     0.014 C 
ENDBRANCH   1   6
TORSDOF 3
ENDMDL
MODEL 6
REMARK VINA RESULT:      -4.8      0.884      4.114
REMARK  3 active torsions:
REMARK  status: ('A' for Active; 'I' for Inactive)
REMARK    1  A    between atoms: C6_6  and  C7_7 
REMARK    2  A    between atoms: C6_6  and  C8_8 
REMARK    3  A    between atoms: C7_7  and  C9_9 
ROOT
HETATM    1  C7  UNL     1     -33.998   7.625   3.544  1.00 20.00     0.008 C 
ENDROOT
BRANCH   1   2
HETATM    2  C6  UNL     1     -34.741   6.282   3.484  1.00 20.00     0.004 C 
BRANCH   2   3
HETATM    3  C8  UNL     1     -34.886   5.605   4.861  1.00 20.00    -0.023 C 
HETATM    4  C1  UNL     1     -34.197   6.391   5.978  1.00 20.00     0.009 C 
HETATM    5  C2  UNL     1     -34.316   4.184   4.804  1.00 20.00     0.009 C 
ENDBRANCH   2   3
ENDBRANCH   1   2
BRANCH   1   6
HETATM    6  C9  UNL     1     -32.618   7.664   2.832  1.00 20.00    -0.051 C 
HETATM    7  C3  UNL     1     -32.655   8.577   1.596  1.00 20.00     0.014 C 
HETATM    8  C4  UNL     1     -32.275   6.232   2.374  1.00 20.00     0.014 C 
HETATM    9  C5  UNL     1     -31.511   8.145   3.785  1.00 20.00     0.014 C 
ENDBRANCH   1   6
TORSDOF 3
ENDMDL
MODEL 7
REMARK VINA RESULT:      -4.7      1.281      2.436
REMARK  3 active torsions:
REMARK  status: ('A' for Active; 'I' for Inactive)
REMARK    1  A    between atoms: C6_6  and  C7_7 
REMARK    2  A    between atoms: C6_6  and  C8_8 
REMARK    3  A    between atoms: C7_7  and  C9_9 
ROOT
HETATM    1  C7  UNL     1     -33.571   8.005   2.509  1.00 20.00     0.008 C 
ENDROOT
BRANCH   1   2
HETATM    2  C6  UNL     1     -32.191   8.223   1.870  1.00 20.00     0.004 C 
BRANCH   2   3
HETATM    3  C8  UNL     1     -32.157   9.412   0.888  1.00 20.00    -0.023 C 
HETATM    4  C1  UNL     1     -32.717  10.696   1.501  1.00 20.00     0.009 C 
HETATM    5  C2  UNL     1     -32.942   9.060  -0.379  1.00 20.00     0.009 C 
ENDBRANCH   2   3
ENDBRANCH   1   2
BRANCH   1   6
HETATM    6  C9  UNL     1     -33.686   6.783   3.461  1.00 20.00    -0.051 C 
HETATM    7  C3  UNL     1     -33.294   7.158   4.899  1.00 20.00     0.014 C 
HETATM    8  C4  UNL     1     -32.720   5.691   2.958  1.00 20.00     0.014 C 
HETATM    9  C5  UNL     1     -35.111   6.205   3.458  1.00 20.00     0.014 C 
ENDBRANCH   1   6
TORSDOF 3
ENDMDL
MODEL 8
REMARK VINA RESULT:      -4.4      0.967      4.146
REMARK  3 active torsions:
REMARK  status: ('A' for Active; 'I' for Inactive)
REMARK    1  A    between atoms: C6_6  and  C7_7 
REMARK    2  A    between atoms: C6_6  and  C8_8 
REMARK    3  A    between atoms: C7_7  and  C9_9 
ROOT
HETATM    1  C7  UNL     1     -32.884   6.685   2.589  1.00 20.00     0.008 C 
ENDROOT
BRANCH   1   2
HETATM    2  C6  UNL     1     -34.131   6.570   3.478  1.00 20.00     0.004 C 
BRANCH   2   3
HETATM    3  C8  UNL     1     -33.818   6.073   4.903  1.00 20.00    -0.023 C 
HETATM    4  C1  UNL     1     -34.773   4.970   5.364  1.00 20.00     0.009 C 
HETATM    5  C2  UNL     1     -33.875   7.247   5.886  1.00 20.00     0.009 C 
ENDBRANCH   2   3
ENDBRANCH   1   2
BRANCH   1   6
HETATM    6  C9  UNL     1     -32.294   8.114   2.436  1.00 20.00    -0.051 C 
HETATM    7  C3  UNL     1     -31.303   8.431   3.567  1.00 20.00     0.014 C 
HETATM    8  C4  UNL     1     -33.459   9.122   2.508  1.00 20.00     0.014 C 
HETATM    9  C5  UNL     1     -31.590   8.285   1.080  1.00 20.00     0.014 C 
ENDBRANCH   1   6
TORSDOF 3
ENDMDL
MODEL 9
REMARK VINA RESULT:      -3.7     10.975     12.054
REMARK  3 active torsions:
REMARK  status: ('A' for Active; 'I' for Inactive)
REMARK    1  A    between atoms: C6_6  and  C7_7 
REMARK    2  A    between atoms: C6_6  and  C8_8 
REMARK    3  A    between atoms: C7_7  and  C9_9 
ROOT
HETATM    1  C7  UNL     1     -35.157  15.317  -4.000  1.00 20.00     0.008 C 
ENDROOT
BRANCH   1   2
HETATM    2  C6  UNL     1     -35.179  16.686  -3.305  1.00 20.00     0.004 C 
BRANCH   2   3
HETATM    3  C8  UNL     1     -34.543  16.666  -1.901  1.00 20.00    -0.023 C 
HETATM    4  C1  UNL     1     -35.490  17.191  -0.820  1.00 20.00     0.009 C 
HETATM    5  C2  UNL     1     -33.254  17.494  -1.902  1.00 20.00     0.009 C 
ENDBRANCH   2   3
ENDBRANCH   1   2
BRANCH   1   6
HETATM    6  C9  UNL     1     -33.956  15.063  -4.952  1.00 20.00    -0.051 C 
HETATM    7  C3  UNL     1     -33.399  16.383  -5.509  1.00 20.00     0.014 C 
HETATM    8  C4  UNL     1     -34.454  14.204  -6.132  1.00 20.00     0.014 C 
HETATM    9  C5  UNL     1     -32.830  14.297  -4.238  1.00 20.00     0.014 C 
ENDBRANCH   1   6
TORSDOF 3
ENDMDL
