MODEL 1
REMARK VINA RESULT:      -4.3      0.000      0.000
REMARK  2 active torsions:
REMARK  status: ('A' for Active; 'I' for Inactive)
REMARK    1  A    between atoms: C1_1  and  C3_3 
REMARK    2  A    between atoms: C1_1  and  O5_5 
ROOT
HETATM    1  C1  UNL     1     -33.581   6.342   3.419  1.00 20.00     0.291 C 
HETATM    2  O4  UNL     1     -33.118   5.434   2.741  1.00 20.00    -0.262 OA
ENDROOT
BRANCH   1   3
HETATM    3  C3  UNL     1     -34.486   6.166   4.610  1.00 20.00     0.277 C 
HETATM    4 CL6  UNL     1     -34.536   4.458   5.076  1.00 20.00    -0.097 Cl
HETATM    5 CL7  UNL     1     -33.854   7.161   5.927  1.00 20.00    -0.097 Cl
ENDBRANCH   1   3
BRANCH   1   6
HETATM    6  O5  UNL     1     -33.336   7.674   3.233  1.00 20.00    -0.324 OA
HETATM    7  C2  UNL     1     -32.228   7.986   2.382  1.00 20.00     0.213 C 
ENDBRANCH   1   6
TORSDOF 2
ENDMDL
MODEL 2
REMARK VINA RESULT:      -4.1      1.482      2.012
REMARK  2 active torsions:
REMARK  status: ('A' for Active; 'I' for Inactive)
REMARK    1  A    between atoms: C1_1  and  C3_3 
REMARK    2  A    between atoms: C1_1  and  O5_5 
ROOT
HETATM    1  C1  UNL     1     -33.634   7.012   4.271  1.00 20.00     0.291 C 
HETATM    2  O4  UNL     1     -33.563   7.422   5.422  1.00 20.00    -0.262 OA
ENDROOT
BRANCH   1   3
HETATM    3  C3  UNL     1     -34.287   5.723   3.844  1.00 20.00     0.277 C 
HETATM    4 CL6  UNL     1     -33.211   4.843   2.747  1.00 20.00    -0.097 Cl
HETATM    5 CL7  UNL     1     -34.622   4.773   5.297  1.00 20.00    -0.097 Cl
ENDBRANCH   1   3
BRANCH   1   6
HETATM    6  O5  UNL     1     -33.159   7.662   3.166  1.00 20.00    -0.324 OA
HETATM    7  C2  UNL     1     -31.801   8.107   3.247  1.00 20.00     0.213 C 
ENDBRANCH   1   6
TORSDOF 2
ENDMDL
MODEL 3
REMARK VINA RESULT:      -4.0      2.362      3.592
REMARK  2 active torsions:
REMARK  status: ('A' for Active; 'I' for Inactive)
REMARK    1  A    between atoms: C1_1  and  C3_3 
REMARK    2  A    between atoms: C1_1  and  O5_5 
ROOT
HETATM    1  C1  UNL     1     -33.783   6.936   4.737  1.00 20.00     0.291 C 
HETATM    2  O4  UNL     1     -33.347   7.511   5.726  1.00 20.00    -0.262 OA
ENDROOT
BRANCH   1   3
HETATM    3  C3  UNL     1     -33.275   7.116   3.330  1.00 20.00     0.277 C 
HETATM    4 CL6  UNL     1     -31.771   8.051   3.353  1.00 20.00    -0.097 Cl
HETATM    5 CL7  UNL     1     -33.008   5.511   2.638  1.00 20.00    -0.097 Cl
ENDBRANCH   1   3
BRANCH   1   6
HETATM    6  O5  UNL     1     -34.789   6.010   4.737  1.00 20.00    -0.324 OA
HETATM    7  C2  UNL     1     -34.649   4.946   5.684  1.00 20.00     0.213 C 
ENDBRANCH   1   6
TORSDOF 2
ENDMDL
MODEL 4
REMARK VINA RESULT:      -3.9      1.799      2.858
REMARK  2 active torsions:
REMARK  status: ('A' for Active; 'I' for Inactive)
REMARK    1  A    between atoms: C1_1  and  C3_3 
REMARK    2  A    between atoms: C1_1  and  O5_5 
ROOT
HETATM    1  C1  UNL     1     -33.622   6.025   3.410  1.00 20.00     0.291 C 
HETATM    2  O4  UNL     1     -32.919   5.457   2.585  1.00 20.00    -0.262 OA
ENDROOT
BRANCH   1   3
HETATM    3  C3  UNL     1     -33.417   7.432   3.908  1.00 20.00     0.277 C 
HETATM    4 CL6  UNL     1     -33.489   7.455   5.678  1.00 20.00    -0.097 Cl
HETATM    5 CL7  UNL     1     -31.841   7.990   3.334  1.00 20.00    -0.097 Cl
ENDBRANCH   1   3
BRANCH   1   6
HETATM    6  O5  UNL     1     -34.733   5.496   4.004  1.00 20.00    -0.324 OA
HETATM    7  C2  UNL     1     -34.540   4.246   4.674  1.00 20.00     0.213 C 
ENDBRANCH   1   6
TORSDOF 2
ENDMDL
MODEL 5
REMARK VINA RESULT:      -3.9      1.689      2.025
REMARK  2 active torsions:
REMARK  status: ('A' for Active; 'I' for Inactive)
REMARK    1  A    between atoms: C1_1  and  C3_3 
REMARK    2  A    between atoms: C1_1  and  O5_5 
ROOT
HETATM    1  C1  UNL     1     -32.460   7.864   3.149  1.00 20.00     0.291 C 
HETATM    2  O4  UNL     1     -31.471   8.223   3.774  1.00 20.00    -0.262 OA
ENDROOT
BRANCH   1   3
HETATM    3  C3  UNL     1     -33.660   7.171   3.739  1.00 20.00     0.277 C 
HETATM    4 CL6  UNL     1     -33.691   5.480   3.215  1.00 20.00    -0.097 Cl
HETATM    5 CL7  UNL     1     -33.546   7.284   5.499  1.00 20.00    -0.097 Cl
ENDBRANCH   1   3
BRANCH   1   6
HETATM    6  O5  UNL     1     -32.663   8.052   1.810  1.00 20.00    -0.324 OA
HETATM    7  C2  UNL     1     -32.180   9.292   1.280  1.00 20.00     0.213 C 
ENDBRANCH   1   6
TORSDOF 2
ENDMDL
MODEL 6
REMARK VINA RESULT:      -3.8      2.334      3.161
REMARK  2 active torsions:
REMARK  status: ('A' for Active; 'I' for Inactive)
REMARK    1  A    between atoms: C1_1  and  C3_3 
REMARK    2  A    between atoms: C1_1  and  O5_5 
ROOT
HETATM    1  C1  UNL     1     -34.382   6.253   3.919  1.00 20.00     0.291 C 
HETATM    2  O4  UNL     1     -35.235   5.452   4.277  1.00 20.00    -0.262 OA
ENDROOT
BRANCH   1   3
HETATM    3  C3  UNL     1     -33.598   6.176   2.635  1.00 20.00     0.277 C 
HETATM    4 CL6  UNL     1     -32.354   7.436   2.619  1.00 20.00    -0.097 Cl
HETATM    5 CL7  UNL     1     -32.870   4.569   2.536  1.00 20.00    -0.097 Cl
ENDBRANCH   1   3
BRANCH   1   6
HETATM    6  O5  UNL     1     -34.008   7.374   4.608  1.00 20.00    -0.324 OA
HETATM    7  C2  UNL     1     -33.785   7.192   6.010  1.00 20.00     0.213 C 
ENDBRANCH   1   6
TORSDOF 2
ENDMDL
MODEL 7
REMARK VINA RESULT:      -3.7      1.047      1.768
REMARK  2 active torsions:
REMARK  status: ('A' for Active; 'I' for Inactive)
REMARK    1  A    between atoms: C1_1  and  C3_3 
REMARK    2  A    between atoms: C1_1  and  O5_5 
ROOT
HETATM    1  C1  UNL     1     -33.552   6.633   3.677  1.00 20.00     0.291 C 
HETATM    2  O4  UNL     1     -32.657   7.437   3.452  1.00 20.00    -0.262 OA
ENDROOT
BRANCH   1   3
HETATM    3  C3  UNL     1     -34.387   6.585   4.929  1.00 20.00     0.277 C 
HETATM    4 CL6  UNL     1     -34.581   4.905   5.454  1.00 20.00    -0.097 Cl
HETATM    5 CL7  UNL     1     -33.567   7.543   6.169  1.00 20.00    -0.097 Cl
ENDBRANCH   1   3
BRANCH   1   6
HETATM    6  O5  UNL     1     -33.971   5.653   2.820  1.00 20.00    -0.324 OA
HETATM    7  C2  UNL     1     -32.978   4.692   2.447  1.00 20.00     0.213 C 
ENDBRANCH   1   6
TORSDOF 2
ENDMDL
MODEL 8
REMARK VINA RESULT:      -3.7      1.777      2.581
REMARK  2 active torsions:
REMARK  status: ('A' for Active; 'I' for Inactive)
REMARK    1  A    between atoms: C1_1  and  C3_3 
REMARK    2  A    between atoms: C1_1  and  O5_5 
ROOT
HETATM    1  C1  UNL     1     -33.744   6.732   3.812  1.00 20.00     0.291 C 
HETATM    2  O4  UNL     1     -32.963   7.478   3.237  1.00 20.00    -0.262 OA
ENDROOT
BRANCH   1   3
HETATM    3  C3  UNL     1     -34.163   5.368   3.328  1.00 20.00     0.277 C 
HETATM    4 CL6  UNL     1     -32.836   4.622   2.423  1.00 20.00    -0.097 Cl
HETATM    5 CL7  UNL     1     -34.588   4.395   4.741  1.00 20.00    -0.097 Cl
ENDBRANCH   1   3
BRANCH   1   6
HETATM    6  O5  UNL     1     -34.354   6.992   5.007  1.00 20.00    -0.324 OA
HETATM    7  C2  UNL     1     -33.500   7.493   6.041  1.00 20.00     0.213 C 
ENDBRANCH   1   6
TORSDOF 2
ENDMDL
MODEL 9
REMARK VINA RESULT:      -3.7      2.488      2.864
REMARK  2 active torsions:
REMARK  status: ('A' for Active; 'I' for Inactive)
REMARK    1  A    between atoms: C1_1  and  C3_3 
REMARK    2  A    between atoms: C1_1  and  O5_5 
ROOT
HETATM    1  C1  UNL     1     -34.518   6.053   4.117  1.00 20.00     0.291 C 
HETATM    2  O4  UNL     1     -35.589   5.978   3.530  1.00 20.00    -0.262 OA
ENDROOT
BRANCH   1   3
HETATM    3  C3  UNL     1     -33.164   6.097   3.457  1.00 20.00     0.277 C 
HETATM    4 CL6  UNL     1     -32.932   4.641   2.476  1.00 20.00    -0.097 Cl
HETATM    5 CL7  UNL     1     -33.091   7.551   2.456  1.00 20.00    -0.097 Cl
ENDBRANCH   1   3
BRANCH   1   6
HETATM    6  O5  UNL     1     -34.361   6.140   5.472  1.00 20.00    -0.324 OA
HETATM    7  C2  UNL     1     -33.691   7.314   5.943  1.00 20.00     0.213 C 
ENDBRANCH   1   6
TORSDOF 2
ENDMDL
