MODEL 1
REMARK VINA RESULT:      -4.9      0.000      0.000
REMARK  1 active torsions:
REMARK  status: ('A' for Active; 'I' for Inactive)
REMARK    1  A    between atoms: C1_1  and  N7_7 
ROOT
HETATM    1  C2  UNL     1     -34.828   5.008   5.103  1.00 20.00     0.003 C 
HETATM    2  C3  UNL     1     -34.073   4.668   3.818  1.00 20.00     0.020 C 
HETATM    3  C4  UNL     1     -34.135   6.139   5.863  1.00 20.00     0.020 C 
HETATM    4  C5  UNL     1     -33.866   5.910   2.954  1.00 20.00     0.123 C 
HETATM    5  C6  UNL     1     -33.926   7.359   4.970  1.00 20.00     0.123 C 
HETATM    6  N7  UNL     1     -33.260   6.987   3.727  1.00 20.00    -0.381 N 
ENDROOT
BRANCH   6   7
HETATM    7  C1  UNL     1     -32.171   7.658   3.278  1.00 20.00     0.168 C 
HETATM    8  S8  UNL     1     -32.175   8.586   1.896  1.00 20.00    -0.074 SA
ENDBRANCH   6   7
TORSDOF 1
ENDMDL
MODEL 2
REMARK VINA RESULT:      -4.7      0.828      1.913
REMARK  1 active torsions:
REMARK  status: ('A' for Active; 'I' for Inactive)
REMARK    1  A    between atoms: C1_1  and  N7_7 
ROOT
HETATM    1  C2  UNL     1     -34.456   5.720   5.739  1.00 20.00     0.003 C 
HETATM    2  C3  UNL     1     -33.959   7.165   5.803  1.00 20.00     0.020 C 
HETATM    3  C4  UNL     1     -34.920   5.362   4.327  1.00 20.00     0.020 C 
HETATM    4  C5  UNL     1     -32.883   7.425   4.752  1.00 20.00     0.123 C 
HETATM    5  C6  UNL     1     -33.832   5.650   3.297  1.00 20.00     0.123 C 
HETATM    6  N7  UNL     1     -33.337   7.016   3.428  1.00 20.00    -0.381 N 
ENDROOT
BRANCH   6   7
HETATM    7  C1  UNL     1     -33.240   7.841   2.357  1.00 20.00     0.168 C 
HETATM    8  S8  UNL     1     -31.824   8.597   1.912  1.00 20.00    -0.074 SA
ENDBRANCH   6   7
TORSDOF 1
ENDMDL
MODEL 3
REMARK VINA RESULT:      -3.3      1.886      2.432
REMARK  1 active torsions:
REMARK  status: ('A' for Active; 'I' for Inactive)
REMARK    1  A    between atoms: C1_1  and  N7_7 
ROOT
HETATM    1  C2  UNL     1     -34.136   7.011   6.246  1.00 20.00     0.003 C 
HETATM    2  C3  UNL     1     -34.536   5.607   5.792  1.00 20.00     0.020 C 
HETATM    3  C4  UNL     1     -33.105   7.621   5.296  1.00 20.00     0.020 C 
HETATM    4  C5  UNL     1     -35.010   5.609   4.341  1.00 20.00     0.123 C 
HETATM    5  C6  UNL     1     -33.599   7.594   3.852  1.00 20.00     0.123 C 
HETATM    6  N7  UNL     1     -34.031   6.253   3.474  1.00 20.00    -0.381 N 
ENDROOT
BRANCH   6   7
HETATM    7  C1  UNL     1     -33.595   5.663   2.334  1.00 20.00     0.168 C 
HETATM    8  S8  UNL     1     -32.855   4.171   2.303  1.00 20.00    -0.074 SA
ENDBRANCH   6   7
TORSDOF 1
ENDMDL
MODEL 4
REMARK VINA RESULT:      -3.2      2.420      3.805
REMARK  1 active torsions:
REMARK  status: ('A' for Active; 'I' for Inactive)
REMARK    1  A    between atoms: C1_1  and  N7_7 
ROOT
HETATM    1  C2  UNL     1     -32.029   7.983   2.389  1.00 20.00     0.003 C 
HETATM    2  C3  UNL     1     -31.486   8.159   3.808  1.00 20.00     0.020 C 
HETATM    3  C4  UNL     1     -33.010   6.813   2.318  1.00 20.00     0.020 C 
HETATM    4  C5  UNL     1     -32.621   8.288   4.821  1.00 20.00     0.123 C 
HETATM    5  C6  UNL     1     -34.121   6.959   3.354  1.00 20.00     0.123 C 
HETATM    6  N7  UNL     1     -33.569   7.189   4.684  1.00 20.00    -0.381 N 
ENDROOT
BRANCH   6   7
HETATM    7  C1  UNL     1     -33.970   6.459   5.754  1.00 20.00     0.168 C 
HETATM    8  S8  UNL     1     -34.624   4.933   5.625  1.00 20.00    -0.074 SA
ENDBRANCH   6   7
TORSDOF 1
ENDMDL
MODEL 5
REMARK VINA RESULT:      -3.2     11.654     12.777
REMARK  1 active torsions:
REMARK  status: ('A' for Active; 'I' for Inactive)
REMARK    1  A    between atoms: C1_1  and  N7_7 
ROOT
HETATM    1  C2  UNL     1     -32.869  15.625  -5.267  1.00 20.00     0.003 C 
HETATM    2  C3  UNL     1     -33.659  15.470  -6.567  1.00 20.00     0.020 C 
HETATM    3  C4  UNL     1     -33.778  15.457  -4.050  1.00 20.00     0.020 C 
HETATM    4  C5  UNL     1     -34.430  14.153  -6.592  1.00 20.00     0.123 C 
HETATM    5  C6  UNL     1     -34.548  14.141  -4.111  1.00 20.00     0.123 C 
HETATM    6  N7  UNL     1     -35.238  13.999  -5.388  1.00 20.00    -0.381 N 
ENDROOT
BRANCH   6   7
HETATM    7  C1  UNL     1     -36.552  13.672  -5.452  1.00 20.00     0.168 C 
HETATM    8  S8  UNL     1     -37.774  14.702  -4.985  1.00 20.00    -0.074 SA
ENDBRANCH   6   7
TORSDOF 1
ENDMDL
MODEL 6
REMARK VINA RESULT:      -3.2     12.147     12.673
REMARK  1 active torsions:
REMARK  status: ('A' for Active; 'I' for Inactive)
REMARK    1  A    between atoms: C1_1  and  N7_7 
ROOT
HETATM    1  C2  UNL     1     -33.751  16.973  -2.221  1.00 20.00     0.003 C 
HETATM    2  C3  UNL     1     -35.118  16.853  -1.547  1.00 20.00     0.020 C 
HETATM    3  C4  UNL     1     -33.651  16.040  -3.428  1.00 20.00     0.020 C 
HETATM    4  C5  UNL     1     -36.249  17.073  -2.548  1.00 20.00     0.123 C 
HETATM    5  C6  UNL     1     -34.803  16.270  -4.401  1.00 20.00     0.123 C 
HETATM    6  N7  UNL     1     -36.087  16.211  -3.713  1.00 20.00    -0.381 N 
ENDROOT
BRANCH   6   7
HETATM    7  C1  UNL     1     -37.105  15.444  -4.176  1.00 20.00     0.168 C 
HETATM    8  S8  UNL     1     -36.901  14.243  -5.311  1.00 20.00    -0.074 SA
ENDBRANCH   6   7
TORSDOF 1
ENDMDL
MODEL 7
REMARK VINA RESULT:      -3.1     12.087     12.509
REMARK  1 active torsions:
REMARK  status: ('A' for Active; 'I' for Inactive)
REMARK    1  A    between atoms: C1_1  and  N7_7 
ROOT
HETATM    1  C2  UNL     1     -35.202  17.043  -1.629  1.00 20.00     0.003 C 
HETATM    2  C3  UNL     1     -33.745  16.932  -2.078  1.00 20.00     0.020 C 
HETATM    3  C4  UNL     1     -35.293  17.403  -0.145  1.00 20.00     0.020 C 
HETATM    4  C5  UNL     1     -32.963  18.198  -1.736  1.00 20.00     0.123 C 
HETATM    5  C6  UNL     1     -34.488  18.661   0.168  1.00 20.00     0.123 C 
HETATM    6  N7  UNL     1     -33.122  18.545  -0.330  1.00 20.00    -0.381 N 
ENDROOT
BRANCH   6   7
HETATM    7  C1  UNL     1     -32.054  18.815   0.460  1.00 20.00     0.168 C 
HETATM    8  S8  UNL     1     -32.123  18.805   2.124  1.00 20.00    -0.074 SA
ENDBRANCH   6   7
TORSDOF 1
ENDMDL
MODEL 8
REMARK VINA RESULT:      -3.1     12.125     12.491
REMARK  1 active torsions:
REMARK  status: ('A' for Active; 'I' for Inactive)
REMARK    1  A    between atoms: C1_1  and  N7_7 
ROOT
HETATM    1  C2  UNL     1     -35.030  16.238  -2.716  1.00 20.00     0.003 C 
HETATM    2  C3  UNL     1     -33.664  16.313  -3.399  1.00 20.00     0.020 C 
HETATM    3  C4  UNL     1     -36.132  15.923  -3.729  1.00 20.00     0.020 C 
HETATM    4  C5  UNL     1     -33.375  15.046  -4.199  1.00 20.00     0.123 C 
HETATM    5  C6  UNL     1     -35.807  14.663  -4.525  1.00 20.00     0.123 C 
HETATM    6  N7  UNL     1     -34.473  14.743  -5.109  1.00 20.00    -0.381 N 
ENDROOT
BRANCH   6   7
HETATM    7  C1  UNL     1     -34.257  14.480  -6.421  1.00 20.00     0.168 C 
HETATM    8  S8  UNL     1     -35.086  13.310  -7.268  1.00 20.00    -0.074 SA
ENDBRANCH   6   7
TORSDOF 1
ENDMDL
MODEL 9
REMARK VINA RESULT:      -3.1     11.983     12.514
REMARK  1 active torsions:
REMARK  status: ('A' for Active; 'I' for Inactive)
REMARK    1  A    between atoms: C1_1  and  N7_7 
ROOT
HETATM    1  C2  UNL     1     -34.329  18.195  -0.645  1.00 20.00     0.003 C 
HETATM    2  C3  UNL     1     -35.331  17.057  -0.840  1.00 20.00     0.020 C 
HETATM    3  C4  UNL     1     -33.039  17.928  -1.421  1.00 20.00     0.020 C 
HETATM    4  C5  UNL     1     -35.587  16.794  -2.322  1.00 20.00     0.123 C 
HETATM    5  C6  UNL     1     -33.327  17.650  -2.894  1.00 20.00     0.123 C 
HETATM    6  N7  UNL     1     -34.333  16.605  -3.041  1.00 20.00    -0.381 N 
ENDROOT
BRANCH   6   7
HETATM    7  C1  UNL     1     -34.138  15.543  -3.862  1.00 20.00     0.168 C 
HETATM    8  S8  UNL     1     -33.227  15.620  -5.253  1.00 20.00    -0.074 SA
ENDBRANCH   6   7
TORSDOF 1
ENDMDL
