MODEL 1
REMARK VINA RESULT:      -4.1      0.000      0.000
REMARK  0 active torsions:
REMARK  status: ('A' for Active; 'I' for Inactive)
ROOT
HETATM    1  C1  UNL     1     -33.280   7.016   3.517  1.00 20.00     0.282 C 
HETATM    2  C2  UNL     1     -34.301   5.919   3.297  1.00 20.00     0.278 C 
HETATM    3  C3  UNL     1     -33.961   6.995   5.847  1.00 20.00     0.205 C 
HETATM    4  C4  UNL     1     -34.508   5.614   5.595  1.00 20.00     0.195 C 
HETATM    5  O5  UNL     1     -32.636   7.487   2.583  1.00 20.00    -0.263 OA
HETATM    6  O6  UNL     1     -33.062   7.401   4.798  1.00 20.00    -0.318 OA
HETATM    7  O7  UNL     1     -35.198   5.662   4.355  1.00 20.00    -0.379 OA
ENDROOT
TORSDOF 0
ENDMDL
MODEL 2
REMARK VINA RESULT:      -3.9      1.405      2.929
REMARK  0 active torsions:
REMARK  status: ('A' for Active; 'I' for Inactive)
ROOT
HETATM    1  C1  UNL     1     -34.251   5.024   4.253  1.00 20.00     0.282 C 
HETATM    2  C2  UNL     1     -34.304   6.073   5.345  1.00 20.00     0.278 C 
HETATM    3  C3  UNL     1     -33.247   6.731   2.850  1.00 20.00     0.205 C 
HETATM    4  C4  UNL     1     -32.888   7.457   4.121  1.00 20.00     0.195 C 
HETATM    5  O5  UNL     1     -34.719   3.901   4.421  1.00 20.00    -0.263 OA
HETATM    6  O6  UNL     1     -33.603   5.361   3.112  1.00 20.00    -0.318 OA
HETATM    7  O7  UNL     1     -34.030   7.403   4.964  1.00 20.00    -0.379 OA
ENDROOT
TORSDOF 0
ENDMDL
MODEL 3
REMARK VINA RESULT:      -3.9      1.267      2.694
REMARK  0 active torsions:
REMARK  status: ('A' for Active; 'I' for Inactive)
ROOT
HETATM    1  C1  UNL     1     -34.208   4.988   4.205  1.00 20.00     0.282 C 
HETATM    2  C2  UNL     1     -33.448   5.282   2.928  1.00 20.00     0.278 C 
HETATM    3  C3  UNL     1     -33.607   7.230   4.916  1.00 20.00     0.205 C 
HETATM    4  C4  UNL     1     -33.371   7.545   3.461  1.00 20.00     0.195 C 
HETATM    5  O5  UNL     1     -34.710   3.887   4.413  1.00 20.00    -0.263 OA
HETATM    6  O6  UNL     1     -34.368   6.018   5.072  1.00 20.00    -0.318 OA
HETATM    7  O7  UNL     1     -32.656   6.448   2.912  1.00 20.00    -0.379 OA
ENDROOT
TORSDOF 0
ENDMDL
MODEL 4
REMARK VINA RESULT:      -3.8      1.394      2.555
REMARK  0 active torsions:
REMARK  status: ('A' for Active; 'I' for Inactive)
ROOT
HETATM    1  C1  UNL     1     -33.982   6.704   5.336  1.00 20.00     0.282 C 
HETATM    2  C2  UNL     1     -33.589   7.028   3.909  1.00 20.00     0.278 C 
HETATM    3  C3  UNL     1     -34.585   4.497   4.524  1.00 20.00     0.205 C 
HETATM    4  C4  UNL     1     -33.695   4.774   3.339  1.00 20.00     0.195 C 
HETATM    5  O5  UNL     1     -33.928   7.551   6.223  1.00 20.00    -0.263 OA
HETATM    6  O6  UNL     1     -34.327   5.420   5.598  1.00 20.00    -0.318 OA
HETATM    7  O7  UNL     1     -33.971   6.102   2.917  1.00 20.00    -0.379 OA
ENDROOT
TORSDOF 0
ENDMDL
MODEL 5
REMARK VINA RESULT:      -3.8      1.023      2.450
REMARK  0 active torsions:
REMARK  status: ('A' for Active; 'I' for Inactive)
ROOT
HETATM    1  C1  UNL     1     -33.817   6.921   5.206  1.00 20.00     0.282 C 
HETATM    2  C2  UNL     1     -34.576   5.646   4.901  1.00 20.00     0.278 C 
HETATM    3  C3  UNL     1     -32.816   6.689   3.007  1.00 20.00     0.205 C 
HETATM    4  C4  UNL     1     -33.977   5.793   2.658  1.00 20.00     0.195 C 
HETATM    5  O5  UNL     1     -33.914   7.479   6.296  1.00 20.00    -0.263 OA
HETATM    6  O6  UNL     1     -33.085   7.453   4.197  1.00 20.00    -0.318 OA
HETATM    7  O7  UNL     1     -34.172   4.921   3.761  1.00 20.00    -0.379 OA
ENDROOT
TORSDOF 0
ENDMDL
MODEL 6
REMARK VINA RESULT:      -3.8      1.250      1.926
REMARK  0 active torsions:
REMARK  status: ('A' for Active; 'I' for Inactive)
ROOT
HETATM    1  C1  UNL     1     -32.780   7.273   3.732  1.00 20.00     0.282 C 
HETATM    2  C2  UNL     1     -33.543   7.391   5.035  1.00 20.00     0.278 C 
HETATM    3  C3  UNL     1     -33.917   5.152   3.417  1.00 20.00     0.205 C 
HETATM    4  C4  UNL     1     -34.943   5.642   4.406  1.00 20.00     0.195 C 
HETATM    5  O5  UNL     1     -31.952   8.115   3.396  1.00 20.00    -0.263 OA
HETATM    6  O6  UNL     1     -33.106   6.234   2.925  1.00 20.00    -0.318 OA
HETATM    7  O7  UNL     1     -34.230   6.242   5.478  1.00 20.00    -0.379 OA
ENDROOT
TORSDOF 0
ENDMDL
MODEL 7
REMARK VINA RESULT:      -3.6      0.954      2.097
REMARK  0 active torsions:
REMARK  status: ('A' for Active; 'I' for Inactive)
ROOT
HETATM    1  C1  UNL     1     -34.078   6.127   3.361  1.00 20.00     0.282 C 
HETATM    2  C2  UNL     1     -33.224   7.326   3.720  1.00 20.00     0.278 C 
HETATM    3  C3  UNL     1     -34.381   5.800   5.747  1.00 20.00     0.205 C 
HETATM    4  C4  UNL     1     -33.985   7.244   5.917  1.00 20.00     0.195 C 
HETATM    5  O5  UNL     1     -34.227   5.774   2.194  1.00 20.00    -0.263 OA
HETATM    6  O6  UNL     1     -34.725   5.510   4.379  1.00 20.00    -0.318 OA
HETATM    7  O7  UNL     1     -32.864   7.468   5.076  1.00 20.00    -0.379 OA
ENDROOT
TORSDOF 0
ENDMDL
MODEL 8
REMARK VINA RESULT:      -3.5     11.649     12.628
REMARK  0 active torsions:
REMARK  status: ('A' for Active; 'I' for Inactive)
ROOT
HETATM    1  C1  UNL     1     -35.083  13.625  -5.265  1.00 20.00     0.282 C 
HETATM    2  C2  UNL     1     -34.896  14.550  -6.451  1.00 20.00     0.278 C 
HETATM    3  C3  UNL     1     -33.034  14.574  -4.375  1.00 20.00     0.205 C 
HETATM    4  C4  UNL     1     -33.267  15.744  -5.296  1.00 20.00     0.195 C 
HETATM    5  O5  UNL     1     -36.009  12.819  -5.223  1.00 20.00    -0.263 OA
HETATM    6  O6  UNL     1     -34.226  13.780  -4.227  1.00 20.00    -0.318 OA
HETATM    7  O7  UNL     1     -33.654  15.210  -6.553  1.00 20.00    -0.379 OA
ENDROOT
TORSDOF 0
ENDMDL
MODEL 9
REMARK VINA RESULT:      -3.3     11.980     12.465
REMARK  0 active torsions:
REMARK  status: ('A' for Active; 'I' for Inactive)
ROOT
HETATM    1  C1  UNL     1     -36.570  13.970  -5.107  1.00 20.00     0.282 C 
HETATM    2  C2  UNL     1     -35.738  13.417  -6.246  1.00 20.00     0.278 C 
HETATM    3  C3  UNL     1     -34.488  14.788  -4.165  1.00 20.00     0.205 C 
HETATM    4  C4  UNL     1     -33.903  14.666  -5.549  1.00 20.00     0.195 C 
HETATM    5  O5  UNL     1     -37.782  13.778  -5.047  1.00 20.00    -0.263 OA
HETATM    6  O6  UNL     1     -35.926  14.744  -4.199  1.00 20.00    -0.318 OA
HETATM    7  O7  UNL     1     -34.339  13.421  -6.073  1.00 20.00    -0.379 OA
ENDROOT
TORSDOF 0
ENDMDL
