MODEL 1
REMARK VINA RESULT:      -5.8      0.000      0.000
REMARK  3 active torsions:
REMARK  status: ('A' for Active; 'I' for Inactive)
REMARK    1  A    between atoms: C2_2  and  C8_8 
REMARK    2  A    between atoms: C4_4  and  C7_7 
REMARK    3  A    between atoms: C7_7  and  C8_8 
ROOT
HETATM    1  C7  UNL     1     -32.439   7.601   3.636  1.00 20.00     0.034 C 
ENDROOT
BRANCH   1   2
HETATM    2  C4  UNL     1     -32.525   7.933   2.171  1.00 20.00    -0.030 C 
HETATM    3  C3  UNL     1     -32.410   9.175   1.679  1.00 20.00    -0.035 C 
HETATM    4  C5  UNL     1     -32.493   9.505   0.226  1.00 20.00     0.035 C 
ENDBRANCH   1   2
BRANCH   1   5
HETATM    5  C8  UNL     1     -33.797   7.176   4.229  1.00 20.00     0.007 C 
HETATM    6  C6  UNL     1     -33.736   7.217   5.758  1.00 20.00     0.014 C 
BRANCH   5   7
HETATM    7  C2  UNL     1     -34.185   5.786   3.781  1.00 20.00    -0.032 C 
HETATM    8  C1  UNL     1     -34.670   4.847   4.600  1.00 20.00     0.007 C 
ENDBRANCH   5   7
ENDBRANCH   1   5
TORSDOF 3
ENDMDL
MODEL 2
REMARK VINA RESULT:      -5.3      1.148      1.778
REMARK  3 active torsions:
REMARK  status: ('A' for Active; 'I' for Inactive)
REMARK    1  A    between atoms: C2_2  and  C8_8 
REMARK    2  A    between atoms: C4_4  and  C7_7 
REMARK    3  A    between atoms: C7_7  and  C8_8 
ROOT
HETATM    1  C7  UNL     1     -34.573   6.490   3.638  1.00 20.00     0.034 C 
ENDROOT
BRANCH   1   2
HETATM    2  C4  UNL     1     -33.538   7.551   3.382  1.00 20.00    -0.030 C 
HETATM    3  C3  UNL     1     -32.637   7.492   2.390  1.00 20.00    -0.035 C 
HETATM    4  C5  UNL     1     -31.611   8.546   2.135  1.00 20.00     0.035 C 
ENDBRANCH   1   2
BRANCH   1   5
HETATM    5  C8  UNL     1     -34.739   6.170   5.137  1.00 20.00     0.007 C 
HETATM    6  C6  UNL     1     -33.809   7.059   5.967  1.00 20.00     0.014 C 
BRANCH   5   7
HETATM    7  C2  UNL     1     -34.437   4.719   5.430  1.00 20.00    -0.032 C 
HETATM    8  C1  UNL     1     -34.067   3.832   4.501  1.00 20.00     0.007 C 
ENDBRANCH   5   7
ENDBRANCH   1   5
TORSDOF 3
ENDMDL
MODEL 3
REMARK VINA RESULT:      -5.3      0.987      1.592
REMARK  3 active torsions:
REMARK  status: ('A' for Active; 'I' for Inactive)
REMARK    1  A    between atoms: C2_2  and  C8_8 
REMARK    2  A    between atoms: C4_4  and  C7_7 
REMARK    3  A    between atoms: C7_7  and  C8_8 
ROOT
HETATM    1  C7  UNL     1     -32.071   7.988   3.246  1.00 20.00     0.034 C 
ENDROOT
BRANCH   1   2
HETATM    2  C4  UNL     1     -32.428   8.259   1.810  1.00 20.00    -0.030 C 
HETATM    3  C3  UNL     1     -32.547   9.489   1.289  1.00 20.00    -0.035 C 
HETATM    4  C5  UNL     1     -32.899   9.758  -0.136  1.00 20.00     0.035 C 
ENDBRANCH   1   2
BRANCH   1   5
HETATM    5  C8  UNL     1     -32.852   6.798   3.838  1.00 20.00     0.007 C 
HETATM    6  C6  UNL     1     -33.764   6.188   2.771  1.00 20.00     0.014 C 
BRANCH   5   7
HETATM    7  C2  UNL     1     -33.684   7.219   5.027  1.00 20.00    -0.032 C 
HETATM    8  C1  UNL     1     -34.323   6.362   5.830  1.00 20.00     0.007 C 
ENDBRANCH   5   7
ENDBRANCH   1   5
TORSDOF 3
ENDMDL
MODEL 4
REMARK VINA RESULT:      -5.3      0.963      4.535
REMARK  3 active torsions:
REMARK  status: ('A' for Active; 'I' for Inactive)
REMARK    1  A    between atoms: C2_2  and  C8_8 
REMARK    2  A    between atoms: C4_4  and  C7_7 
REMARK    3  A    between atoms: C7_7  and  C8_8 
ROOT
HETATM    1  C7  UNL     1     -33.328   7.101   2.353  1.00 20.00     0.034 C 
ENDROOT
BRANCH   1   2
HETATM    2  C4  UNL     1     -33.608   6.719   3.781  1.00 20.00    -0.030 C 
HETATM    3  C3  UNL     1     -34.369   5.673   4.138  1.00 20.00    -0.035 C 
HETATM    4  C5  UNL     1     -34.646   5.293   5.555  1.00 20.00     0.035 C 
ENDBRANCH   1   2
BRANCH   1   5
HETATM    5  C8  UNL     1     -32.103   8.025   2.215  1.00 20.00     0.007 C 
HETATM    6  C6  UNL     1     -31.499   8.304   3.594  1.00 20.00     0.014 C 
BRANCH   5   7
HETATM    7  C2  UNL     1     -32.469   9.334   1.556  1.00 20.00    -0.032 C 
HETATM    8  C1  UNL     1     -32.637   9.484   0.237  1.00 20.00     0.007 C 
ENDBRANCH   5   7
ENDBRANCH   1   5
TORSDOF 3
ENDMDL
MODEL 5
REMARK VINA RESULT:      -5.3      1.112      2.283
REMARK  3 active torsions:
REMARK  status: ('A' for Active; 'I' for Inactive)
REMARK    1  A    between atoms: C2_2  and  C8_8 
REMARK    2  A    between atoms: C4_4  and  C7_7 
REMARK    3  A    between atoms: C7_7  and  C8_8 
ROOT
HETATM    1  C7  UNL     1     -33.336   5.214   3.384  1.00 20.00     0.034 C 
ENDROOT
BRANCH   1   2
HETATM    2  C4  UNL     1     -33.212   6.456   2.544  1.00 20.00    -0.030 C 
HETATM    3  C3  UNL     1     -32.310   7.423   2.771  1.00 20.00    -0.035 C 
HETATM    4  C5  UNL     1     -32.185   8.654   1.937  1.00 20.00     0.035 C 
ENDBRANCH   1   2
BRANCH   1   5
HETATM    5  C8  UNL     1     -34.606   5.213   4.258  1.00 20.00     0.007 C 
HETATM    6  C6  UNL     1     -35.673   6.114   3.632  1.00 20.00     0.014 C 
BRANCH   5   7
HETATM    7  C2  UNL     1     -34.311   5.689   5.662  1.00 20.00    -0.032 C 
HETATM    8  C1  UNL     1     -34.001   6.952   5.972  1.00 20.00     0.007 C 
ENDBRANCH   5   7
ENDBRANCH   1   5
TORSDOF 3
ENDMDL
MODEL 6
REMARK VINA RESULT:      -4.7      1.125      4.508
REMARK  3 active torsions:
REMARK  status: ('A' for Active; 'I' for Inactive)
REMARK    1  A    between atoms: C2_2  and  C8_8 
REMARK    2  A    between atoms: C4_4  and  C7_7 
REMARK    3  A    between atoms: C7_7  and  C8_8 
ROOT
HETATM    1  C7  UNL     1     -31.849   8.538   2.607  1.00 20.00     0.034 C 
ENDROOT
BRANCH   1   2
HETATM    2  C4  UNL     1     -32.912   7.475   2.587  1.00 20.00    -0.030 C 
HETATM    3  C3  UNL     1     -33.596   7.083   3.672  1.00 20.00    -0.035 C 
HETATM    4  C5  UNL     1     -34.653   6.029   3.653  1.00 20.00     0.035 C 
ENDBRANCH   1   2
BRANCH   1   5
HETATM    5  C8  UNL     1     -31.940   9.492   1.400  1.00 20.00     0.007 C 
HETATM    6  C6  UNL     1     -32.825  10.692   1.747  1.00 20.00     0.014 C 
BRANCH   5   7
HETATM    7  C2  UNL     1     -32.499   8.793   0.183  1.00 20.00    -0.032 C 
HETATM    8  C1  UNL     1     -33.286   9.386  -0.722  1.00 20.00     0.007 C 
ENDBRANCH   5   7
ENDBRANCH   1   5
TORSDOF 3
ENDMDL
MODEL 7
REMARK VINA RESULT:      -4.6      1.242      4.671
REMARK  3 active torsions:
REMARK  status: ('A' for Active; 'I' for Inactive)
REMARK    1  A    between atoms: C2_2  and  C8_8 
REMARK    2  A    between atoms: C4_4  and  C7_7 
REMARK    3  A    between atoms: C7_7  and  C8_8 
ROOT
HETATM    1  C7  UNL     1     -31.875   8.397   2.679  1.00 20.00     0.034 C 
ENDROOT
BRANCH   1   2
HETATM    2  C4  UNL     1     -32.802   7.496   3.446  1.00 20.00    -0.030 C 
HETATM    3  C3  UNL     1     -33.430   6.440   2.908  1.00 20.00    -0.035 C 
HETATM    4  C5  UNL     1     -34.350   5.543   3.669  1.00 20.00     0.035 C 
ENDBRANCH   1   2
BRANCH   1   5
HETATM    5  C8  UNL     1     -32.355   8.657   1.237  1.00 20.00     0.007 C 
HETATM    6  C6  UNL     1     -31.186   8.505   0.261  1.00 20.00     0.014 C 
BRANCH   5   7
HETATM    7  C2  UNL     1     -32.951  10.038   1.093  1.00 20.00    -0.032 C 
HETATM    8  C1  UNL     1     -32.560  11.098   1.809  1.00 20.00     0.007 C 
ENDBRANCH   5   7
ENDBRANCH   1   5
TORSDOF 3
ENDMDL
MODEL 8
REMARK VINA RESULT:      -4.0      1.166      4.363
REMARK  3 active torsions:
REMARK  status: ('A' for Active; 'I' for Inactive)
REMARK    1  A    between atoms: C2_2  and  C8_8 
REMARK    2  A    between atoms: C4_4  and  C7_7 
REMARK    3  A    between atoms: C7_7  and  C8_8 
ROOT
HETATM    1  C7  UNL     1     -33.459   6.757   2.086  1.00 20.00     0.034 C 
ENDROOT
BRANCH   1   2
HETATM    2  C4  UNL     1     -33.550   5.919   3.332  1.00 20.00    -0.030 C 
HETATM    3  C3  UNL     1     -34.584   5.961   4.185  1.00 20.00    -0.035 C 
HETATM    4  C5  UNL     1     -34.676   5.128   5.421  1.00 20.00     0.035 C 
ENDBRANCH   1   2
BRANCH   1   5
HETATM    5  C8  UNL     1     -32.850   8.148   2.349  1.00 20.00     0.007 C 
HETATM    6  C6  UNL     1     -32.482   8.818   1.022  1.00 20.00     0.014 C 
BRANCH   5   7
HETATM    7  C2  UNL     1     -31.620   8.058   3.222  1.00 20.00    -0.032 C 
HETATM    8  C1  UNL     1     -31.465   8.732   4.366  1.00 20.00     0.007 C 
ENDBRANCH   5   7
ENDBRANCH   1   5
TORSDOF 3
ENDMDL
MODEL 9
REMARK VINA RESULT:      -4.0      1.298      4.118
REMARK  3 active torsions:
REMARK  status: ('A' for Active; 'I' for Inactive)
REMARK    1  A    between atoms: C2_2  and  C8_8 
REMARK    2  A    between atoms: C4_4  and  C7_7 
REMARK    3  A    between atoms: C7_7  and  C8_8 
ROOT
HETATM    1  C7  UNL     1     -33.406   7.876   4.167  1.00 20.00     0.034 C 
ENDROOT
BRANCH   1   2
HETATM    2  C4  UNL     1     -33.707   6.920   5.289  1.00 20.00    -0.030 C 
HETATM    3  C3  UNL     1     -34.554   5.885   5.180  1.00 20.00    -0.035 C 
HETATM    4  C5  UNL     1     -34.852   4.935   6.292  1.00 20.00     0.035 C 
ENDBRANCH   1   2
BRANCH   1   5
HETATM    5  C8  UNL     1     -32.512   7.251   3.078  1.00 20.00     0.007 C 
HETATM    6  C6  UNL     1     -32.053   8.331   2.095  1.00 20.00     0.014 C 
BRANCH   5   7
HETATM    7  C2  UNL     1     -33.240   6.164   2.322  1.00 20.00    -0.032 C 
HETATM    8  C1  UNL     1     -32.955   4.862   2.429  1.00 20.00     0.007 C 
ENDBRANCH   5   7
ENDBRANCH   1   5
TORSDOF 3
ENDMDL
