MODEL 1
REMARK VINA RESULT:      -4.3      0.000      0.000
REMARK  2 active torsions:
REMARK  status: ('A' for Active; 'I' for Inactive)
REMARK    1  A    between atoms: C1_1  and  C8_8 
REMARK    2  A    between atoms: C8_8  and  O10_10 
ROOT
HETATM    1  C1  UNL     1     -33.719  15.726  -3.580  1.00 20.00    -0.069 C 
HETATM    2  C2  UNL     1     -33.680  16.548  -2.705  1.00 20.00    -0.108 C 
HETATM    3  C9  UNL     1     -33.632  17.548  -1.639  1.00 20.00     0.112 C 
ENDROOT
BRANCH   1   4
HETATM    4  C8  UNL     1     -33.766  14.717  -4.654  1.00 20.00     0.121 C 
HETATM    5  C6  UNL     1     -35.062  13.894  -4.570  1.00 20.00     0.051 C 
HETATM    6  C4  UNL     1     -36.301  14.686  -4.984  1.00 20.00     0.004 C 
HETATM    7  C3  UNL     1     -36.130  15.317  -6.364  1.00 20.00     0.000 C 
HETATM    8  C5  UNL     1     -34.870  16.172  -6.443  1.00 20.00     0.004 C 
HETATM    9  C7  UNL     1     -33.626  15.383  -6.032  1.00 20.00     0.051 C 
BRANCH   4  10
HETATM   10  O10 UNL     1     -32.658  13.836  -4.464  1.00 20.00    -0.378 OA
HETATM   11  H24 UNL     1     -32.193  13.795  -5.312  1.00 20.00     0.211 HD
ENDBRANCH   4  10
ENDBRANCH   1   4
TORSDOF 2
ENDMDL
MODEL 2
REMARK VINA RESULT:      -4.3      1.772      3.444
REMARK  2 active torsions:
REMARK  status: ('A' for Active; 'I' for Inactive)
REMARK    1  A    between atoms: C1_1  and  C8_8 
REMARK    2  A    between atoms: C8_8  and  O10_10 
ROOT
HETATM    1  C1  UNL     1     -36.665  14.748  -4.817  1.00 20.00    -0.069 C 
HETATM    2  C2  UNL     1     -37.638  15.417  -4.596  1.00 20.00    -0.108 C 
HETATM    3  C9  UNL     1     -38.823  16.230  -4.327  1.00 20.00     0.112 C 
ENDROOT
BRANCH   1   4
HETATM    4  C8  UNL     1     -35.470  13.927  -5.088  1.00 20.00     0.121 C 
HETATM    5  C6  UNL     1     -34.898  14.243  -6.478  1.00 20.00     0.051 C 
HETATM    6  C4  UNL     1     -34.221  15.611  -6.550  1.00 20.00     0.004 C 
HETATM    7  C3  UNL     1     -33.163  15.772  -5.462  1.00 20.00     0.000 C 
HETATM    8  C5  UNL     1     -33.733  15.504  -4.072  1.00 20.00     0.004 C 
HETATM    9  C7  UNL     1     -34.409  14.135  -3.995  1.00 20.00     0.051 C 
BRANCH   4  10
HETATM   10  O10 UNL     1     -35.878  12.559  -5.067  1.00 20.00    -0.378 OA
HETATM   11  H24 UNL     1     -35.066  12.032  -5.024  1.00 20.00     0.211 HD
ENDBRANCH   4  10
ENDBRANCH   1   4
TORSDOF 2
ENDMDL
MODEL 3
REMARK VINA RESULT:      -4.3     10.149     11.282
REMARK  2 active torsions:
REMARK  status: ('A' for Active; 'I' for Inactive)
REMARK    1  A    between atoms: C1_1  and  C8_8 
REMARK    2  A    between atoms: C8_8  and  O10_10 
ROOT
HETATM    1  C1  UNL     1     -32.553   8.381   2.155  1.00 20.00    -0.069 C 
HETATM    2  C2  UNL     1     -32.778   9.057   1.188  1.00 20.00    -0.108 C 
HETATM    3  C9  UNL     1     -33.053   9.880   0.011  1.00 20.00     0.112 C 
ENDROOT
BRANCH   1   4
HETATM    4  C8  UNL     1     -32.276   7.551   3.342  1.00 20.00     0.121 C 
HETATM    5  C6  UNL     1     -33.322   7.806   4.439  1.00 20.00     0.051 C 
HETATM    6  C4  UNL     1     -34.694   7.223   4.103  1.00 20.00     0.004 C 
HETATM    7  C3  UNL     1     -34.604   5.740   3.752  1.00 20.00     0.000 C 
HETATM    8  C5  UNL     1     -33.601   5.483   2.632  1.00 20.00     0.004 C 
HETATM    9  C7  UNL     1     -32.225   6.062   2.965  1.00 20.00     0.051 C 
BRANCH   4  10
HETATM   10  O10 UNL     1     -30.994   7.934   3.842  1.00 20.00    -0.378 OA
HETATM   11  H24 UNL     1     -31.107   8.809   4.242  1.00 20.00     0.211 HD
ENDBRANCH   4  10
ENDBRANCH   1   4
TORSDOF 2
ENDMDL
MODEL 4
REMARK VINA RESULT:      -4.2      1.932      2.807
REMARK  2 active torsions:
REMARK  status: ('A' for Active; 'I' for Inactive)
REMARK    1  A    between atoms: C1_1  and  C8_8 
REMARK    2  A    between atoms: C8_8  and  O10_10 
ROOT
HETATM    1  C1  UNL     1     -35.322  16.264  -2.750  1.00 20.00    -0.069 C 
HETATM    2  C2  UNL     1     -35.147  16.814  -1.696  1.00 20.00    -0.108 C 
HETATM    3  C9  UNL     1     -34.934  17.486  -0.415  1.00 20.00     0.112 C 
ENDROOT
BRANCH   1   4
HETATM    4  C8  UNL     1     -35.536  15.587  -4.042  1.00 20.00     0.121 C 
HETATM    5  C6  UNL     1     -35.293  16.556  -5.209  1.00 20.00     0.051 C 
HETATM    6  C4  UNL     1     -33.816  16.898  -5.406  1.00 20.00     0.004 C 
HETATM    7  C3  UNL     1     -32.961  15.640  -5.538  1.00 20.00     0.000 C 
HETATM    8  C5  UNL     1     -33.162  14.692  -4.360  1.00 20.00     0.004 C 
HETATM    9  C7  UNL     1     -34.638  14.345  -4.162  1.00 20.00     0.051 C 
BRANCH   4  10
HETATM   10  O10 UNL     1     -36.900  15.164  -4.082  1.00 20.00    -0.378 OA
HETATM   11  H24 UNL     1     -37.003  14.505  -3.380  1.00 20.00     0.211 HD
ENDBRANCH   4  10
ENDBRANCH   1   4
TORSDOF 2
ENDMDL
MODEL 5
REMARK VINA RESULT:      -4.1      1.583      2.085
REMARK  2 active torsions:
REMARK  status: ('A' for Active; 'I' for Inactive)
REMARK    1  A    between atoms: C1_1  and  C8_8 
REMARK    2  A    between atoms: C8_8  and  O10_10 
ROOT
HETATM    1  C1  UNL     1     -35.200  15.030  -4.298  1.00 20.00    -0.069 C 
HETATM    2  C2  UNL     1     -34.887  15.729  -3.373  1.00 20.00    -0.108 C 
HETATM    3  C9  UNL     1     -34.504  16.578  -2.245  1.00 20.00     0.112 C 
ENDROOT
BRANCH   1   4
HETATM    4  C8  UNL     1     -35.586  14.172  -5.434  1.00 20.00     0.121 C 
HETATM    5  C6  UNL     1     -36.826  14.737  -6.144  1.00 20.00     0.051 C 
HETATM    6  C4  UNL     1     -36.531  16.006  -6.943  1.00 20.00     0.004 C 
HETATM    7  C3  UNL     1     -35.375  15.801  -7.918  1.00 20.00     0.000 C 
HETATM    8  C5  UNL     1     -34.125  15.283  -7.214  1.00 20.00     0.004 C 
HETATM    9  C7  UNL     1     -34.414  14.012  -6.415  1.00 20.00     0.051 C 
BRANCH   4  10
HETATM   10  O10 UNL     1     -35.913  12.886  -4.907  1.00 20.00    -0.378 OA
HETATM   11  H24 UNL     1     -36.875  12.799  -4.974  1.00 20.00     0.211 HD
ENDBRANCH   4  10
ENDBRANCH   1   4
TORSDOF 2
ENDMDL
MODEL 6
REMARK VINA RESULT:      -4.0      1.765      2.444
REMARK  2 active torsions:
REMARK  status: ('A' for Active; 'I' for Inactive)
REMARK    1  A    between atoms: C1_1  and  C8_8 
REMARK    2  A    between atoms: C8_8  and  O10_10 
ROOT
HETATM    1  C1  UNL     1     -33.545  17.252  -3.318  1.00 20.00    -0.069 C 
HETATM    2  C2  UNL     1     -33.349  17.630  -2.195  1.00 20.00    -0.108 C 
HETATM    3  C9  UNL     1     -33.112  18.091  -0.827  1.00 20.00     0.112 C 
ENDROOT
BRANCH   1   4
HETATM    4  C8  UNL     1     -33.785  16.788  -4.696  1.00 20.00     0.121 C 
HETATM    5  C6  UNL     1     -33.006  15.493  -4.976  1.00 20.00     0.051 C 
HETATM    6  C4  UNL     1     -33.585  14.278  -4.253  1.00 20.00     0.004 C 
HETATM    7  C3  UNL     1     -35.074  14.107  -4.544  1.00 20.00     0.000 C 
HETATM    8  C5  UNL     1     -35.862  15.374  -4.227  1.00 20.00     0.004 C 
HETATM    9  C7  UNL     1     -35.288  16.592  -4.951  1.00 20.00     0.051 C 
BRANCH   4  10
HETATM   10  O10 UNL     1     -33.306  17.803  -5.579  1.00 20.00    -0.378 OA
HETATM   11  H24 UNL     1     -32.619  17.391  -6.124  1.00 20.00     0.211 HD
ENDBRANCH   4  10
ENDBRANCH   1   4
TORSDOF 2
ENDMDL
MODEL 7
REMARK VINA RESULT:      -3.9      1.436      3.636
REMARK  2 active torsions:
REMARK  status: ('A' for Active; 'I' for Inactive)
REMARK    1  A    between atoms: C1_1  and  C8_8 
REMARK    2  A    between atoms: C8_8  and  O10_10 
ROOT
HETATM    1  C1  UNL     1     -35.811  14.467  -5.570  1.00 20.00    -0.069 C 
HETATM    2  C2  UNL     1     -37.001  14.468  -5.409  1.00 20.00    -0.108 C 
HETATM    3  C9  UNL     1     -38.450  14.469  -5.214  1.00 20.00     0.112 C 
ENDROOT
BRANCH   1   4
HETATM    4  C8  UNL     1     -34.350  14.467  -5.768  1.00 20.00     0.121 C 
HETATM    5  C6  UNL     1     -33.921  15.646  -6.654  1.00 20.00     0.051 C 
HETATM    6  C4  UNL     1     -34.026  16.996  -5.946  1.00 20.00     0.004 C 
HETATM    7  C3  UNL     1     -33.273  16.994  -4.618  1.00 20.00     0.000 C 
HETATM    8  C5  UNL     1     -33.725  15.853  -3.712  1.00 20.00     0.004 C 
HETATM    9  C7  UNL     1     -33.618  14.499  -4.416  1.00 20.00     0.051 C 
BRANCH   4  10
HETATM   10  O10 UNL     1     -34.009  13.251  -6.436  1.00 20.00    -0.378 OA
HETATM   11  H24 UNL     1     -34.296  13.354  -7.355  1.00 20.00     0.211 HD
ENDBRANCH   4  10
ENDBRANCH   1   4
TORSDOF 2
ENDMDL
MODEL 8
REMARK VINA RESULT:      -3.8      1.356      3.434
REMARK  2 active torsions:
REMARK  status: ('A' for Active; 'I' for Inactive)
REMARK    1  A    between atoms: C1_1  and  C8_8 
REMARK    2  A    between atoms: C8_8  and  O10_10 
ROOT
HETATM    1  C1  UNL     1     -34.052  16.063  -6.062  1.00 20.00    -0.069 C 
HETATM    2  C2  UNL     1     -33.968  16.920  -6.899  1.00 20.00    -0.108 C 
HETATM    3  C9  UNL     1     -33.865  17.964  -7.918  1.00 20.00     0.112 C 
ENDROOT
BRANCH   1   4
HETATM    4  C8  UNL     1     -34.156  15.010  -5.035  1.00 20.00     0.121 C 
HETATM    5  C6  UNL     1     -33.247  15.328  -3.838  1.00 20.00     0.051 C 
HETATM    6  C4  UNL     1     -33.762  16.488  -2.987  1.00 20.00     0.004 C 
HETATM    7  C3  UNL     1     -35.206  16.264  -2.547  1.00 20.00     0.000 C 
HETATM    8  C5  UNL     1     -36.125  15.992  -3.733  1.00 20.00     0.004 C 
HETATM    9  C7  UNL     1     -35.615  14.830  -4.586  1.00 20.00     0.051 C 
BRANCH   4  10
HETATM   10  O10 UNL     1     -33.712  13.789  -5.628  1.00 20.00    -0.378 OA
HETATM   11  H24 UNL     1     -33.041  14.031  -6.284  1.00 20.00     0.211 HD
ENDBRANCH   4  10
ENDBRANCH   1   4
TORSDOF 2
ENDMDL
MODEL 9
REMARK VINA RESULT:      -3.8      8.974     10.032
REMARK  2 active torsions:
REMARK  status: ('A' for Active; 'I' for Inactive)
REMARK    1  A    between atoms: C1_1  and  C8_8 
REMARK    2  A    between atoms: C8_8  and  O10_10 
ROOT
HETATM    1  C1  UNL     1     -32.920   7.613   2.753  1.00 20.00    -0.069 C 
HETATM    2  C2  UNL     1     -33.776   6.855   3.119  1.00 20.00    -0.108 C 
HETATM    3  C9  UNL     1     -34.819   5.932   3.564  1.00 20.00     0.112 C 
ENDROOT
BRANCH   1   4
HETATM    4  C8  UNL     1     -31.868   8.544   2.304  1.00 20.00     0.121 C 
HETATM    5  C6  UNL     1     -31.445   8.231   0.860  1.00 20.00     0.051 C 
HETATM    6  C4  UNL     1     -32.506   8.616  -0.171  1.00 20.00     0.004 C 
HETATM    7  C3  UNL     1     -32.934  10.073  -0.019  1.00 20.00     0.000 C 
HETATM    8  C5  UNL     1     -33.398  10.382   1.401  1.00 20.00     0.004 C 
HETATM    9  C7  UNL     1     -32.339  10.001   2.436  1.00 20.00     0.051 C 
BRANCH   4  10
HETATM   10  O10 UNL     1     -30.738   8.356   3.156  1.00 20.00    -0.378 OA
HETATM   11  H24 UNL     1     -31.060   7.885   3.939  1.00 20.00     0.211 HD
ENDBRANCH   4  10
ENDBRANCH   1   4
TORSDOF 2
ENDMDL
