MODEL 1
REMARK VINA RESULT:      -5.5      0.000      0.000
REMARK  2 active torsions:
REMARK  status: ('A' for Active; 'I' for Inactive)
REMARK    1  A    between atoms: C1_1  and  C6_6 
REMARK    2  A    between atoms: C1_1  and  C7_7 
ROOT
HETATM    1  C1  UNL     1     -33.624   6.130   3.299  1.00 20.00     0.135 C 
HETATM    2  O8  UNL     1     -33.081   5.250   2.634  1.00 20.00    -0.297 OA
ENDROOT
BRANCH   1   3
HETATM    3  C6  UNL     1     -33.237   7.539   3.174  1.00 20.00     0.056 A 
HETATM    4  C2  UNL     1     -31.848   7.963   3.567  1.00 20.00     0.013 A 
HETATM    5  C3  UNL     1     -32.240   7.939   2.120  1.00 20.00     0.013 A 
ENDBRANCH   1   3
BRANCH   1   6
HETATM    6  C7  UNL     1     -34.722   5.815   4.279  1.00 20.00     0.056 A 
HETATM    7  C4  UNL     1     -34.558   4.627   5.157  1.00 20.00     0.013 A 
HETATM    8  C5  UNL     1     -34.443   6.009   5.726  1.00 20.00     0.013 A 
ENDBRANCH   1   6
TORSDOF 2
ENDMDL
MODEL 2
REMARK VINA RESULT:      -5.4      0.057      3.502
REMARK  2 active torsions:
REMARK  status: ('A' for Active; 'I' for Inactive)
REMARK    1  A    between atoms: C1_1  and  C6_6 
REMARK    2  A    between atoms: C1_1  and  C7_7 
ROOT
HETATM    1  C1  UNL     1     -33.625   6.118   3.313  1.00 20.00     0.135 C 
HETATM    2  O8  UNL     1     -33.074   5.258   2.629  1.00 20.00    -0.297 OA
ENDROOT
BRANCH   1   3
HETATM    3  C6  UNL     1     -34.698   5.782   4.254  1.00 20.00     0.056 A 
HETATM    4  C2  UNL     1     -34.529   4.609   5.182  1.00 20.00     0.013 A 
HETATM    5  C3  UNL     1     -34.484   6.005   5.727  1.00 20.00     0.013 A 
ENDBRANCH   1   3
BRANCH   1   6
HETATM    6  C7  UNL     1     -33.230   7.568   3.228  1.00 20.00     0.056 A 
HETATM    7  C4  UNL     1     -31.818   7.927   3.519  1.00 20.00     0.013 A 
HETATM    8  C5  UNL     1     -32.338   7.985   2.114  1.00 20.00     0.013 A 
ENDBRANCH   1   6
TORSDOF 2
ENDMDL
MODEL 3
REMARK VINA RESULT:      -5.4      1.519      1.694
REMARK  2 active torsions:
REMARK  status: ('A' for Active; 'I' for Inactive)
REMARK    1  A    between atoms: C1_1  and  C6_6 
REMARK    2  A    between atoms: C1_1  and  C7_7 
ROOT
HETATM    1  C1  UNL     1     -33.565   6.954   4.455  1.00 20.00     0.135 C 
HETATM    2  O8  UNL     1     -33.403   7.702   5.417  1.00 20.00    -0.297 OA
ENDROOT
BRANCH   1   3
HETATM    3  C6  UNL     1     -32.697   7.017   3.275  1.00 20.00     0.056 A 
HETATM    4  C2  UNL     1     -32.857   8.150   2.298  1.00 20.00     0.013 A 
HETATM    5  C3  UNL     1     -31.651   8.095   3.186  1.00 20.00     0.013 A 
ENDBRANCH   1   3
BRANCH   1   6
HETATM    6  C7  UNL     1     -34.663   5.924   4.432  1.00 20.00     0.056 A 
HETATM    7  C4  UNL     1     -34.290   4.508   4.181  1.00 20.00     0.013 A 
HETATM    8  C5  UNL     1     -34.724   4.944   5.548  1.00 20.00     0.013 A 
ENDBRANCH   1   6
TORSDOF 2
ENDMDL
MODEL 4
REMARK VINA RESULT:      -5.2      1.478      3.809
REMARK  2 active torsions:
REMARK  status: ('A' for Active; 'I' for Inactive)
REMARK    1  A    between atoms: C1_1  and  C6_6 
REMARK    2  A    between atoms: C1_1  and  C7_7 
ROOT
HETATM    1  C1  UNL     1     -33.490   6.877   4.360  1.00 20.00     0.135 C 
HETATM    2  O8  UNL     1     -33.286   7.552   5.367  1.00 20.00    -0.297 OA
ENDROOT
BRANCH   1   3
HETATM    3  C6  UNL     1     -34.569   5.885   4.303  1.00 20.00     0.056 A 
HETATM    4  C2  UNL     1     -34.227   4.421   4.237  1.00 20.00     0.013 A 
HETATM    5  C3  UNL     1     -34.816   4.995   5.491  1.00 20.00     0.013 A 
ENDBRANCH   1   3
BRANCH   1   6
HETATM    6  C7  UNL     1     -32.644   7.028   3.124  1.00 20.00     0.056 A 
HETATM    7  C4  UNL     1     -32.874   8.214   2.260  1.00 20.00     0.013 A 
HETATM    8  C5  UNL     1     -31.634   8.118   3.098  1.00 20.00     0.013 A 
ENDBRANCH   1   6
TORSDOF 2
ENDMDL
MODEL 5
REMARK VINA RESULT:      -5.0      1.945      4.381
REMARK  2 active torsions:
REMARK  status: ('A' for Active; 'I' for Inactive)
REMARK    1  A    between atoms: C1_1  and  C6_6 
REMARK    2  A    between atoms: C1_1  and  C7_7 
ROOT
HETATM    1  C1  UNL     1     -32.080   8.260   2.488  1.00 20.00     0.135 C 
HETATM    2  O8  UNL     1     -31.331   8.355   3.458  1.00 20.00    -0.297 OA
ENDROOT
BRANCH   1   3
HETATM    3  C6  UNL     1     -33.261   7.391   2.509  1.00 20.00     0.056 A 
HETATM    4  C2  UNL     1     -33.095   5.922   2.791  1.00 20.00     0.013 A 
HETATM    5  C3  UNL     1     -33.727   6.812   3.818  1.00 20.00     0.013 A 
ENDBRANCH   1   3
BRANCH   1   6
HETATM    6  C7  UNL     1     -31.832   9.033   1.220  1.00 20.00     0.056 A 
HETATM    7  C4  UNL     1     -32.934   9.123   0.228  1.00 20.00     0.013 A 
HETATM    8  C5  UNL     1     -32.547  10.323   1.038  1.00 20.00     0.013 A 
ENDBRANCH   1   6
TORSDOF 2
ENDMDL
MODEL 6
REMARK VINA RESULT:      -4.6      1.965      2.998
REMARK  2 active torsions:
REMARK  status: ('A' for Active; 'I' for Inactive)
REMARK    1  A    between atoms: C1_1  and  C6_6 
REMARK    2  A    between atoms: C1_1  and  C7_7 
ROOT
HETATM    1  C1  UNL     1     -32.088   8.261   2.448  1.00 20.00     0.135 C 
HETATM    2  O8  UNL     1     -31.348   8.360   3.424  1.00 20.00    -0.297 OA
ENDROOT
BRANCH   1   3
HETATM    3  C6  UNL     1     -31.858   9.037   1.225  1.00 20.00     0.056 A 
HETATM    4  C2  UNL     1     -32.976   9.202   0.231  1.00 20.00     0.013 A 
HETATM    5  C3  UNL     1     -32.535  10.371   1.060  1.00 20.00     0.013 A 
ENDBRANCH   1   3
BRANCH   1   6
HETATM    6  C7  UNL     1     -33.274   7.334   2.447  1.00 20.00     0.056 A 
HETATM    7  C4  UNL     1     -33.061   5.924   2.863  1.00 20.00     0.013 A 
HETATM    8  C5  UNL     1     -33.800   6.872   3.758  1.00 20.00     0.013 A 
ENDBRANCH   1   6
TORSDOF 2
ENDMDL
MODEL 7
REMARK VINA RESULT:      -4.5      1.677      3.075
REMARK  2 active torsions:
REMARK  status: ('A' for Active; 'I' for Inactive)
REMARK    1  A    between atoms: C1_1  and  C6_6 
REMARK    2  A    between atoms: C1_1  and  C7_7 
ROOT
HETATM    1  C1  UNL     1     -32.889   7.279   3.828  1.00 20.00     0.135 C 
HETATM    2  O8  UNL     1     -31.898   7.962   4.075  1.00 20.00    -0.297 OA
ENDROOT
BRANCH   1   3
HETATM    3  C6  UNL     1     -34.034   7.223   4.742  1.00 20.00     0.056 A 
HETATM    4  C2  UNL     1     -34.126   6.106   5.747  1.00 20.00     0.013 A 
HETATM    5  C3  UNL     1     -33.823   7.501   6.206  1.00 20.00     0.013 A 
ENDBRANCH   1   3
BRANCH   1   6
HETATM    6  C7  UNL     1     -32.989   6.460   2.569  1.00 20.00     0.056 A 
HETATM    7  C4  UNL     1     -33.011   4.980   2.695  1.00 20.00     0.013 A 
HETATM    8  C5  UNL     1     -34.255   5.724   2.313  1.00 20.00     0.013 A 
ENDBRANCH   1   6
TORSDOF 2
ENDMDL
MODEL 8
REMARK VINA RESULT:      -4.4      1.619      2.521
REMARK  2 active torsions:
REMARK  status: ('A' for Active; 'I' for Inactive)
REMARK    1  A    between atoms: C1_1  and  C6_6 
REMARK    2  A    between atoms: C1_1  and  C7_7 
ROOT
HETATM    1  C1  UNL     1     -33.365   6.913   3.584  1.00 20.00     0.135 C 
HETATM    2  O8  UNL     1     -32.362   7.540   3.251  1.00 20.00    -0.297 OA
ENDROOT
BRANCH   1   3
HETATM    3  C6  UNL     1     -33.829   5.745   2.827  1.00 20.00     0.056 A 
HETATM    4  C2  UNL     1     -32.867   4.628   2.526  1.00 20.00     0.013 A 
HETATM    5  C3  UNL     1     -33.965   4.420   3.527  1.00 20.00     0.013 A 
ENDBRANCH   1   3
BRANCH   1   6
HETATM    6  C7  UNL     1     -34.177   7.303   4.789  1.00 20.00     0.056 A 
HETATM    7  C4  UNL     1     -34.308   6.319   5.894  1.00 20.00     0.013 A 
HETATM    8  C5  UNL     1     -33.458   7.542   6.068  1.00 20.00     0.013 A 
ENDBRANCH   1   6
TORSDOF 2
ENDMDL
MODEL 9
REMARK VINA RESULT:      -3.9      1.696      2.916
REMARK  2 active torsions:
REMARK  status: ('A' for Active; 'I' for Inactive)
REMARK    1  A    between atoms: C1_1  and  C6_6 
REMARK    2  A    between atoms: C1_1  and  C7_7 
ROOT
HETATM    1  C1  UNL     1     -34.441   5.621   4.397  1.00 20.00     0.135 C 
HETATM    2  O8  UNL     1     -34.705   4.616   5.052  1.00 20.00    -0.297 OA
ENDROOT
BRANCH   1   3
HETATM    3  C6  UNL     1     -34.431   6.956   5.005  1.00 20.00     0.056 A 
HETATM    4  C2  UNL     1     -33.845   7.140   6.379  1.00 20.00     0.013 A 
HETATM    5  C3  UNL     1     -33.121   7.676   5.181  1.00 20.00     0.013 A 
ENDBRANCH   1   3
BRANCH   1   6
HETATM    6  C7  UNL     1     -34.107   5.544   2.931  1.00 20.00     0.056 A 
HETATM    7  C4  UNL     1     -32.858   6.197   2.461  1.00 20.00     0.013 A 
HETATM    8  C5  UNL     1     -32.953   4.702   2.521  1.00 20.00     0.013 A 
ENDBRANCH   1   6
TORSDOF 2
ENDMDL
