MODEL 1
REMARK VINA RESULT:      -4.6      0.000      0.000
REMARK  2 active torsions:
REMARK  status: ('A' for Active; 'I' for Inactive)
REMARK    1  A    between atoms: C6_6  and  C7_7 
REMARK    2  A    between atoms: C7_7  and  C8_8 
ROOT
HETATM    1  C1  UNL     1     -33.432   7.161   4.896  1.00 20.00     0.069 C 
HETATM    2  C2  UNL     1     -33.893   4.207   4.203  1.00 20.00     0.002 C 
HETATM    3  C3  UNL     1     -35.299   4.787   4.353  1.00 20.00     0.002 C 
HETATM    4  C4  UNL     1     -33.098   5.223   3.384  1.00 20.00     0.024 C 
HETATM    5  C5  UNL     1     -35.289   6.126   3.617  1.00 20.00     0.024 C 
HETATM    6  C6  UNL     1     -33.818   6.560   3.601  1.00 20.00     0.050 C 
HETATM    7  N9  UNL     1     -33.129   7.632   5.912  1.00 20.00    -0.196 NA
ENDROOT
BRANCH   6   8
HETATM    8  C7  UNL     1     -33.526   7.554   2.477  1.00 20.00     0.039 C 
BRANCH   8   9
HETATM    9  C8  UNL     1     -32.088   8.050   2.471  1.00 20.00     0.116 C 
HETATM   10 CL10 UNL     1     -31.666   8.863   0.947  1.00 20.00    -0.130 Cl
ENDBRANCH   8   9
ENDBRANCH   6   8
TORSDOF 2
ENDMDL
MODEL 2
REMARK VINA RESULT:      -4.5      2.938      4.136
REMARK  2 active torsions:
REMARK  status: ('A' for Active; 'I' for Inactive)
REMARK    1  A    between atoms: C6_6  and  C7_7 
REMARK    2  A    between atoms: C7_7  and  C8_8 
ROOT
HETATM    1  C1  UNL     1     -33.020   5.895   2.888  1.00 20.00     0.069 C 
HETATM    2  C2  UNL     1     -31.167   8.341   2.808  1.00 20.00     0.002 C 
HETATM    3  C3  UNL     1     -32.144   8.564   1.653  1.00 20.00     0.002 C 
HETATM    4  C4  UNL     1     -32.010   7.872   3.994  1.00 20.00     0.024 C 
HETATM    5  C5  UNL     1     -33.531   8.221   2.195  1.00 20.00     0.024 C 
HETATM    6  C6  UNL     1     -33.275   7.269   3.371  1.00 20.00     0.050 C 
HETATM    7  N9  UNL     1     -32.819   4.816   2.510  1.00 20.00    -0.196 NA
ENDROOT
BRANCH   6   8
HETATM    8  C7  UNL     1     -34.443   7.250   4.356  1.00 20.00     0.039 C 
BRANCH   8   9
HETATM    9  C8  UNL     1     -34.087   6.625   5.697  1.00 20.00     0.116 C 
HETATM   10 CL10 UNL     1     -34.622   4.933   5.811  1.00 20.00    -0.130 Cl
ENDBRANCH   8   9
ENDBRANCH   6   8
TORSDOF 2
ENDMDL
MODEL 3
REMARK VINA RESULT:      -4.3     11.622     12.532
REMARK  2 active torsions:
REMARK  status: ('A' for Active; 'I' for Inactive)
REMARK    1  A    between atoms: C6_6  and  C7_7 
REMARK    2  A    between atoms: C7_7  and  C8_8 
ROOT
HETATM    1  C1  UNL     1     -35.573  13.928  -4.934  1.00 20.00     0.069 C 
HETATM    2  C2  UNL     1     -32.867  15.355  -5.178  1.00 20.00     0.002 C 
HETATM    3  C3  UNL     1     -33.698  15.914  -6.333  1.00 20.00     0.002 C 
HETATM    4  C4  UNL     1     -33.787  15.345  -3.958  1.00 20.00     0.024 C 
HETATM    5  C5  UNL     1     -35.081  16.215  -5.757  1.00 20.00     0.024 C 
HETATM    6  C6  UNL     1     -35.209  15.303  -4.531  1.00 20.00     0.050 C 
HETATM    7  N9  UNL     1     -35.858  12.848  -5.251  1.00 20.00    -0.196 NA
ENDROOT
BRANCH   6   8
HETATM    8  C7  UNL     1     -36.242  15.826  -3.533  1.00 20.00     0.039 C 
BRANCH   8   9
HETATM    9  C8  UNL     1     -35.823  17.124  -2.859  1.00 20.00     0.116 C 
HETATM   10 CL10 UNL     1     -35.412  16.887  -1.145  1.00 20.00    -0.130 Cl
ENDBRANCH   8   9
ENDBRANCH   6   8
TORSDOF 2
ENDMDL
MODEL 4
REMARK VINA RESULT:      -4.2      1.707      2.307
REMARK  2 active torsions:
REMARK  status: ('A' for Active; 'I' for Inactive)
REMARK    1  A    between atoms: C6_6  and  C7_7 
REMARK    2  A    between atoms: C7_7  and  C8_8 
ROOT
HETATM    1  C1  UNL     1     -33.037   5.323   2.863  1.00 20.00     0.069 C 
HETATM    2  C2  UNL     1     -35.169   5.634   5.049  1.00 20.00     0.002 C 
HETATM    3  C3  UNL     1     -33.880   6.134   5.700  1.00 20.00     0.002 C 
HETATM    4  C4  UNL     1     -35.203   6.242   3.648  1.00 20.00     0.024 C 
HETATM    5  C5  UNL     1     -33.195   7.023   4.662  1.00 20.00     0.024 C 
HETATM    6  C6  UNL     1     -33.738   6.546   3.309  1.00 20.00     0.050 C 
HETATM    7  N9  UNL     1     -32.488   4.363   2.512  1.00 20.00    -0.196 NA
ENDROOT
BRANCH   6   8
HETATM    8  C7  UNL     1     -33.613   7.621   2.231  1.00 20.00     0.039 C 
BRANCH   8   9
HETATM    9  C8  UNL     1     -32.243   8.282   2.197  1.00 20.00     0.116 C 
HETATM   10 CL10 UNL     1     -32.145   9.561   0.966  1.00 20.00    -0.130 Cl
ENDBRANCH   8   9
ENDBRANCH   6   8
TORSDOF 2
ENDMDL
MODEL 5
REMARK VINA RESULT:      -4.2     11.618     12.736
REMARK  2 active torsions:
REMARK  status: ('A' for Active; 'I' for Inactive)
REMARK    1  A    between atoms: C6_6  and  C7_7 
REMARK    2  A    between atoms: C7_7  and  C8_8 
ROOT
HETATM    1  C1  UNL     1     -35.368  13.933  -5.032  1.00 20.00     0.069 C 
HETATM    2  C2  UNL     1     -33.558  15.575  -6.889  1.00 20.00     0.002 C 
HETATM    3  C3  UNL     1     -34.942  16.200  -7.056  1.00 20.00     0.002 C 
HETATM    4  C4  UNL     1     -33.367  15.355  -5.389  1.00 20.00     0.024 C 
HETATM    5  C5  UNL     1     -35.524  16.330  -5.648  1.00 20.00     0.024 C 
HETATM    6  C6  UNL     1     -34.787  15.275  -4.814  1.00 20.00     0.050 C 
HETATM    7  N9  UNL     1     -35.823  12.879  -5.204  1.00 20.00    -0.196 NA
ENDROOT
BRANCH   6   8
HETATM    8  C7  UNL     1     -34.818  15.601  -3.322  1.00 20.00     0.039 C 
BRANCH   8   9
HETATM    9  C8  UNL     1     -33.745  16.595  -2.901  1.00 20.00     0.116 C 
HETATM   10 CL10 UNL     1     -34.027  17.233  -1.266  1.00 20.00    -0.130 Cl
ENDBRANCH   8   9
ENDBRANCH   6   8
TORSDOF 2
ENDMDL
MODEL 6
REMARK VINA RESULT:      -4.0     11.799     12.779
REMARK  2 active torsions:
REMARK  status: ('A' for Active; 'I' for Inactive)
REMARK    1  A    between atoms: C6_6  and  C7_7 
REMARK    2  A    between atoms: C7_7  and  C8_8 
ROOT
HETATM    1  C1  UNL     1     -35.621  13.897  -4.969  1.00 20.00     0.069 C 
HETATM    2  C2  UNL     1     -32.911  15.339  -4.956  1.00 20.00     0.002 C 
HETATM    3  C3  UNL     1     -33.606  15.843  -6.221  1.00 20.00     0.002 C 
HETATM    4  C4  UNL     1     -33.966  15.368  -3.851  1.00 20.00     0.024 C 
HETATM    5  C5  UNL     1     -35.048  16.154  -5.821  1.00 20.00     0.024 C 
HETATM    6  C6  UNL     1     -35.312  15.290  -4.582  1.00 20.00     0.050 C 
HETATM    7  N9  UNL     1     -35.862  12.803  -5.273  1.00 20.00    -0.196 NA
ENDROOT
BRANCH   6   8
HETATM    8  C7  UNL     1     -36.456  15.842  -3.732  1.00 20.00     0.039 C 
BRANCH   8   9
HETATM    9  C8  UNL     1     -37.623  16.360  -4.559  1.00 20.00     0.116 C 
HETATM   10 CL10 UNL     1     -38.953  15.184  -4.652  1.00 20.00    -0.130 Cl
ENDBRANCH   8   9
ENDBRANCH   6   8
TORSDOF 2
ENDMDL
MODEL 7
REMARK VINA RESULT:      -4.0     11.941     12.544
REMARK  2 active torsions:
REMARK  status: ('A' for Active; 'I' for Inactive)
REMARK    1  A    between atoms: C6_6  and  C7_7 
REMARK    2  A    between atoms: C7_7  and  C8_8 
ROOT
HETATM    1  C1  UNL     1     -35.166  18.319  -3.019  1.00 20.00     0.069 C 
HETATM    2  C2  UNL     1     -33.282  18.326  -0.596  1.00 20.00     0.002 C 
HETATM    3  C3  UNL     1     -34.661  18.032  -0.006  1.00 20.00     0.002 C 
HETATM    4  C4  UNL     1     -33.159  17.455  -1.846  1.00 20.00     0.024 C 
HETATM    5  C5  UNL     1     -35.307  16.997  -0.926  1.00 20.00     0.024 C 
HETATM    6  C6  UNL     1     -34.603  17.171  -2.278  1.00 20.00     0.050 C 
HETATM    7  N9  UNL     1     -35.607  19.221  -3.602  1.00 20.00    -0.196 NA
ENDROOT
BRANCH   6   8
HETATM    8  C7  UNL     1     -34.704  15.914  -3.141  1.00 20.00     0.039 C 
BRANCH   8   9
HETATM    9  C8  UNL     1     -33.681  15.875  -4.267  1.00 20.00     0.116 C 
HETATM   10 CL10 UNL     1     -32.834  14.314  -4.350  1.00 20.00    -0.130 Cl
ENDBRANCH   8   9
ENDBRANCH   6   8
TORSDOF 2
ENDMDL
MODEL 8
REMARK VINA RESULT:      -4.0     11.613     12.631
REMARK  2 active torsions:
REMARK  status: ('A' for Active; 'I' for Inactive)
REMARK    1  A    between atoms: C6_6  and  C7_7 
REMARK    2  A    between atoms: C7_7  and  C8_8 
ROOT
HETATM    1  C1  UNL     1     -34.523  14.790  -4.079  1.00 20.00     0.069 C 
HETATM    2  C2  UNL     1     -35.260  16.685  -1.780  1.00 20.00     0.002 C 
HETATM    3  C3  UNL     1     -33.777  16.955  -2.037  1.00 20.00     0.002 C 
HETATM    4  C4  UNL     1     -35.924  16.616  -3.154  1.00 20.00     0.024 C 
HETATM    5  C5  UNL     1     -33.615  17.038  -3.554  1.00 20.00     0.024 C 
HETATM    6  C6  UNL     1     -34.796  16.243  -4.124  1.00 20.00     0.050 C 
HETATM    7  N9  UNL     1     -34.309  13.650  -4.043  1.00 20.00    -0.196 NA
ENDROOT
BRANCH   6   8
HETATM    8  C7  UNL     1     -35.121  16.650  -5.561  1.00 20.00     0.039 C 
BRANCH   8   9
HETATM    9  C8  UNL     1     -33.900  16.674  -6.469  1.00 20.00     0.116 C 
HETATM   10 CL10 UNL     1     -33.857  15.278  -7.570  1.00 20.00    -0.130 Cl
ENDBRANCH   8   9
ENDBRANCH   6   8
TORSDOF 2
ENDMDL
MODEL 9
REMARK VINA RESULT:      -3.9     11.402     12.700
REMARK  2 active torsions:
REMARK  status: ('A' for Active; 'I' for Inactive)
REMARK    1  A    between atoms: C6_6  and  C7_7 
REMARK    2  A    between atoms: C7_7  and  C8_8 
ROOT
HETATM    1  C1  UNL     1     -37.023  14.136  -5.193  1.00 20.00     0.069 C 
HETATM    2  C2  UNL     1     -35.646  13.817  -7.918  1.00 20.00     0.002 C 
HETATM    3  C3  UNL     1     -35.764  15.329  -7.725  1.00 20.00     0.002 C 
HETATM    4  C4  UNL     1     -35.166  13.253  -6.581  1.00 20.00     0.024 C 
HETATM    5  C5  UNL     1     -35.349  15.608  -6.281  1.00 20.00     0.024 C 
HETATM    6  C6  UNL     1     -35.592  14.290  -5.535  1.00 20.00     0.050 C 
HETATM    7  N9  UNL     1     -38.145  14.014  -4.926  1.00 20.00    -0.196 NA
ENDROOT
BRANCH   6   8
HETATM    8  C7  UNL     1     -34.756  14.192  -4.259  1.00 20.00     0.039 C 
BRANCH   8   9
HETATM    9  C8  UNL     1     -33.579  15.155  -4.237  1.00 20.00     0.116 C 
HETATM   10 CL10 UNL     1     -33.730  16.369  -2.946  1.00 20.00    -0.130 Cl
ENDBRANCH   8   9
ENDBRANCH   6   8
TORSDOF 2
ENDMDL
