MODEL 1
REMARK VINA RESULT:      -4.2      0.000      0.000
REMARK  2 active torsions:
REMARK  status: ('A' for Active; 'I' for Inactive)
REMARK    1  A    between atoms: C1_1  and  C3_3 
REMARK    2  A    between atoms: C2_2  and  C4_4 
ROOT
HETATM    1  C1  UNL     1     -32.882   7.032   2.933  1.00 20.00    -0.015 C 
HETATM    2  C2  UNL     1     -33.779   6.922   3.925  1.00 20.00    -0.015 C 
ENDROOT
BRANCH   1   3
HETATM    3  C3  UNL     1     -31.886   8.140   2.837  1.00 20.00     0.141 C 
HETATM    4 CL5  UNL     1     -31.831   8.762   1.174  1.00 20.00    -0.126 Cl
ENDBRANCH   1   3
BRANCH   2   5
HETATM    5  C4  UNL     1     -34.786   5.825   4.011  1.00 20.00     0.141 C 
HETATM    6 CL6  UNL     1     -34.634   4.983   5.567  1.00 20.00    -0.126 Cl
ENDBRANCH   2   5
TORSDOF 2
ENDMDL
MODEL 2
REMARK VINA RESULT:      -4.2      0.029      4.410
REMARK  2 active torsions:
REMARK  status: ('A' for Active; 'I' for Inactive)
REMARK    1  A    between atoms: C1_1  and  C3_3 
REMARK    2  A    between atoms: C2_2  and  C4_4 
ROOT
HETATM    1  C1  UNL     1     -33.786   6.909   3.936  1.00 20.00    -0.015 C 
HETATM    2  C2  UNL     1     -32.885   7.026   2.949  1.00 20.00    -0.015 C 
ENDROOT
BRANCH   1   3
HETATM    3  C3  UNL     1     -34.791   5.809   4.013  1.00 20.00     0.141 C 
HETATM    4 CL5  UNL     1     -34.630   4.949   5.559  1.00 20.00    -0.126 Cl
ENDBRANCH   1   3
BRANCH   2   5
HETATM    5  C4  UNL     1     -31.891   8.136   2.862  1.00 20.00     0.141 C 
HETATM    6 CL6  UNL     1     -31.851   8.786   1.210  1.00 20.00    -0.126 Cl
ENDBRANCH   2   5
TORSDOF 2
ENDMDL
MODEL 3
REMARK VINA RESULT:      -4.0      1.472      4.462
REMARK  2 active torsions:
REMARK  status: ('A' for Active; 'I' for Inactive)
REMARK    1  A    between atoms: C1_1  and  C3_3 
REMARK    2  A    between atoms: C2_2  and  C4_4 
ROOT
HETATM    1  C1  UNL     1     -32.697   7.524   3.503  1.00 20.00    -0.015 C 
HETATM    2  C2  UNL     1     -32.844   7.959   2.242  1.00 20.00    -0.015 C 
ENDROOT
BRANCH   1   3
HETATM    3  C3  UNL     1     -33.752   6.777   4.249  1.00 20.00     0.141 C 
HETATM    4 CL5  UNL     1     -33.759   7.278   5.953  1.00 20.00    -0.126 Cl
ENDBRANCH   1   3
BRANCH   2   5
HETATM    5  C4  UNL     1     -31.797   8.722   1.503  1.00 20.00     0.141 C 
HETATM    6 CL6  UNL     1     -32.495  10.207   0.823  1.00 20.00    -0.126 Cl
ENDBRANCH   2   5
TORSDOF 2
ENDMDL
MODEL 4
REMARK VINA RESULT:      -4.0      1.334      1.409
REMARK  2 active torsions:
REMARK  status: ('A' for Active; 'I' for Inactive)
REMARK    1  A    between atoms: C1_1  and  C3_3 
REMARK    2  A    between atoms: C2_2  and  C4_4 
ROOT
HETATM    1  C1  UNL     1     -32.648   7.940   2.975  1.00 20.00    -0.015 C 
HETATM    2  C2  UNL     1     -33.334   6.786   2.983  1.00 20.00    -0.015 C 
ENDROOT
BRANCH   1   3
HETATM    3  C3  UNL     1     -31.874   8.433   1.798  1.00 20.00     0.141 C 
HETATM    4 CL5  UNL     1     -32.569   9.961   1.214  1.00 20.00    -0.126 Cl
ENDBRANCH   1   3
BRANCH   2   5
HETATM    5  C4  UNL     1     -34.093   6.284   4.166  1.00 20.00     0.141 C 
HETATM    6 CL6  UNL     1     -33.700   7.259   5.597  1.00 20.00    -0.126 Cl
ENDBRANCH   2   5
TORSDOF 2
ENDMDL
MODEL 5
REMARK VINA RESULT:      -2.8     11.195     11.614
REMARK  2 active torsions:
REMARK  status: ('A' for Active; 'I' for Inactive)
REMARK    1  A    between atoms: C1_1  and  C3_3 
REMARK    2  A    between atoms: C2_2  and  C4_4 
ROOT
HETATM    1  C1  UNL     1     -34.509  16.374  -2.711  1.00 20.00    -0.015 C 
HETATM    2  C2  UNL     1     -35.056  16.910  -1.608  1.00 20.00    -0.015 C 
ENDROOT
BRANCH   1   3
HETATM    3  C3  UNL     1     -35.280  15.585  -3.716  1.00 20.00     0.141 C 
HETATM    4 CL5  UNL     1     -34.426  14.071  -4.081  1.00 20.00    -0.126 Cl
ENDBRANCH   1   3
BRANCH   2   5
HETATM    5  C4  UNL     1     -34.282  17.684  -0.594  1.00 20.00     0.141 C 
HETATM    6 CL6  UNL     1     -32.665  18.061  -1.225  1.00 20.00    -0.126 Cl
ENDBRANCH   2   5
TORSDOF 2
ENDMDL
MODEL 6
REMARK VINA RESULT:      -2.8     11.220     11.490
REMARK  2 active torsions:
REMARK  status: ('A' for Active; 'I' for Inactive)
REMARK    1  A    between atoms: C1_1  and  C3_3 
REMARK    2  A    between atoms: C2_2  and  C4_4 
ROOT
HETATM    1  C1  UNL     1     -35.021  16.982  -1.578  1.00 20.00    -0.015 C 
HETATM    2  C2  UNL     1     -34.481  16.399  -2.659  1.00 20.00    -0.015 C 
ENDROOT
BRANCH   1   3
HETATM    3  C3  UNL     1     -34.228  17.729  -0.558  1.00 20.00     0.141 C 
HETATM    4 CL5  UNL     1     -32.610  18.093  -1.197  1.00 20.00    -0.126 Cl
ENDBRANCH   1   3
BRANCH   2   5
HETATM    5  C4  UNL     1     -35.272  15.637  -3.669  1.00 20.00     0.141 C 
HETATM    6 CL6  UNL     1     -34.432  14.128  -4.083  1.00 20.00    -0.126 Cl
ENDBRANCH   2   5
TORSDOF 2
ENDMDL
MODEL 7
REMARK VINA RESULT:      -2.8     11.183     11.421
REMARK  2 active torsions:
REMARK  status: ('A' for Active; 'I' for Inactive)
REMARK    1  A    between atoms: C1_1  and  C3_3 
REMARK    2  A    between atoms: C2_2  and  C4_4 
ROOT
HETATM    1  C1  UNL     1     -33.695  16.174  -3.479  1.00 20.00    -0.015 C 
HETATM    2  C2  UNL     1     -34.510  15.138  -3.733  1.00 20.00    -0.015 C 
ENDROOT
BRANCH   1   3
HETATM    3  C3  UNL     1     -33.736  16.969  -2.217  1.00 20.00     0.141 C 
HETATM    4 CL5  UNL     1     -35.308  16.756  -1.419  1.00 20.00    -0.126 Cl
ENDBRANCH   1   3
BRANCH   2   5
HETATM    5  C4  UNL     1     -34.481  14.354  -5.002  1.00 20.00     0.141 C 
HETATM    6 CL6  UNL     1     -35.955  13.374  -5.143  1.00 20.00    -0.126 Cl
ENDBRANCH   2   5
TORSDOF 2
ENDMDL
MODEL 8
REMARK VINA RESULT:      -2.7     11.240     11.397
REMARK  2 active torsions:
REMARK  status: ('A' for Active; 'I' for Inactive)
REMARK    1  A    between atoms: C1_1  and  C3_3 
REMARK    2  A    between atoms: C2_2  and  C4_4 
ROOT
HETATM    1  C1  UNL     1     -34.773  15.975  -3.024  1.00 20.00    -0.015 C 
HETATM    2  C2  UNL     1     -33.759  16.677  -2.495  1.00 20.00    -0.015 C 
ENDROOT
BRANCH   1   3
HETATM    3  C3  UNL     1     -34.634  15.097  -4.223  1.00 20.00     0.141 C 
HETATM    4 CL5  UNL     1     -32.963  14.509  -4.353  1.00 20.00    -0.126 Cl
ENDBRANCH   1   3
BRANCH   2   5
HETATM    5  C4  UNL     1     -33.901  17.568  -1.307  1.00 20.00     0.141 C 
HETATM    6 CL6  UNL     1     -35.418  17.206  -0.457  1.00 20.00    -0.126 Cl
ENDBRANCH   2   5
TORSDOF 2
ENDMDL
MODEL 9
REMARK VINA RESULT:      -2.7     11.324     11.419
REMARK  2 active torsions:
REMARK  status: ('A' for Active; 'I' for Inactive)
REMARK    1  A    between atoms: C1_1  and  C3_3 
REMARK    2  A    between atoms: C2_2  and  C4_4 
ROOT
HETATM    1  C1  UNL     1     -33.655  15.281  -4.181  1.00 20.00    -0.015 C 
HETATM    2  C2  UNL     1     -34.481  15.889  -3.316  1.00 20.00    -0.015 C 
ENDROOT
BRANCH   1   3
HETATM    3  C3  UNL     1     -34.121  14.380  -5.277  1.00 20.00     0.141 C 
HETATM    4 CL5  UNL     1     -35.667  13.630  -4.826  1.00 20.00    -0.126 Cl
ENDBRANCH   1   3
BRANCH   2   5
HETATM    5  C4  UNL     1     -34.014  16.775  -2.210  1.00 20.00     0.141 C 
HETATM    6 CL6  UNL     1     -35.292  16.942  -0.988  1.00 20.00    -0.126 Cl
ENDBRANCH   2   5
TORSDOF 2
ENDMDL
