MODEL 1
REMARK VINA RESULT:      -5.3      0.000      0.000
REMARK  3 active torsions:
REMARK  status: ('A' for Active; 'I' for Inactive)
REMARK    1  A    between atoms: C1_1  and  C7_7 
REMARK    2  A    between atoms: C1_1  and  C9_9 
REMARK    3  A    between atoms: C7_7  and  C8_8 
ROOT
HETATM    1  C1  UNL     1     -33.424   5.973   3.058  1.00 20.00     0.134 C 
HETATM    2  O10 UNL     1     -32.665   5.086   2.659  1.00 20.00    -0.297 OA
ENDROOT
BRANCH   1   3
HETATM    3  C7  UNL     1     -33.407   7.361   2.419  1.00 20.00     0.083 C 
BRANCH   3   4
HETATM    4  C8  UNL     1     -31.991   7.922   2.212  1.00 20.00    -0.016 C 
HETATM    5  C2  UNL     1     -31.399   8.359   3.553  1.00 20.00     0.010 C 
HETATM    6  C3  UNL     1     -31.998   9.105   1.239  1.00 20.00     0.010 C 
ENDBRANCH   3   4
ENDBRANCH   1   3
BRANCH   1   7
HETATM    7  C9  UNL     1     -34.407   5.724   4.220  1.00 20.00     0.009 C 
HETATM    8  C4  UNL     1     -34.332   4.248   4.649  1.00 20.00     0.022 C 
HETATM    9  C5  UNL     1     -34.052   6.600   5.428  1.00 20.00     0.022 C 
HETATM   10  C6  UNL     1     -35.833   6.027   3.740  1.00 20.00     0.022 C 
ENDBRANCH   1   7
TORSDOF 3
ENDMDL
MODEL 2
REMARK VINA RESULT:      -4.8      1.438      1.994
REMARK  3 active torsions:
REMARK  status: ('A' for Active; 'I' for Inactive)
REMARK    1  A    between atoms: C1_1  and  C7_7 
REMARK    2  A    between atoms: C1_1  and  C9_9 
REMARK    3  A    between atoms: C7_7  and  C8_8 
ROOT
HETATM    1  C1  UNL     1     -33.708   7.050   4.553  1.00 20.00     0.134 C 
HETATM    2  O10 UNL     1     -33.294   7.364   5.671  1.00 20.00    -0.297 OA
ENDROOT
BRANCH   1   3
HETATM    3  C7  UNL     1     -33.601   8.020   3.378  1.00 20.00     0.083 C 
BRANCH   3   4
HETATM    4  C8  UNL     1     -32.265   7.923   2.624  1.00 20.00    -0.016 C 
HETATM    5  C2  UNL     1     -31.113   8.334   3.542  1.00 20.00     0.010 C 
HETATM    6  C3  UNL     1     -32.268   8.802   1.370  1.00 20.00     0.010 C 
ENDBRANCH   3   4
ENDBRANCH   1   3
BRANCH   1   7
HETATM    7  C9  UNL     1     -34.360   5.675   4.297  1.00 20.00     0.009 C 
HETATM    8  C4  UNL     1     -35.731   5.872   3.626  1.00 20.00     0.022 C 
HETATM    9  C5  UNL     1     -33.484   4.823   3.369  1.00 20.00     0.022 C 
HETATM   10  C6  UNL     1     -34.564   4.963   5.641  1.00 20.00     0.022 C 
ENDBRANCH   1   7
TORSDOF 3
ENDMDL
MODEL 3
REMARK VINA RESULT:      -4.7      1.466      2.168
REMARK  3 active torsions:
REMARK  status: ('A' for Active; 'I' for Inactive)
REMARK    1  A    between atoms: C1_1  and  C7_7 
REMARK    2  A    between atoms: C1_1  and  C9_9 
REMARK    3  A    between atoms: C7_7  and  C8_8 
ROOT
HETATM    1  C1  UNL     1     -33.117   7.315   3.550  1.00 20.00     0.134 C 
HETATM    2  O10 UNL     1     -32.354   7.839   4.365  1.00 20.00    -0.297 OA
ENDROOT
BRANCH   1   3
HETATM    3  C7  UNL     1     -33.193   7.826   2.112  1.00 20.00     0.083 C 
BRANCH   3   4
HETATM    4  C8  UNL     1     -32.220   8.978   1.819  1.00 20.00    -0.016 C 
HETATM    5  C2  UNL     1     -32.998  10.236   1.428  1.00 20.00     0.010 C 
HETATM    6  C3  UNL     1     -31.239   8.609   0.702  1.00 20.00     0.010 C 
ENDBRANCH   3   4
ENDBRANCH   1   3
BRANCH   1   7
HETATM    7  C9  UNL     1     -34.029   6.137   3.948  1.00 20.00     0.009 C 
HETATM    8  C4  UNL     1     -35.419   6.326   3.315  1.00 20.00     0.022 C 
HETATM    9  C5  UNL     1     -33.446   4.807   3.451  1.00 20.00     0.022 C 
HETATM   10  C6  UNL     1     -34.180   6.117   5.475  1.00 20.00     0.022 C 
ENDBRANCH   1   7
TORSDOF 3
ENDMDL
MODEL 4
REMARK VINA RESULT:      -4.4      1.617      4.438
REMARK  3 active torsions:
REMARK  status: ('A' for Active; 'I' for Inactive)
REMARK    1  A    between atoms: C1_1  and  C7_7 
REMARK    2  A    between atoms: C1_1  and  C9_9 
REMARK    3  A    between atoms: C7_7  and  C8_8 
ROOT
HETATM    1  C1  UNL     1     -32.093   8.130   2.669  1.00 20.00     0.134 C 
HETATM    2  O10 UNL     1     -31.296   8.558   3.507  1.00 20.00    -0.297 OA
ENDROOT
BRANCH   1   3
HETATM    3  C7  UNL     1     -32.885   6.850   2.926  1.00 20.00     0.083 C 
BRANCH   3   4
HETATM    4  C8  UNL     1     -34.067   7.044   3.889  1.00 20.00    -0.016 C 
HETATM    5  C2  UNL     1     -33.555   7.219   5.320  1.00 20.00     0.010 C 
HETATM    6  C3  UNL     1     -35.036   5.859   3.828  1.00 20.00     0.010 C 
ENDBRANCH   3   4
ENDBRANCH   1   3
BRANCH   1   7
HETATM    7  C9  UNL     1     -32.315   8.861   1.329  1.00 20.00     0.009 C 
HETATM    8  C4  UNL     1     -31.044   8.753   0.468  1.00 20.00     0.022 C 
HETATM    9  C5  UNL     1     -33.481   8.231   0.554  1.00 20.00     0.022 C 
HETATM   10  C6  UNL     1     -32.599  10.342   1.609  1.00 20.00     0.022 C 
ENDBRANCH   1   7
TORSDOF 3
ENDMDL
MODEL 5
REMARK VINA RESULT:      -4.4      1.494      4.563
REMARK  3 active torsions:
REMARK  status: ('A' for Active; 'I' for Inactive)
REMARK    1  A    between atoms: C1_1  and  C7_7 
REMARK    2  A    between atoms: C1_1  and  C9_9 
REMARK    3  A    between atoms: C7_7  and  C8_8 
ROOT
HETATM    1  C1  UNL     1     -32.381   8.298   2.508  1.00 20.00     0.134 C 
HETATM    2  O10 UNL     1     -31.381   8.187   3.222  1.00 20.00    -0.297 OA
ENDROOT
BRANCH   1   3
HETATM    3  C7  UNL     1     -33.711   7.671   2.923  1.00 20.00     0.083 C 
BRANCH   3   4
HETATM    4  C8  UNL     1     -33.576   6.646   4.060  1.00 20.00    -0.016 C 
HETATM    5  C2  UNL     1     -34.622   5.542   3.897  1.00 20.00     0.010 C 
HETATM    6  C3  UNL     1     -33.733   7.310   5.431  1.00 20.00     0.010 C 
ENDBRANCH   3   4
ENDBRANCH   1   3
BRANCH   1   7
HETATM    7  C9  UNL     1     -32.328   9.062   1.169  1.00 20.00     0.009 C 
HETATM    8  C4  UNL     1     -33.468   8.578   0.256  1.00 20.00     0.022 C 
HETATM    9  C5  UNL     1     -32.496  10.570   1.398  1.00 20.00     0.022 C 
HETATM   10  C6  UNL     1     -30.987   8.772   0.483  1.00 20.00     0.022 C 
ENDBRANCH   1   7
TORSDOF 3
ENDMDL
MODEL 6
REMARK VINA RESULT:      -4.4      1.604      4.410
REMARK  3 active torsions:
REMARK  status: ('A' for Active; 'I' for Inactive)
REMARK    1  A    between atoms: C1_1  and  C7_7 
REMARK    2  A    between atoms: C1_1  and  C9_9 
REMARK    3  A    between atoms: C7_7  and  C8_8 
ROOT
HETATM    1  C1  UNL     1     -32.100   8.087   2.703  1.00 20.00     0.134 C 
HETATM    2  O10 UNL     1     -31.304   8.508   3.546  1.00 20.00    -0.297 OA
ENDROOT
BRANCH   1   3
HETATM    3  C7  UNL     1     -32.904   6.813   2.954  1.00 20.00     0.083 C 
BRANCH   3   4
HETATM    4  C8  UNL     1     -34.095   7.017   3.904  1.00 20.00    -0.016 C 
HETATM    5  C2  UNL     1     -33.594   7.222   5.335  1.00 20.00     0.010 C 
HETATM    6  C3  UNL     1     -35.055   5.825   3.858  1.00 20.00     0.010 C 
ENDBRANCH   3   4
ENDBRANCH   1   3
BRANCH   1   7
HETATM    7  C9  UNL     1     -32.309   8.821   1.362  1.00 20.00     0.009 C 
HETATM    8  C4  UNL     1     -32.624  10.303   1.631  1.00 20.00     0.022 C 
HETATM    9  C5  UNL     1     -31.042   8.742   0.499  1.00 20.00     0.022 C 
HETATM   10  C6  UNL     1     -33.497   8.187   0.627  1.00 20.00     0.022 C 
ENDBRANCH   1   7
TORSDOF 3
ENDMDL
MODEL 7
REMARK VINA RESULT:      -4.2      1.603      2.679
REMARK  3 active torsions:
REMARK  status: ('A' for Active; 'I' for Inactive)
REMARK    1  A    between atoms: C1_1  and  C7_7 
REMARK    2  A    between atoms: C1_1  and  C9_9 
REMARK    3  A    between atoms: C7_7  and  C8_8 
ROOT
HETATM    1  C1  UNL     1     -32.533   7.565   3.009  1.00 20.00     0.134 C 
HETATM    2  O10 UNL     1     -32.089   8.099   4.028  1.00 20.00    -0.297 OA
ENDROOT
BRANCH   1   3
HETATM    3  C7  UNL     1     -32.126   8.063   1.624  1.00 20.00     0.083 C 
BRANCH   3   4
HETATM    4  C8  UNL     1     -32.974   9.243   1.124  1.00 20.00    -0.016 C 
HETATM    5  C2  UNL     1     -33.082   9.202  -0.401  1.00 20.00     0.010 C 
HETATM    6  C3  UNL     1     -32.378  10.583   1.565  1.00 20.00     0.010 C 
ENDBRANCH   3   4
ENDBRANCH   1   3
BRANCH   1   7
HETATM    7  C9  UNL     1     -33.523   6.385   3.091  1.00 20.00     0.009 C 
HETATM    8  C4  UNL     1     -34.620   6.559   2.026  1.00 20.00     0.022 C 
HETATM    9  C5  UNL     1     -32.804   5.054   2.834  1.00 20.00     0.022 C 
HETATM   10  C6  UNL     1     -34.178   6.378   4.479  1.00 20.00     0.022 C 
ENDBRANCH   1   7
TORSDOF 3
ENDMDL
MODEL 8
REMARK VINA RESULT:      -4.1     11.320     12.089
REMARK  3 active torsions:
REMARK  status: ('A' for Active; 'I' for Inactive)
REMARK    1  A    between atoms: C1_1  and  C7_7 
REMARK    2  A    between atoms: C1_1  and  C9_9 
REMARK    3  A    between atoms: C7_7  and  C8_8 
ROOT
HETATM    1  C1  UNL     1     -33.938  14.643  -4.786  1.00 20.00     0.134 C 
HETATM    2  O10 UNL     1     -33.236  13.731  -4.342  1.00 20.00    -0.297 OA
ENDROOT
BRANCH   1   3
HETATM    3  C7  UNL     1     -33.793  16.069  -4.257  1.00 20.00     0.083 C 
BRANCH   3   4
HETATM    4  C8  UNL     1     -34.211  16.222  -2.786  1.00 20.00    -0.016 C 
HETATM    5  C2  UNL     1     -35.709  16.517  -2.694  1.00 20.00     0.010 C 
HETATM    6  C3  UNL     1     -33.420  17.336  -2.095  1.00 20.00     0.010 C 
ENDBRANCH   3   4
ENDBRANCH   1   3
BRANCH   1   7
HETATM    7  C9  UNL     1     -34.994  14.381  -5.879  1.00 20.00     0.009 C 
HETATM    8  C4  UNL     1     -35.585  15.720  -6.355  1.00 20.00     0.022 C 
HETATM    9  C5  UNL     1     -34.362  13.673  -7.085  1.00 20.00     0.022 C 
HETATM   10  C6  UNL     1     -36.122  13.525  -5.288  1.00 20.00     0.022 C 
ENDBRANCH   1   7
TORSDOF 3
ENDMDL
MODEL 9
REMARK VINA RESULT:      -4.1      0.812      3.876
REMARK  3 active torsions:
REMARK  status: ('A' for Active; 'I' for Inactive)
REMARK    1  A    between atoms: C1_1  and  C7_7 
REMARK    2  A    between atoms: C1_1  and  C9_9 
REMARK    3  A    between atoms: C7_7  and  C8_8 
ROOT
HETATM    1  C1  UNL     1     -33.203   6.459   2.876  1.00 20.00     0.134 C 
HETATM    2  O10 UNL     1     -32.516   5.450   2.697  1.00 20.00    -0.297 OA
ENDROOT
BRANCH   1   3
HETATM    3  C7  UNL     1     -34.668   6.342   3.291  1.00 20.00     0.083 C 
BRANCH   3   4
HETATM    4  C8  UNL     1     -34.862   5.752   4.696  1.00 20.00    -0.016 C 
HETATM    5  C2  UNL     1     -34.084   6.577   5.723  1.00 20.00     0.010 C 
HETATM    6  C3  UNL     1     -34.407   4.291   4.754  1.00 20.00     0.010 C 
ENDBRANCH   3   4
ENDBRANCH   1   3
BRANCH   1   7
HETATM    7  C9  UNL     1     -32.617   7.872   2.680  1.00 20.00     0.009 C 
HETATM    8  C4  UNL     1     -31.532   8.131   3.740  1.00 20.00     0.022 C 
HETATM    9  C5  UNL     1     -31.979   8.006   1.291  1.00 20.00     0.022 C 
HETATM   10  C6  UNL     1     -33.738   8.905   2.855  1.00 20.00     0.022 C 
ENDBRANCH   1   7
TORSDOF 3
ENDMDL
