MODEL 1
REMARK VINA RESULT:      -5.0      0.000      0.000
REMARK  0 active torsions:
REMARK  status: ('A' for Active; 'I' for Inactive)
ROOT
HETATM    1  C1  UNL     1     -33.430   5.395   3.203  1.00 20.00    -0.077 C 
HETATM    2  C2  UNL     1     -32.689   4.559   2.468  1.00 20.00     0.015 C 
HETATM    3  C3  UNL     1     -34.122   5.188   5.564  1.00 20.00     0.009 C 
HETATM    4  C4  UNL     1     -34.120   6.721   5.709  1.00 20.00     0.006 C 
HETATM    5  C5  UNL     1     -35.528   6.157   3.906  1.00 20.00     0.014 C 
HETATM    6  C6  UNL     1     -34.574   4.982   4.109  1.00 20.00     0.015 C 
HETATM    7  C7  UNL     1     -34.472   7.208   4.285  1.00 20.00    -0.002 C 
HETATM    8  C8  UNL     1     -33.324   6.917   3.260  1.00 20.00    -0.021 C 
HETATM    9  C9  UNL     1     -33.628   7.566   1.896  1.00 20.00     0.020 C 
HETATM   10  C10 UNL     1     -31.946   7.398   3.735  1.00 20.00     0.020 C 
ENDROOT
TORSDOF 0
ENDMDL
MODEL 2
REMARK VINA RESULT:      -4.2     11.655     13.062
REMARK  0 active torsions:
REMARK  status: ('A' for Active; 'I' for Inactive)
ROOT
HETATM    1  C1  UNL     1     -34.100  15.625  -6.156  1.00 20.00    -0.077 C 
HETATM    2  C2  UNL     1     -33.997  16.164  -7.375  1.00 20.00     0.015 C 
HETATM    3  C3  UNL     1     -33.603  16.643  -3.962  1.00 20.00     0.009 C 
HETATM    4  C4  UNL     1     -34.687  15.772  -3.301  1.00 20.00     0.006 C 
HETATM    5  C5  UNL     1     -33.183  14.346  -4.423  1.00 20.00     0.014 C 
HETATM    6  C6  UNL     1     -33.050  15.725  -5.066  1.00 20.00     0.015 C 
HETATM    7  C7  UNL     1     -34.692  14.498  -4.176  1.00 20.00    -0.002 C 
HETATM    8  C8  UNL     1     -35.244  14.772  -5.616  1.00 20.00    -0.021 C 
HETATM    9  C9  UNL     1     -35.402  13.457  -6.403  1.00 20.00     0.020 C 
HETATM   10  C10 UNL     1     -36.589  15.511  -5.623  1.00 20.00     0.020 C 
ENDROOT
TORSDOF 0
ENDMDL
MODEL 3
REMARK VINA RESULT:      -4.1     11.682     12.704
REMARK  0 active torsions:
REMARK  status: ('A' for Active; 'I' for Inactive)
ROOT
HETATM    1  C1  UNL     1     -35.208  15.215  -4.470  1.00 20.00    -0.077 C 
HETATM    2  C2  UNL     1     -35.922  14.138  -4.813  1.00 20.00     0.015 C 
HETATM    3  C3  UNL     1     -35.114  16.388  -2.300  1.00 20.00     0.009 C 
HETATM    4  C4  UNL     1     -33.653  16.794  -2.571  1.00 20.00     0.006 C 
HETATM    5  C5  UNL     1     -34.970  17.542  -4.377  1.00 20.00     0.014 C 
HETATM    6  C6  UNL     1     -35.742  16.409  -3.703  1.00 20.00     0.015 C 
HETATM    7  C7  UNL     1     -33.600  16.897  -4.113  1.00 20.00    -0.002 C 
HETATM    8  C8  UNL     1     -33.746  15.500  -4.804  1.00 20.00    -0.021 C 
HETATM    9  C9  UNL     1     -33.514  15.611  -6.323  1.00 20.00     0.020 C 
HETATM   10  C10 UNL     1     -32.792  14.438  -4.240  1.00 20.00     0.020 C 
ENDROOT
TORSDOF 0
ENDMDL
MODEL 4
REMARK VINA RESULT:      -4.0     11.468     12.917
REMARK  0 active torsions:
REMARK  status: ('A' for Active; 'I' for Inactive)
ROOT
HETATM    1  C1  UNL     1     -35.679  15.319  -4.347  1.00 20.00    -0.077 C 
HETATM    2  C2  UNL     1     -37.008  15.295  -4.201  1.00 20.00     0.015 C 
HETATM    3  C3  UNL     1     -34.327  14.787  -6.344  1.00 20.00     0.009 C 
HETATM    4  C4  UNL     1     -33.253  15.796  -5.897  1.00 20.00     0.006 C 
HETATM    5  C5  UNL     1     -33.599  14.266  -4.138  1.00 20.00     0.014 C 
HETATM    6  C6  UNL     1     -34.854  14.233  -5.009  1.00 20.00     0.015 C 
HETATM    7  C7  UNL     1     -33.369  15.770  -4.355  1.00 20.00    -0.002 C 
HETATM    8  C8  UNL     1     -34.715  16.394  -3.853  1.00 20.00    -0.021 C 
HETATM    9  C9  UNL     1     -34.725  16.514  -2.318  1.00 20.00     0.020 C 
HETATM   10  C10 UNL     1     -35.008  17.775  -4.455  1.00 20.00     0.020 C 
ENDROOT
TORSDOF 0
ENDMDL
MODEL 5
REMARK VINA RESULT:      -4.0     11.559     12.840
REMARK  0 active torsions:
REMARK  status: ('A' for Active; 'I' for Inactive)
ROOT
HETATM    1  C1  UNL     1     -35.115  15.469  -3.963  1.00 20.00    -0.077 C 
HETATM    2  C2  UNL     1     -35.024  16.182  -2.835  1.00 20.00     0.015 C 
HETATM    3  C3  UNL     1     -36.823  15.589  -5.741  1.00 20.00     0.009 C 
HETATM    4  C4  UNL     1     -35.776  15.168  -6.789  1.00 20.00     0.006 C 
HETATM    5  C5  UNL     1     -35.807  13.537  -5.088  1.00 20.00     0.014 C 
HETATM    6  C6  UNL     1     -36.381  14.819  -4.485  1.00 20.00     0.015 C 
HETATM    7  C7  UNL     1     -34.800  14.288  -5.974  1.00 20.00    -0.002 C 
HETATM    8  C8  UNL     1     -33.985  15.121  -4.928  1.00 20.00    -0.021 C 
HETATM    9  C9  UNL     1     -32.903  14.253  -4.258  1.00 20.00     0.020 C 
HETATM   10  C10 UNL     1     -33.314  16.364  -5.528  1.00 20.00     0.020 C 
ENDROOT
TORSDOF 0
ENDMDL
MODEL 6
REMARK VINA RESULT:      -3.9     11.800     13.337
REMARK  0 active torsions:
REMARK  status: ('A' for Active; 'I' for Inactive)
ROOT
HETATM    1  C1  UNL     1     -35.377  15.680  -6.316  1.00 20.00    -0.077 C 
HETATM    2  C2  UNL     1     -36.377  16.082  -7.107  1.00 20.00     0.015 C 
HETATM    3  C3  UNL     1     -34.722  16.526  -4.091  1.00 20.00     0.009 C 
HETATM    4  C4  UNL     1     -34.206  15.129  -3.701  1.00 20.00     0.006 C 
HETATM    5  C5  UNL     1     -33.124  15.782  -5.690  1.00 20.00     0.014 C 
HETATM    6  C6  UNL     1     -34.410  16.600  -5.596  1.00 20.00     0.015 C 
HETATM    7  C7  UNL     1     -33.755  14.533  -5.055  1.00 20.00    -0.002 C 
HETATM    8  C8  UNL     1     -34.965  14.244  -6.006  1.00 20.00    -0.021 C 
HETATM    9  C9  UNL     1     -34.503  13.492  -7.269  1.00 20.00     0.020 C 
HETATM   10  C10 UNL     1     -36.086  13.437  -5.338  1.00 20.00     0.020 C 
ENDROOT
TORSDOF 0
ENDMDL
MODEL 7
REMARK VINA RESULT:      -3.9     11.643     13.006
REMARK  0 active torsions:
REMARK  status: ('A' for Active; 'I' for Inactive)
ROOT
HETATM    1  C1  UNL     1     -35.445  14.527  -4.895  1.00 20.00    -0.077 C 
HETATM    2  C2  UNL     1     -36.002  13.381  -5.300  1.00 20.00     0.015 C 
HETATM    3  C3  UNL     1     -33.060  15.162  -4.849  1.00 20.00     0.009 C 
HETATM    4  C4  UNL     1     -33.438  16.637  -5.078  1.00 20.00     0.006 C 
HETATM    5  C5  UNL     1     -34.597  15.870  -3.175  1.00 20.00     0.014 C 
HETATM    6  C6  UNL     1     -34.228  14.636  -3.997  1.00 20.00     0.015 C 
HETATM    7  C7  UNL     1     -34.830  16.748  -4.415  1.00 20.00    -0.002 C 
HETATM    8  C8  UNL     1     -35.923  15.944  -5.197  1.00 20.00    -0.021 C 
HETATM    9  C9  UNL     1     -37.324  16.215  -4.617  1.00 20.00     0.020 C 
HETATM   10  C10 UNL     1     -35.948  16.253  -6.700  1.00 20.00     0.020 C 
ENDROOT
TORSDOF 0
ENDMDL
MODEL 8
REMARK VINA RESULT:      -3.9     11.594     13.168
REMARK  0 active torsions:
REMARK  status: ('A' for Active; 'I' for Inactive)
ROOT
HETATM    1  C1  UNL     1     -34.606  16.130  -3.452  1.00 20.00    -0.077 C 
HETATM    2  C2  UNL     1     -34.972  16.521  -2.227  1.00 20.00     0.015 C 
HETATM    3  C3  UNL     1     -35.214  14.069  -4.668  1.00 20.00     0.009 C 
HETATM    4  C4  UNL     1     -35.110  14.819  -6.009  1.00 20.00     0.006 C 
HETATM    5  C5  UNL     1     -33.066  15.077  -4.865  1.00 20.00     0.014 C 
HETATM    6  C6  UNL     1     -34.123  14.739  -3.815  1.00 20.00     0.015 C 
HETATM    7  C7  UNL     1     -34.040  15.899  -5.724  1.00 20.00    -0.002 C 
HETATM    8  C8  UNL     1     -34.549  16.983  -4.715  1.00 20.00    -0.021 C 
HETATM    9  C9  UNL     1     -33.533  18.133  -4.588  1.00 20.00     0.020 C 
HETATM   10  C10 UNL     1     -35.913  17.575  -5.093  1.00 20.00     0.020 C 
ENDROOT
TORSDOF 0
ENDMDL
MODEL 9
REMARK VINA RESULT:      -3.9     11.737     13.127
REMARK  0 active torsions:
REMARK  status: ('A' for Active; 'I' for Inactive)
ROOT
HETATM    1  C1  UNL     1     -35.174  16.497  -5.294  1.00 20.00    -0.077 C 
HETATM    2  C2  UNL     1     -35.578  17.744  -5.559  1.00 20.00     0.015 C 
HETATM    3  C3  UNL     1     -32.900  15.544  -5.418  1.00 20.00     0.009 C 
HETATM    4  C4  UNL     1     -33.238  14.564  -4.279  1.00 20.00     0.006 C 
HETATM    5  C5  UNL     1     -34.839  14.286  -5.985  1.00 20.00     0.014 C 
HETATM    6  C6  UNL     1     -34.238  15.680  -6.163  1.00 20.00     0.015 C 
HETATM    7  C7  UNL     1     -34.758  14.339  -4.451  1.00 20.00    -0.002 C 
HETATM    8  C8  UNL     1     -35.588  15.624  -4.113  1.00 20.00    -0.021 C 
HETATM    9  C9  UNL     1     -37.098  15.320  -4.123  1.00 20.00     0.020 C 
HETATM   10  C10 UNL     1     -35.223  16.246  -2.758  1.00 20.00     0.020 C 
ENDROOT
TORSDOF 0
ENDMDL
