MODEL 1
REMARK VINA RESULT:      -5.3      0.000      0.000
REMARK  2 active torsions:
REMARK  status: ('A' for Active; 'I' for Inactive)
REMARK    1  A    between atoms: C1_1  and  C6_6 
REMARK    2  A    between atoms: C5_5  and  C10_10 
ROOT
HETATM    1  C2  UNL     1     -33.261   5.500   2.737  1.00 20.00     0.006 C 
HETATM    2  C3  UNL     1     -32.384   6.522   2.011  1.00 20.00     0.016 C 
HETATM    3  C4  UNL     1     -33.364   7.490   4.037  1.00 20.00     0.021 C 
HETATM    4  C5  UNL     1     -34.243   6.340   3.546  1.00 20.00    -0.010 C 
HETATM    5  C6  UNL     1     -32.494   7.832   2.817  1.00 20.00     0.010 C 
HETATM    6  C7  UNL     1     -31.129   8.380   3.228  1.00 20.00     0.023 C 
ENDROOT
BRANCH   4   7
HETATM    7  C10 UNL     1     -34.900   5.566   4.676  1.00 20.00    -0.019 C 
HETATM    8  C8  UNL     1     -34.484   4.094   4.644  1.00 20.00     0.010 C 
HETATM    9  C9  UNL     1     -34.555   6.185   6.033  1.00 20.00     0.010 C 
ENDBRANCH   4   7
BRANCH   5  10
HETATM   10  C1  UNL     1     -33.169   8.894   1.985  1.00 20.00     0.240 C 
HETATM   11  O11 UNL     1     -32.557   9.759   1.367  1.00 20.00    -0.306 OA
ENDBRANCH   5  10
TORSDOF 2
ENDMDL
MODEL 2
REMARK VINA RESULT:      -5.0      1.376      2.188
REMARK  2 active torsions:
REMARK  status: ('A' for Active; 'I' for Inactive)
REMARK    1  A    between atoms: C1_1  and  C6_6 
REMARK    2  A    between atoms: C5_5  and  C10_10 
ROOT
HETATM    1  C2  UNL     1     -31.848   7.766   3.328  1.00 20.00     0.006 C 
HETATM    2  C3  UNL     1     -31.315   8.744   2.278  1.00 20.00     0.016 C 
HETATM    3  C4  UNL     1     -33.762   8.637   2.215  1.00 20.00     0.021 C 
HETATM    4  C5  UNL     1     -33.210   7.335   2.797  1.00 20.00    -0.010 C 
HETATM    5  C6  UNL     1     -32.548   9.267   1.514  1.00 20.00     0.010 C 
HETATM    6  C7  UNL     1     -32.624  10.792   1.507  1.00 20.00     0.023 C 
ENDROOT
BRANCH   4   7
HETATM    7  C10 UNL     1     -34.105   6.734   3.867  1.00 20.00    -0.019 C 
HETATM    8  C8  UNL     1     -34.121   5.207   3.771  1.00 20.00     0.010 C 
HETATM    9  C9  UNL     1     -33.657   7.174   5.263  1.00 20.00     0.010 C 
ENDBRANCH   4   7
BRANCH   5  10
HETATM   10  C1  UNL     1     -32.492   8.816   0.075  1.00 20.00     0.240 C 
HETATM   11  O11 UNL     1     -33.341   9.111  -0.759  1.00 20.00    -0.306 OA
ENDBRANCH   5  10
TORSDOF 2
ENDMDL
MODEL 3
REMARK VINA RESULT:      -5.0      2.190      4.546
REMARK  2 active torsions:
REMARK  status: ('A' for Active; 'I' for Inactive)
REMARK    1  A    between atoms: C1_1  and  C6_6 
REMARK    2  A    between atoms: C5_5  and  C10_10 
ROOT
HETATM    1  C2  UNL     1     -31.911   8.260   3.187  1.00 20.00     0.006 C 
HETATM    2  C3  UNL     1     -32.456   7.032   3.921  1.00 20.00     0.016 C 
HETATM    3  C4  UNL     1     -33.213   7.070   1.591  1.00 20.00     0.021 C 
HETATM    4  C5  UNL     1     -32.893   8.494   2.045  1.00 20.00    -0.010 C 
HETATM    5  C6  UNL     1     -33.350   6.288   2.907  1.00 20.00     0.010 C 
HETATM    6  C7  UNL     1     -32.950   4.824   2.742  1.00 20.00     0.023 C 
ENDROOT
BRANCH   4   7
HETATM    7  C10 UNL     1     -32.321   9.360   0.935  1.00 20.00    -0.019 C 
HETATM    8  C8  UNL     1     -33.027   9.080  -0.393  1.00 20.00     0.010 C 
HETATM    9  C9  UNL     1     -32.428  10.844   1.291  1.00 20.00     0.010 C 
ENDBRANCH   4   7
BRANCH   5  10
HETATM   10  C1  UNL     1     -34.785   6.309   3.373  1.00 20.00     0.240 C 
HETATM   11  O11 UNL     1     -35.179   5.720   4.373  1.00 20.00    -0.306 OA
ENDBRANCH   5  10
TORSDOF 2
ENDMDL
MODEL 4
REMARK VINA RESULT:      -4.8     11.242     12.060
REMARK  2 active torsions:
REMARK  status: ('A' for Active; 'I' for Inactive)
REMARK    1  A    between atoms: C1_1  and  C6_6 
REMARK    2  A    between atoms: C5_5  and  C10_10 
ROOT
HETATM    1  C2  UNL     1     -33.236  15.238  -4.302  1.00 20.00     0.006 C 
HETATM    2  C3  UNL     1     -33.903  14.552  -5.496  1.00 20.00     0.016 C 
HETATM    3  C4  UNL     1     -35.476  16.037  -4.346  1.00 20.00     0.021 C 
HETATM    4  C5  UNL     1     -34.387  15.594  -3.369  1.00 20.00    -0.010 C 
HETATM    5  C6  UNL     1     -35.373  15.020  -5.495  1.00 20.00     0.010 C 
HETATM    6  C7  UNL     1     -35.791  15.628  -6.831  1.00 20.00     0.023 C 
ENDROOT
BRANCH   4   7
HETATM    7  C10 UNL     1     -34.025  16.665  -2.355  1.00 20.00    -0.019 C 
HETATM    8  C8  UNL     1     -33.598  17.957  -3.055  1.00 20.00     0.010 C 
HETATM    9  C9  UNL     1     -35.194  16.936  -1.406  1.00 20.00     0.010 C 
ENDBRANCH   4   7
BRANCH   5  10
HETATM   10  C1  UNL     1     -36.287  13.849  -5.231  1.00 20.00     0.240 C 
HETATM   11  O11 UNL     1     -35.906  12.684  -5.222  1.00 20.00    -0.306 OA
ENDBRANCH   5  10
TORSDOF 2
ENDMDL
MODEL 5
REMARK VINA RESULT:      -4.8     11.218     11.936
REMARK  2 active torsions:
REMARK  status: ('A' for Active; 'I' for Inactive)
REMARK    1  A    between atoms: C1_1  and  C6_6 
REMARK    2  A    between atoms: C5_5  and  C10_10 
ROOT
HETATM    1  C2  UNL     1     -33.455  15.473  -3.796  1.00 20.00     0.006 C 
HETATM    2  C3  UNL     1     -33.839  14.596  -4.990  1.00 20.00     0.016 C 
HETATM    3  C4  UNL     1     -35.626  16.186  -4.458  1.00 20.00     0.021 C 
HETATM    4  C5  UNL     1     -34.786  15.928  -3.207  1.00 20.00    -0.010 C 
HETATM    5  C6  UNL     1     -35.270  15.014  -5.386  1.00 20.00     0.010 C 
HETATM    6  C7  UNL     1     -35.376  15.404  -6.859  1.00 20.00     0.023 C 
ENDROOT
BRANCH   4   7
HETATM    7  C10 UNL     1     -34.657  17.149  -2.313  1.00 20.00    -0.019 C 
HETATM    8  C8  UNL     1     -35.477  16.976  -1.032  1.00 20.00     0.010 C 
HETATM    9  C9  UNL     1     -33.191  17.422  -1.971  1.00 20.00     0.010 C 
ENDBRANCH   4   7
BRANCH   5  10
HETATM   10  C1  UNL     1     -36.224  13.868  -5.158  1.00 20.00     0.240 C 
HETATM   11  O11 UNL     1     -35.884  12.690  -5.192  1.00 20.00    -0.306 OA
ENDBRANCH   5  10
TORSDOF 2
ENDMDL
MODEL 6
REMARK VINA RESULT:      -4.6      1.957      4.227
REMARK  2 active torsions:
REMARK  status: ('A' for Active; 'I' for Inactive)
REMARK    1  A    between atoms: C1_1  and  C6_6 
REMARK    2  A    between atoms: C5_5  and  C10_10 
ROOT
HETATM    1  C2  UNL     1     -32.298   6.522   2.241  1.00 20.00     0.006 C 
HETATM    2  C3  UNL     1     -33.137   5.594   3.121  1.00 20.00     0.016 C 
HETATM    3  C4  UNL     1     -33.876   7.919   3.344  1.00 20.00     0.021 C 
HETATM    4  C5  UNL     1     -32.412   7.890   2.904  1.00 20.00    -0.010 C 
HETATM    5  C6  UNL     1     -34.124   6.502   3.884  1.00 20.00     0.010 C 
HETATM    6  C7  UNL     1     -35.576   6.069   3.698  1.00 20.00     0.023 C 
ENDROOT
BRANCH   4   7
HETATM    7  C10 UNL     1     -32.045   9.035   1.976  1.00 20.00    -0.019 C 
HETATM    8  C8  UNL     1     -31.372   8.514   0.705  1.00 20.00     0.010 C 
HETATM    9  C9  UNL     1     -33.280   9.866   1.620  1.00 20.00     0.010 C 
ENDBRANCH   4   7
BRANCH   5  10
HETATM   10  C1  UNL     1     -33.829   6.454   5.363  1.00 20.00     0.240 C 
HETATM   11  O11 UNL     1     -33.791   7.451   6.076  1.00 20.00    -0.306 OA
ENDBRANCH   5  10
TORSDOF 2
ENDMDL
MODEL 7
REMARK VINA RESULT:      -4.6      1.798      4.265
REMARK  2 active torsions:
REMARK  status: ('A' for Active; 'I' for Inactive)
REMARK    1  A    between atoms: C1_1  and  C6_6 
REMARK    2  A    between atoms: C5_5  and  C10_10 
ROOT
HETATM    1  C2  UNL     1     -33.122   7.584   4.765  1.00 20.00     0.006 C 
HETATM    2  C3  UNL     1     -34.085   6.560   5.369  1.00 20.00     0.016 C 
HETATM    3  C4  UNL     1     -33.368   5.875   3.128  1.00 20.00     0.021 C 
HETATM    4  C5  UNL     1     -33.251   7.393   3.258  1.00 20.00    -0.010 C 
HETATM    5  C6  UNL     1     -34.295   5.479   4.289  1.00 20.00     0.010 C 
HETATM    6  C7  UNL     1     -33.992   4.074   4.804  1.00 20.00     0.023 C 
ENDROOT
BRANCH   4   7
HETATM    7  C10 UNL     1     -32.081   7.970   2.480  1.00 20.00    -0.019 C 
HETATM    8  C8  UNL     1     -32.548   9.074   1.529  1.00 20.00     0.010 C 
HETATM    9  C9  UNL     1     -31.007   8.507   3.429  1.00 20.00     0.010 C 
ENDBRANCH   4   7
BRANCH   5  10
HETATM   10  C1  UNL     1     -35.731   5.484   3.827  1.00 20.00     0.240 C 
HETATM   11  O11 UNL     1     -36.274   6.461   3.322  1.00 20.00    -0.306 OA
ENDBRANCH   5  10
TORSDOF 2
ENDMDL
MODEL 8
REMARK VINA RESULT:      -4.4     11.025     11.871
REMARK  2 active torsions:
REMARK  status: ('A' for Active; 'I' for Inactive)
REMARK    1  A    between atoms: C1_1  and  C6_6 
REMARK    2  A    between atoms: C5_5  and  C10_10 
ROOT
HETATM    1  C2  UNL     1     -33.644  16.873  -2.448  1.00 20.00     0.006 C 
HETATM    2  C3  UNL     1     -33.582  16.225  -3.833  1.00 20.00     0.016 C 
HETATM    3  C4  UNL     1     -35.902  16.494  -3.093  1.00 20.00     0.021 C 
HETATM    4  C5  UNL     1     -34.984  16.427  -1.873  1.00 20.00    -0.010 C 
HETATM    5  C6  UNL     1     -35.041  15.923  -4.231  1.00 20.00     0.010 C 
HETATM    6  C7  UNL     1     -35.413  16.528  -5.583  1.00 20.00     0.023 C 
ENDROOT
BRANCH   4   7
HETATM    7  C10 UNL     1     -35.458  17.296  -0.721  1.00 20.00    -0.019 C 
HETATM    8  C8  UNL     1     -34.298  18.102  -0.133  1.00 20.00     0.010 C 
HETATM    9  C9  UNL     1     -36.582  18.232  -1.171  1.00 20.00     0.010 C 
ENDBRANCH   4   7
BRANCH   5  10
HETATM   10  C1  UNL     1     -35.248  14.432  -4.337  1.00 20.00     0.240 C 
HETATM   11  O11 UNL     1     -34.377  13.609  -4.077  1.00 20.00    -0.306 OA
ENDBRANCH   5  10
TORSDOF 2
ENDMDL
MODEL 9
REMARK VINA RESULT:      -4.4     10.905     12.273
REMARK  2 active torsions:
REMARK  status: ('A' for Active; 'I' for Inactive)
REMARK    1  A    between atoms: C1_1  and  C6_6 
REMARK    2  A    between atoms: C5_5  and  C10_10 
ROOT
HETATM    1  C2  UNL     1     -34.457  14.212  -4.108  1.00 20.00     0.006 C 
HETATM    2  C3  UNL     1     -35.574  13.701  -5.021  1.00 20.00     0.016 C 
HETATM    3  C4  UNL     1     -35.607  16.147  -4.877  1.00 20.00     0.021 C 
HETATM    4  C5  UNL     1     -34.945  15.572  -3.625  1.00 20.00    -0.010 C 
HETATM    5  C6  UNL     1     -36.360  14.948  -5.476  1.00 20.00     0.010 C 
HETATM    6  C7  UNL     1     -36.467  15.046  -6.996  1.00 20.00     0.023 C 
ENDROOT
BRANCH   4   7
HETATM    7  C10 UNL     1     -33.829  16.450  -3.084  1.00 20.00    -0.019 C 
HETATM    8  C8  UNL     1     -33.538  17.611  -4.037  1.00 20.00     0.010 C 
HETATM    9  C9  UNL     1     -34.178  16.980  -1.692  1.00 20.00     0.010 C 
ENDBRANCH   4   7
BRANCH   5  10
HETATM   10  C1  UNL     1     -37.766  14.898  -4.931  1.00 20.00     0.240 C 
HETATM   11  O11 UNL     1     -38.486  13.909  -5.011  1.00 20.00    -0.306 OA
ENDBRANCH   5  10
TORSDOF 2
ENDMDL
