MODEL 1
REMARK VINA RESULT:      -4.8      0.000      0.000
REMARK  2 active torsions:
REMARK  status: ('A' for Active; 'I' for Inactive)
REMARK    1  A    between atoms: C4_4  and  C5_5 
REMARK    2  A    between atoms: C4_4  and  C6_6 
ROOT
HETATM    1  C1  UNL     1     -34.017   6.639   5.261  1.00 20.00     0.068 C 
HETATM    2  C2  UNL     1     -34.245   4.311   4.524  1.00 20.00     0.031 C 
HETATM    3  C3  UNL     1     -35.663   6.103   3.511  1.00 20.00     0.031 C 
HETATM    4  C6  UNL     1     -34.271   5.785   4.077  1.00 20.00     0.043 C 
HETATM    5  N7  UNL     1     -33.818   7.308   6.189  1.00 20.00    -0.196 NA
ENDROOT
BRANCH   4   6
HETATM    6  C4  UNL     1     -33.160   5.997   3.015  1.00 20.00     0.039 C 
BRANCH   6   7
HETATM    7  C5  UNL     1     -32.972   7.443   2.556  1.00 20.00     0.116 C 
HETATM    8 CL8  UNL     1     -31.516   8.143   3.309  1.00 20.00    -0.130 Cl
ENDBRANCH   6   7
ENDBRANCH   4   6
TORSDOF 2
ENDMDL
MODEL 2
REMARK VINA RESULT:      -4.3      1.664      2.262
REMARK  2 active torsions:
REMARK  status: ('A' for Active; 'I' for Inactive)
REMARK    1  A    between atoms: C4_4  and  C5_5 
REMARK    2  A    between atoms: C4_4  and  C6_6 
ROOT
HETATM    1  C1  UNL     1     -34.150   4.608   4.247  1.00 20.00     0.068 C 
HETATM    2  C2  UNL     1     -35.616   6.402   3.445  1.00 20.00     0.031 C 
HETATM    3  C3  UNL     1     -33.984   6.833   5.289  1.00 20.00     0.031 C 
HETATM    4  C6  UNL     1     -34.211   6.064   3.978  1.00 20.00     0.043 C 
HETATM    5  N7  UNL     1     -34.102   3.468   4.458  1.00 20.00    -0.196 NA
ENDROOT
BRANCH   4   6
HETATM    6  C4  UNL     1     -33.168   6.454   2.898  1.00 20.00     0.039 C 
BRANCH   6   7
HETATM    7  C5  UNL     1     -32.287   7.652   3.253  1.00 20.00     0.116 C 
HETATM    8 CL8  UNL     1     -31.961   8.629   1.799  1.00 20.00    -0.130 Cl
ENDBRANCH   6   7
ENDBRANCH   4   6
TORSDOF 2
ENDMDL
MODEL 3
REMARK VINA RESULT:      -4.2      1.854      2.425
REMARK  2 active torsions:
REMARK  status: ('A' for Active; 'I' for Inactive)
REMARK    1  A    between atoms: C4_4  and  C5_5 
REMARK    2  A    between atoms: C4_4  and  C6_6 
ROOT
HETATM    1  C1  UNL     1     -33.521   4.995   3.270  1.00 20.00     0.068 C 
HETATM    2  C2  UNL     1     -35.705   6.053   3.621  1.00 20.00     0.031 C 
HETATM    3  C3  UNL     1     -34.488   4.998   5.534  1.00 20.00     0.031 C 
HETATM    4  C6  UNL     1     -34.313   5.795   4.232  1.00 20.00     0.043 C 
HETATM    5  N7  UNL     1     -32.899   4.368   2.516  1.00 20.00    -0.196 NA
ENDROOT
BRANCH   4   6
HETATM    6  C4  UNL     1     -33.627   7.163   4.487  1.00 20.00     0.039 C 
BRANCH   6   7
HETATM    7  C5  UNL     1     -33.077   7.852   3.238  1.00 20.00     0.116 C 
HETATM    8 CL8  UNL     1     -31.359   8.268   3.471  1.00 20.00    -0.130 Cl
ENDBRANCH   6   7
ENDBRANCH   4   6
TORSDOF 2
ENDMDL
MODEL 4
REMARK VINA RESULT:      -3.9      2.109      3.055
REMARK  2 active torsions:
REMARK  status: ('A' for Active; 'I' for Inactive)
REMARK    1  A    between atoms: C4_4  and  C5_5 
REMARK    2  A    between atoms: C4_4  and  C6_6 
ROOT
HETATM    1  C1  UNL     1     -32.772   7.057   3.077  1.00 20.00     0.068 C 
HETATM    2  C2  UNL     1     -34.414   6.214   1.463  1.00 20.00     0.031 C 
HETATM    3  C3  UNL     1     -33.053   4.624   2.830  1.00 20.00     0.031 C 
HETATM    4  C6  UNL     1     -33.766   5.985   2.842  1.00 20.00     0.043 C 
HETATM    5  N7  UNL     1     -31.992   7.897   3.261  1.00 20.00    -0.196 NA
ENDROOT
BRANCH   4   6
HETATM    6  C4  UNL     1     -34.878   6.037   3.923  1.00 20.00     0.039 C 
BRANCH   6   7
HETATM    7  C5  UNL     1     -34.412   5.724   5.345  1.00 20.00     0.116 C 
HETATM    8 CL8  UNL     1     -33.950   7.225   6.186  1.00 20.00    -0.130 Cl
ENDBRANCH   6   7
ENDBRANCH   4   6
TORSDOF 2
ENDMDL
MODEL 5
REMARK VINA RESULT:      -3.8      2.735      3.606
REMARK  2 active torsions:
REMARK  status: ('A' for Active; 'I' for Inactive)
REMARK    1  A    between atoms: C4_4  and  C5_5 
REMARK    2  A    between atoms: C4_4  and  C6_6 
ROOT
HETATM    1  C1  UNL     1     -32.897   6.012   2.824  1.00 20.00     0.068 C 
HETATM    2  C2  UNL     1     -31.577   7.865   3.739  1.00 20.00     0.031 C 
HETATM    3  C3  UNL     1     -33.193   8.264   1.874  1.00 20.00     0.031 C 
HETATM    4  C6  UNL     1     -32.943   7.455   3.156  1.00 20.00     0.043 C 
HETATM    5  N7  UNL     1     -32.860   4.881   2.564  1.00 20.00    -0.196 NA
ENDROOT
BRANCH   4   6
HETATM    6  C4  UNL     1     -34.035   7.725   4.225  1.00 20.00     0.039 C 
BRANCH   6   7
HETATM    7  C5  UNL     1     -33.724   7.179   5.618  1.00 20.00     0.116 C 
HETATM    8 CL8  UNL     1     -34.534   5.610   5.859  1.00 20.00    -0.130 Cl
ENDBRANCH   6   7
ENDBRANCH   4   6
TORSDOF 2
ENDMDL
MODEL 6
REMARK VINA RESULT:      -3.7     11.816     12.334
REMARK  2 active torsions:
REMARK  status: ('A' for Active; 'I' for Inactive)
REMARK    1  A    between atoms: C4_4  and  C5_5 
REMARK    2  A    between atoms: C4_4  and  C6_6 
ROOT
HETATM    1  C1  UNL     1     -35.268  13.845  -4.952  1.00 20.00     0.068 C 
HETATM    2  C2  UNL     1     -32.972  14.495  -4.390  1.00 20.00     0.031 C 
HETATM    3  C3  UNL     1     -34.377  15.954  -5.854  1.00 20.00     0.031 C 
HETATM    4  C6  UNL     1     -34.403  15.007  -4.645  1.00 20.00     0.043 C 
HETATM    5  N7  UNL     1     -35.946  12.934  -5.192  1.00 20.00    -0.196 NA
ENDROOT
BRANCH   4   6
HETATM    6  C4  UNL     1     -34.904  15.726  -3.365  1.00 20.00     0.039 C 
BRANCH   6   7
HETATM    7  C5  UNL     1     -33.884  16.654  -2.704  1.00 20.00     0.116 C 
HETATM    8 CL8  UNL     1     -34.464  17.157  -1.096  1.00 20.00    -0.130 Cl
ENDBRANCH   6   7
ENDBRANCH   4   6
TORSDOF 2
ENDMDL
MODEL 7
REMARK VINA RESULT:      -3.7      3.027      3.893
REMARK  2 active torsions:
REMARK  status: ('A' for Active; 'I' for Inactive)
REMARK    1  A    between atoms: C4_4  and  C5_5 
REMARK    2  A    between atoms: C4_4  and  C6_6 
ROOT
HETATM    1  C1  UNL     1     -32.795   8.478   1.871  1.00 20.00     0.068 C 
HETATM    2  C2  UNL     1     -32.511   6.157   2.607  1.00 20.00     0.031 C 
HETATM    3  C3  UNL     1     -31.375   8.019   3.828  1.00 20.00     0.031 C 
HETATM    4  C6  UNL     1     -32.650   7.620   3.069  1.00 20.00     0.043 C 
HETATM    5  N7  UNL     1     -32.909   9.151   0.931  1.00 20.00    -0.196 NA
ENDROOT
BRANCH   4   6
HETATM    6  C4  UNL     1     -33.909   7.735   3.968  1.00 20.00     0.039 C 
BRANCH   6   7
HETATM    7  C5  UNL     1     -33.732   7.223   5.397  1.00 20.00     0.116 C 
HETATM    8 CL8  UNL     1     -34.538   5.646   5.591  1.00 20.00    -0.130 Cl
ENDBRANCH   6   7
ENDBRANCH   4   6
TORSDOF 2
ENDMDL
MODEL 8
REMARK VINA RESULT:      -3.6      2.231      2.925
REMARK  2 active torsions:
REMARK  status: ('A' for Active; 'I' for Inactive)
REMARK    1  A    between atoms: C4_4  and  C5_5 
REMARK    2  A    between atoms: C4_4  and  C6_6 
ROOT
HETATM    1  C1  UNL     1     -33.383   7.410   4.548  1.00 20.00     0.068 C 
HETATM    2  C2  UNL     1     -31.253   7.901   3.437  1.00 20.00     0.031 C 
HETATM    3  C3  UNL     1     -32.685   6.009   2.648  1.00 20.00     0.031 C 
HETATM    4  C6  UNL     1     -32.706   7.431   3.231  1.00 20.00     0.043 C 
HETATM    5  N7  UNL     1     -33.914   7.394   5.581  1.00 20.00    -0.196 NA
ENDROOT
BRANCH   4   6
HETATM    6  C4  UNL     1     -33.416   8.429   2.278  1.00 20.00     0.039 C 
BRANCH   6   7
HETATM    7  C5  UNL     1     -32.480   9.315   1.457  1.00 20.00     0.116 C 
HETATM    8 CL8  UNL     1     -33.068   9.444  -0.220  1.00 20.00    -0.130 Cl
ENDBRANCH   6   7
ENDBRANCH   4   6
TORSDOF 2
ENDMDL
MODEL 9
REMARK VINA RESULT:      -3.5      2.526      3.288
REMARK  2 active torsions:
REMARK  status: ('A' for Active; 'I' for Inactive)
REMARK    1  A    between atoms: C4_4  and  C5_5 
REMARK    2  A    between atoms: C4_4  and  C6_6 
ROOT
HETATM    1  C1  UNL     1     -32.897   5.938   2.869  1.00 20.00     0.068 C 
HETATM    2  C2  UNL     1     -33.942   7.608   4.329  1.00 20.00     0.031 C 
HETATM    3  C3  UNL     1     -31.534   7.816   3.691  1.00 20.00     0.031 C 
HETATM    4  C6  UNL     1     -32.922   7.383   3.195  1.00 20.00     0.043 C 
HETATM    5  N7  UNL     1     -32.877   4.806   2.613  1.00 20.00    -0.196 NA
ENDROOT
BRANCH   4   6
HETATM    6  C4  UNL     1     -33.370   8.205   1.959  1.00 20.00     0.039 C 
BRANCH   6   7
HETATM    7  C5  UNL     1     -32.250   8.962   1.245  1.00 20.00     0.116 C 
HETATM    8 CL8  UNL     1     -32.629  10.702   1.178  1.00 20.00    -0.130 Cl
ENDBRANCH   6   7
ENDBRANCH   4   6
TORSDOF 2
ENDMDL
