MODEL 1
REMARK VINA RESULT:      -4.1      0.000      0.000
REMARK  2 active torsions:
REMARK  status: ('A' for Active; 'I' for Inactive)
REMARK    1  A    between atoms: C3_3  and  C4_4 
REMARK    2  A    between atoms: C4_4  and  O5_5 
ROOT
HETATM    1  C1  UNL     1     -34.203   4.035   4.268  1.00 20.00     0.046 C 
HETATM    2  C2  UNL     1     -33.578   6.275   3.345  1.00 20.00     0.046 C 
HETATM    3  C4  UNL     1     -34.513   5.535   4.305  1.00 20.00     0.063 C 
ENDROOT
BRANCH   3   4
HETATM    4  C3  UNL     1     -34.409   6.044   5.751  1.00 20.00     0.151 C 
HETATM    5 CL6  UNL     1     -33.423   7.524   5.901  1.00 20.00    -0.127 Cl
ENDBRANCH   3   4
BRANCH   3   6
HETATM    6  O5  UNL     1     -35.851   5.712   3.835  1.00 20.00    -0.390 OA
HETATM    7  H15 UNL     1     -36.191   4.825   3.642  1.00 20.00     0.210 HD
ENDBRANCH   3   6
TORSDOF 2
ENDMDL
MODEL 2
REMARK VINA RESULT:      -4.1      1.249      2.280
REMARK  2 active torsions:
REMARK  status: ('A' for Active; 'I' for Inactive)
REMARK    1  A    between atoms: C3_3  and  C4_4 
REMARK    2  A    between atoms: C4_4  and  O5_5 
ROOT
HETATM    1  C1  UNL     1     -34.103   6.639   5.309  1.00 20.00     0.046 C 
HETATM    2  C2  UNL     1     -34.301   4.222   4.694  1.00 20.00     0.046 C 
HETATM    3  C4  UNL     1     -34.436   5.657   4.180  1.00 20.00     0.063 C 
ENDROOT
BRANCH   3   4
HETATM    4  C3  UNL     1     -33.536   5.945   2.968  1.00 20.00     0.151 C 
HETATM    5 CL6  UNL     1     -32.479   7.363   3.206  1.00 20.00    -0.127 Cl
ENDBRANCH   3   4
BRANCH   3   6
HETATM    6  O5  UNL     1     -35.803   5.864   3.816  1.00 20.00    -0.390 OA
HETATM    7  H15 UNL     1     -35.822   5.911   2.848  1.00 20.00     0.210 HD
ENDBRANCH   3   6
TORSDOF 2
ENDMDL
MODEL 3
REMARK VINA RESULT:      -3.9      1.455      1.655
REMARK  2 active torsions:
REMARK  status: ('A' for Active; 'I' for Inactive)
REMARK    1  A    between atoms: C3_3  and  C4_4 
REMARK    2  A    between atoms: C4_4  and  O5_5 
ROOT
HETATM    1  C1  UNL     1     -34.517   5.016   5.661  1.00 20.00     0.046 C 
HETATM    2  C2  UNL     1     -33.672   4.780   3.318  1.00 20.00     0.046 C 
HETATM    3  C4  UNL     1     -34.435   5.688   4.286  1.00 20.00     0.063 C 
ENDROOT
BRANCH   3   4
HETATM    4  C3  UNL     1     -33.795   7.077   4.433  1.00 20.00     0.151 C 
HETATM    5 CL6  UNL     1     -32.504   7.380   3.239  1.00 20.00    -0.127 Cl
ENDBRANCH   3   4
BRANCH   3   6
HETATM    6  O5  UNL     1     -35.769   5.829   3.793  1.00 20.00    -0.390 OA
HETATM    7  H15 UNL     1     -35.870   5.171   3.089  1.00 20.00     0.210 HD
ENDBRANCH   3   6
TORSDOF 2
ENDMDL
MODEL 4
REMARK VINA RESULT:      -3.7      1.914      2.693
REMARK  2 active torsions:
REMARK  status: ('A' for Active; 'I' for Inactive)
REMARK    1  A    between atoms: C3_3  and  C4_4 
REMARK    2  A    between atoms: C4_4  and  O5_5 
ROOT
HETATM    1  C1  UNL     1     -33.740   6.902   3.681  1.00 20.00     0.046 C 
HETATM    2  C2  UNL     1     -34.510   5.925   5.851  1.00 20.00     0.046 C 
HETATM    3  C4  UNL     1     -34.518   5.752   4.331  1.00 20.00     0.063 C 
ENDROOT
BRANCH   3   4
HETATM    4  C3  UNL     1     -33.922   4.410   3.878  1.00 20.00     0.151 C 
HETATM    5 CL6  UNL     1     -32.861   4.563   2.452  1.00 20.00    -0.127 Cl
ENDBRANCH   3   4
BRANCH   3   6
HETATM    6  O5  UNL     1     -35.874   5.843   3.887  1.00 20.00    -0.390 OA
HETATM    7  H15 UNL     1     -36.104   4.969   3.536  1.00 20.00     0.210 HD
ENDBRANCH   3   6
TORSDOF 2
ENDMDL
MODEL 5
REMARK VINA RESULT:      -3.6      1.396      1.987
REMARK  2 active torsions:
REMARK  status: ('A' for Active; 'I' for Inactive)
REMARK    1  A    between atoms: C3_3  and  C4_4 
REMARK    2  A    between atoms: C4_4  and  O5_5 
ROOT
HETATM    1  C1  UNL     1     -35.666   6.053   3.530  1.00 20.00     0.046 C 
HETATM    2  C2  UNL     1     -34.515   4.878   5.416  1.00 20.00     0.046 C 
HETATM    3  C4  UNL     1     -34.306   5.714   4.152  1.00 20.00     0.063 C 
ENDROOT
BRANCH   3   4
HETATM    4  C3  UNL     1     -33.526   7.012   4.415  1.00 20.00     0.151 C 
HETATM    5 CL6  UNL     1     -33.574   7.519   6.126  1.00 20.00    -0.127 Cl
ENDBRANCH   3   4
BRANCH   3   6
HETATM    6  O5  UNL     1     -33.588   4.912   3.211  1.00 20.00    -0.390 OA
HETATM    7  H15 UNL     1     -32.681   4.847   3.546  1.00 20.00     0.210 HD
ENDBRANCH   3   6
TORSDOF 2
ENDMDL
MODEL 6
REMARK VINA RESULT:      -3.5      1.712      2.373
REMARK  2 active torsions:
REMARK  status: ('A' for Active; 'I' for Inactive)
REMARK    1  A    between atoms: C3_3  and  C4_4 
REMARK    2  A    between atoms: C4_4  and  O5_5 
ROOT
HETATM    1  C1  UNL     1     -35.671   6.138   3.694  1.00 20.00     0.046 C 
HETATM    2  C2  UNL     1     -34.043   6.376   5.578  1.00 20.00     0.046 C 
HETATM    3  C4  UNL     1     -34.433   5.531   4.363  1.00 20.00     0.063 C 
ENDROOT
BRANCH   3   4
HETATM    4  C3  UNL     1     -33.301   5.409   3.331  1.00 20.00     0.151 C 
HETATM    5 CL6  UNL     1     -32.542   6.976   2.939  1.00 20.00    -0.127 Cl
ENDBRANCH   3   4
BRANCH   3   6
HETATM    6  O5  UNL     1     -34.790   4.229   4.832  1.00 20.00    -0.390 OA
HETATM    7  H15 UNL     1     -34.938   4.315   5.786  1.00 20.00     0.210 HD
ENDBRANCH   3   6
TORSDOF 2
ENDMDL
MODEL 7
REMARK VINA RESULT:      -3.5      1.116      1.402
REMARK  2 active torsions:
REMARK  status: ('A' for Active; 'I' for Inactive)
REMARK    1  A    between atoms: C3_3  and  C4_4 
REMARK    2  A    between atoms: C4_4  and  O5_5 
ROOT
HETATM    1  C1  UNL     1     -33.260   5.313   3.499  1.00 20.00     0.046 C 
HETATM    2  C2  UNL     1     -35.632   6.101   3.606  1.00 20.00     0.046 C 
HETATM    3  C4  UNL     1     -34.535   5.333   4.348  1.00 20.00     0.063 C 
ENDROOT
BRANCH   3   4
HETATM    4  C3  UNL     1     -34.222   5.924   5.731  1.00 20.00     0.151 C 
HETATM    5 CL6  UNL     1     -33.484   7.547   5.645  1.00 20.00    -0.127 Cl
ENDBRANCH   3   4
BRANCH   3   6
HETATM    6  O5  UNL     1     -34.975   3.981   4.498  1.00 20.00    -0.390 OA
HETATM    7  H15 UNL     1     -35.046   3.617   3.603  1.00 20.00     0.210 HD
ENDBRANCH   3   6
TORSDOF 2
ENDMDL
MODEL 8
REMARK VINA RESULT:      -3.3      1.780      2.203
REMARK  2 active torsions:
REMARK  status: ('A' for Active; 'I' for Inactive)
REMARK    1  A    between atoms: C3_3  and  C4_4 
REMARK    2  A    between atoms: C4_4  and  O5_5 
ROOT
HETATM    1  C1  UNL     1     -34.254   4.195   4.498  1.00 20.00     0.046 C 
HETATM    2  C2  UNL     1     -35.641   6.079   3.610  1.00 20.00     0.046 C 
HETATM    3  C4  UNL     1     -34.240   5.666   4.069  1.00 20.00     0.063 C 
ENDROOT
BRANCH   3   4
HETATM    4  C3  UNL     1     -33.171   5.874   2.985  1.00 20.00     0.151 C 
HETATM    5 CL6  UNL     1     -32.401   7.483   3.064  1.00 20.00    -0.127 Cl
ENDBRANCH   3   4
BRANCH   3   6
HETATM    6  O5  UNL     1     -33.909   6.449   5.218  1.00 20.00    -0.390 OA
HETATM    7  H15 UNL     1     -33.567   7.291   4.884  1.00 20.00     0.210 HD
ENDBRANCH   3   6
TORSDOF 2
ENDMDL
MODEL 9
REMARK VINA RESULT:      -3.3      1.570      1.647
REMARK  2 active torsions:
REMARK  status: ('A' for Active; 'I' for Inactive)
REMARK    1  A    between atoms: C3_3  and  C4_4 
REMARK    2  A    between atoms: C4_4  and  O5_5 
ROOT
HETATM    1  C1  UNL     1     -33.329   4.861   3.153  1.00 20.00     0.046 C 
HETATM    2  C2  UNL     1     -33.087   7.328   2.814  1.00 20.00     0.046 C 
HETATM    3  C4  UNL     1     -33.919   6.235   3.488  1.00 20.00     0.063 C 
ENDROOT
BRANCH   3   4
HETATM    4  C3  UNL     1     -34.000   6.400   5.013  1.00 20.00     0.151 C 
HETATM    5 CL6  UNL     1     -34.624   4.947   5.841  1.00 20.00    -0.127 Cl
ENDBRANCH   3   4
BRANCH   3   6
HETATM    6  O5  UNL     1     -35.237   6.286   2.935  1.00 20.00    -0.390 OA
HETATM    7  H15 UNL     1     -35.503   7.218   2.953  1.00 20.00     0.210 HD
ENDBRANCH   3   6
TORSDOF 2
ENDMDL
