MODEL 1
REMARK VINA RESULT:      -5.4      0.000      0.000
REMARK  4 active torsions:
REMARK  status: ('A' for Active; 'I' for Inactive)
REMARK    1  A    between atoms: C1_1  and  C9_9 
REMARK    2  A    between atoms: C2_2  and  C7_7 
REMARK    3  A    between atoms: C2_2  and  C9_9 
REMARK    4  A    between atoms: C7_7  and  C8_8 
ROOT
HETATM    1  C5  UNL     1     -35.687   6.310   3.554  1.00 20.00     0.031 C 
HETATM    2  C6  UNL     1     -34.588   5.884   5.760  1.00 20.00     0.031 C 
HETATM    3  C9  UNL     1     -34.357   5.973   4.242  1.00 20.00     0.073 C 
ENDROOT
BRANCH   3   4
HETATM    4  C1  UNL     1     -33.800   4.613   3.785  1.00 20.00     0.138 C 
HETATM    5  C3  UNL     1     -32.898   4.569   2.574  1.00 20.00     0.092 C 
HETATM    6  O10 UNL     1     -34.106   3.567   4.362  1.00 20.00    -0.297 OA
ENDBRANCH   3   4
BRANCH   3   7
HETATM    7  C2  UNL     1     -33.352   7.111   3.944  1.00 20.00     0.142 C 
HETATM    8  O11 UNL     1     -32.679   7.629   4.838  1.00 20.00    -0.297 OA
BRANCH   7   9
HETATM    9  C7  UNL     1     -33.239   7.584   2.498  1.00 20.00     0.079 C 
BRANCH   9  10
HETATM   10  C8  UNL     1     -31.966   8.382   2.219  1.00 20.00     0.003 C 
HETATM   11  C4  UNL     1     -32.100   9.283   0.999  1.00 20.00     0.005 C 
ENDBRANCH   9  10
ENDBRANCH   7   9
ENDBRANCH   3   7
TORSDOF 4
ENDMDL
MODEL 2
REMARK VINA RESULT:      -5.3      1.471      2.276
REMARK  4 active torsions:
REMARK  status: ('A' for Active; 'I' for Inactive)
REMARK    1  A    between atoms: C1_1  and  C9_9 
REMARK    2  A    between atoms: C2_2  and  C7_7 
REMARK    3  A    between atoms: C2_2  and  C9_9 
REMARK    4  A    between atoms: C7_7  and  C8_8 
ROOT
HETATM    1  C5  UNL     1     -33.024   4.960   2.995  1.00 20.00     0.031 C 
HETATM    2  C6  UNL     1     -34.932   6.539   2.645  1.00 20.00     0.031 C 
HETATM    3  C9  UNL     1     -33.664   6.271   3.474  1.00 20.00     0.073 C 
ENDROOT
BRANCH   3   4
HETATM    4  C1  UNL     1     -34.092   6.197   4.950  1.00 20.00     0.138 C 
HETATM    5  C3  UNL     1     -34.554   4.871   5.506  1.00 20.00     0.092 C 
HETATM    6  O10 UNL     1     -34.098   7.201   5.667  1.00 20.00    -0.297 OA
ENDBRANCH   3   4
BRANCH   3   7
HETATM    7  C2  UNL     1     -32.653   7.419   3.247  1.00 20.00     0.142 C 
HETATM    8  O11 UNL     1     -32.030   7.927   4.183  1.00 20.00    -0.297 OA
BRANCH   7   9
HETATM    9  C7  UNL     1     -32.468   7.916   1.816  1.00 20.00     0.079 C 
BRANCH   9  10
HETATM   10  C8  UNL     1     -32.384   9.438   1.709  1.00 20.00     0.003 C 
HETATM   11  C4  UNL     1     -32.741   9.945   0.319  1.00 20.00     0.005 C 
ENDBRANCH   9  10
ENDBRANCH   7   9
ENDBRANCH   3   7
TORSDOF 4
ENDMDL
MODEL 3
REMARK VINA RESULT:      -5.0      0.747      1.862
REMARK  4 active torsions:
REMARK  status: ('A' for Active; 'I' for Inactive)
REMARK    1  A    between atoms: C1_1  and  C9_9 
REMARK    2  A    between atoms: C2_2  and  C7_7 
REMARK    3  A    between atoms: C2_2  and  C9_9 
REMARK    4  A    between atoms: C7_7  and  C8_8 
ROOT
HETATM    1  C5  UNL     1     -33.153   5.159   2.350  1.00 20.00     0.031 C 
HETATM    2  C6  UNL     1     -35.271   6.354   2.934  1.00 20.00     0.031 C 
HETATM    3  C9  UNL     1     -33.933   5.835   3.486  1.00 20.00     0.073 C 
ENDROOT
BRANCH   3   4
HETATM    4  C1  UNL     1     -34.259   4.852   4.624  1.00 20.00     0.138 C 
HETATM    5  C3  UNL     1     -34.717   5.406   5.952  1.00 20.00     0.092 C 
HETATM    6  O10 UNL     1     -34.119   3.634   4.481  1.00 20.00    -0.297 OA
ENDBRANCH   3   4
BRANCH   3   7
HETATM    7  C2  UNL     1     -33.099   7.028   4.008  1.00 20.00     0.142 C 
HETATM    8  O11 UNL     1     -33.288   7.509   5.128  1.00 20.00    -0.297 OA
BRANCH   7   9
HETATM    9  C7  UNL     1     -32.038   7.603   3.073  1.00 20.00     0.079 C 
BRANCH   9  10
HETATM   10  C8  UNL     1     -32.554   8.747   2.202  1.00 20.00     0.003 C 
HETATM   11  C4  UNL     1     -31.779   8.881   0.898  1.00 20.00     0.005 C 
ENDBRANCH   9  10
ENDBRANCH   7   9
ENDBRANCH   3   7
TORSDOF 4
ENDMDL
MODEL 4
REMARK VINA RESULT:      -5.0     11.699     12.378
REMARK  4 active torsions:
REMARK  status: ('A' for Active; 'I' for Inactive)
REMARK    1  A    between atoms: C1_1  and  C9_9 
REMARK    2  A    between atoms: C2_2  and  C7_7 
REMARK    3  A    between atoms: C2_2  and  C9_9 
REMARK    4  A    between atoms: C7_7  and  C8_8 
ROOT
HETATM    1  C5  UNL     1     -34.242  13.884  -7.193  1.00 20.00     0.031 C 
HETATM    2  C6  UNL     1     -35.419  15.955  -6.431  1.00 20.00     0.031 C 
HETATM    3  C9  UNL     1     -34.862  14.594  -5.981  1.00 20.00     0.073 C 
ENDROOT
BRANCH   3   4
HETATM    4  C1  UNL     1     -36.034  13.796  -5.384  1.00 20.00     0.138 C 
HETATM    5  C3  UNL     1     -37.296  14.535  -5.005  1.00 20.00     0.092 C 
HETATM    6  O10 UNL     1     -35.946  12.583  -5.177  1.00 20.00    -0.297 OA
ENDBRANCH   3   4
BRANCH   3   7
HETATM    7  C2  UNL     1     -33.752  14.818  -4.928  1.00 20.00     0.142 C 
HETATM    8  O11 UNL     1     -33.119  13.877  -4.444  1.00 20.00    -0.297 OA
BRANCH   7   9
HETATM    9  C7  UNL     1     -33.480  16.256  -4.493  1.00 20.00     0.079 C 
BRANCH   9  10
HETATM   10  C8  UNL     1     -33.659  16.480  -2.993  1.00 20.00     0.003 C 
HETATM   11  C4  UNL     1     -35.115  16.382  -2.559  1.00 20.00     0.005 C 
ENDBRANCH   9  10
ENDBRANCH   7   9
ENDBRANCH   3   7
TORSDOF 4
ENDMDL
MODEL 5
REMARK VINA RESULT:      -4.8     11.513     12.320
REMARK  4 active torsions:
REMARK  status: ('A' for Active; 'I' for Inactive)
REMARK    1  A    between atoms: C1_1  and  C9_9 
REMARK    2  A    between atoms: C2_2  and  C7_7 
REMARK    3  A    between atoms: C2_2  and  C9_9 
REMARK    4  A    between atoms: C7_7  and  C8_8 
ROOT
HETATM    1  C5  UNL     1     -35.667  15.919  -6.217  1.00 20.00     0.031 C 
HETATM    2  C6  UNL     1     -36.847  13.916  -5.293  1.00 20.00     0.031 C 
HETATM    3  C9  UNL     1     -35.476  14.488  -5.695  1.00 20.00     0.073 C 
ENDROOT
BRANCH   3   4
HETATM    4  C1  UNL     1     -34.892  13.555  -6.771  1.00 20.00     0.138 C 
HETATM    5  C3  UNL     1     -34.113  14.164  -7.913  1.00 20.00     0.092 C 
HETATM    6  O10 UNL     1     -35.079  12.337  -6.734  1.00 20.00    -0.297 OA
ENDBRANCH   3   4
BRANCH   3   7
HETATM    7  C2  UNL     1     -34.560  14.541  -4.451  1.00 20.00     0.142 C 
HETATM    8  O11 UNL     1     -33.629  13.746  -4.299  1.00 20.00    -0.297 OA
BRANCH   7   9
HETATM    9  C7  UNL     1     -34.864  15.607  -3.402  1.00 20.00     0.079 C 
BRANCH   9  10
HETATM   10  C8  UNL     1     -33.665  16.495  -3.075  1.00 20.00     0.003 C 
HETATM   11  C4  UNL     1     -33.805  17.190  -1.728  1.00 20.00     0.005 C 
ENDBRANCH   9  10
ENDBRANCH   7   9
ENDBRANCH   3   7
TORSDOF 4
ENDMDL
MODEL 6
REMARK VINA RESULT:      -4.5     11.454     12.527
REMARK  4 active torsions:
REMARK  status: ('A' for Active; 'I' for Inactive)
REMARK    1  A    between atoms: C1_1  and  C9_9 
REMARK    2  A    between atoms: C2_2  and  C7_7 
REMARK    3  A    between atoms: C2_2  and  C9_9 
REMARK    4  A    between atoms: C7_7  and  C8_8 
ROOT
HETATM    1  C5  UNL     1     -33.046  14.443  -4.346  1.00 20.00     0.031 C 
HETATM    2  C6  UNL     1     -33.489  15.725  -6.448  1.00 20.00     0.031 C 
HETATM    3  C9  UNL     1     -34.140  14.917  -5.313  1.00 20.00     0.073 C 
ENDROOT
BRANCH   3   4
HETATM    4  C1  UNL     1     -34.885  13.737  -5.962  1.00 20.00     0.138 C 
HETATM    5  C3  UNL     1     -34.786  13.552  -7.458  1.00 20.00     0.092 C 
HETATM    6  O10 UNL     1     -35.584  12.972  -5.292  1.00 20.00    -0.297 OA
ENDBRANCH   3   4
BRANCH   3   7
HETATM    7  C2  UNL     1     -35.118  15.827  -4.534  1.00 20.00     0.142 C 
HETATM    8  O11 UNL     1     -35.941  16.539  -5.114  1.00 20.00    -0.297 OA
BRANCH   7   9
HETATM    9  C7  UNL     1     -35.014  15.825  -3.011  1.00 20.00     0.079 C 
BRANCH   9  10
HETATM   10  C8  UNL     1     -34.786  17.215  -2.418  1.00 20.00     0.003 C 
HETATM   11  C4  UNL     1     -33.388  17.378  -1.837  1.00 20.00     0.005 C 
ENDBRANCH   9  10
ENDBRANCH   7   9
ENDBRANCH   3   7
TORSDOF 4
ENDMDL
MODEL 7
REMARK VINA RESULT:      -4.3     11.621     12.765
REMARK  4 active torsions:
REMARK  status: ('A' for Active; 'I' for Inactive)
REMARK    1  A    between atoms: C1_1  and  C9_9 
REMARK    2  A    between atoms: C2_2  and  C7_7 
REMARK    3  A    between atoms: C2_2  and  C9_9 
REMARK    4  A    between atoms: C7_7  and  C8_8 
ROOT
HETATM    1  C5  UNL     1     -35.262  16.217  -6.107  1.00 20.00     0.031 C 
HETATM    2  C6  UNL     1     -33.953  14.260  -6.949  1.00 20.00     0.031 C 
HETATM    3  C9  UNL     1     -34.817  14.782  -5.789  1.00 20.00     0.073 C 
ENDROOT
BRANCH   3   4
HETATM    4  C1  UNL     1     -33.959  14.714  -4.514  1.00 20.00     0.138 C 
HETATM    5  C3  UNL     1     -34.201  15.729  -3.422  1.00 20.00     0.092 C 
HETATM    6  O10 UNL     1     -33.063  13.876  -4.388  1.00 20.00    -0.297 OA
ENDBRANCH   3   4
BRANCH   3   7
HETATM    7  C2  UNL     1     -36.080  13.899  -5.655  1.00 20.00     0.142 C 
HETATM    8  O11 UNL     1     -36.015  12.735  -5.254  1.00 20.00    -0.297 OA
BRANCH   7   9
HETATM    9  C7  UNL     1     -37.415  14.521  -6.058  1.00 20.00     0.079 C 
BRANCH   9  10
HETATM   10  C8  UNL     1     -38.404  14.635  -4.899  1.00 20.00     0.003 C 
HETATM   11  C4  UNL     1     -38.623  16.076  -4.460  1.00 20.00     0.005 C 
ENDBRANCH   9  10
ENDBRANCH   7   9
ENDBRANCH   3   7
TORSDOF 4
ENDMDL
MODEL 8
REMARK VINA RESULT:      -4.3     11.683     12.817
REMARK  4 active torsions:
REMARK  status: ('A' for Active; 'I' for Inactive)
REMARK    1  A    between atoms: C1_1  and  C9_9 
REMARK    2  A    between atoms: C2_2  and  C7_7 
REMARK    3  A    between atoms: C2_2  and  C9_9 
REMARK    4  A    between atoms: C7_7  and  C8_8 
ROOT
HETATM    1  C5  UNL     1     -36.365  15.999  -3.504  1.00 20.00     0.031 C 
HETATM    2  C6  UNL     1     -35.807  16.541  -5.881  1.00 20.00     0.031 C 
HETATM    3  C9  UNL     1     -35.348  15.770  -4.632  1.00 20.00     0.073 C 
ENDROOT
BRANCH   3   4
HETATM    4  C1  UNL     1     -33.950  16.294  -4.261  1.00 20.00     0.138 C 
HETATM    5  C3  UNL     1     -33.685  16.708  -2.833  1.00 20.00     0.092 C 
HETATM    6  O10 UNL     1     -33.064  16.415  -5.111  1.00 20.00    -0.297 OA
ENDBRANCH   3   4
BRANCH   3   7
HETATM    7  C2  UNL     1     -35.306  14.258  -4.951  1.00 20.00     0.142 C 
HETATM    8  O11 UNL     1     -34.693  13.462  -4.236  1.00 20.00    -0.297 OA
BRANCH   7   9
HETATM    9  C7  UNL     1     -36.040  13.786  -6.204  1.00 20.00     0.079 C 
BRANCH   9  10
HETATM   10  C8  UNL     1     -35.132  13.080  -7.209  1.00 20.00     0.003 C 
HETATM   11  C4  UNL     1     -34.124  14.026  -7.847  1.00 20.00     0.005 C 
ENDBRANCH   9  10
ENDBRANCH   7   9
ENDBRANCH   3   7
TORSDOF 4
ENDMDL
MODEL 9
REMARK VINA RESULT:      -4.3     11.413     12.779
REMARK  4 active torsions:
REMARK  status: ('A' for Active; 'I' for Inactive)
REMARK    1  A    between atoms: C1_1  and  C9_9 
REMARK    2  A    between atoms: C2_2  and  C7_7 
REMARK    3  A    between atoms: C2_2  and  C9_9 
REMARK    4  A    between atoms: C7_7  and  C8_8 
ROOT
HETATM    1  C5  UNL     1     -37.141  14.563  -5.464  1.00 20.00     0.031 C 
HETATM    2  C6  UNL     1     -35.306  13.240  -6.531  1.00 20.00     0.031 C 
HETATM    3  C9  UNL     1     -35.631  14.517  -5.738  1.00 20.00     0.073 C 
ENDROOT
BRANCH   3   4
HETATM    4  C1  UNL     1     -35.163  15.713  -6.586  1.00 20.00     0.138 C 
HETATM    5  C3  UNL     1     -33.682  15.902  -6.818  1.00 20.00     0.092 C 
HETATM    6  O10 UNL     1     -35.966  16.530  -7.043  1.00 20.00    -0.297 OA
ENDBRANCH   3   4
BRANCH   3   7
HETATM    7  C2  UNL     1     -34.890  14.478  -4.381  1.00 20.00     0.142 C 
HETATM    8  O11 UNL     1     -34.172  13.527  -4.063  1.00 20.00    -0.297 OA
BRANCH   7   9
HETATM    9  C7  UNL     1     -35.098  15.658  -3.436  1.00 20.00     0.079 C 
BRANCH   9  10
HETATM   10  C8  UNL     1     -33.801  16.382  -3.075  1.00 20.00     0.003 C 
HETATM   11  C4  UNL     1     -33.892  17.108  -1.740  1.00 20.00     0.005 C 
ENDBRANCH   9  10
ENDBRANCH   7   9
ENDBRANCH   3   7
TORSDOF 4
ENDMDL
