MODEL 1
REMARK VINA RESULT:      -4.2      0.000      0.000
REMARK  2 active torsions:
REMARK  status: ('A' for Active; 'I' for Inactive)
REMARK    1  A    between atoms: C3_3  and  C4_4 
REMARK    2  A    between atoms: C4_4  and  S6_6 
ROOT
HETATM    1  C1  UNL     1     -32.152   8.794   1.763  1.00 20.00     0.133 C 
HETATM    2  N5  UNL     1     -32.302   9.364   0.764  1.00 20.00    -0.184 NA
HETATM    3  S6  UNL     1     -31.924   7.970   3.221  1.00 20.00    -0.046 SA
ENDROOT
BRANCH   3   4
HETATM    4  C4  UNL     1     -33.423   6.948   3.185  1.00 20.00     0.135 C 
BRANCH   4   5
HETATM    5  C3  UNL     1     -33.870   6.600   4.574  1.00 20.00    -0.011 C 
HETATM    6  C2  UNL     1     -33.652   7.395   5.632  1.00 20.00     0.027 C 
HETATM    7 BR7  UNL     1     -34.683   4.923   4.774  1.00 20.00    -0.056 Br
ENDBRANCH   4   5
ENDBRANCH   3   4
TORSDOF 2
ENDMDL
MODEL 2
REMARK VINA RESULT:      -4.1      1.304      1.525
REMARK  2 active torsions:
REMARK  status: ('A' for Active; 'I' for Inactive)
REMARK    1  A    between atoms: C3_3  and  C4_4 
REMARK    2  A    between atoms: C4_4  and  S6_6 
ROOT
HETATM    1  C1  UNL     1     -32.147   8.804   1.714  1.00 20.00     0.133 C 
HETATM    2  N5  UNL     1     -32.261   9.316   0.679  1.00 20.00    -0.184 NA
HETATM    3  S6  UNL     1     -31.972   8.067   3.225  1.00 20.00    -0.046 SA
ENDROOT
BRANCH   3   4
HETATM    4  C4  UNL     1     -33.026   6.617   2.936  1.00 20.00     0.135 C 
BRANCH   4   5
HETATM    5  C3  UNL     1     -34.012   6.438   4.052  1.00 20.00    -0.011 C 
HETATM    6  C2  UNL     1     -35.154   5.750   3.912  1.00 20.00     0.027 C 
HETATM    7 BR7  UNL     1     -33.600   7.317   5.655  1.00 20.00    -0.056 Br
ENDBRANCH   4   5
ENDBRANCH   3   4
TORSDOF 2
ENDMDL
MODEL 3
REMARK VINA RESULT:      -3.9      3.818      4.375
REMARK  2 active torsions:
REMARK  status: ('A' for Active; 'I' for Inactive)
REMARK    1  A    between atoms: C3_3  and  C4_4 
REMARK    2  A    between atoms: C4_4  and  S6_6 
ROOT
HETATM    1  C1  UNL     1     -34.324   5.119   4.332  1.00 20.00     0.133 C 
HETATM    2  N5  UNL     1     -34.501   3.974   4.396  1.00 20.00    -0.184 NA
HETATM    3  S6  UNL     1     -34.072   6.788   4.250  1.00 20.00    -0.046 SA
ENDROOT
BRANCH   3   4
HETATM    4  C4  UNL     1     -33.177   6.843   2.671  1.00 20.00     0.135 C 
BRANCH   4   5
HETATM    5  C3  UNL     1     -32.221   7.999   2.635  1.00 20.00    -0.011 C 
HETATM    6  C2  UNL     1     -31.396   8.295   3.650  1.00 20.00     0.027 C 
HETATM    7 BR7  UNL     1     -32.306   9.081   1.107  1.00 20.00    -0.056 Br
ENDBRANCH   4   5
ENDBRANCH   3   4
TORSDOF 2
ENDMDL
MODEL 4
REMARK VINA RESULT:      -3.9      0.943      1.532
REMARK  2 active torsions:
REMARK  status: ('A' for Active; 'I' for Inactive)
REMARK    1  A    between atoms: C3_3  and  C4_4 
REMARK    2  A    between atoms: C4_4  and  S6_6 
ROOT
HETATM    1  C1  UNL     1     -32.176   8.697   1.786  1.00 20.00     0.133 C 
HETATM    2  N5  UNL     1     -32.358   9.250   0.782  1.00 20.00    -0.184 NA
HETATM    3  S6  UNL     1     -31.899   7.894   3.246  1.00 20.00    -0.046 SA
ENDROOT
BRANCH   3   4
HETATM    4  C4  UNL     1     -33.600   7.354   3.578  1.00 20.00     0.135 C 
BRANCH   4   5
HETATM    5  C3  UNL     1     -33.692   5.857   3.612  1.00 20.00    -0.011 C 
HETATM    6  C2  UNL     1     -33.154   5.071   2.667  1.00 20.00     0.027 C 
HETATM    7 BR7  UNL     1     -34.694   5.131   5.020  1.00 20.00    -0.056 Br
ENDBRANCH   4   5
ENDBRANCH   3   4
TORSDOF 2
ENDMDL
MODEL 5
REMARK VINA RESULT:      -3.7      3.469      4.105
REMARK  2 active torsions:
REMARK  status: ('A' for Active; 'I' for Inactive)
REMARK    1  A    between atoms: C3_3  and  C4_4 
REMARK    2  A    between atoms: C4_4  and  S6_6 
ROOT
HETATM    1  C1  UNL     1     -34.006   6.756   5.856  1.00 20.00     0.133 C 
HETATM    2  N5  UNL     1     -33.500   7.707   6.287  1.00 20.00    -0.184 NA
HETATM    3  S6  UNL     1     -34.743   5.367   5.239  1.00 20.00    -0.046 SA
ENDROOT
BRANCH   3   4
HETATM    4  C4  UNL     1     -34.875   5.884   3.504  1.00 20.00     0.135 C 
BRANCH   4   5
HETATM    5  C3  UNL     1     -33.534   5.857   2.832  1.00 20.00    -0.011 C 
HETATM    6  C2  UNL     1     -32.912   4.720   2.490  1.00 20.00     0.027 C 
HETATM    7 BR7  UNL     1     -32.718   7.524   2.570  1.00 20.00    -0.056 Br
ENDBRANCH   4   5
ENDBRANCH   3   4
TORSDOF 2
ENDMDL
MODEL 6
REMARK VINA RESULT:      -3.6      1.329      1.408
REMARK  2 active torsions:
REMARK  status: ('A' for Active; 'I' for Inactive)
REMARK    1  A    between atoms: C3_3  and  C4_4 
REMARK    2  A    between atoms: C4_4  and  S6_6 
ROOT
HETATM    1  C1  UNL     1     -32.343   8.815   1.835  1.00 20.00     0.133 C 
HETATM    2  N5  UNL     1     -32.565   9.537   0.955  1.00 20.00    -0.184 NA
HETATM    3  S6  UNL     1     -32.008   7.762   3.114  1.00 20.00    -0.046 SA
ENDROOT
BRANCH   3   4
HETATM    4  C4  UNL     1     -33.708   7.501   3.695  1.00 20.00     0.135 C 
BRANCH   4   5
HETATM    5  C3  UNL     1     -34.000   6.039   3.862  1.00 20.00    -0.011 C 
HETATM    6  C2  UNL     1     -34.786   5.559   4.837  1.00 20.00     0.027 C 
HETATM    7 BR7  UNL     1     -33.123   4.889   2.670  1.00 20.00    -0.056 Br
ENDBRANCH   4   5
ENDBRANCH   3   4
TORSDOF 2
ENDMDL
MODEL 7
REMARK VINA RESULT:      -3.5      3.463      4.598
REMARK  2 active torsions:
REMARK  status: ('A' for Active; 'I' for Inactive)
REMARK    1  A    between atoms: C3_3  and  C4_4 
REMARK    2  A    between atoms: C4_4  and  S6_6 
ROOT
HETATM    1  C1  UNL     1     -33.493   7.154   4.659  1.00 20.00     0.133 C 
HETATM    2  N5  UNL     1     -33.793   7.311   5.769  1.00 20.00    -0.184 NA
HETATM    3  S6  UNL     1     -33.063   6.915   3.043  1.00 20.00    -0.046 SA
ENDROOT
BRANCH   3   4
HETATM    4  C4  UNL     1     -31.860   8.266   2.886  1.00 20.00     0.135 C 
BRANCH   4   5
HETATM    5  C3  UNL     1     -31.948   8.910   1.535  1.00 20.00    -0.011 C 
HETATM    6  C2  UNL     1     -31.320   8.427   0.453  1.00 20.00     0.027 C 
HETATM    7 BR7  UNL     1     -32.925  10.508   1.454  1.00 20.00    -0.056 Br
ENDBRANCH   4   5
ENDBRANCH   3   4
TORSDOF 2
ENDMDL
MODEL 8
REMARK VINA RESULT:      -3.4      3.502      4.095
REMARK  2 active torsions:
REMARK  status: ('A' for Active; 'I' for Inactive)
REMARK    1  A    between atoms: C3_3  and  C4_4 
REMARK    2  A    between atoms: C4_4  and  S6_6 
ROOT
HETATM    1  C1  UNL     1     -34.437   4.503   4.183  1.00 20.00     0.133 C 
HETATM    2  N5  UNL     1     -34.068   3.475   4.574  1.00 20.00    -0.184 NA
HETATM    3  S6  UNL     1     -34.986   5.998   3.617  1.00 20.00    -0.046 SA
ENDROOT
BRANCH   3   4
HETATM    4  C4  UNL     1     -33.438   6.583   2.870  1.00 20.00     0.135 C 
BRANCH   4   5
HETATM    5  C3  UNL     1     -32.719   7.523   3.792  1.00 20.00    -0.011 C 
HETATM    6  C2  UNL     1     -31.638   8.224   3.420  1.00 20.00     0.027 C 
HETATM    7 BR7  UNL     1     -33.367   7.600   5.549  1.00 20.00    -0.056 Br
ENDBRANCH   4   5
ENDBRANCH   3   4
TORSDOF 2
ENDMDL
MODEL 9
REMARK VINA RESULT:      -3.3      3.411      4.411
REMARK  2 active torsions:
REMARK  status: ('A' for Active; 'I' for Inactive)
REMARK    1  A    between atoms: C3_3  and  C4_4 
REMARK    2  A    between atoms: C4_4  and  S6_6 
ROOT
HETATM    1  C1  UNL     1     -32.961   6.826   2.954  1.00 20.00     0.133 C 
HETATM    2  N5  UNL     1     -33.660   5.918   2.772  1.00 20.00    -0.184 NA
HETATM    3  S6  UNL     1     -31.945   8.148   3.231  1.00 20.00    -0.046 SA
ENDROOT
BRANCH   3   4
HETATM    4  C4  UNL     1     -31.543   8.539   1.504  1.00 20.00     0.135 C 
BRANCH   4   5
HETATM    5  C3  UNL     1     -32.411   9.648   0.988  1.00 20.00    -0.011 C 
HETATM    6  C2  UNL     1     -32.659  10.766   1.686  1.00 20.00     0.027 C 
HETATM    7 BR7  UNL     1     -33.220   9.345  -0.675  1.00 20.00    -0.056 Br
ENDBRANCH   4   5
ENDBRANCH   3   4
TORSDOF 2
ENDMDL
