MODEL 1
REMARK VINA RESULT:      -4.7      0.000      0.000
REMARK  2 active torsions:
REMARK  status: ('A' for Active; 'I' for Inactive)
REMARK    1  A    between atoms: C3_3  and  C5_5 
REMARK    2  A    between atoms: C5_5  and  N6_6 
ROOT
HETATM    1  C1  UNL     1     -32.380   8.046   2.437  1.00 20.00     0.157 C 
HETATM    2  N6  UNL     1     -32.485   7.282   3.322  1.00 20.00    -0.271 NA
HETATM    3  S7  UNL     1     -32.209   9.086   1.242  1.00 20.00    -0.055 SA
ENDROOT
BRANCH   2   4
HETATM    4  C5  UNL     1     -33.826   6.722   3.498  1.00 20.00     0.183 C 
BRANCH   4   5
HETATM    5  C3  UNL     1     -34.081   6.438   4.952  1.00 20.00    -0.073 C 
HETATM    6  C2  UNL     1     -33.751   7.320   5.909  1.00 20.00     0.015 C 
HETATM    7  C4  UNL     1     -34.696   5.110   5.286  1.00 20.00     0.044 C 
ENDBRANCH   4   5
ENDBRANCH   2   4
TORSDOF 2
ENDMDL
MODEL 2
REMARK VINA RESULT:      -4.6      0.207      1.342
REMARK  2 active torsions:
REMARK  status: ('A' for Active; 'I' for Inactive)
REMARK    1  A    between atoms: C3_3  and  C5_5 
REMARK    2  A    between atoms: C5_5  and  N6_6 
ROOT
HETATM    1  C1  UNL     1     -32.359   8.182   2.382  1.00 20.00     0.157 C 
HETATM    2  N6  UNL     1     -32.466   7.496   3.330  1.00 20.00    -0.271 NA
HETATM    3  S7  UNL     1     -32.191   9.122   1.107  1.00 20.00    -0.055 SA
ENDROOT
BRANCH   2   4
HETATM    4  C5  UNL     1     -33.641   6.624   3.331  1.00 20.00     0.183 C 
BRANCH   4   5
HETATM    5  C3  UNL     1     -34.062   6.327   4.744  1.00 20.00    -0.073 C 
HETATM    6  C2  UNL     1     -34.746   5.215   5.055  1.00 20.00     0.015 C 
HETATM    7  C4  UNL     1     -33.707   7.348   5.786  1.00 20.00     0.044 C 
ENDBRANCH   4   5
ENDBRANCH   2   4
TORSDOF 2
ENDMDL
MODEL 3
REMARK VINA RESULT:      -4.3      1.141      1.691
REMARK  2 active torsions:
REMARK  status: ('A' for Active; 'I' for Inactive)
REMARK    1  A    between atoms: C3_3  and  C5_5 
REMARK    2  A    between atoms: C5_5  and  N6_6 
ROOT
HETATM    1  C1  UNL     1     -32.527   8.724   1.730  1.00 20.00     0.157 C 
HETATM    2  N6  UNL     1     -32.500   7.688   2.284  1.00 20.00    -0.271 NA
HETATM    3  S7  UNL     1     -32.566  10.115   0.956  1.00 20.00    -0.055 SA
ENDROOT
BRANCH   2   4
HETATM    4  C5  UNL     1     -32.403   7.770   3.742  1.00 20.00     0.183 C 
BRANCH   4   5
HETATM    5  C3  UNL     1     -33.557   7.046   4.378  1.00 20.00    -0.073 C 
HETATM    6  C2  UNL     1     -34.382   6.269   3.658  1.00 20.00     0.015 C 
HETATM    7  C4  UNL     1     -33.762   7.258   5.850  1.00 20.00     0.044 C 
ENDBRANCH   4   5
ENDBRANCH   2   4
TORSDOF 2
ENDMDL
MODEL 4
REMARK VINA RESULT:      -4.2      2.675      4.574
REMARK  2 active torsions:
REMARK  status: ('A' for Active; 'I' for Inactive)
REMARK    1  A    between atoms: C3_3  and  C5_5 
REMARK    2  A    between atoms: C5_5  and  N6_6 
ROOT
HETATM    1  C1  UNL     1     -32.831   7.199   2.853  1.00 20.00     0.157 C 
HETATM    2  N6  UNL     1     -32.201   8.187   2.768  1.00 20.00    -0.271 NA
HETATM    3  S7  UNL     1     -33.689   5.865   2.996  1.00 20.00    -0.055 SA
ENDROOT
BRANCH   2   4
HETATM    4  C5  UNL     1     -31.706   8.488   1.424  1.00 20.00     0.183 C 
BRANCH   4   5
HETATM    5  C3  UNL     1     -32.507   9.607   0.817  1.00 20.00    -0.073 C 
HETATM    6  C2  UNL     1     -32.667  10.780   1.449  1.00 20.00     0.015 C 
HETATM    7  C4  UNL     1     -33.144   9.339  -0.515  1.00 20.00     0.044 C 
ENDBRANCH   4   5
ENDBRANCH   2   4
TORSDOF 2
ENDMDL
MODEL 5
REMARK VINA RESULT:      -3.8      2.695      4.053
REMARK  2 active torsions:
REMARK  status: ('A' for Active; 'I' for Inactive)
REMARK    1  A    between atoms: C3_3  and  C5_5 
REMARK    2  A    between atoms: C5_5  and  N6_6 
ROOT
HETATM    1  C1  UNL     1     -34.295   6.102   4.457  1.00 20.00     0.157 C 
HETATM    2  N6  UNL     1     -34.047   7.084   3.863  1.00 20.00    -0.271 NA
HETATM    3  S7  UNL     1     -34.648   4.784   5.280  1.00 20.00    -0.055 SA
ENDROOT
BRANCH   2   4
HETATM    4  C5  UNL     1     -33.190   6.897   2.691  1.00 20.00     0.183 C 
BRANCH   4   5
HETATM    5  C3  UNL     1     -32.158   7.989   2.626  1.00 20.00    -0.073 C 
HETATM    6  C2  UNL     1     -31.392   8.296   3.684  1.00 20.00     0.015 C 
HETATM    7  C4  UNL     1     -32.046   8.738   1.330  1.00 20.00     0.044 C 
ENDBRANCH   4   5
ENDBRANCH   2   4
TORSDOF 2
ENDMDL
MODEL 6
REMARK VINA RESULT:      -3.3      1.705      2.231
REMARK  2 active torsions:
REMARK  status: ('A' for Active; 'I' for Inactive)
REMARK    1  A    between atoms: C3_3  and  C5_5 
REMARK    2  A    between atoms: C5_5  and  N6_6 
ROOT
HETATM    1  C1  UNL     1     -32.935   7.659   3.604  1.00 20.00     0.157 C 
HETATM    2  N6  UNL     1     -33.878   7.244   4.168  1.00 20.00    -0.271 NA
HETATM    3  S7  UNL     1     -31.650   8.239   2.862  1.00 20.00    -0.055 SA
ENDROOT
BRANCH   2   4
HETATM    4  C5  UNL     1     -34.629   6.219   3.442  1.00 20.00     0.183 C 
BRANCH   4   5
HETATM    5  C3  UNL     1     -33.911   4.900   3.519  1.00 20.00    -0.073 C 
HETATM    6  C2  UNL     1     -33.065   4.502   2.556  1.00 20.00     0.015 C 
HETATM    7  C4  UNL     1     -34.207   4.035   4.711  1.00 20.00     0.044 C 
ENDBRANCH   4   5
ENDBRANCH   2   4
TORSDOF 2
ENDMDL
MODEL 7
REMARK VINA RESULT:      -3.2     11.731     12.191
REMARK  2 active torsions:
REMARK  status: ('A' for Active; 'I' for Inactive)
REMARK    1  A    between atoms: C3_3  and  C5_5 
REMARK    2  A    between atoms: C5_5  and  N6_6 
ROOT
HETATM    1  C1  UNL     1     -31.300  18.651   0.709  1.00 20.00     0.157 C 
HETATM    2  N6  UNL     1     -31.476  18.347  -0.412  1.00 20.00    -0.271 NA
HETATM    3  S7  UNL     1     -31.038  19.049   2.229  1.00 20.00    -0.055 SA
ENDROOT
BRANCH   2   4
HETATM    4  C5  UNL     1     -32.700  18.880  -1.011  1.00 20.00     0.183 C 
BRANCH   4   5
HETATM    5  C3  UNL     1     -33.681  17.767  -1.260  1.00 20.00    -0.073 C 
HETATM    6  C2  UNL     1     -33.564  16.952  -2.320  1.00 20.00     0.015 C 
HETATM    7  C4  UNL     1     -34.812  17.629  -0.283  1.00 20.00     0.044 C 
ENDBRANCH   4   5
ENDBRANCH   2   4
TORSDOF 2
ENDMDL
MODEL 8
REMARK VINA RESULT:      -3.0     11.440     11.701
REMARK  2 active torsions:
REMARK  status: ('A' for Active; 'I' for Inactive)
REMARK    1  A    between atoms: C3_3  and  C5_5 
REMARK    2  A    between atoms: C5_5  and  N6_6 
ROOT
HETATM    1  C1  UNL     1     -35.658  14.957  -4.300  1.00 20.00     0.157 C 
HETATM    2  N6  UNL     1     -35.553  15.914  -3.627  1.00 20.00    -0.271 NA
HETATM    3  S7  UNL     1     -35.826  13.663  -5.214  1.00 20.00    -0.055 SA
ENDROOT
BRANCH   2   4
HETATM    4  C5  UNL     1     -34.198  16.184  -3.144  1.00 20.00     0.183 C 
BRANCH   4   5
HETATM    5  C3  UNL     1     -34.254  16.982  -1.871  1.00 20.00    -0.073 C 
HETATM    6  C2  UNL     1     -35.354  17.005  -1.103  1.00 20.00     0.015 C 
HETATM    7  C4  UNL     1     -33.031  17.777  -1.515  1.00 20.00     0.044 C 
ENDBRANCH   4   5
ENDBRANCH   2   4
TORSDOF 2
ENDMDL
MODEL 9
REMARK VINA RESULT:      -3.0     11.319     11.959
REMARK  2 active torsions:
REMARK  status: ('A' for Active; 'I' for Inactive)
REMARK    1  A    between atoms: C3_3  and  C5_5 
REMARK    2  A    between atoms: C5_5  and  N6_6 
ROOT
HETATM    1  C1  UNL     1     -35.378  13.899  -4.774  1.00 20.00     0.157 C 
HETATM    2  N6  UNL     1     -34.435  13.771  -4.085  1.00 20.00    -0.271 NA
HETATM    3  S7  UNL     1     -36.670  14.054  -5.692  1.00 20.00    -0.055 SA
ENDROOT
BRANCH   2   4
HETATM    4  C5  UNL     1     -33.287  14.601  -4.450  1.00 20.00     0.183 C 
BRANCH   4   5
HETATM    5  C3  UNL     1     -33.553  16.037  -4.093  1.00 20.00    -0.073 C 
HETATM    6  C2  UNL     1     -33.788  16.415  -2.826  1.00 20.00     0.015 C 
HETATM    7  C4  UNL     1     -33.574  17.025  -5.223  1.00 20.00     0.044 C 
ENDBRANCH   4   5
ENDBRANCH   2   4
TORSDOF 2
ENDMDL
