MODEL 1
REMARK VINA RESULT:      -5.9      0.000      0.000
REMARK  0 active torsions:
REMARK  status: ('A' for Active; 'I' for Inactive)
ROOT
HETATM    1  C1  UNL     1     -32.313   7.556   3.285  1.00 20.00     0.064 C 
HETATM    2  C2  UNL     1     -33.906   5.199   5.537  1.00 20.00     0.005 C 
HETATM    3  C3  UNL     1     -34.123   6.718   5.527  1.00 20.00     0.006 C 
HETATM    4  C4  UNL     1     -33.291   5.249   3.112  1.00 20.00     0.024 C 
HETATM    5  C5  UNL     1     -35.504   5.748   3.862  1.00 20.00     0.010 C 
HETATM    6  C6  UNL     1     -33.526   6.770   3.044  1.00 20.00     0.097 C 
HETATM    7  C7  UNL     1     -34.352   4.778   4.127  1.00 20.00    -0.013 C 
HETATM    8  C8  UNL     1     -34.637   6.988   4.097  1.00 20.00     0.003 C 
HETATM    9  N9  UNL     1     -31.352   8.178   3.475  1.00 20.00    -0.197 NA
ENDROOT
TORSDOF 0
ENDMDL
MODEL 2
REMARK VINA RESULT:      -4.7      1.160      2.172
REMARK  0 active torsions:
REMARK  status: ('A' for Active; 'I' for Inactive)
ROOT
HETATM    1  C1  UNL     1     -32.567   7.976   2.564  1.00 20.00     0.064 C 
HETATM    2  C2  UNL     1     -35.562   6.187   3.560  1.00 20.00     0.005 C 
HETATM    3  C3  UNL     1     -34.728   5.912   2.301  1.00 20.00     0.006 C 
HETATM    4  C4  UNL     1     -33.549   7.126   4.713  1.00 20.00     0.024 C 
HETATM    5  C5  UNL     1     -33.707   4.812   4.137  1.00 20.00     0.010 C 
HETATM    6  C6  UNL     1     -32.664   6.840   3.485  1.00 20.00     0.097 C 
HETATM    7  C7  UNL     1     -34.553   5.956   4.697  1.00 20.00    -0.013 C 
HETATM    8  C8  UNL     1     -33.331   5.588   2.871  1.00 20.00     0.003 C 
HETATM    9  N9  UNL     1     -32.488   8.876   1.835  1.00 20.00    -0.197 NA
ENDROOT
TORSDOF 0
ENDMDL
MODEL 3
REMARK VINA RESULT:      -4.4      1.532      2.214
REMARK  0 active torsions:
REMARK  status: ('A' for Active; 'I' for Inactive)
ROOT
HETATM    1  C1  UNL     1     -33.677   7.425   5.363  1.00 20.00     0.064 C 
HETATM    2  C2  UNL     1     -33.301   4.323   3.519  1.00 20.00     0.005 C 
HETATM    3  C3  UNL     1     -34.549   4.758   4.300  1.00 20.00     0.006 C 
HETATM    4  C4  UNL     1     -32.652   6.716   3.183  1.00 20.00     0.024 C 
HETATM    5  C5  UNL     1     -34.601   5.784   2.163  1.00 20.00     0.010 C 
HETATM    6  C6  UNL     1     -33.906   7.202   3.933  1.00 20.00     0.097 C 
HETATM    7  C7  UNL     1     -33.144   5.439   2.473  1.00 20.00    -0.013 C 
HETATM    8  C8  UNL     1     -34.936   6.091   3.626  1.00 20.00     0.003 C 
HETATM    9  N9  UNL     1     -33.495   7.602   6.495  1.00 20.00    -0.197 NA
ENDROOT
TORSDOF 0
ENDMDL
MODEL 4
REMARK VINA RESULT:      -4.3     11.640     12.821
REMARK  0 active torsions:
REMARK  status: ('A' for Active; 'I' for Inactive)
ROOT
HETATM    1  C1  UNL     1     -35.205  13.647  -4.725  1.00 20.00     0.064 C 
HETATM    2  C2  UNL     1     -34.764  17.224  -5.145  1.00 20.00     0.005 C 
HETATM    3  C3  UNL     1     -35.794  16.548  -4.230  1.00 20.00     0.006 C 
HETATM    4  C4  UNL     1     -33.267  15.226  -4.971  1.00 20.00     0.024 C 
HETATM    5  C5  UNL     1     -33.716  16.631  -3.092  1.00 20.00     0.010 C 
HETATM    6  C6  UNL     1     -34.257  14.519  -4.026  1.00 20.00     0.097 C 
HETATM    7  C7  UNL     1     -33.424  16.712  -4.591  1.00 20.00    -0.013 C 
HETATM    8  C8  UNL     1     -34.919  15.702  -3.282  1.00 20.00     0.003 C 
HETATM    9  N9  UNL     1     -35.955  12.956  -5.278  1.00 20.00    -0.197 NA
ENDROOT
TORSDOF 0
ENDMDL
MODEL 5
REMARK VINA RESULT:      -4.3     11.626     12.732
REMARK  0 active torsions:
REMARK  status: ('A' for Active; 'I' for Inactive)
ROOT
HETATM    1  C1  UNL     1     -36.594  13.977  -5.129  1.00 20.00     0.064 C 
HETATM    2  C2  UNL     1     -34.201  16.621  -4.457  1.00 20.00     0.005 C 
HETATM    3  C3  UNL     1     -34.780  15.649  -3.420  1.00 20.00     0.006 C 
HETATM    4  C4  UNL     1     -34.575  14.939  -6.272  1.00 20.00     0.024 C 
HETATM    5  C5  UNL     1     -32.979  14.580  -4.531  1.00 20.00     0.010 C 
HETATM    6  C6  UNL     1     -35.135  13.918  -5.264  1.00 20.00     0.097 C 
HETATM    7  C7  UNL     1     -33.500  15.682  -5.453  1.00 20.00    -0.013 C 
HETATM    8  C8  UNL     1     -34.368  14.266  -3.967  1.00 20.00     0.003 C 
HETATM    9  N9  UNL     1     -37.748  14.023  -5.023  1.00 20.00    -0.197 NA
ENDROOT
TORSDOF 0
ENDMDL
MODEL 6
REMARK VINA RESULT:      -3.9     11.974     12.980
REMARK  0 active torsions:
REMARK  status: ('A' for Active; 'I' for Inactive)
ROOT
HETATM    1  C1  UNL     1     -36.871  14.821  -4.785  1.00 20.00     0.064 C 
HETATM    2  C2  UNL     1     -33.287  14.415  -4.388  1.00 20.00     0.005 C 
HETATM    3  C3  UNL     1     -34.047  14.436  -5.722  1.00 20.00     0.006 C 
HETATM    4  C4  UNL     1     -35.079  15.799  -3.323  1.00 20.00     0.024 C 
HETATM    5  C5  UNL     1     -33.663  16.674  -5.037  1.00 20.00     0.010 C 
HETATM    6  C6  UNL     1     -35.862  15.875  -4.647  1.00 20.00     0.097 C 
HETATM    7  C7  UNL     1     -33.609  15.793  -3.788  1.00 20.00    -0.013 C 
HETATM    8  C8  UNL     1     -34.739  15.815  -5.708  1.00 20.00     0.003 C 
HETATM    9  N9  UNL     1     -37.671  13.987  -4.894  1.00 20.00    -0.197 NA
ENDROOT
TORSDOF 0
ENDMDL
MODEL 7
REMARK VINA RESULT:      -3.9     12.150     13.295
REMARK  0 active torsions:
REMARK  status: ('A' for Active; 'I' for Inactive)
ROOT
HETATM    1  C1  UNL     1     -34.842  13.681  -6.607  1.00 20.00     0.064 C 
HETATM    2  C2  UNL     1     -34.286  15.579  -3.565  1.00 20.00     0.005 C 
HETATM    3  C3  UNL     1     -33.212  14.830  -4.365  1.00 20.00     0.006 C 
HETATM    4  C4  UNL     1     -35.671  15.842  -5.633  1.00 20.00     0.024 C 
HETATM    5  C5  UNL     1     -33.567  16.945  -5.377  1.00 20.00     0.010 C 
HETATM    6  C6  UNL     1     -34.608  15.123  -6.483  1.00 20.00     0.097 C 
HETATM    7  C7  UNL     1     -34.827  16.595  -4.585  1.00 20.00    -0.013 C 
HETATM    8  C8  UNL     1     -33.291  15.487  -5.759  1.00 20.00     0.003 C 
HETATM    9  N9  UNL     1     -35.028  12.540  -6.706  1.00 20.00    -0.197 NA
ENDROOT
TORSDOF 0
ENDMDL
MODEL 8
REMARK VINA RESULT:      -3.8      2.078      3.271
REMARK  0 active torsions:
REMARK  status: ('A' for Active; 'I' for Inactive)
ROOT
HETATM    1  C1  UNL     1     -34.331   4.337   4.434  1.00 20.00     0.064 C 
HETATM    2  C2  UNL     1     -32.292   7.295   3.929  1.00 20.00     0.005 C 
HETATM    3  C3  UNL     1     -33.039   6.522   2.834  1.00 20.00     0.006 C 
HETATM    4  C4  UNL     1     -33.938   6.504   5.640  1.00 20.00     0.024 C 
HETATM    5  C5  UNL     1     -34.564   8.002   3.887  1.00 20.00     0.010 C 
HETATM    6  C6  UNL     1     -34.739   5.738   4.571  1.00 20.00     0.097 C 
HETATM    7  C7  UNL     1     -33.423   7.738   4.871  1.00 20.00    -0.013 C 
HETATM    8  C8  UNL     1     -34.509   6.588   3.301  1.00 20.00     0.003 C 
HETATM    9  N9  UNL     1     -34.009   3.227   4.326  1.00 20.00    -0.197 NA
ENDROOT
TORSDOF 0
ENDMDL
MODEL 9
REMARK VINA RESULT:      -3.8     11.642     12.713
REMARK  0 active torsions:
REMARK  status: ('A' for Active; 'I' for Inactive)
ROOT
HETATM    1  C1  UNL     1     -34.785  16.333  -2.560  1.00 20.00     0.064 C 
HETATM    2  C2  UNL     1     -33.132  15.622  -5.710  1.00 20.00     0.005 C 
HETATM    3  C3  UNL     1     -33.018  14.787  -4.428  1.00 20.00     0.006 C 
HETATM    4  C4  UNL     1     -35.383  16.449  -4.996  1.00 20.00     0.024 C 
HETATM    5  C5  UNL     1     -35.003  14.159  -5.562  1.00 20.00     0.010 C 
HETATM    6  C6  UNL     1     -35.328  15.605  -3.709  1.00 20.00     0.097 C 
HETATM    7  C7  UNL     1     -34.637  15.571  -6.020  1.00 20.00    -0.013 C 
HETATM    8  C8  UNL     1     -34.480  14.386  -4.140  1.00 20.00     0.003 C 
HETATM    9  N9  UNL     1     -34.356  16.911  -1.649  1.00 20.00    -0.197 NA
ENDROOT
TORSDOF 0
ENDMDL
