MODEL 1
REMARK VINA RESULT:      -3.0      0.000      0.000
REMARK  1 active torsions:
REMARK  status: ('A' for Active; 'I' for Inactive)
REMARK    1  A    between atoms: C1_1  and  C3_3 
ROOT
HETATM    1  C2  UNL     1     -33.747   7.139   5.611  1.00 20.00     0.208 A 
HETATM    2  C3  UNL     1     -34.640   6.127   4.941  1.00 20.00     0.206 A 
HETATM    3  O5  UNL     1     -33.530   6.728   4.256  1.00 20.00    -0.374 OA
ENDROOT
BRANCH   2   4
HETATM    4  C1  UNL     1     -34.460   4.699   5.198  1.00 20.00     0.265 C 
HETATM    5  O4  UNL     1     -34.405   3.853   4.312  1.00 20.00    -0.304 OA
ENDBRANCH   2   4
TORSDOF 1
ENDMDL
MODEL 2
REMARK VINA RESULT:      -3.0      1.265      2.627
REMARK  1 active torsions:
REMARK  status: ('A' for Active; 'I' for Inactive)
REMARK    1  A    between atoms: C1_1  and  C3_3 
ROOT
HETATM    1  C2  UNL     1     -33.889   4.914   3.530  1.00 20.00     0.208 A 
HETATM    2  C3  UNL     1     -34.843   5.486   4.547  1.00 20.00     0.206 A 
HETATM    3  O5  UNL     1     -34.625   4.072   4.424  1.00 20.00    -0.374 OA
ENDROOT
BRANCH   2   4
HETATM    4  C1  UNL     1     -34.338   6.046   5.799  1.00 20.00     0.265 C 
HETATM    5  O4  UNL     1     -34.019   7.222   5.935  1.00 20.00    -0.304 OA
ENDBRANCH   2   4
TORSDOF 1
ENDMDL
MODEL 3
REMARK VINA RESULT:      -3.0      1.232      2.751
REMARK  1 active torsions:
REMARK  status: ('A' for Active; 'I' for Inactive)
REMARK    1  A    between atoms: C1_1  and  C3_3 
ROOT
HETATM    1  C2  UNL     1     -34.298   4.320   4.339  1.00 20.00     0.208 A 
HETATM    2  C3  UNL     1     -34.832   5.694   4.652  1.00 20.00     0.206 A 
HETATM    3  O5  UNL     1     -34.635   4.707   5.676  1.00 20.00    -0.374 OA
ENDROOT
BRANCH   2   4
HETATM    4  C1  UNL     1     -33.921   6.832   4.758  1.00 20.00     0.265 C 
HETATM    5  O4  UNL     1     -33.648   7.384   5.819  1.00 20.00    -0.304 OA
ENDBRANCH   2   4
TORSDOF 1
ENDMDL
MODEL 4
REMARK VINA RESULT:      -3.0      1.329      1.329
REMARK  1 active torsions:
REMARK  status: ('A' for Active; 'I' for Inactive)
REMARK    1  A    between atoms: C1_1  and  C3_3 
ROOT
HETATM    1  C2  UNL     1     -33.400   7.107   3.735  1.00 20.00     0.208 A 
HETATM    2  C3  UNL     1     -34.423   6.022   3.521  1.00 20.00     0.206 A 
HETATM    3  O5  UNL     1     -33.125   5.971   2.908  1.00 20.00    -0.374 OA
ENDROOT
BRANCH   2   4
HETATM    4  C1  UNL     1     -34.629   4.991   4.536  1.00 20.00     0.265 C 
HETATM    5  O4  UNL     1     -34.399   3.801   4.349  1.00 20.00    -0.304 OA
ENDBRANCH   2   4
TORSDOF 1
ENDMDL
MODEL 5
REMARK VINA RESULT:      -2.9     15.881     16.803
REMARK  1 active torsions:
REMARK  status: ('A' for Active; 'I' for Inactive)
REMARK    1  A    between atoms: C1_1  and  C3_3 
ROOT
HETATM    1  C2  UNL     1     -24.301  16.299  11.052  1.00 20.00     0.208 A 
HETATM    2  C3  UNL     1     -23.619  17.638  10.946  1.00 20.00     0.206 A 
HETATM    3  O5  UNL     1     -23.715  16.746   9.824  1.00 20.00    -0.374 OA
ENDROOT
BRANCH   2   4
HETATM    4  C1  UNL     1     -24.410  18.858  10.788  1.00 20.00     0.265 C 
HETATM    5  O4  UNL     1     -24.821  19.263   9.707  1.00 20.00    -0.304 OA
ENDBRANCH   2   4
TORSDOF 1
ENDMDL
MODEL 6
REMARK VINA RESULT:      -2.8     16.369     16.889
REMARK  1 active torsions:
REMARK  status: ('A' for Active; 'I' for Inactive)
REMARK    1  A    between atoms: C1_1  and  C3_3 
ROOT
HETATM    1  C2  UNL     1     -25.748  18.241  11.685  1.00 20.00     0.208 A 
HETATM    2  C3  UNL     1     -24.659  18.491  10.674  1.00 20.00     0.206 A 
HETATM    3  O5  UNL     1     -24.667  19.140  11.955  1.00 20.00    -0.374 OA
ENDROOT
BRANCH   2   4
HETATM    4  C1  UNL     1     -23.567  17.532  10.514  1.00 20.00     0.265 C 
HETATM    5  O4  UNL     1     -23.485  16.750   9.574  1.00 20.00    -0.304 OA
ENDBRANCH   2   4
TORSDOF 1
ENDMDL
MODEL 7
REMARK VINA RESULT:      -2.8      1.278      2.680
REMARK  1 active torsions:
REMARK  status: ('A' for Active; 'I' for Inactive)
REMARK    1  A    between atoms: C1_1  and  C3_3 
ROOT
HETATM    1  C2  UNL     1     -34.405   4.351   4.518  1.00 20.00     0.208 A 
HETATM    2  C3  UNL     1     -34.810   5.795   4.372  1.00 20.00     0.206 A 
HETATM    3  O5  UNL     1     -34.786   5.141   5.651  1.00 20.00    -0.374 OA
ENDROOT
BRANCH   2   4
HETATM    4  C1  UNL     1     -33.792   6.836   4.233  1.00 20.00     0.265 C 
HETATM    5  O4  UNL     1     -33.423   7.281   3.152  1.00 20.00    -0.304 OA
ENDBRANCH   2   4
TORSDOF 1
ENDMDL
MODEL 8
REMARK VINA RESULT:      -2.8     12.666     12.772
REMARK  1 active torsions:
REMARK  status: ('A' for Active; 'I' for Inactive)
REMARK    1  A    between atoms: C1_1  and  C3_3 
ROOT
HETATM    1  C2  UNL     1     -33.422  15.133  -4.184  1.00 20.00     0.208 A 
HETATM    2  C3  UNL     1     -34.181  14.353  -5.225  1.00 20.00     0.206 A 
HETATM    3  O5  UNL     1     -33.162  13.744  -4.418  1.00 20.00    -0.374 OA
ENDROOT
BRANCH   2   4
HETATM    4  C1  UNL     1     -35.525  13.854  -4.939  1.00 20.00     0.265 C 
HETATM    5  O4  UNL     1     -35.907  12.728  -5.237  1.00 20.00    -0.304 OA
ENDBRANCH   2   4
TORSDOF 1
ENDMDL
MODEL 9
REMARK VINA RESULT:      -2.7     12.600     12.972
REMARK  1 active torsions:
REMARK  status: ('A' for Active; 'I' for Inactive)
REMARK    1  A    between atoms: C1_1  and  C3_3 
ROOT
HETATM    1  C2  UNL     1     -36.435  13.865  -5.871  1.00 20.00     0.208 A 
HETATM    2  C3  UNL     1     -35.519  14.028  -4.685  1.00 20.00     0.206 A 
HETATM    3  O5  UNL     1     -35.867  12.734  -5.200  1.00 20.00    -0.374 OA
ENDROOT
BRANCH   2   4
HETATM    4  C1  UNL     1     -34.112  14.374  -4.881  1.00 20.00     0.265 C 
HETATM    5  O4  UNL     1     -33.185  13.743  -4.385  1.00 20.00    -0.304 OA
ENDBRANCH   2   4
TORSDOF 1
ENDMDL
