MODEL 1
REMARK VINA RESULT:      -5.8      0.000      0.000
REMARK  3 active torsions:
REMARK  status: ('A' for Active; 'I' for Inactive)
REMARK    1  A    between atoms: C5_5  and  C7_7 
REMARK    2  A    between atoms: C6_6  and  C8_8 
REMARK    3  A    between atoms: C7_7  and  C8_8 
ROOT
HETATM    1  C1  UNL     1     -33.642   7.564   6.063  1.00 20.00     0.012 C 
HETATM    2  C3  UNL     1     -34.110   6.469   5.914  1.00 20.00    -0.117 C 
HETATM    3  C5  UNL     1     -34.685   5.127   5.740  1.00 20.00     0.093 C 
ENDROOT
BRANCH   3   4
HETATM    4  C7  UNL     1     -34.477   4.587   4.323  1.00 20.00     0.013 C 
BRANCH   4   5
HETATM    5  C8  UNL     1     -34.413   5.699   3.266  1.00 20.00     0.013 C 
BRANCH   5   6
HETATM    6  C6  UNL     1     -33.049   5.786   2.578  1.00 20.00     0.093 C 
HETATM    7  C4  UNL     1     -32.470   7.133   2.655  1.00 20.00    -0.117 C 
HETATM    8  C2  UNL     1     -31.995   8.235   2.714  1.00 20.00     0.012 C 
ENDBRANCH   5   6
ENDBRANCH   4   5
ENDBRANCH   3   4
TORSDOF 3
ENDMDL
MODEL 2
REMARK VINA RESULT:      -5.8      0.076      3.319
REMARK  3 active torsions:
REMARK  status: ('A' for Active; 'I' for Inactive)
REMARK    1  A    between atoms: C5_5  and  C7_7 
REMARK    2  A    between atoms: C6_6  and  C8_8 
REMARK    3  A    between atoms: C7_7  and  C8_8 
ROOT
HETATM    1  C1  UNL     1     -32.098   8.293   2.584  1.00 20.00     0.012 C 
HETATM    2  C3  UNL     1     -32.507   7.164   2.600  1.00 20.00    -0.117 C 
HETATM    3  C5  UNL     1     -33.001   5.780   2.616  1.00 20.00     0.093 C 
ENDROOT
BRANCH   3   4
HETATM    4  C7  UNL     1     -34.385   5.665   3.259  1.00 20.00     0.013 C 
BRANCH   4   5
HETATM    5  C8  UNL     1     -34.457   4.558   4.320  1.00 20.00     0.013 C 
BRANCH   5   6
HETATM    6  C6  UNL     1     -34.690   5.103   5.731  1.00 20.00     0.093 C 
HETATM    7  C4  UNL     1     -34.129   6.449   5.908  1.00 20.00    -0.117 C 
HETATM    8  C2  UNL     1     -33.670   7.549   6.057  1.00 20.00     0.012 C 
ENDBRANCH   5   6
ENDBRANCH   4   5
ENDBRANCH   3   4
TORSDOF 3
ENDMDL
MODEL 3
REMARK VINA RESULT:      -5.7      1.270      4.365
REMARK  3 active torsions:
REMARK  status: ('A' for Active; 'I' for Inactive)
REMARK    1  A    between atoms: C5_5  and  C7_7 
REMARK    2  A    between atoms: C6_6  and  C8_8 
REMARK    3  A    between atoms: C7_7  and  C8_8 
ROOT
HETATM    1  C1  UNL     1     -32.839  10.209   0.912  1.00 20.00     0.012 C 
HETATM    2  C3  UNL     1     -32.325   9.309   1.518  1.00 20.00    -0.117 C 
HETATM    3  C5  UNL     1     -31.688   8.208   2.256  1.00 20.00     0.093 C 
ENDROOT
BRANCH   3   4
HETATM    4  C7  UNL     1     -32.631   7.577   3.283  1.00 20.00     0.013 C 
BRANCH   4   5
HETATM    5  C8  UNL     1     -33.243   6.256   2.794  1.00 20.00     0.013 C 
BRANCH   5   6
HETATM    6  C6  UNL     1     -34.650   6.015   3.346  1.00 20.00     0.093 C 
HETATM    7  C4  UNL     1     -34.628   5.466   4.708  1.00 20.00    -0.117 C 
HETATM    8  C2  UNL     1     -34.614   5.016   5.822  1.00 20.00     0.012 C 
ENDBRANCH   5   6
ENDBRANCH   4   5
ENDBRANCH   3   4
TORSDOF 3
ENDMDL
MODEL 4
REMARK VINA RESULT:      -5.7      1.367      2.565
REMARK  3 active torsions:
REMARK  status: ('A' for Active; 'I' for Inactive)
REMARK    1  A    between atoms: C5_5  and  C7_7 
REMARK    2  A    between atoms: C6_6  and  C8_8 
REMARK    3  A    between atoms: C7_7  and  C8_8 
ROOT
HETATM    1  C1  UNL     1     -34.729   4.656   4.873  1.00 20.00     0.012 C 
HETATM    2  C3  UNL     1     -34.387   5.760   5.198  1.00 20.00    -0.117 C 
HETATM    3  C5  UNL     1     -33.973   7.112   5.601  1.00 20.00     0.093 C 
ENDROOT
BRANCH   3   4
HETATM    4  C7  UNL     1     -32.853   7.663   4.715  1.00 20.00     0.013 C 
BRANCH   4   5
HETATM    5  C8  UNL     1     -33.135   7.480   3.217  1.00 20.00     0.013 C 
BRANCH   5   6
HETATM    6  C6  UNL     1     -32.005   8.011   2.332  1.00 20.00     0.093 C 
HETATM    7  C4  UNL     1     -32.394   9.223   1.599  1.00 20.00    -0.117 C 
HETATM    8  C2  UNL     1     -32.709  10.214   0.998  1.00 20.00     0.012 C 
ENDBRANCH   5   6
ENDBRANCH   4   5
ENDBRANCH   3   4
TORSDOF 3
ENDMDL
MODEL 5
REMARK VINA RESULT:      -5.6      1.381      4.493
REMARK  3 active torsions:
REMARK  status: ('A' for Active; 'I' for Inactive)
REMARK    1  A    between atoms: C5_5  and  C7_7 
REMARK    2  A    between atoms: C6_6  and  C8_8 
REMARK    3  A    between atoms: C7_7  and  C8_8 
ROOT
HETATM    1  C1  UNL     1     -32.647  10.048   0.750  1.00 20.00     0.012 C 
HETATM    2  C3  UNL     1     -32.362   9.136   1.476  1.00 20.00    -0.117 C 
HETATM    3  C5  UNL     1     -32.006   8.018   2.363  1.00 20.00     0.093 C 
ENDROOT
BRANCH   3   4
HETATM    4  C7  UNL     1     -33.180   7.578   3.241  1.00 20.00     0.013 C 
BRANCH   4   5
HETATM    5  C8  UNL     1     -32.863   7.660   4.741  1.00 20.00     0.013 C 
BRANCH   5   6
HETATM    6  C6  UNL     1     -33.988   7.101   5.616  1.00 20.00     0.093 C 
HETATM    7  C4  UNL     1     -34.376   5.740   5.222  1.00 20.00    -0.117 C 
HETATM    8  C2  UNL     1     -34.697   4.627   4.903  1.00 20.00     0.012 C 
ENDBRANCH   5   6
ENDBRANCH   4   5
ENDBRANCH   3   4
TORSDOF 3
ENDMDL
MODEL 6
REMARK VINA RESULT:      -5.1      0.962      2.986
REMARK  3 active torsions:
REMARK  status: ('A' for Active; 'I' for Inactive)
REMARK    1  A    between atoms: C5_5  and  C7_7 
REMARK    2  A    between atoms: C6_6  and  C8_8 
REMARK    3  A    between atoms: C7_7  and  C8_8 
ROOT
HETATM    1  C1  UNL     1     -31.629   8.184   3.224  1.00 20.00     0.012 C 
HETATM    2  C3  UNL     1     -32.307   7.949   4.187  1.00 20.00    -0.117 C 
HETATM    3  C5  UNL     1     -33.134   7.664   5.369  1.00 20.00     0.093 C 
ENDROOT
BRANCH   3   4
HETATM    4  C7  UNL     1     -34.403   6.885   5.015  1.00 20.00     0.013 C 
BRANCH   4   5
HETATM    5  C8  UNL     1     -34.443   5.492   5.658  1.00 20.00     0.013 C 
BRANCH   5   6
HETATM    6  C6  UNL     1     -34.550   4.366   4.628  1.00 20.00     0.093 C 
HETATM    7  C4  UNL     1     -33.707   4.607   3.450  1.00 20.00    -0.117 C 
HETATM    8  C2  UNL     1     -33.020   4.801   2.484  1.00 20.00     0.012 C 
ENDBRANCH   5   6
ENDBRANCH   4   5
ENDBRANCH   3   4
TORSDOF 3
ENDMDL
MODEL 7
REMARK VINA RESULT:      -5.1      0.982      2.586
REMARK  3 active torsions:
REMARK  status: ('A' for Active; 'I' for Inactive)
REMARK    1  A    between atoms: C5_5  and  C7_7 
REMARK    2  A    between atoms: C6_6  and  C8_8 
REMARK    3  A    between atoms: C7_7  and  C8_8 
ROOT
HETATM    1  C1  UNL     1     -33.027   4.761   2.501  1.00 20.00     0.012 C 
HETATM    2  C3  UNL     1     -33.706   4.572   3.474  1.00 20.00    -0.117 C 
HETATM    3  C5  UNL     1     -34.538   4.333   4.661  1.00 20.00     0.093 C 
ENDROOT
BRANCH   3   4
HETATM    4  C7  UNL     1     -34.491   5.503   5.647  1.00 20.00     0.013 C 
BRANCH   4   5
HETATM    5  C8  UNL     1     -34.404   6.867   4.947  1.00 20.00     0.013 C 
BRANCH   5   6
HETATM    6  C6  UNL     1     -33.139   7.644   5.318  1.00 20.00     0.093 C 
HETATM    7  C4  UNL     1     -32.316   7.964   4.145  1.00 20.00    -0.117 C 
HETATM    8  C2  UNL     1     -31.640   8.225   3.187  1.00 20.00     0.012 C 
ENDBRANCH   5   6
ENDBRANCH   4   5
ENDBRANCH   3   4
TORSDOF 3
ENDMDL
MODEL 8
REMARK VINA RESULT:      -5.0      0.959      2.554
REMARK  3 active torsions:
REMARK  status: ('A' for Active; 'I' for Inactive)
REMARK    1  A    between atoms: C5_5  and  C7_7 
REMARK    2  A    between atoms: C6_6  and  C8_8 
REMARK    3  A    between atoms: C7_7  and  C8_8 
ROOT
HETATM    1  C1  UNL     1     -34.780   4.700   5.529  1.00 20.00     0.012 C 
HETATM    2  C3  UNL     1     -34.403   5.811   5.784  1.00 20.00    -0.117 C 
HETATM    3  C5  UNL     1     -33.944   7.171   6.102  1.00 20.00     0.093 C 
ENDROOT
BRANCH   3   4
HETATM    4  C7  UNL     1     -32.996   7.727   5.037  1.00 20.00     0.013 C 
BRANCH   4   5
HETATM    5  C8  UNL     1     -33.635   7.782   3.642  1.00 20.00     0.013 C 
BRANCH   5   6
HETATM    6  C6  UNL     1     -32.758   7.146   2.562  1.00 20.00     0.093 C 
HETATM    7  C4  UNL     1     -32.895   5.684   2.522  1.00 20.00    -0.117 C 
HETATM    8  C2  UNL     1     -33.004   4.488   2.487  1.00 20.00     0.012 C 
ENDBRANCH   5   6
ENDBRANCH   4   5
ENDBRANCH   3   4
TORSDOF 3
ENDMDL
MODEL 9
REMARK VINA RESULT:      -4.7      0.963      4.089
REMARK  3 active torsions:
REMARK  status: ('A' for Active; 'I' for Inactive)
REMARK    1  A    between atoms: C5_5  and  C7_7 
REMARK    2  A    between atoms: C6_6  and  C8_8 
REMARK    3  A    between atoms: C7_7  and  C8_8 
ROOT
HETATM    1  C1  UNL     1     -33.004   4.495   2.473  1.00 20.00     0.012 C 
HETATM    2  C3  UNL     1     -32.903   5.691   2.491  1.00 20.00    -0.117 C 
HETATM    3  C5  UNL     1     -32.782   7.156   2.505  1.00 20.00     0.093 C 
ENDROOT
BRANCH   3   4
HETATM    4  C7  UNL     1     -32.473   7.699   3.902  1.00 20.00     0.013 C 
BRANCH   4   5
HETATM    5  C8  UNL     1     -33.741   7.996   4.717  1.00 20.00     0.013 C 
BRANCH   5   6
HETATM    6  C6  UNL     1     -33.825   7.172   6.004  1.00 20.00     0.093 C 
HETATM    7  C4  UNL     1     -34.333   5.815   5.765  1.00 20.00    -0.117 C 
HETATM    8  C2  UNL     1     -34.750   4.705   5.574  1.00 20.00     0.012 C 
ENDBRANCH   5   6
ENDBRANCH   4   5
ENDBRANCH   3   4
TORSDOF 3
ENDMDL
