MODEL 1
REMARK VINA RESULT:      -5.0      0.000      0.000
REMARK  0 active torsions:
REMARK  status: ('A' for Active; 'I' for Inactive)
ROOT
HETATM    1  C1  UNL     1     -37.102  15.529  -6.093  1.00 20.00     0.047 C 
HETATM    2  C2  UNL     1     -35.906  15.942  -6.529  1.00 20.00    -0.013 C 
HETATM    3  C3  UNL     1     -33.758  16.212  -3.747  1.00 20.00    -0.030 C 
HETATM    4  C4  UNL     1     -33.175  16.693  -4.850  1.00 20.00    -0.030 C 
HETATM    5  C5  UNL     1     -37.242  14.226  -5.395  1.00 20.00     0.149 C 
HETATM    6  C6  UNL     1     -34.691  15.045  -3.756  1.00 20.00     0.033 C 
HETATM    7  C7  UNL     1     -33.393  16.115  -6.212  1.00 20.00     0.040 C 
HETATM    8  C8  UNL     1     -36.001  13.394  -5.133  1.00 20.00     0.088 C 
HETATM    9  C9  UNL     1     -34.729  14.253  -5.090  1.00 20.00     0.008 C 
HETATM   10  C10 UNL     1     -34.615  15.163  -6.346  1.00 20.00    -0.019 C 
HETATM   11  C11 UNL     1     -34.407  14.327  -7.629  1.00 20.00     0.020 C 
HETATM   12  O12 UNL     1     -38.362  13.825  -5.078  1.00 20.00    -0.293 OA
ENDROOT
TORSDOF 0
ENDMDL
MODEL 2
REMARK VINA RESULT:      -4.8      1.813      3.267
REMARK  0 active torsions:
REMARK  status: ('A' for Active; 'I' for Inactive)
ROOT
HETATM    1  C1  UNL     1     -33.901  14.311  -4.315  1.00 20.00     0.047 C 
HETATM    2  C2  UNL     1     -33.555  15.503  -3.812  1.00 20.00    -0.013 C 
HETATM    3  C3  UNL     1     -34.390  17.978  -6.178  1.00 20.00    -0.030 C 
HETATM    4  C4  UNL     1     -33.705  18.504  -5.157  1.00 20.00    -0.030 C 
HETATM    5  C5  UNL     1     -35.314  14.021  -4.665  1.00 20.00     0.149 C 
HETATM    6  C6  UNL     1     -35.362  16.855  -6.020  1.00 20.00     0.033 C 
HETATM    7  C7  UNL     1     -33.837  18.025  -3.746  1.00 20.00     0.040 C 
HETATM    8  C8  UNL     1     -36.353  15.113  -4.496  1.00 20.00     0.088 C 
HETATM    9  C9  UNL     1     -35.731  16.516  -4.551  1.00 20.00     0.008 C 
HETATM   10  C10 UNL     1     -34.528  16.643  -3.572  1.00 20.00    -0.019 C 
HETATM   11  C11 UNL     1     -34.989  16.543  -2.101  1.00 20.00     0.020 C 
HETATM   12  O12 UNL     1     -35.624  12.893  -5.046  1.00 20.00    -0.293 OA
ENDROOT
TORSDOF 0
ENDMDL
MODEL 3
REMARK VINA RESULT:      -4.7      0.963      1.128
REMARK  0 active torsions:
REMARK  status: ('A' for Active; 'I' for Inactive)
ROOT
HETATM    1  C1  UNL     1     -36.867  15.789  -5.740  1.00 20.00     0.047 C 
HETATM    2  C2  UNL     1     -35.770  16.526  -5.955  1.00 20.00    -0.013 C 
HETATM    3  C3  UNL     1     -34.217  17.112  -2.846  1.00 20.00    -0.030 C 
HETATM    4  C4  UNL     1     -33.621  17.810  -3.817  1.00 20.00    -0.030 C 
HETATM    5  C5  UNL     1     -36.764  14.443  -5.123  1.00 20.00     0.149 C 
HETATM    6  C6  UNL     1     -34.797  15.751  -3.052  1.00 20.00     0.033 C 
HETATM    7  C7  UNL     1     -33.469  17.304  -5.217  1.00 20.00     0.040 C 
HETATM    8  C8  UNL     1     -35.403  13.935  -4.688  1.00 20.00     0.088 C 
HETATM    9  C9  UNL     1     -34.422  15.082  -4.402  1.00 20.00     0.008 C 
HETATM   10  C10 UNL     1     -34.363  16.088  -5.588  1.00 20.00    -0.019 C 
HETATM   11  C11 UNL     1     -33.750  15.435  -6.847  1.00 20.00     0.020 C 
HETATM   12  O12 UNL     1     -37.773  13.748  -5.013  1.00 20.00    -0.293 OA
ENDROOT
TORSDOF 0
ENDMDL
MODEL 4
REMARK VINA RESULT:      -4.6      1.660      2.559
REMARK  0 active torsions:
REMARK  status: ('A' for Active; 'I' for Inactive)
ROOT
HETATM    1  C1  UNL     1     -36.326  13.624  -5.228  1.00 20.00     0.047 C 
HETATM    2  C2  UNL     1     -36.616  14.829  -4.721  1.00 20.00    -0.013 C 
HETATM    3  C3  UNL     1     -33.736  16.059  -3.102  1.00 20.00    -0.030 C 
HETATM    4  C4  UNL     1     -34.786  16.857  -2.883  1.00 20.00    -0.030 C 
HETATM    5  C5  UNL     1     -35.246  13.470  -6.235  1.00 20.00     0.149 C 
HETATM    6  C6  UNL     1     -33.515  15.330  -4.387  1.00 20.00     0.033 C 
HETATM    7  C7  UNL     1     -35.853  17.107  -3.900  1.00 20.00     0.040 C 
HETATM    8  C8  UNL     1     -34.437  14.687  -6.640  1.00 20.00     0.088 C 
HETATM    9  C9  UNL     1     -34.440  15.771  -5.552  1.00 20.00     0.008 C 
HETATM   10  C10 UNL     1     -35.887  16.109  -5.092  1.00 20.00    -0.019 C 
HETATM   11  C11 UNL     1     -36.696  16.776  -6.226  1.00 20.00     0.020 C 
HETATM   12  O12 UNL     1     -35.052  12.370  -6.751  1.00 20.00    -0.293 OA
ENDROOT
TORSDOF 0
ENDMDL
MODEL 5
REMARK VINA RESULT:      -4.6      2.536      4.121
REMARK  0 active torsions:
REMARK  status: ('A' for Active; 'I' for Inactive)
ROOT
HETATM    1  C1  UNL     1     -33.771  15.040  -4.629  1.00 20.00     0.047 C 
HETATM    2  C2  UNL     1     -34.478  15.222  -3.506  1.00 20.00    -0.013 C 
HETATM    3  C3  UNL     1     -33.170  18.032  -1.827  1.00 20.00    -0.030 C 
HETATM    4  C4  UNL     1     -34.089  17.413  -1.080  1.00 20.00    -0.030 C 
HETATM    5  C5  UNL     1     -33.722  16.098  -5.669  1.00 20.00     0.149 C 
HETATM    6  C6  UNL     1     -33.253  18.127  -3.316  1.00 20.00     0.033 C 
HETATM    7  C7  UNL     1     -35.301  16.748  -1.652  1.00 20.00     0.040 C 
HETATM    8  C8  UNL     1     -34.439  17.411  -5.419  1.00 20.00     0.088 C 
HETATM    9  C9  UNL     1     -34.617  17.696  -3.920  1.00 20.00     0.008 C 
HETATM   10  C10 UNL     1     -35.258  16.484  -3.183  1.00 20.00    -0.019 C 
HETATM   11  C11 UNL     1     -36.712  16.249  -3.650  1.00 20.00     0.020 C 
HETATM   12  O12 UNL     1     -33.137  15.879  -6.729  1.00 20.00    -0.293 OA
ENDROOT
TORSDOF 0
ENDMDL
MODEL 6
REMARK VINA RESULT:      -4.6      1.750      2.667
REMARK  0 active torsions:
REMARK  status: ('A' for Active; 'I' for Inactive)
ROOT
HETATM    1  C1  UNL     1     -34.253  15.655  -6.725  1.00 20.00     0.047 C 
HETATM    2  C2  UNL     1     -33.652  15.965  -5.569  1.00 20.00    -0.013 C 
HETATM    3  C3  UNL     1     -36.154  16.550  -3.156  1.00 20.00    -0.030 C 
HETATM    4  C4  UNL     1     -34.944  16.853  -2.674  1.00 20.00    -0.030 C 
HETATM    5  C5  UNL     1     -35.139  14.467  -6.821  1.00 20.00     0.149 C 
HETATM    6  C6  UNL     1     -36.399  15.424  -4.107  1.00 20.00     0.033 C 
HETATM    7  C7  UNL     1     -33.705  16.098  -3.035  1.00 20.00     0.040 C 
HETATM    8  C8  UNL     1     -35.399  13.641  -5.577  1.00 20.00     0.088 C 
HETATM    9  C9  UNL     1     -35.200  14.455  -4.290  1.00 20.00     0.008 C 
HETATM   10  C10 UNL     1     -33.822  15.177  -4.282  1.00 20.00    -0.019 C 
HETATM   11  C11 UNL     1     -32.657  14.164  -4.216  1.00 20.00     0.020 C 
HETATM   12  O12 UNL     1     -35.613  14.152  -7.912  1.00 20.00    -0.293 OA
ENDROOT
TORSDOF 0
ENDMDL
MODEL 7
REMARK VINA RESULT:      -4.5      1.066      2.658
REMARK  0 active torsions:
REMARK  status: ('A' for Active; 'I' for Inactive)
ROOT
HETATM    1  C1  UNL     1     -36.182  13.601  -5.035  1.00 20.00     0.047 C 
HETATM    2  C2  UNL     1     -34.967  14.147  -4.902  1.00 20.00    -0.013 C 
HETATM    3  C3  UNL     1     -34.531  16.501  -7.489  1.00 20.00    -0.030 C 
HETATM    4  C4  UNL     1     -33.398  16.331  -6.800  1.00 20.00    -0.030 C 
HETATM    5  C5  UNL     1     -37.401  14.447  -4.968  1.00 20.00     0.149 C 
HETATM    6  C6  UNL     1     -35.887  16.444  -6.863  1.00 20.00     0.033 C 
HETATM    7  C7  UNL     1     -33.364  16.068  -5.328  1.00 20.00     0.040 C 
HETATM    8  C8  UNL     1     -37.247  15.947  -4.804  1.00 20.00     0.088 C 
HETATM    9  C9  UNL     1     -35.887  16.448  -5.311  1.00 20.00     0.008 C 
HETATM   10  C10 UNL     1     -34.715  15.630  -4.697  1.00 20.00    -0.019 C 
HETATM   11  C11 UNL     1     -34.606  15.863  -3.173  1.00 20.00     0.020 C 
HETATM   12  O12 UNL     1     -38.510  13.916  -5.008  1.00 20.00    -0.293 OA
ENDROOT
TORSDOF 0
ENDMDL
MODEL 8
REMARK VINA RESULT:      -4.5      1.808      3.338
REMARK  0 active torsions:
REMARK  status: ('A' for Active; 'I' for Inactive)
ROOT
HETATM    1  C1  UNL     1     -33.601  15.705  -3.799  1.00 20.00     0.047 C 
HETATM    2  C2  UNL     1     -33.278  15.622  -5.096  1.00 20.00    -0.013 C 
HETATM    3  C3  UNL     1     -35.384  13.230  -6.602  1.00 20.00    -0.030 C 
HETATM    4  C4  UNL     1     -34.439  13.640  -7.454  1.00 20.00    -0.030 C 
HETATM    5  C5  UNL     1     -34.969  16.111  -3.387  1.00 20.00     0.149 C 
HETATM    6  C6  UNL     1     -36.015  14.126  -5.586  1.00 20.00     0.033 C 
HETATM    7  C7  UNL     1     -33.911  15.039  -7.484  1.00 20.00     0.040 C 
HETATM    8  C8  UNL     1     -36.012  16.376  -4.456  1.00 20.00     0.088 C 
HETATM    9  C9  UNL     1     -35.699  15.635  -5.765  1.00 20.00     0.008 C 
HETATM   10  C10 UNL     1     -34.241  15.904  -6.235  1.00 20.00    -0.019 C 
HETATM   11  C11 UNL     1     -34.045  17.383  -6.637  1.00 20.00     0.020 C 
HETATM   12  O12 UNL     1     -35.221  16.263  -2.192  1.00 20.00    -0.293 OA
ENDROOT
TORSDOF 0
ENDMDL
MODEL 9
REMARK VINA RESULT:      -4.5      2.466      3.990
REMARK  0 active torsions:
REMARK  status: ('A' for Active; 'I' for Inactive)
ROOT
HETATM    1  C1  UNL     1     -34.553  17.069  -1.549  1.00 20.00     0.047 C 
HETATM    2  C2  UNL     1     -33.665  16.766  -2.504  1.00 20.00    -0.013 C 
HETATM    3  C3  UNL     1     -35.001  14.152  -4.455  1.00 20.00    -0.030 C 
HETATM    4  C4  UNL     1     -33.736  14.410  -4.802  1.00 20.00    -0.030 C 
HETATM    5  C5  UNL     1     -35.915  17.539  -1.906  1.00 20.00     0.149 C 
HETATM    6  C6  UNL     1     -35.961  15.209  -4.012  1.00 20.00     0.033 C 
HETATM    7  C7  UNL     1     -33.144  15.784  -4.786  1.00 20.00     0.040 C 
HETATM    8  C8  UNL     1     -36.306  17.618  -3.369  1.00 20.00     0.088 C 
HETATM    9  C9  UNL     1     -35.476  16.665  -4.242  1.00 20.00     0.008 C 
HETATM   10  C10 UNL     1     -33.951  16.849  -3.993  1.00 20.00    -0.019 C 
HETATM   11  C11 UNL     1     -33.469  18.238  -4.468  1.00 20.00     0.020 C 
HETATM   12  O12 UNL     1     -36.687  17.893  -1.015  1.00 20.00    -0.293 OA
ENDROOT
TORSDOF 0
ENDMDL
