MODEL 1
REMARK VINA RESULT:      -5.0      0.000      0.000
REMARK  3 active torsions:
REMARK  status: ('A' for Active; 'I' for Inactive)
REMARK    1  A    between atoms: C2_2  and  C6_6 
REMARK    2  A    between atoms: C2_2  and  C7_7 
REMARK    3  A    between atoms: C6_6  and  C8_8 
ROOT
HETATM    1  C6  UNL     1     -33.008   6.136   3.049  1.00 20.00     0.042 C 
ENDROOT
BRANCH   1   2
HETATM    2  C2  UNL     1     -32.484   7.549   2.880  1.00 20.00    -0.075 C 
HETATM    3  C1  UNL     1     -31.560   8.051   3.716  1.00 20.00     0.015 C 
BRANCH   2   4
HETATM    4  C7  UNL     1     -33.066   8.398   1.785  1.00 20.00     0.147 C 
HETATM    5 CL9  UNL     1     -31.776   9.041   0.742  1.00 20.00    -0.126 Cl
ENDBRANCH   2   4
ENDBRANCH   1   2
BRANCH   1   6
HETATM    6  C8  UNL     1     -34.177   5.917   4.056  1.00 20.00    -0.048 C 
HETATM    7  C3  UNL     1     -35.535   6.274   3.425  1.00 20.00     0.015 C 
HETATM    8  C4  UNL     1     -34.199   4.422   4.439  1.00 20.00     0.015 C 
HETATM    9  C5  UNL     1     -33.990   6.741   5.339  1.00 20.00     0.015 C 
ENDBRANCH   1   6
TORSDOF 3
ENDMDL
MODEL 2
REMARK VINA RESULT:      -5.0      0.057      1.431
REMARK  3 active torsions:
REMARK  status: ('A' for Active; 'I' for Inactive)
REMARK    1  A    between atoms: C2_2  and  C6_6 
REMARK    2  A    between atoms: C2_2  and  C7_7 
REMARK    3  A    between atoms: C6_6  and  C8_8 
ROOT
HETATM    1  C6  UNL     1     -33.021   6.139   3.040  1.00 20.00     0.042 C 
ENDROOT
BRANCH   1   2
HETATM    2  C2  UNL     1     -32.480   7.549   2.890  1.00 20.00    -0.075 C 
HETATM    3  C1  UNL     1     -31.569   8.038   3.747  1.00 20.00     0.015 C 
BRANCH   2   4
HETATM    4  C7  UNL     1     -33.033   8.408   1.787  1.00 20.00     0.147 C 
HETATM    5 CL9  UNL     1     -31.723   8.983   0.729  1.00 20.00    -0.126 Cl
ENDBRANCH   2   4
ENDBRANCH   1   2
BRANCH   1   6
HETATM    6  C8  UNL     1     -34.157   5.911   4.081  1.00 20.00    -0.048 C 
HETATM    7  C3  UNL     1     -33.976   6.812   5.316  1.00 20.00     0.015 C 
HETATM    8  C4  UNL     1     -35.497   6.274   3.408  1.00 20.00     0.015 C 
HETATM    9  C5  UNL     1     -34.229   4.446   4.540  1.00 20.00     0.015 C 
ENDBRANCH   1   6
TORSDOF 3
ENDMDL
MODEL 3
REMARK VINA RESULT:      -4.9      0.056      1.454
REMARK  3 active torsions:
REMARK  status: ('A' for Active; 'I' for Inactive)
REMARK    1  A    between atoms: C2_2  and  C6_6 
REMARK    2  A    between atoms: C2_2  and  C7_7 
REMARK    3  A    between atoms: C6_6  and  C8_8 
ROOT
HETATM    1  C6  UNL     1     -32.994   6.127   3.067  1.00 20.00     0.042 C 
ENDROOT
BRANCH   1   2
HETATM    2  C2  UNL     1     -32.482   7.544   2.889  1.00 20.00    -0.075 C 
HETATM    3  C1  UNL     1     -31.553   8.055   3.715  1.00 20.00     0.015 C 
BRANCH   2   4
HETATM    4  C7  UNL     1     -33.082   8.386   1.797  1.00 20.00     0.147 C 
HETATM    5 CL9  UNL     1     -31.805   9.063   0.761  1.00 20.00    -0.126 Cl
ENDBRANCH   2   4
ENDBRANCH   1   2
BRANCH   1   6
HETATM    6  C8  UNL     1     -34.179   5.908   4.054  1.00 20.00    -0.048 C 
HETATM    7  C3  UNL     1     -34.241   4.450   4.542  1.00 20.00     0.015 C 
HETATM    8  C4  UNL     1     -33.951   6.819   5.279  1.00 20.00     0.015 C 
HETATM    9  C5  UNL     1     -35.530   6.279   3.421  1.00 20.00     0.015 C 
ENDBRANCH   1   6
TORSDOF 3
ENDMDL
MODEL 4
REMARK VINA RESULT:      -4.7      2.405      3.994
REMARK  3 active torsions:
REMARK  status: ('A' for Active; 'I' for Inactive)
REMARK    1  A    between atoms: C2_2  and  C6_6 
REMARK    2  A    between atoms: C2_2  and  C7_7 
REMARK    3  A    between atoms: C6_6  and  C8_8 
ROOT
HETATM    1  C6  UNL     1     -33.909   7.913   3.694  1.00 20.00     0.042 C 
ENDROOT
BRANCH   1   2
HETATM    2  C2  UNL     1     -34.309   6.845   4.694  1.00 20.00    -0.075 C 
HETATM    3  C1  UNL     1     -33.906   6.906   5.974  1.00 20.00     0.015 C 
BRANCH   2   4
HETATM    4  C7  UNL     1     -35.126   5.681   4.204  1.00 20.00     0.147 C 
HETATM    5 CL9  UNL     1     -34.359   4.144   4.665  1.00 20.00    -0.126 Cl
ENDBRANCH   2   4
ENDBRANCH   1   2
BRANCH   1   6
HETATM    6  C8  UNL     1     -32.585   7.697   2.902  1.00 20.00    -0.048 C 
HETATM    7  C3  UNL     1     -32.404   6.222   2.503  1.00 20.00     0.015 C 
HETATM    8  C4  UNL     1     -32.661   8.541   1.612  1.00 20.00     0.015 C 
HETATM    9  C5  UNL     1     -31.356   8.152   3.704  1.00 20.00     0.015 C 
ENDBRANCH   1   6
TORSDOF 3
ENDMDL
MODEL 5
REMARK VINA RESULT:      -4.5      2.368      4.494
REMARK  3 active torsions:
REMARK  status: ('A' for Active; 'I' for Inactive)
REMARK    1  A    between atoms: C2_2  and  C6_6 
REMARK    2  A    between atoms: C2_2  and  C7_7 
REMARK    3  A    between atoms: C6_6  and  C8_8 
ROOT
HETATM    1  C6  UNL     1     -33.362   8.550   1.883  1.00 20.00     0.042 C 
ENDROOT
BRANCH   1   2
HETATM    2  C2  UNL     1     -32.607   7.653   2.845  1.00 20.00    -0.075 C 
HETATM    3  C1  UNL     1     -31.645   8.146   3.643  1.00 20.00     0.015 C 
BRANCH   2   4
HETATM    4  C7  UNL     1     -32.922   6.184   2.844  1.00 20.00     0.147 C 
HETATM    5 CL9  UNL     1     -34.569   5.900   3.455  1.00 20.00    -0.126 Cl
ENDBRANCH   2   4
ENDBRANCH   1   2
BRANCH   1   6
HETATM    6  C8  UNL     1     -32.528   9.363   0.849  1.00 20.00    -0.048 C 
HETATM    7  C3  UNL     1     -31.150   8.720   0.611  1.00 20.00     0.015 C 
HETATM    8  C4  UNL     1     -33.299   9.364  -0.488  1.00 20.00     0.015 C 
HETATM    9  C5  UNL     1     -32.327  10.821   1.292  1.00 20.00     0.015 C 
ENDBRANCH   1   6
TORSDOF 3
ENDMDL
MODEL 6
REMARK VINA RESULT:      -4.4      2.479      4.312
REMARK  3 active torsions:
REMARK  status: ('A' for Active; 'I' for Inactive)
REMARK    1  A    between atoms: C2_2  and  C6_6 
REMARK    2  A    between atoms: C2_2  and  C7_7 
REMARK    3  A    between atoms: C6_6  and  C8_8 
ROOT
HETATM    1  C6  UNL     1     -33.453   7.671   1.999  1.00 20.00     0.042 C 
ENDROOT
BRANCH   1   2
HETATM    2  C2  UNL     1     -33.427   6.579   3.051  1.00 20.00    -0.075 C 
HETATM    3  C1  UNL     1     -33.039   5.330   2.746  1.00 20.00     0.015 C 
BRANCH   2   4
HETATM    4  C7  UNL     1     -33.902   6.915   4.438  1.00 20.00     0.147 C 
HETATM    5 CL9  UNL     1     -34.694   5.508   5.184  1.00 20.00    -0.126 Cl
ENDBRANCH   2   4
ENDBRANCH   1   2
BRANCH   1   6
HETATM    6  C8  UNL     1     -32.224   8.626   1.922  1.00 20.00    -0.048 C 
HETATM    7  C3  UNL     1     -31.369   8.340   0.675  1.00 20.00     0.015 C 
HETATM    8  C4  UNL     1     -32.753  10.072   1.826  1.00 20.00     0.015 C 
HETATM    9  C5  UNL     1     -31.336   8.519   3.171  1.00 20.00     0.015 C 
ENDBRANCH   1   6
TORSDOF 3
ENDMDL
MODEL 7
REMARK VINA RESULT:      -4.3      2.451      4.502
REMARK  3 active torsions:
REMARK  status: ('A' for Active; 'I' for Inactive)
REMARK    1  A    between atoms: C2_2  and  C6_6 
REMARK    2  A    between atoms: C2_2  and  C7_7 
REMARK    3  A    between atoms: C6_6  and  C8_8 
ROOT
HETATM    1  C6  UNL     1     -33.545   8.402   1.878  1.00 20.00     0.042 C 
ENDROOT
BRANCH   1   2
HETATM    2  C2  UNL     1     -32.868   7.437   2.833  1.00 20.00    -0.075 C 
HETATM    3  C1  UNL     1     -32.868   6.114   2.598  1.00 20.00     0.015 C 
BRANCH   2   4
HETATM    4  C7  UNL     1     -32.242   7.993   4.081  1.00 20.00     0.147 C 
HETATM    5 CL9  UNL     1     -33.222   7.581   5.507  1.00 20.00    -0.126 Cl
ENDBRANCH   2   4
ENDBRANCH   1   2
BRANCH   1   6
HETATM    6  C8  UNL     1     -32.631   9.263   0.956  1.00 20.00    -0.048 C 
HETATM    7  C3  UNL     1     -32.503  10.704   1.482  1.00 20.00     0.015 C 
HETATM    8  C4  UNL     1     -31.227   8.624   0.948  1.00 20.00     0.015 C 
HETATM    9  C5  UNL     1     -33.151   9.304  -0.490  1.00 20.00     0.015 C 
ENDBRANCH   1   6
TORSDOF 3
ENDMDL
MODEL 8
REMARK VINA RESULT:      -3.7      1.645      2.687
REMARK  3 active torsions:
REMARK  status: ('A' for Active; 'I' for Inactive)
REMARK    1  A    between atoms: C2_2  and  C6_6 
REMARK    2  A    between atoms: C2_2  and  C7_7 
REMARK    3  A    between atoms: C6_6  and  C8_8 
ROOT
HETATM    1  C6  UNL     1     -33.497   8.482   2.208  1.00 20.00     0.042 C 
ENDROOT
BRANCH   1   2
HETATM    2  C2  UNL     1     -32.632   9.485   1.468  1.00 20.00    -0.075 C 
HETATM    3  C1  UNL     1     -32.703  10.798   1.744  1.00 20.00     0.015 C 
BRANCH   2   4
HETATM    4  C7  UNL     1     -31.731   8.979   0.376  1.00 20.00     0.147 C 
HETATM    5 CL9  UNL     1     -32.648   8.741  -1.129  1.00 20.00    -0.126 Cl
ENDBRANCH   2   4
ENDBRANCH   1   2
BRANCH   1   6
HETATM    6  C8  UNL     1     -32.801   7.571   3.263  1.00 20.00    -0.048 C 
HETATM    7  C3  UNL     1     -33.634   7.471   4.554  1.00 20.00     0.015 C 
HETATM    8  C4  UNL     1     -32.672   6.158   2.658  1.00 20.00     0.015 C 
HETATM    9  C5  UNL     1     -31.393   8.075   3.616  1.00 20.00     0.015 C 
ENDBRANCH   1   6
TORSDOF 3
ENDMDL
MODEL 9
REMARK VINA RESULT:      -3.5     11.336     12.167
REMARK  3 active torsions:
REMARK  status: ('A' for Active; 'I' for Inactive)
REMARK    1  A    between atoms: C2_2  and  C6_6 
REMARK    2  A    between atoms: C2_2  and  C7_7 
REMARK    3  A    between atoms: C6_6  and  C8_8 
ROOT
HETATM    1  C6  UNL     1     -34.427  15.903  -3.118  1.00 20.00     0.042 C 
ENDROOT
BRANCH   1   2
HETATM    2  C2  UNL     1     -35.374  15.749  -4.293  1.00 20.00    -0.075 C 
HETATM    3  C1  UNL     1     -36.657  15.397  -4.110  1.00 20.00     0.015 C 
BRANCH   2   4
HETATM    4  C7  UNL     1     -34.825  15.947  -5.679  1.00 20.00     0.147 C 
HETATM    5 CL9  UNL     1     -33.047  15.892  -5.659  1.00 20.00    -0.126 Cl
ENDBRANCH   2   4
ENDBRANCH   1   2
BRANCH   1   6
HETATM    6  C8  UNL     1     -34.535  17.207  -2.272  1.00 20.00    -0.048 C 
HETATM    7  C3  UNL     1     -35.447  17.008  -1.048  1.00 20.00     0.015 C 
HETATM    8  C4  UNL     1     -33.121  17.565  -1.770  1.00 20.00     0.015 C 
HETATM    9  C5  UNL     1     -35.066  18.386  -3.102  1.00 20.00     0.015 C 
ENDBRANCH   1   6
TORSDOF 3
ENDMDL
