MODEL 1
REMARK VINA RESULT:      -5.0      0.000      0.000
REMARK  1 active torsions:
REMARK  status: ('A' for Active; 'I' for Inactive)
REMARK    1  A    between atoms: C7_7  and  O12_12 
ROOT
HETATM    1  C1  UNL     1     -38.530  14.761  -4.914  1.00 20.00     0.015 C 
HETATM    2  C2  UNL     1     -37.378  14.437  -5.014  1.00 20.00    -0.079 C 
HETATM    3  C3  UNL     1     -35.161  14.521  -3.925  1.00 20.00     0.055 C 
HETATM    4  C4  UNL     1     -35.128  16.764  -5.181  1.00 20.00     0.013 C 
HETATM    5  C5  UNL     1     -35.354  14.548  -6.459  1.00 20.00     0.060 C 
HETATM    6  C6  UNL     1     -35.091  16.052  -3.816  1.00 20.00    -0.014 C 
HETATM    7  C7  UNL     1     -35.962  14.038  -5.135  1.00 20.00     0.121 C 
HETATM    8  C8  UNL     1     -34.638  15.927  -6.382  1.00 20.00    -0.044 C 
HETATM    9  C9  UNL     1     -33.893  16.483  -2.968  1.00 20.00     0.010 C 
HETATM   10  C10 UNL     1     -34.926  16.714  -7.679  1.00 20.00     0.015 C 
HETATM   11  C11 UNL     1     -33.110  15.720  -6.311  1.00 20.00     0.015 C 
ENDROOT
BRANCH   7  12
HETATM   12  O12 UNL     1     -35.907  12.609  -5.139  1.00 20.00    -0.378 OA
HETATM   13  H30 UNL     1     -35.032  12.374  -5.481  1.00 20.00     0.211 HD
ENDBRANCH   7  12
TORSDOF 1
ENDMDL
MODEL 2
REMARK VINA RESULT:      -5.0      1.395      3.528
REMARK  1 active torsions:
REMARK  status: ('A' for Active; 'I' for Inactive)
REMARK    1  A    between atoms: C7_7  and  O12_12 
ROOT
HETATM    1  C1  UNL     1     -33.727  16.629  -2.625  1.00 20.00     0.015 C 
HETATM    2  C2  UNL     1     -33.666  15.833  -3.521  1.00 20.00    -0.079 C 
HETATM    3  C3  UNL     1     -33.233  15.551  -5.939  1.00 20.00     0.055 C 
HETATM    4  C4  UNL     1     -35.735  16.136  -5.998  1.00 20.00     0.013 C 
HETATM    5  C5  UNL     1     -34.904  14.054  -4.746  1.00 20.00     0.060 C 
HETATM    6  C6  UNL     1     -34.308  16.540  -6.413  1.00 20.00    -0.014 C 
HETATM    7  C7  UNL     1     -33.591  14.855  -4.625  1.00 20.00     0.121 C 
HETATM    8  C8  UNL     1     -35.953  14.629  -5.740  1.00 20.00    -0.044 C 
HETATM    9  C9  UNL     1     -34.191  16.791  -7.918  1.00 20.00     0.010 C 
HETATM   10  C10 UNL     1     -37.366  14.431  -5.150  1.00 20.00     0.015 C 
HETATM   11  C11 UNL     1     -35.904  13.840  -7.066  1.00 20.00     0.015 C 
ENDROOT
BRANCH   7  12
HETATM   12  O12 UNL     1     -32.534  13.938  -4.327  1.00 20.00    -0.378 OA
HETATM   13  H30 UNL     1     -31.758  14.254  -4.812  1.00 20.00     0.211 HD
ENDBRANCH   7  12
TORSDOF 1
ENDMDL
MODEL 3
REMARK VINA RESULT:      -4.9      1.325      3.151
REMARK  1 active torsions:
REMARK  status: ('A' for Active; 'I' for Inactive)
REMARK    1  A    between atoms: C7_7  and  O12_12 
ROOT
HETATM    1  C1  UNL     1     -34.388  13.825  -7.676  1.00 20.00     0.015 C 
HETATM    2  C2  UNL     1     -34.948  13.859  -6.615  1.00 20.00    -0.079 C 
HETATM    3  C3  UNL     1     -36.971  14.640  -5.430  1.00 20.00     0.055 C 
HETATM    4  C4  UNL     1     -35.510  16.748  -5.258  1.00 20.00     0.013 C 
HETATM    5  C5  UNL     1     -34.736  14.528  -4.226  1.00 20.00     0.060 C 
HETATM    6  C6  UNL     1     -36.811  16.123  -5.795  1.00 20.00    -0.014 C 
HETATM    7  C7  UNL     1     -35.637  13.901  -5.310  1.00 20.00     0.121 C 
HETATM    8  C8  UNL     1     -34.904  16.060  -4.016  1.00 20.00    -0.044 C 
HETATM    9  C9  UNL     1     -38.051  16.921  -5.386  1.00 20.00     0.010 C 
HETATM   10  C10 UNL     1     -33.520  16.684  -3.737  1.00 20.00     0.015 C 
HETATM   11  C11 UNL     1     -35.777  16.325  -2.770  1.00 20.00     0.015 C 
ENDROOT
BRANCH   7  12
HETATM   12  O12 UNL     1     -35.929  12.555  -4.925  1.00 20.00    -0.378 OA
HETATM   13  H30 UNL     1     -36.302  12.605  -4.033  1.00 20.00     0.211 HD
ENDBRANCH   7  12
TORSDOF 1
ENDMDL
MODEL 4
REMARK VINA RESULT:      -4.5      1.549      3.647
REMARK  1 active torsions:
REMARK  status: ('A' for Active; 'I' for Inactive)
REMARK    1  A    between atoms: C7_7  and  O12_12 
ROOT
HETATM    1  C1  UNL     1     -33.667  15.631  -6.781  1.00 20.00     0.015 C 
HETATM    2  C2  UNL     1     -34.119  15.345  -5.706  1.00 20.00    -0.079 C 
HETATM    3  C3  UNL     1     -36.165  15.339  -4.319  1.00 20.00     0.055 C 
HETATM    4  C4  UNL     1     -35.313  17.718  -3.850  1.00 20.00     0.013 C 
HETATM    5  C5  UNL     1     -33.884  15.671  -3.249  1.00 20.00     0.060 C 
HETATM    6  C6  UNL     1     -36.442  16.846  -4.431  1.00 20.00    -0.014 C 
HETATM    7  C7  UNL     1     -34.677  14.992  -4.385  1.00 20.00     0.121 C 
HETATM    8  C8  UNL     1     -34.438  17.044  -2.771  1.00 20.00    -0.044 C 
HETATM    9  C9  UNL     1     -37.809  17.193  -3.838  1.00 20.00     0.010 C 
HETATM   10  C10 UNL     1     -33.252  17.979  -2.449  1.00 20.00     0.015 C 
HETATM   11  C11 UNL     1     -35.236  16.860  -1.463  1.00 20.00     0.015 C 
ENDROOT
BRANCH   7  12
HETATM   12  O12 UNL     1     -34.562  13.575  -4.225  1.00 20.00    -0.378 OA
HETATM   13  H30 UNL     1     -33.843  13.432  -3.593  1.00 20.00     0.211 HD
ENDBRANCH   7  12
TORSDOF 1
ENDMDL
MODEL 5
REMARK VINA RESULT:      -4.4      1.652      2.165
REMARK  1 active torsions:
REMARK  status: ('A' for Active; 'I' for Inactive)
REMARK    1  A    between atoms: C7_7  and  O12_12 
ROOT
HETATM    1  C1  UNL     1     -36.342  13.546  -5.303  1.00 20.00     0.015 C 
HETATM    2  C2  UNL     1     -35.333  14.167  -5.110  1.00 20.00    -0.079 C 
HETATM    3  C3  UNL     1     -33.969  15.313  -3.396  1.00 20.00     0.055 C 
HETATM    4  C4  UNL     1     -35.577  17.215  -4.033  1.00 20.00     0.013 C 
HETATM    5  C5  UNL     1     -34.019  16.171  -5.788  1.00 20.00     0.060 C 
HETATM    6  C6  UNL     1     -35.072  16.272  -2.925  1.00 20.00    -0.014 C 
HETATM    7  C7  UNL     1     -34.092  14.931  -4.872  1.00 20.00     0.121 C 
HETATM    8  C8  UNL     1     -34.580  17.489  -5.180  1.00 20.00    -0.044 C 
HETATM    9  C9  UNL     1     -34.633  17.032  -1.671  1.00 20.00     0.010 C 
HETATM   10  C10 UNL     1     -35.310  18.281  -6.286  1.00 20.00     0.015 C 
HETATM   11  C11 UNL     1     -33.416  18.374  -4.685  1.00 20.00     0.015 C 
ENDROOT
BRANCH   7  12
HETATM   12  O12 UNL     1     -32.986  14.079  -5.185  1.00 20.00    -0.378 OA
HETATM   13  H30 UNL     1     -32.243  14.666  -5.391  1.00 20.00     0.211 HD
ENDBRANCH   7  12
TORSDOF 1
ENDMDL
MODEL 6
REMARK VINA RESULT:      -4.4      1.436      2.882
REMARK  1 active torsions:
REMARK  status: ('A' for Active; 'I' for Inactive)
REMARK    1  A    between atoms: C7_7  and  O12_12 
ROOT
HETATM    1  C1  UNL     1     -35.612  13.276  -7.910  1.00 20.00     0.015 C 
HETATM    2  C2  UNL     1     -35.890  13.737  -6.838  1.00 20.00    -0.079 C 
HETATM    3  C3  UNL     1     -36.541  15.798  -5.638  1.00 20.00     0.055 C 
HETATM    4  C4  UNL     1     -33.982  16.052  -5.609  1.00 20.00     0.013 C 
HETATM    5  C5  UNL     1     -35.113  14.036  -4.491  1.00 20.00     0.060 C 
HETATM    6  C6  UNL     1     -35.329  16.632  -6.080  1.00 20.00    -0.014 C 
HETATM    7  C7  UNL     1     -36.233  14.304  -5.518  1.00 20.00     0.121 C 
HETATM    8  C8  UNL     1     -34.046  15.158  -4.351  1.00 20.00    -0.044 C 
HETATM    9  C9  UNL     1     -35.502  18.098  -5.677  1.00 20.00     0.010 C 
HETATM   10  C10 UNL     1     -32.660  14.510  -4.140  1.00 20.00     0.015 C 
HETATM   11  C11 UNL     1     -34.341  16.009  -3.098  1.00 20.00     0.015 C 
ENDROOT
BRANCH   7  12
HETATM   12  O12 UNL     1     -37.425  13.659  -5.059  1.00 20.00    -0.378 OA
HETATM   13  H30 UNL     1     -37.533  13.921  -4.133  1.00 20.00     0.211 HD
ENDBRANCH   7  12
TORSDOF 1
ENDMDL
MODEL 7
REMARK VINA RESULT:      -4.3      2.802      4.228
REMARK  1 active torsions:
REMARK  status: ('A' for Active; 'I' for Inactive)
REMARK    1  A    between atoms: C7_7  and  O12_12 
ROOT
HETATM    1  C1  UNL     1     -33.224  14.497  -4.424  1.00 20.00     0.015 C 
HETATM    2  C2  UNL     1     -33.473  15.668  -4.337  1.00 20.00    -0.079 C 
HETATM    3  C3  UNL     1     -33.416  17.634  -2.841  1.00 20.00     0.055 C 
HETATM    4  C4  UNL     1     -35.679  16.621  -2.163  1.00 20.00     0.013 C 
HETATM    5  C5  UNL     1     -35.256  17.389  -4.576  1.00 20.00     0.060 C 
HETATM    6  C6  UNL     1     -34.257  17.008  -1.718  1.00 20.00    -0.014 C 
HETATM    7  C7  UNL     1     -33.779  17.108  -4.231  1.00 20.00     0.121 C 
HETATM    8  C8  UNL     1     -36.237  17.407  -3.369  1.00 20.00    -0.044 C 
HETATM    9  C9  UNL     1     -34.260  17.903  -0.477  1.00 20.00     0.010 C 
HETATM   10  C10 UNL     1     -37.573  16.763  -3.798  1.00 20.00     0.015 C 
HETATM   11  C11 UNL     1     -36.547  18.865  -2.968  1.00 20.00     0.015 C 
ENDROOT
BRANCH   7  12
HETATM   12  O12 UNL     1     -32.959  17.802  -5.176  1.00 20.00    -0.378 OA
HETATM   13  H30 UNL     1     -32.077  17.854  -4.780  1.00 20.00     0.211 HD
ENDBRANCH   7  12
TORSDOF 1
ENDMDL
MODEL 8
REMARK VINA RESULT:      -4.2      2.260      3.808
REMARK  1 active torsions:
REMARK  status: ('A' for Active; 'I' for Inactive)
REMARK    1  A    between atoms: C7_7  and  O12_12 
ROOT
HETATM    1  C1  UNL     1     -35.208  16.876  -1.192  1.00 20.00     0.015 C 
HETATM    2  C2  UNL     1     -35.082  16.982  -2.381  1.00 20.00    -0.079 C 
HETATM    3  C3  UNL     1     -36.152  16.545  -4.566  1.00 20.00     0.055 C 
HETATM    4  C4  UNL     1     -34.997  14.282  -4.172  1.00 20.00     0.013 C 
HETATM    5  C5  UNL     1     -33.624  16.447  -4.327  1.00 20.00     0.060 C 
HETATM    6  C6  UNL     1     -36.328  15.033  -4.360  1.00 20.00    -0.014 C 
HETATM    7  C7  UNL     1     -34.929  17.113  -3.844  1.00 20.00     0.121 C 
HETATM    8  C8  UNL     1     -33.754  14.966  -4.784  1.00 20.00    -0.044 C 
HETATM    9  C9  UNL     1     -37.182  14.428  -5.477  1.00 20.00     0.010 C 
HETATM   10  C10 UNL     1     -32.497  14.190  -4.336  1.00 20.00     0.015 C 
HETATM   11  C11 UNL     1     -33.802  14.896  -6.325  1.00 20.00     0.015 C 
ENDROOT
BRANCH   7  12
HETATM   12  O12 UNL     1     -34.862  18.508  -4.155  1.00 20.00    -0.378 OA
HETATM   13  H30 UNL     1     -35.373  18.628  -4.968  1.00 20.00     0.211 HD
ENDBRANCH   7  12
TORSDOF 1
ENDMDL
MODEL 9
REMARK VINA RESULT:      -4.2      2.417      3.731
REMARK  1 active torsions:
REMARK  status: ('A' for Active; 'I' for Inactive)
REMARK    1  A    between atoms: C7_7  and  O12_12 
ROOT
HETATM    1  C1  UNL     1     -36.151  15.805  -7.306  1.00 20.00     0.015 C 
HETATM    2  C2  UNL     1     -35.260  16.282  -6.658  1.00 20.00    -0.079 C 
HETATM    3  C3  UNL     1     -33.077  15.827  -5.592  1.00 20.00     0.055 C 
HETATM    4  C4  UNL     1     -34.659  15.055  -3.719  1.00 20.00     0.013 C 
HETATM    5  C5  UNL     1     -34.698  17.484  -4.551  1.00 20.00     0.060 C 
HETATM    6  C6  UNL     1     -33.561  14.657  -4.723  1.00 20.00    -0.014 C 
HETATM    7  C7  UNL     1     -34.164  16.869  -5.861  1.00 20.00     0.121 C 
HETATM    8  C8  UNL     1     -34.681  16.544  -3.311  1.00 20.00    -0.044 C 
HETATM    9  C9  UNL     1     -32.381  13.957  -4.046  1.00 20.00     0.010 C 
HETATM   10  C10 UNL     1     -35.947  16.803  -2.468  1.00 20.00     0.015 C 
HETATM   11  C11 UNL     1     -33.467  16.878  -2.418  1.00 20.00     0.015 C 
ENDROOT
BRANCH   7  12
HETATM   12  O12 UNL     1     -33.569  17.914  -6.636  1.00 20.00    -0.378 OA
HETATM   13  H30 UNL     1     -33.188  17.487  -7.417  1.00 20.00     0.211 HD
ENDBRANCH   7  12
TORSDOF 1
ENDMDL
