MODEL 1
REMARK VINA RESULT:      -5.6      0.000      0.000
REMARK  3 active torsions:
REMARK  status: ('A' for Active; 'I' for Inactive)
REMARK    1  A    between atoms: C3_3  and  C8_8 
REMARK    2  A    between atoms: C6_6  and  C7_7 
REMARK    3  A    between atoms: C7_7  and  C8_8 
ROOT
HETATM    1  C5  UNL     1     -33.531   7.383   5.544  1.00 20.00     0.010 C 
HETATM    2  C8  UNL     1     -33.919   7.307   4.066  1.00 20.00    -0.014 C 
ENDROOT
BRANCH   2   3
HETATM    3  C3  UNL     1     -32.657   7.208   3.206  1.00 20.00    -0.011 A 
HETATM    4  C1  UNL     1     -32.388   8.230   2.134  1.00 20.00     0.005 A 
HETATM    5  C2  UNL     1     -31.543   8.203   3.378  1.00 20.00     0.005 A 
ENDBRANCH   2   3
BRANCH   2   6
HETATM    6  C7  UNL     1     -34.851   6.119   3.762  1.00 20.00     0.004 C 
BRANCH   6   7
HETATM    7  C6  UNL     1     -34.821   5.031   4.839  1.00 20.00    -0.004 C 
HETATM    8  C4  UNL     1     -34.015   3.823   4.385  1.00 20.00     0.005 C 
ENDBRANCH   6   7
ENDBRANCH   2   6
TORSDOF 3
ENDMDL
MODEL 2
REMARK VINA RESULT:      -5.4      0.747      3.952
REMARK  3 active torsions:
REMARK  status: ('A' for Active; 'I' for Inactive)
REMARK    1  A    between atoms: C3_3  and  C8_8 
REMARK    2  A    between atoms: C6_6  and  C7_7 
REMARK    3  A    between atoms: C7_7  and  C8_8 
ROOT
HETATM    1  C5  UNL     1     -33.493   7.625   5.525  1.00 20.00     0.010 C 
HETATM    2  C8  UNL     1     -33.368   6.661   4.345  1.00 20.00    -0.014 C 
ENDROOT
BRANCH   2   3
HETATM    3  C3  UNL     1     -34.532   5.666   4.366  1.00 20.00    -0.011 A 
HETATM    4  C1  UNL     1     -34.264   4.186   4.339  1.00 20.00     0.005 A 
HETATM    5  C2  UNL     1     -34.793   4.833   5.589  1.00 20.00     0.005 A 
ENDBRANCH   2   3
BRANCH   2   6
HETATM    6  C7  UNL     1     -33.332   7.392   2.989  1.00 20.00     0.004 C 
BRANCH   6   7
HETATM    7  C6  UNL     1     -32.012   8.119   2.724  1.00 20.00    -0.004 C 
HETATM    8  C4  UNL     1     -32.107   9.009   1.494  1.00 20.00     0.005 C 
ENDBRANCH   6   7
ENDBRANCH   2   6
TORSDOF 3
ENDMDL
MODEL 3
REMARK VINA RESULT:      -5.1      1.058      4.170
REMARK  3 active torsions:
REMARK  status: ('A' for Active; 'I' for Inactive)
REMARK    1  A    between atoms: C3_3  and  C8_8 
REMARK    2  A    between atoms: C6_6  and  C7_7 
REMARK    3  A    between atoms: C7_7  and  C8_8 
ROOT
HETATM    1  C5  UNL     1     -31.504   8.225   3.914  1.00 20.00     0.010 C 
HETATM    2  C8  UNL     1     -32.580   7.372   3.239  1.00 20.00    -0.014 C 
ENDROOT
BRANCH   2   3
HETATM    3  C3  UNL     1     -33.847   7.365   4.099  1.00 20.00    -0.011 A 
HETATM    4  C1  UNL     1     -34.335   6.084   4.718  1.00 20.00     0.005 A 
HETATM    5  C2  UNL     1     -33.752   7.164   5.586  1.00 20.00     0.005 A 
ENDBRANCH   2   3
BRANCH   2   6
HETATM    6  C7  UNL     1     -32.917   7.864   1.819  1.00 20.00     0.004 C 
BRANCH   6   7
HETATM    7  C6  UNL     1     -31.953   8.934   1.300  1.00 20.00    -0.004 C 
HETATM    8  C4  UNL     1     -32.688  10.219   0.950  1.00 20.00     0.005 C 
ENDBRANCH   6   7
ENDBRANCH   2   6
TORSDOF 3
ENDMDL
MODEL 4
REMARK VINA RESULT:      -5.1      1.113      4.012
REMARK  3 active torsions:
REMARK  status: ('A' for Active; 'I' for Inactive)
REMARK    1  A    between atoms: C3_3  and  C8_8 
REMARK    2  A    between atoms: C6_6  and  C7_7 
REMARK    3  A    between atoms: C7_7  and  C8_8 
ROOT
HETATM    1  C5  UNL     1     -33.074   5.086   2.696  1.00 20.00     0.010 C 
HETATM    2  C8  UNL     1     -34.070   6.153   3.154  1.00 20.00    -0.014 C 
ENDROOT
BRANCH   2   3
HETATM    3  C3  UNL     1     -34.952   5.590   4.272  1.00 20.00    -0.011 A 
HETATM    4  C1  UNL     1     -34.491   4.406   5.077  1.00 20.00     0.005 A 
HETATM    5  C2  UNL     1     -34.556   5.768   5.711  1.00 20.00     0.005 A 
ENDBRANCH   2   3
BRANCH   2   6
HETATM    6  C7  UNL     1     -33.375   7.439   3.637  1.00 20.00     0.004 C 
BRANCH   6   7
HETATM    7  C6  UNL     1     -32.031   7.700   2.952  1.00 20.00    -0.004 C 
HETATM    8  C4  UNL     1     -32.187   8.637   1.763  1.00 20.00     0.005 C 
ENDBRANCH   6   7
ENDBRANCH   2   6
TORSDOF 3
ENDMDL
MODEL 5
REMARK VINA RESULT:      -5.0      1.306      4.177
REMARK  3 active torsions:
REMARK  status: ('A' for Active; 'I' for Inactive)
REMARK    1  A    between atoms: C3_3  and  C8_8 
REMARK    2  A    between atoms: C6_6  and  C7_7 
REMARK    3  A    between atoms: C7_7  and  C8_8 
ROOT
HETATM    1  C5  UNL     1     -33.718   6.171   2.477  1.00 20.00     0.010 C 
HETATM    2  C8  UNL     1     -33.355   7.295   3.449  1.00 20.00    -0.014 C 
ENDROOT
BRANCH   2   3
HETATM    3  C3  UNL     1     -33.232   6.730   4.867  1.00 20.00    -0.011 A 
HETATM    4  C1  UNL     1     -33.935   7.403   6.014  1.00 20.00     0.005 A 
HETATM    5  C2  UNL     1     -34.410   6.064   5.522  1.00 20.00     0.005 A 
ENDBRANCH   2   3
BRANCH   2   6
HETATM    6  C7  UNL     1     -32.049   8.012   3.060  1.00 20.00     0.004 C 
BRANCH   6   7
HETATM    7  C6  UNL     1     -31.975   8.380   1.576  1.00 20.00    -0.004 C 
HETATM    8  C4  UNL     1     -32.493   9.790   1.328  1.00 20.00     0.005 C 
ENDBRANCH   6   7
ENDBRANCH   2   6
TORSDOF 3
ENDMDL
MODEL 6
REMARK VINA RESULT:      -4.9      1.143      2.208
REMARK  3 active torsions:
REMARK  status: ('A' for Active; 'I' for Inactive)
REMARK    1  A    between atoms: C3_3  and  C8_8 
REMARK    2  A    between atoms: C6_6  and  C7_7 
REMARK    3  A    between atoms: C7_7  and  C8_8 
ROOT
HETATM    1  C5  UNL     1     -33.037   5.177   2.243  1.00 20.00     0.010 C 
HETATM    2  C8  UNL     1     -33.218   6.150   3.409  1.00 20.00    -0.014 C 
ENDROOT
BRANCH   2   3
HETATM    3  C3  UNL     1     -32.982   7.584   2.925  1.00 20.00    -0.011 A 
HETATM    4  C1  UNL     1     -31.729   8.319   3.314  1.00 20.00     0.005 A 
HETATM    5  C2  UNL     1     -31.929   7.871   1.893  1.00 20.00     0.005 A 
ENDBRANCH   2   3
BRANCH   2   6
HETATM    6  C7  UNL     1     -34.611   6.042   4.057  1.00 20.00     0.004 C 
BRANCH   6   7
HETATM    7  C6  UNL     1     -34.566   5.962   5.585  1.00 20.00    -0.004 C 
HETATM    8  C4  UNL     1     -33.859   7.169   6.183  1.00 20.00     0.005 C 
ENDBRANCH   6   7
ENDBRANCH   2   6
TORSDOF 3
ENDMDL
MODEL 7
REMARK VINA RESULT:      -4.8      1.305      2.366
REMARK  3 active torsions:
REMARK  status: ('A' for Active; 'I' for Inactive)
REMARK    1  A    between atoms: C3_3  and  C8_8 
REMARK    2  A    between atoms: C6_6  and  C7_7 
REMARK    3  A    between atoms: C7_7  and  C8_8 
ROOT
HETATM    1  C5  UNL     1     -31.372   8.206   3.426  1.00 20.00     0.010 C 
HETATM    2  C8  UNL     1     -32.772   8.001   2.846  1.00 20.00    -0.014 C 
ENDROOT
BRANCH   2   3
HETATM    3  C3  UNL     1     -32.810   8.500   1.399  1.00 20.00    -0.011 A 
HETATM    4  C1  UNL     1     -32.808   9.976   1.107  1.00 20.00     0.005 A 
HETATM    5  C2  UNL     1     -31.597   9.144   0.789  1.00 20.00     0.005 A 
ENDBRANCH   2   3
BRANCH   2   6
HETATM    6  C7  UNL     1     -33.223   6.529   2.901  1.00 20.00     0.004 C 
BRANCH   6   7
HETATM    7  C6  UNL     1     -34.443   6.298   3.795  1.00 20.00    -0.004 C 
HETATM    8  C4  UNL     1     -34.125   6.592   5.254  1.00 20.00     0.005 C 
ENDBRANCH   6   7
ENDBRANCH   2   6
TORSDOF 3
ENDMDL
MODEL 8
REMARK VINA RESULT:      -4.4      1.116      2.628
REMARK  3 active torsions:
REMARK  status: ('A' for Active; 'I' for Inactive)
REMARK    1  A    between atoms: C3_3  and  C8_8 
REMARK    2  A    between atoms: C6_6  and  C7_7 
REMARK    3  A    between atoms: C7_7  and  C8_8 
ROOT
HETATM    1  C5  UNL     1     -32.208   8.035   2.893  1.00 20.00     0.010 C 
HETATM    2  C8  UNL     1     -32.897   6.853   3.576  1.00 20.00    -0.014 C 
ENDROOT
BRANCH   2   3
HETATM    3  C3  UNL     1     -33.877   7.368   4.633  1.00 20.00    -0.011 A 
HETATM    4  C1  UNL     1     -34.263   6.497   5.797  1.00 20.00     0.005 A 
HETATM    5  C2  UNL     1     -33.392   7.703   6.016  1.00 20.00     0.005 A 
ENDBRANCH   2   3
BRANCH   2   6
HETATM    6  C7  UNL     1     -33.639   5.946   2.576  1.00 20.00     0.004 C 
BRANCH   6   7
HETATM    7  C6  UNL     1     -33.266   4.467   2.704  1.00 20.00    -0.004 C 
HETATM    8  C4  UNL     1     -33.937   3.827   3.910  1.00 20.00     0.005 C 
ENDBRANCH   6   7
ENDBRANCH   2   6
TORSDOF 3
ENDMDL
MODEL 9
REMARK VINA RESULT:      -4.0      0.974      3.475
REMARK  3 active torsions:
REMARK  status: ('A' for Active; 'I' for Inactive)
REMARK    1  A    between atoms: C3_3  and  C8_8 
REMARK    2  A    between atoms: C6_6  and  C7_7 
REMARK    3  A    between atoms: C7_7  and  C8_8 
ROOT
HETATM    1  C5  UNL     1     -34.342   4.175   4.220  1.00 20.00     0.010 C 
HETATM    2  C8  UNL     1     -34.363   5.687   3.988  1.00 20.00    -0.014 C 
ENDROOT
BRANCH   2   3
HETATM    3  C3  UNL     1     -33.592   6.391   5.108  1.00 20.00    -0.011 A 
HETATM    4  C1  UNL     1     -33.968   7.787   5.524  1.00 20.00     0.005 A 
HETATM    5  C2  UNL     1     -34.243   6.628   6.442  1.00 20.00     0.005 A 
ENDBRANCH   2   3
BRANCH   2   6
HETATM    6  C7  UNL     1     -33.773   6.081   2.621  1.00 20.00     0.004 C 
BRANCH   6   7
HETATM    7  C6  UNL     1     -32.446   6.837   2.726  1.00 20.00    -0.004 C 
HETATM    8  C4  UNL     1     -32.534   8.207   2.069  1.00 20.00     0.005 C 
ENDBRANCH   6   7
ENDBRANCH   2   6
TORSDOF 3
ENDMDL
