MODEL 1
REMARK VINA RESULT:      -4.7      0.000      0.000
REMARK  4 active torsions:
REMARK  status: ('A' for Active; 'I' for Inactive)
REMARK    1  A    between atoms: C2_2  and  C5_5 
REMARK    2  A    between atoms: C4_4  and  C6_6 
REMARK    3  A    between atoms: C5_5  and  O8_8 
REMARK    4  A    between atoms: C6_6  and  O8_8 
ROOT
HETATM    1  O8  UNL     1     -32.199   7.126   3.283  1.00 20.00    -0.383 OA
ENDROOT
BRANCH   1   2
HETATM    2  C5  UNL     1     -33.615   7.004   3.246  1.00 20.00     0.218 C 
BRANCH   2   3
HETATM    3  C2  UNL     1     -34.102   6.437   4.541  1.00 20.00     0.026 C 
HETATM    4  C1  UNL     1     -34.829   5.318   4.645  1.00 20.00     0.034 C 
HETATM    5 CL9  UNL     1     -33.710   7.348   5.961  1.00 20.00    -0.088 Cl
ENDBRANCH   2   3
ENDBRANCH   1   2
BRANCH   1   6
HETATM    6  C6  UNL     1     -31.773   8.404   2.828  1.00 20.00     0.202 C 
BRANCH   6   7
HETATM    7  C4  UNL     1     -32.494   8.733   1.538  1.00 20.00     0.169 A 
HETATM    8  C3  UNL     1     -32.591  10.148   1.040  1.00 20.00     0.202 A 
HETATM    9  O7  UNL     1     -31.646   9.217   0.492  1.00 20.00    -0.379 OA
ENDBRANCH   6   7
ENDBRANCH   1   6
TORSDOF 4
ENDMDL
MODEL 2
REMARK VINA RESULT:      -4.3      2.597      4.934
REMARK  4 active torsions:
REMARK  status: ('A' for Active; 'I' for Inactive)
REMARK    1  A    between atoms: C2_2  and  C5_5 
REMARK    2  A    between atoms: C4_4  and  C6_6 
REMARK    3  A    between atoms: C5_5  and  O8_8 
REMARK    4  A    between atoms: C6_6  and  O8_8 
ROOT
HETATM    1  O8  UNL     1     -32.878   7.982   2.809  1.00 20.00    -0.383 OA
ENDROOT
BRANCH   1   2
HETATM    2  C5  UNL     1     -31.968   8.357   1.784  1.00 20.00     0.218 C 
BRANCH   2   3
HETATM    3  C2  UNL     1     -32.539   9.493   0.997  1.00 20.00     0.026 C 
HETATM    4  C1  UNL     1     -32.679  10.737   1.468  1.00 20.00     0.034 C 
HETATM    5 CL9  UNL     1     -33.078   9.109  -0.604  1.00 20.00    -0.088 Cl
ENDBRANCH   2   3
ENDBRANCH   1   2
BRANCH   1   6
HETATM    6  C6  UNL     1     -32.961   6.569   2.942  1.00 20.00     0.202 C 
BRANCH   6   7
HETATM    7  C4  UNL     1     -34.320   6.205   3.502  1.00 20.00     0.169 A 
HETATM    8  C3  UNL     1     -34.520   4.949   4.304  1.00 20.00     0.202 A 
HETATM    9  O7  UNL     1     -34.401   6.236   4.931  1.00 20.00    -0.379 OA
ENDBRANCH   6   7
ENDBRANCH   1   6
TORSDOF 4
ENDMDL
MODEL 3
REMARK VINA RESULT:      -4.3      1.500      1.834
REMARK  4 active torsions:
REMARK  status: ('A' for Active; 'I' for Inactive)
REMARK    1  A    between atoms: C2_2  and  C5_5 
REMARK    2  A    between atoms: C4_4  and  C6_6 
REMARK    3  A    between atoms: C5_5  and  O8_8 
REMARK    4  A    between atoms: C6_6  and  O8_8 
ROOT
HETATM    1  O8  UNL     1     -34.039   5.593   2.765  1.00 20.00    -0.383 OA
ENDROOT
BRANCH   1   2
HETATM    2  C5  UNL     1     -34.868   6.288   3.688  1.00 20.00     0.218 C 
BRANCH   2   3
HETATM    3  C2  UNL     1     -34.468   5.934   5.085  1.00 20.00     0.026 C 
HETATM    4  C1  UNL     1     -34.594   4.713   5.617  1.00 20.00     0.034 C 
HETATM    5 CL9  UNL     1     -33.847   7.236   6.045  1.00 20.00    -0.088 Cl
ENDBRANCH   2   3
ENDBRANCH   1   2
BRANCH   1   6
HETATM    6  C6  UNL     1     -32.709   6.095   2.778  1.00 20.00     0.202 C 
BRANCH   6   7
HETATM    7  C4  UNL     1     -32.750   7.604   2.667  1.00 20.00     0.169 A 
HETATM    8  C3  UNL     1     -31.610   8.452   3.158  1.00 20.00     0.202 A 
HETATM    9  O7  UNL     1     -31.789   8.159   1.764  1.00 20.00    -0.379 OA
ENDBRANCH   6   7
ENDBRANCH   1   6
TORSDOF 4
ENDMDL
MODEL 4
REMARK VINA RESULT:      -4.3      2.352      4.792
REMARK  4 active torsions:
REMARK  status: ('A' for Active; 'I' for Inactive)
REMARK    1  A    between atoms: C2_2  and  C5_5 
REMARK    2  A    between atoms: C4_4  and  C6_6 
REMARK    3  A    between atoms: C5_5  and  O8_8 
REMARK    4  A    between atoms: C6_6  and  O8_8 
ROOT
HETATM    1  O8  UNL     1     -32.990   7.951   2.758  1.00 20.00    -0.383 OA
ENDROOT
BRANCH   1   2
HETATM    2  C5  UNL     1     -32.003   8.355   1.818  1.00 20.00     0.218 C 
BRANCH   2   3
HETATM    3  C2  UNL     1     -32.565   9.416   0.926  1.00 20.00     0.026 C 
HETATM    4  C1  UNL     1     -32.936   9.211  -0.343  1.00 20.00     0.034 C 
HETATM    5 CL9  UNL     1     -32.682  11.000   1.616  1.00 20.00    -0.088 Cl
ENDBRANCH   2   3
ENDBRANCH   1   2
BRANCH   1   6
HETATM    6  C6  UNL     1     -33.000   6.540   2.930  1.00 20.00     0.202 C 
BRANCH   6   7
HETATM    7  C4  UNL     1     -34.352   6.118   3.465  1.00 20.00     0.169 A 
HETATM    8  C3  UNL     1     -34.501   4.896   4.327  1.00 20.00     0.202 A 
HETATM    9  O7  UNL     1     -34.486   6.218   4.886  1.00 20.00    -0.379 OA
ENDBRANCH   6   7
ENDBRANCH   1   6
TORSDOF 4
ENDMDL
MODEL 5
REMARK VINA RESULT:      -3.8      2.581      4.616
REMARK  4 active torsions:
REMARK  status: ('A' for Active; 'I' for Inactive)
REMARK    1  A    between atoms: C2_2  and  C5_5 
REMARK    2  A    between atoms: C4_4  and  C6_6 
REMARK    3  A    between atoms: C5_5  and  O8_8 
REMARK    4  A    between atoms: C6_6  and  O8_8 
ROOT
HETATM    1  O8  UNL     1     -32.772   5.990   2.940  1.00 20.00    -0.383 OA
ENDROOT
BRANCH   1   2
HETATM    2  C5  UNL     1     -33.216   7.157   2.259  1.00 20.00     0.218 C 
BRANCH   2   3
HETATM    3  C2  UNL     1     -32.177   8.227   2.370  1.00 20.00     0.026 C 
HETATM    4  C1  UNL     1     -31.409   8.420   3.448  1.00 20.00     0.034 C 
HETATM    5 CL9  UNL     1     -32.030   9.281   1.003  1.00 20.00    -0.088 Cl
ENDBRANCH   2   3
ENDBRANCH   1   2
BRANCH   1   6
HETATM    6  C6  UNL     1     -33.858   5.133   3.266  1.00 20.00     0.202 C 
BRANCH   6   7
HETATM    7  C4  UNL     1     -34.697   5.788   4.343  1.00 20.00     0.169 A 
HETATM    8  C3  UNL     1     -34.671   5.290   5.761  1.00 20.00     0.202 A 
HETATM    9  O7  UNL     1     -33.944   6.460   5.356  1.00 20.00    -0.379 OA
ENDBRANCH   6   7
ENDBRANCH   1   6
TORSDOF 4
ENDMDL
MODEL 6
REMARK VINA RESULT:      -3.8     10.241     10.843
REMARK  4 active torsions:
REMARK  status: ('A' for Active; 'I' for Inactive)
REMARK    1  A    between atoms: C2_2  and  C5_5 
REMARK    2  A    between atoms: C4_4  and  C6_6 
REMARK    3  A    between atoms: C5_5  and  O8_8 
REMARK    4  A    between atoms: C6_6  and  O8_8 
ROOT
HETATM    1  O8  UNL     1     -34.731  15.363  -3.253  1.00 20.00    -0.383 OA
ENDROOT
BRANCH   1   2
HETATM    2  C5  UNL     1     -33.741  16.383  -3.214  1.00 20.00     0.218 C 
BRANCH   2   3
HETATM    3  C2  UNL     1     -33.856  17.144  -1.932  1.00 20.00     0.026 C 
HETATM    4  C1  UNL     1     -32.898  17.938  -1.441  1.00 20.00     0.034 C 
HETATM    5 CL9  UNL     1     -35.325  16.911  -1.045  1.00 20.00    -0.088 Cl
ENDBRANCH   2   3
ENDBRANCH   1   2
BRANCH   1   6
HETATM    6  C6  UNL     1     -34.426  14.379  -4.232  1.00 20.00     0.202 C 
BRANCH   6   7
HETATM    7  C4  UNL     1     -35.684  14.047  -5.006  1.00 20.00     0.169 A 
HETATM    8  C3  UNL     1     -35.616  13.459  -6.388  1.00 20.00     0.202 A 
HETATM    9  O7  UNL     1     -35.890  12.649  -5.235  1.00 20.00    -0.379 OA
ENDBRANCH   6   7
ENDBRANCH   1   6
TORSDOF 4
ENDMDL
MODEL 7
REMARK VINA RESULT:      -3.8     10.399     10.819
REMARK  4 active torsions:
REMARK  status: ('A' for Active; 'I' for Inactive)
REMARK    1  A    between atoms: C2_2  and  C5_5 
REMARK    2  A    between atoms: C4_4  and  C6_6 
REMARK    3  A    between atoms: C5_5  and  O8_8 
REMARK    4  A    between atoms: C6_6  and  O8_8 
ROOT
HETATM    1  O8  UNL     1     -34.824  15.493  -3.287  1.00 20.00    -0.383 OA
ENDROOT
BRANCH   1   2
HETATM    2  C5  UNL     1     -33.741  16.389  -3.075  1.00 20.00     0.218 C 
BRANCH   2   3
HETATM    3  C2  UNL     1     -33.938  17.117  -1.784  1.00 20.00     0.026 C 
HETATM    4  C1  UNL     1     -35.073  17.096  -1.075  1.00 20.00     0.034 C 
HETATM    5 CL9  UNL     1     -32.595  18.065  -1.238  1.00 20.00    -0.088 Cl
ENDBRANCH   2   3
ENDBRANCH   1   2
BRANCH   1   6
HETATM    6  C6  UNL     1     -34.475  14.459  -4.197  1.00 20.00     0.202 C 
BRANCH   6   7
HETATM    7  C4  UNL     1     -35.698  14.081  -5.007  1.00 20.00     0.169 A 
HETATM    8  C3  UNL     1     -35.567  13.456  -6.368  1.00 20.00     0.202 A 
HETATM    9  O7  UNL     1     -35.868  12.674  -5.202  1.00 20.00    -0.379 OA
ENDBRANCH   6   7
ENDBRANCH   1   6
TORSDOF 4
ENDMDL
MODEL 8
REMARK VINA RESULT:      -3.7      2.103      4.718
REMARK  4 active torsions:
REMARK  status: ('A' for Active; 'I' for Inactive)
REMARK    1  A    between atoms: C2_2  and  C5_5 
REMARK    2  A    between atoms: C4_4  and  C6_6 
REMARK    3  A    between atoms: C5_5  and  O8_8 
REMARK    4  A    between atoms: C6_6  and  O8_8 
ROOT
HETATM    1  O8  UNL     1     -34.118   6.490   2.318  1.00 20.00    -0.383 OA
ENDROOT
BRANCH   1   2
HETATM    2  C5  UNL     1     -32.749   6.527   2.700  1.00 20.00     0.218 C 
BRANCH   2   3
HETATM    3  C2  UNL     1     -32.232   7.925   2.579  1.00 20.00     0.026 C 
HETATM    4  C1  UNL     1     -32.385   8.691   1.494  1.00 20.00     0.034 C 
HETATM    5 CL9  UNL     1     -31.350   8.525   3.944  1.00 20.00    -0.088 Cl
ENDBRANCH   2   3
ENDBRANCH   1   2
BRANCH   1   6
HETATM    6  C6  UNL     1     -34.947   6.059   3.388  1.00 20.00     0.202 C 
BRANCH   6   7
HETATM    7  C4  UNL     1     -34.114   5.258   4.366  1.00 20.00     0.169 A 
HETATM    8  C3  UNL     1     -34.636   4.912   5.732  1.00 20.00     0.202 A 
HETATM    9  O7  UNL     1     -34.632   3.957   4.660  1.00 20.00    -0.379 OA
ENDBRANCH   6   7
ENDBRANCH   1   6
TORSDOF 4
ENDMDL
MODEL 9
REMARK VINA RESULT:      -3.4     10.480     11.694
REMARK  4 active torsions:
REMARK  status: ('A' for Active; 'I' for Inactive)
REMARK    1  A    between atoms: C2_2  and  C5_5 
REMARK    2  A    between atoms: C4_4  and  C6_6 
REMARK    3  A    between atoms: C5_5  and  O8_8 
REMARK    4  A    between atoms: C6_6  and  O8_8 
ROOT
HETATM    1  O8  UNL     1     -33.261  15.270  -4.867  1.00 20.00    -0.383 OA
ENDROOT
BRANCH   1   2
HETATM    2  C5  UNL     1     -33.498  16.623  -5.236  1.00 20.00     0.218 C 
BRANCH   2   3
HETATM    3  C2  UNL     1     -33.548  17.475  -4.008  1.00 20.00     0.026 C 
HETATM    4  C1  UNL     1     -33.320  18.794  -3.999  1.00 20.00     0.034 C 
HETATM    5 CL9  UNL     1     -33.882  16.646  -2.525  1.00 20.00    -0.088 Cl
ENDBRANCH   2   3
ENDBRANCH   1   2
BRANCH   1   6
HETATM    6  C6  UNL     1     -34.076  14.376  -5.613  1.00 20.00     0.202 C 
BRANCH   6   7
HETATM    7  C4  UNL     1     -35.238  13.931  -4.750  1.00 20.00     0.169 A 
HETATM    8  C3  UNL     1     -36.649  13.964  -5.268  1.00 20.00     0.202 A 
HETATM    9  O7  UNL     1     -35.895  12.744  -5.205  1.00 20.00    -0.379 OA
ENDBRANCH   6   7
ENDBRANCH   1   6
TORSDOF 4
ENDMDL
