MODEL 1
REMARK VINA RESULT:      -5.6      0.000      0.000
REMARK  3 active torsions:
REMARK  status: ('A' for Active; 'I' for Inactive)
REMARK    1  A    between atoms: C2_2  and  C8_8 
REMARK    2  A    between atoms: C4_4  and  C7_7 
REMARK    3  A    between atoms: C7_7  and  C8_8 
ROOT
HETATM    1  C7  UNL     1     -33.240   7.231   3.741  1.00 20.00     0.034 C 
ENDROOT
BRANCH   1   2
HETATM    2  C4  UNL     1     -32.296   7.709   2.673  1.00 20.00    -0.030 C 
HETATM    3  C3  UNL     1     -32.619   8.621   1.744  1.00 20.00    -0.035 C 
HETATM    4  C5  UNL     1     -31.682   9.097   0.685  1.00 20.00     0.035 C 
ENDBRANCH   1   2
BRANCH   1   5
HETATM    5  C8  UNL     1     -34.066   6.006   3.301  1.00 20.00     0.007 C 
HETATM    6  C6  UNL     1     -33.147   4.950   2.680  1.00 20.00     0.014 C 
BRANCH   5   7
HETATM    7  C2  UNL     1     -34.814   5.397   4.463  1.00 20.00    -0.032 C 
HETATM    8  C1  UNL     1     -34.536   5.650   5.746  1.00 20.00     0.007 C 
ENDBRANCH   5   7
ENDBRANCH   1   5
TORSDOF 3
ENDMDL
MODEL 2
REMARK VINA RESULT:      -5.6      1.094      1.175
REMARK  3 active torsions:
REMARK  status: ('A' for Active; 'I' for Inactive)
REMARK    1  A    between atoms: C2_2  and  C8_8 
REMARK    2  A    between atoms: C4_4  and  C7_7 
REMARK    3  A    between atoms: C7_7  and  C8_8 
ROOT
HETATM    1  C7  UNL     1     -32.201   7.640   3.470  1.00 20.00     0.034 C 
ENDROOT
BRANCH   1   2
HETATM    2  C4  UNL     1     -31.902   8.403   2.210  1.00 20.00    -0.030 C 
HETATM    3  C3  UNL     1     -32.778   9.220   1.606  1.00 20.00    -0.035 C 
HETATM    4  C5  UNL     1     -32.480   9.980   0.356  1.00 20.00     0.035 C 
ENDBRANCH   1   2
BRANCH   1   5
HETATM    5  C8  UNL     1     -33.535   6.870   3.398  1.00 20.00     0.007 C 
HETATM    6  C6  UNL     1     -33.321   5.513   2.721  1.00 20.00     0.014 C 
BRANCH   5   7
HETATM    7  C2  UNL     1     -34.125   6.655   4.771  1.00 20.00    -0.032 C 
HETATM    8  C1  UNL     1     -33.717   7.301   5.869  1.00 20.00     0.007 C 
ENDBRANCH   5   7
ENDBRANCH   1   5
TORSDOF 3
ENDMDL
MODEL 3
REMARK VINA RESULT:      -5.2      1.091      1.822
REMARK  3 active torsions:
REMARK  status: ('A' for Active; 'I' for Inactive)
REMARK    1  A    between atoms: C2_2  and  C8_8 
REMARK    2  A    between atoms: C4_4  and  C7_7 
REMARK    3  A    between atoms: C7_7  and  C8_8 
ROOT
HETATM    1  C7  UNL     1     -33.969   7.223   3.549  1.00 20.00     0.034 C 
ENDROOT
BRANCH   1   2
HETATM    2  C4  UNL     1     -32.784   7.417   2.644  1.00 20.00    -0.030 C 
HETATM    3  C3  UNL     1     -32.582   8.517   1.904  1.00 20.00    -0.035 C 
HETATM    4  C5  UNL     1     -31.405   8.710   1.007  1.00 20.00     0.035 C 
ENDBRANCH   1   2
BRANCH   1   5
HETATM    5  C8  UNL     1     -33.599   6.526   4.873  1.00 20.00     0.007 C 
HETATM    6  C6  UNL     1     -33.665   7.529   6.029  1.00 20.00     0.014 C 
BRANCH   5   7
HETATM    7  C2  UNL     1     -34.522   5.367   5.165  1.00 20.00    -0.032 C 
HETATM    8  C1  UNL     1     -34.486   4.200   4.512  1.00 20.00     0.007 C 
ENDBRANCH   5   7
ENDBRANCH   1   5
TORSDOF 3
ENDMDL
MODEL 4
REMARK VINA RESULT:      -5.1      0.984      4.700
REMARK  3 active torsions:
REMARK  status: ('A' for Active; 'I' for Inactive)
REMARK    1  A    between atoms: C2_2  and  C8_8 
REMARK    2  A    between atoms: C4_4  and  C7_7 
REMARK    3  A    between atoms: C7_7  and  C8_8 
ROOT
HETATM    1  C7  UNL     1     -33.289   7.028   2.482  1.00 20.00     0.034 C 
ENDROOT
BRANCH   1   2
HETATM    2  C4  UNL     1     -33.665   6.539   3.853  1.00 20.00    -0.030 C 
HETATM    3  C3  UNL     1     -34.370   5.420   4.080  1.00 20.00    -0.035 C 
HETATM    4  C5  UNL     1     -34.742   4.934   5.440  1.00 20.00     0.035 C 
ENDBRANCH   1   2
BRANCH   1   5
HETATM    5  C8  UNL     1     -32.556   8.384   2.515  1.00 20.00     0.007 C 
HETATM    6  C6  UNL     1     -31.373   8.317   3.486  1.00 20.00     0.014 C 
BRANCH   5   7
HETATM    7  C2  UNL     1     -32.055   8.775   1.145  1.00 20.00    -0.032 C 
HETATM    8  C1  UNL     1     -32.668   9.659   0.349  1.00 20.00     0.007 C 
ENDBRANCH   5   7
ENDBRANCH   1   5
TORSDOF 3
ENDMDL
MODEL 5
REMARK VINA RESULT:      -4.7      1.564      4.721
REMARK  3 active torsions:
REMARK  status: ('A' for Active; 'I' for Inactive)
REMARK    1  A    between atoms: C2_2  and  C8_8 
REMARK    2  A    between atoms: C4_4  and  C7_7 
REMARK    3  A    between atoms: C7_7  and  C8_8 
ROOT
HETATM    1  C7  UNL     1     -32.667   7.651   2.251  1.00 20.00     0.034 C 
ENDROOT
BRANCH   1   2
HETATM    2  C4  UNL     1     -32.729   7.655   3.753  1.00 20.00    -0.030 C 
HETATM    3  C3  UNL     1     -33.750   7.148   4.460  1.00 20.00    -0.035 C 
HETATM    4  C5  UNL     1     -33.811   7.151   5.951  1.00 20.00     0.035 C 
ENDBRANCH   1   2
BRANCH   1   5
HETATM    5  C8  UNL     1     -32.002   8.919   1.679  1.00 20.00     0.007 C 
HETATM    6  C6  UNL     1     -30.952   8.533   0.633  1.00 20.00     0.014 C 
BRANCH   5   7
HETATM    7  C2  UNL     1     -33.019   9.840   1.050  1.00 20.00    -0.032 C 
HETATM    8  C1  UNL     1     -33.287   9.875  -0.260  1.00 20.00     0.007 C 
ENDBRANCH   5   7
ENDBRANCH   1   5
TORSDOF 3
ENDMDL
MODEL 6
REMARK VINA RESULT:      -4.6      1.318      4.833
REMARK  3 active torsions:
REMARK  status: ('A' for Active; 'I' for Inactive)
REMARK    1  A    between atoms: C2_2  and  C8_8 
REMARK    2  A    between atoms: C4_4  and  C7_7 
REMARK    3  A    between atoms: C7_7  and  C8_8 
ROOT
HETATM    1  C7  UNL     1     -31.740   8.598   2.594  1.00 20.00     0.034 C 
ENDROOT
BRANCH   1   2
HETATM    2  C4  UNL     1     -32.498   7.539   3.347  1.00 20.00    -0.030 C 
HETATM    3  C3  UNL     1     -33.267   6.611   2.759  1.00 20.00    -0.035 C 
HETATM    4  C5  UNL     1     -34.018   5.560   3.506  1.00 20.00     0.035 C 
ENDBRANCH   1   2
BRANCH   1   5
HETATM    5  C8  UNL     1     -32.632   9.384   1.613  1.00 20.00     0.007 C 
HETATM    6  C6  UNL     1     -32.515  10.886   1.887  1.00 20.00     0.014 C 
BRANCH   5   7
HETATM    7  C2  UNL     1     -32.252   9.108   0.177  1.00 20.00    -0.032 C 
HETATM    8  C1  UNL     1     -33.101   9.203  -0.852  1.00 20.00     0.007 C 
ENDBRANCH   5   7
ENDBRANCH   1   5
TORSDOF 3
ENDMDL
MODEL 7
REMARK VINA RESULT:      -4.1      1.161      4.126
REMARK  3 active torsions:
REMARK  status: ('A' for Active; 'I' for Inactive)
REMARK    1  A    between atoms: C2_2  and  C8_8 
REMARK    2  A    between atoms: C4_4  and  C7_7 
REMARK    3  A    between atoms: C7_7  and  C8_8 
ROOT
HETATM    1  C7  UNL     1     -33.581   7.385   2.491  1.00 20.00     0.034 C 
ENDROOT
BRANCH   1   2
HETATM    2  C4  UNL     1     -33.627   5.958   2.960  1.00 20.00    -0.030 C 
HETATM    3  C3  UNL     1     -34.318   5.546   4.033  1.00 20.00    -0.035 C 
HETATM    4  C5  UNL     1     -34.364   4.128   4.497  1.00 20.00     0.035 C 
ENDBRANCH   1   2
BRANCH   1   5
HETATM    5  C8  UNL     1     -32.151   7.859   2.163  1.00 20.00     0.007 C 
HETATM    6  C6  UNL     1     -32.202   9.050   1.201  1.00 20.00     0.014 C 
BRANCH   5   7
HETATM    7  C2  UNL     1     -31.400   8.256   3.411  1.00 20.00    -0.032 C 
HETATM    8  C1  UNL     1     -31.988   8.557   4.574  1.00 20.00     0.007 C 
ENDBRANCH   5   7
ENDBRANCH   1   5
TORSDOF 3
ENDMDL
MODEL 8
REMARK VINA RESULT:      -3.7     10.884     11.809
REMARK  3 active torsions:
REMARK  status: ('A' for Active; 'I' for Inactive)
REMARK    1  A    between atoms: C2_2  and  C8_8 
REMARK    2  A    between atoms: C4_4  and  C7_7 
REMARK    3  A    between atoms: C7_7  and  C8_8 
ROOT
HETATM    1  C7  UNL     1     -34.745  15.908  -3.151  1.00 20.00     0.034 C 
ENDROOT
BRANCH   1   2
HETATM    2  C4  UNL     1     -33.684  16.832  -2.620  1.00 20.00    -0.030 C 
HETATM    3  C3  UNL     1     -33.742  17.423  -1.418  1.00 20.00    -0.035 C 
HETATM    4  C5  UNL     1     -32.689  18.339  -0.890  1.00 20.00     0.035 C 
ENDBRANCH   1   2
BRANCH   1   5
HETATM    5  C8  UNL     1     -34.160  14.725  -3.948  1.00 20.00     0.007 C 
HETATM    6  C6  UNL     1     -35.273  14.014  -4.723  1.00 20.00     0.014 C 
BRANCH   5   7
HETATM    7  C2  UNL     1     -33.093  15.183  -4.914  1.00 20.00    -0.032 C 
HETATM    8  C1  UNL     1     -33.347  15.678  -6.130  1.00 20.00     0.007 C 
ENDBRANCH   5   7
ENDBRANCH   1   5
TORSDOF 3
ENDMDL
MODEL 9
REMARK VINA RESULT:      -3.7     11.270     12.048
REMARK  3 active torsions:
REMARK  status: ('A' for Active; 'I' for Inactive)
REMARK    1  A    between atoms: C2_2  and  C8_8 
REMARK    2  A    between atoms: C4_4  and  C7_7 
REMARK    3  A    between atoms: C7_7  and  C8_8 
ROOT
HETATM    1  C7  UNL     1     -33.320  18.511  -1.296  1.00 20.00     0.034 C 
ENDROOT
BRANCH   1   2
HETATM    2  C4  UNL     1     -32.087  18.493  -0.436  1.00 20.00    -0.030 C 
HETATM    3  C3  UNL     1     -32.071  18.861   0.854  1.00 20.00    -0.035 C 
HETATM    4  C5  UNL     1     -30.847  18.841   1.709  1.00 20.00     0.035 C 
ENDBRANCH   1   2
BRANCH   1   5
HETATM    5  C8  UNL     1     -33.937  17.111  -1.482  1.00 20.00     0.007 C 
HETATM    6  C6  UNL     1     -35.423  17.141  -1.112  1.00 20.00     0.014 C 
BRANCH   5   7
HETATM    7  C2  UNL     1     -33.786  16.624  -2.903  1.00 20.00    -0.032 C 
HETATM    8  C1  UNL     1     -34.518  15.641  -3.439  1.00 20.00     0.007 C 
ENDBRANCH   5   7
ENDBRANCH   1   5
TORSDOF 3
ENDMDL
