MODEL 1
REMARK VINA RESULT:      -5.3      0.000      0.000
REMARK  1 active torsions:
REMARK  status: ('A' for Active; 'I' for Inactive)
REMARK    1  A    between atoms: C2_2  and  C3_3 
ROOT
HETATM    1  C3  UNL     1     -34.703   5.474   4.539  1.00 20.00     0.423 C 
HETATM    2  F4  UNL     1     -35.037   4.950   5.748  1.00 20.00    -0.166 F 
HETATM    3  F5  UNL     1     -34.114   4.470   3.837  1.00 20.00    -0.166 F 
HETATM    4  F6  UNL     1     -35.867   5.756   3.898  1.00 20.00    -0.166 F 
ENDROOT
BRANCH   1   5
HETATM    5  C2  UNL     1     -33.833   6.678   4.673  1.00 20.00     0.085 C 
HETATM    6  C1  UNL     1     -33.674   7.360   5.815  1.00 20.00     0.036 C 
HETATM    7 BR7  UNL     1     -32.951   7.190   3.103  1.00 20.00    -0.047 Br
ENDBRANCH   1   5
TORSDOF 1
ENDMDL
MODEL 2
REMARK VINA RESULT:      -5.3      0.018      1.428
REMARK  1 active torsions:
REMARK  status: ('A' for Active; 'I' for Inactive)
REMARK    1  A    between atoms: C2_2  and  C3_3 
ROOT
HETATM    1  C3  UNL     1     -34.704   5.486   4.530  1.00 20.00     0.423 C 
HETATM    2  F4  UNL     1     -34.100   4.499   3.818  1.00 20.00    -0.166 F 
HETATM    3  F5  UNL     1     -35.874   5.755   3.894  1.00 20.00    -0.166 F 
HETATM    4  F6  UNL     1     -35.037   4.954   5.735  1.00 20.00    -0.166 F 
ENDROOT
BRANCH   1   5
HETATM    5  C2  UNL     1     -33.830   6.687   4.672  1.00 20.00     0.085 C 
HETATM    6  C1  UNL     1     -33.671   7.361   5.819  1.00 20.00     0.036 C 
HETATM    7 BR7  UNL     1     -32.943   7.205   3.107  1.00 20.00    -0.047 Br
ENDBRANCH   1   5
TORSDOF 1
ENDMDL
MODEL 3
REMARK VINA RESULT:      -4.9      1.268      2.088
REMARK  1 active torsions:
REMARK  status: ('A' for Active; 'I' for Inactive)
REMARK    1  A    between atoms: C2_2  and  C3_3 
ROOT
HETATM    1  C3  UNL     1     -34.771   5.396   4.412  1.00 20.00     0.423 C 
HETATM    2  F4  UNL     1     -35.958   5.668   3.809  1.00 20.00    -0.166 F 
HETATM    3  F5  UNL     1     -35.058   5.121   5.712  1.00 20.00    -0.166 F 
HETATM    4  F6  UNL     1     -34.311   4.237   3.870  1.00 20.00    -0.166 F 
ENDROOT
BRANCH   1   5
HETATM    5  C2  UNL     1     -33.795   6.512   4.255  1.00 20.00     0.085 C 
HETATM    6  C1  UNL     1     -33.157   6.790   3.110  1.00 20.00     0.036 C 
HETATM    7 BR7  UNL     1     -33.508   7.530   5.800  1.00 20.00    -0.047 Br
ENDBRANCH   1   5
TORSDOF 1
ENDMDL
MODEL 4
REMARK VINA RESULT:      -4.9      1.708      2.483
REMARK  1 active torsions:
REMARK  status: ('A' for Active; 'I' for Inactive)
REMARK    1  A    between atoms: C2_2  and  C3_3 
ROOT
HETATM    1  C3  UNL     1     -34.306   5.825   3.354  1.00 20.00     0.423 C 
HETATM    2  F4  UNL     1     -34.374   5.923   2.000  1.00 20.00    -0.166 F 
HETATM    3  F5  UNL     1     -35.587   5.866   3.804  1.00 20.00    -0.166 F 
HETATM    4  F6  UNL     1     -33.841   4.579   3.635  1.00 20.00    -0.166 F 
ENDROOT
BRANCH   1   5
HETATM    5  C2  UNL     1     -33.446   6.889   3.949  1.00 20.00     0.085 C 
HETATM    6  C1  UNL     1     -32.518   7.568   3.262  1.00 20.00     0.036 C 
HETATM    7 BR7  UNL     1     -33.754   7.225   5.764  1.00 20.00    -0.047 Br
ENDBRANCH   1   5
TORSDOF 1
ENDMDL
MODEL 5
REMARK VINA RESULT:      -4.9      2.319      2.773
REMARK  1 active torsions:
REMARK  status: ('A' for Active; 'I' for Inactive)
REMARK    1  A    between atoms: C2_2  and  C3_3 
ROOT
HETATM    1  C3  UNL     1     -33.419   5.791   2.981  1.00 20.00     0.423 C 
HETATM    2  F4  UNL     1     -34.346   6.073   2.029  1.00 20.00    -0.166 F 
HETATM    3  F5  UNL     1     -32.786   4.659   2.575  1.00 20.00    -0.166 F 
HETATM    4  F6  UNL     1     -32.493   6.785   2.933  1.00 20.00    -0.166 F 
ENDROOT
BRANCH   1   5
HETATM    5  C2  UNL     1     -34.030   5.663   4.335  1.00 20.00     0.085 C 
HETATM    6  C1  UNL     1     -34.703   4.582   4.751  1.00 20.00     0.036 C 
HETATM    7 BR7  UNL     1     -33.789   7.147   5.451  1.00 20.00    -0.047 Br
ENDBRANCH   1   5
TORSDOF 1
ENDMDL
MODEL 6
REMARK VINA RESULT:      -4.9      1.394      1.862
REMARK  1 active torsions:
REMARK  status: ('A' for Active; 'I' for Inactive)
REMARK    1  A    between atoms: C2_2  and  C3_3 
ROOT
HETATM    1  C3  UNL     1     -34.712   5.582   4.308  1.00 20.00     0.423 C 
HETATM    2  F4  UNL     1     -34.551   6.373   5.401  1.00 20.00    -0.166 F 
HETATM    3  F5  UNL     1     -34.829   4.310   4.771  1.00 20.00    -0.166 F 
HETATM    4  F6  UNL     1     -35.915   5.903   3.765  1.00 20.00    -0.166 F 
ENDROOT
BRANCH   1   5
HETATM    5  C2  UNL     1     -33.597   5.745   3.331  1.00 20.00     0.085 C 
HETATM    6  C1  UNL     1     -33.098   4.743   2.595  1.00 20.00     0.036 C 
HETATM    7 BR7  UNL     1     -32.920   7.485   3.193  1.00 20.00    -0.047 Br
ENDBRANCH   1   5
TORSDOF 1
ENDMDL
MODEL 7
REMARK VINA RESULT:      -4.9      1.399      2.113
REMARK  1 active torsions:
REMARK  status: ('A' for Active; 'I' for Inactive)
REMARK    1  A    between atoms: C2_2  and  C3_3 
ROOT
HETATM    1  C3  UNL     1     -34.714   5.642   4.303  1.00 20.00     0.423 C 
HETATM    2  F4  UNL     1     -34.801   4.389   4.821  1.00 20.00    -0.166 F 
HETATM    3  F5  UNL     1     -35.925   5.912   3.750  1.00 20.00    -0.166 F 
HETATM    4  F6  UNL     1     -34.575   6.493   5.354  1.00 20.00    -0.166 F 
ENDROOT
BRANCH   1   5
HETATM    5  C2  UNL     1     -33.590   5.768   3.331  1.00 20.00     0.085 C 
HETATM    6  C1  UNL     1     -33.114   4.748   2.605  1.00 20.00     0.036 C 
HETATM    7 BR7  UNL     1     -32.866   7.488   3.184  1.00 20.00    -0.047 Br
ENDBRANCH   1   5
TORSDOF 1
ENDMDL
MODEL 8
REMARK VINA RESULT:      -4.9      2.310      2.706
REMARK  1 active torsions:
REMARK  status: ('A' for Active; 'I' for Inactive)
REMARK    1  A    between atoms: C2_2  and  C3_3 
ROOT
HETATM    1  C3  UNL     1     -33.429   5.800   2.987  1.00 20.00     0.423 C 
HETATM    2  F4  UNL     1     -32.785   4.668   2.600  1.00 20.00    -0.166 F 
HETATM    3  F5  UNL     1     -32.517   6.804   2.913  1.00 20.00    -0.166 F 
HETATM    4  F6  UNL     1     -34.366   6.064   2.039  1.00 20.00    -0.166 F 
ENDROOT
BRANCH   1   5
HETATM    5  C2  UNL     1     -34.033   5.663   4.344  1.00 20.00     0.085 C 
HETATM    6  C1  UNL     1     -34.697   4.576   4.759  1.00 20.00     0.036 C 
HETATM    7 BR7  UNL     1     -33.798   7.145   5.464  1.00 20.00    -0.047 Br
ENDBRANCH   1   5
TORSDOF 1
ENDMDL
MODEL 9
REMARK VINA RESULT:      -4.7      2.662      3.137
REMARK  1 active torsions:
REMARK  status: ('A' for Active; 'I' for Inactive)
REMARK    1  A    between atoms: C2_2  and  C3_3 
ROOT
HETATM    1  C3  UNL     1     -32.821   7.338   3.481  1.00 20.00     0.423 C 
HETATM    2  F4  UNL     1     -31.670   7.914   3.916  1.00 20.00    -0.166 F 
HETATM    3  F5  UNL     1     -33.421   8.248   2.669  1.00 20.00    -0.166 F 
HETATM    4  F6  UNL     1     -32.463   6.294   2.688  1.00 20.00    -0.166 F 
ENDROOT
BRANCH   1   5
HETATM    5  C2  UNL     1     -33.691   6.906   4.613  1.00 20.00     0.085 C 
HETATM    6  C1  UNL     1     -33.629   7.431   5.844  1.00 20.00     0.036 C 
HETATM    7 BR7  UNL     1     -34.911   5.549   4.194  1.00 20.00    -0.047 Br
ENDBRANCH   1   5
TORSDOF 1
ENDMDL
