MODEL 1
REMARK VINA RESULT:      -5.1      0.000      0.000
REMARK  3 active torsions:
REMARK  status: ('A' for Active; 'I' for Inactive)
REMARK    1  A    between atoms: C4_4  and  C10_10 
REMARK    2  A    between atoms: C5_5  and  C11_11 
REMARK    3  A    between atoms: C6_6  and  C12_12 
ROOT
HETATM    1  C7  UNL     1     -33.312   6.981   1.378  1.00 20.00     0.009 C 
HETATM    2  C8  UNL     1     -33.841   5.847   2.253  1.00 20.00     0.010 C 
HETATM    3  C9  UNL     1     -32.642   8.270   3.440  1.00 20.00     0.017 C 
HETATM    4  C10 UNL     1     -32.182   7.744   2.075  1.00 20.00     0.008 C 
HETATM    5  C11 UNL     1     -34.299   6.349   3.631  1.00 20.00     0.015 C 
HETATM    6  C12 UNL     1     -33.174   7.138   4.338  1.00 20.00     0.015 C 
ENDROOT
BRANCH   4   7
HETATM    7  C4  UNL     1     -31.693   8.862   1.206  1.00 20.00    -0.032 C 
HETATM    8  C1  UNL     1     -32.420   9.941   0.893  1.00 20.00     0.007 C 
ENDBRANCH   4   7
BRANCH   6   9
HETATM    9  C6  UNL     1     -33.631   7.713   5.648  1.00 20.00    -0.031 C 
HETATM   10  C3  UNL     1     -34.054   6.976   6.682  1.00 20.00     0.007 C 
ENDBRANCH   6   9
BRANCH   5  11
HETATM   11  C5  UNL     1     -34.773   5.179   4.445  1.00 20.00    -0.031 C 
HETATM   12  C2  UNL     1     -34.185   3.978   4.444  1.00 20.00     0.007 C 
ENDBRANCH   5  11
TORSDOF 3
ENDMDL
MODEL 2
REMARK VINA RESULT:      -5.0     11.222     11.752
REMARK  3 active torsions:
REMARK  status: ('A' for Active; 'I' for Inactive)
REMARK    1  A    between atoms: C4_4  and  C10_10 
REMARK    2  A    between atoms: C5_5  and  C11_11 
REMARK    3  A    between atoms: C6_6  and  C12_12 
ROOT
HETATM    1  C7  UNL     1     -35.322  16.846  -2.352  1.00 20.00     0.009 C 
HETATM    2  C8  UNL     1     -35.613  17.031  -0.865  1.00 20.00     0.010 C 
HETATM    3  C9  UNL     1     -32.979  17.714  -2.009  1.00 20.00     0.017 C 
HETATM    4  C10 UNL     1     -33.834  16.589  -2.603  1.00 20.00     0.008 C 
HETATM    5  C11 UNL     1     -34.760  18.148  -0.245  1.00 20.00     0.015 C 
HETATM    6  C12 UNL     1     -33.255  17.910  -0.507  1.00 20.00     0.015 C 
ENDROOT
BRANCH   4   7
HETATM    7  C4  UNL     1     -33.571  16.431  -4.069  1.00 20.00    -0.032 C 
HETATM    8  C1  UNL     1     -33.180  15.286  -4.641  1.00 20.00     0.007 C 
ENDBRANCH   4   7
BRANCH   6   9
HETATM    9  C6  UNL     1     -32.411  19.038   0.014  1.00 20.00    -0.031 C 
HETATM   10  C3  UNL     1     -31.424  18.885   0.903  1.00 20.00     0.007 C 
ENDBRANCH   6   9
BRANCH   5  11
HETATM   11  C5  UNL     1     -35.074  18.249   1.220  1.00 20.00    -0.031 C 
HETATM   12  C2  UNL     1     -36.313  18.227   1.723  1.00 20.00     0.007 C 
ENDBRANCH   5  11
TORSDOF 3
ENDMDL
MODEL 3
REMARK VINA RESULT:      -5.0     11.025     11.844
REMARK  3 active torsions:
REMARK  status: ('A' for Active; 'I' for Inactive)
REMARK    1  A    between atoms: C4_4  and  C10_10 
REMARK    2  A    between atoms: C5_5  and  C11_11 
REMARK    3  A    between atoms: C6_6  and  C12_12 
ROOT
HETATM    1  C7  UNL     1     -33.426  16.951  -2.587  1.00 20.00     0.009 C 
HETATM    2  C8  UNL     1     -32.809  18.084  -1.771  1.00 20.00     0.010 C 
HETATM    3  C9  UNL     1     -35.423  16.919  -1.046  1.00 20.00     0.017 C 
HETATM    4  C10 UNL     1     -34.954  16.972  -2.505  1.00 20.00     0.008 C 
HETATM    5  C11 UNL     1     -33.271  18.057  -0.306  1.00 20.00     0.015 C 
HETATM    6  C12 UNL     1     -34.814  18.059  -0.209  1.00 20.00     0.015 C 
ENDROOT
BRANCH   4   7
HETATM    7  C4  UNL     1     -35.536  15.840  -3.297  1.00 20.00    -0.032 C 
HETATM    8  C1  UNL     1     -34.814  15.013  -4.062  1.00 20.00     0.007 C 
ENDBRANCH   4   7
BRANCH   6   9
HETATM    9  C6  UNL     1     -35.286  17.943   1.212  1.00 20.00    -0.031 C 
HETATM   10  C3  UNL     1     -36.535  18.207   1.609  1.00 20.00     0.007 C 
ENDBRANCH   6   9
BRANCH   5  11
HETATM   11  C5  UNL     1     -32.653  19.215   0.424  1.00 20.00    -0.031 C 
HETATM   12  C2  UNL     1     -31.596  19.110   1.236  1.00 20.00     0.007 C 
ENDBRANCH   5  11
TORSDOF 3
ENDMDL
MODEL 4
REMARK VINA RESULT:      -5.0      1.087      2.591
REMARK  3 active torsions:
REMARK  status: ('A' for Active; 'I' for Inactive)
REMARK    1  A    between atoms: C4_4  and  C10_10 
REMARK    2  A    between atoms: C5_5  and  C11_11 
REMARK    3  A    between atoms: C6_6  and  C12_12 
ROOT
HETATM    1  C7  UNL     1     -31.972   8.664   3.859  1.00 20.00     0.009 C 
HETATM    2  C8  UNL     1     -32.916   8.157   4.946  1.00 20.00     0.010 C 
HETATM    3  C9  UNL     1     -32.865   6.925   2.264  1.00 20.00     0.017 C 
HETATM    4  C10 UNL     1     -32.543   8.412   2.461  1.00 20.00     0.008 C 
HETATM    5  C11 UNL     1     -33.260   6.671   4.764  1.00 20.00     0.015 C 
HETATM    6  C12 UNL     1     -33.821   6.399   3.349  1.00 20.00     0.015 C 
ENDROOT
BRANCH   4   7
HETATM    7  C4  UNL     1     -31.591   8.899   1.411  1.00 20.00    -0.032 C 
HETATM    8  C1  UNL     1     -31.964   9.566   0.313  1.00 20.00     0.007 C 
ENDBRANCH   4   7
BRANCH   6   9
HETATM    9  C6  UNL     1     -34.079   4.937   3.122  1.00 20.00    -0.031 C 
HETATM   10  C3  UNL     1     -33.184   4.091   2.600  1.00 20.00     0.007 C 
ENDBRANCH   6   9
BRANCH   5  11
HETATM   11  C5  UNL     1     -34.215   6.253   5.846  1.00 20.00    -0.031 C 
HETATM   12  C2  UNL     1     -34.654   5.001   6.014  1.00 20.00     0.007 C 
ENDBRANCH   5  11
TORSDOF 3
ENDMDL
MODEL 5
REMARK VINA RESULT:      -5.0     11.176     12.512
REMARK  3 active torsions:
REMARK  status: ('A' for Active; 'I' for Inactive)
REMARK    1  A    between atoms: C4_4  and  C10_10 
REMARK    2  A    between atoms: C5_5  and  C11_11 
REMARK    3  A    between atoms: C6_6  and  C12_12 
ROOT
HETATM    1  C7  UNL     1     -33.645  17.263  -4.771  1.00 20.00     0.009 C 
HETATM    2  C8  UNL     1     -33.709  16.543  -6.116  1.00 20.00     0.010 C 
HETATM    3  C9  UNL     1     -34.986  15.409  -3.708  1.00 20.00     0.017 C 
HETATM    4  C10 UNL     1     -33.724  16.274  -3.604  1.00 20.00     0.008 C 
HETATM    5  C11 UNL     1     -34.961  15.662  -6.239  1.00 20.00     0.015 C 
HETATM    6  C12 UNL     1     -35.063  14.671  -5.057  1.00 20.00     0.015 C 
ENDROOT
BRANCH   4   7
HETATM    7  C4  UNL     1     -33.679  17.004  -2.296  1.00 20.00    -0.032 C 
HETATM    8  C1  UNL     1     -34.680  17.014  -1.409  1.00 20.00     0.007 C 
ENDBRANCH   4   7
BRANCH   6   9
HETATM    9  C6  UNL     1     -36.328  13.862  -5.112  1.00 20.00    -0.031 C 
HETATM   10  C3  UNL     1     -37.556  14.388  -5.052  1.00 20.00     0.007 C 
ENDBRANCH   6   9
BRANCH   5  11
HETATM   11  C5  UNL     1     -34.939  14.963  -7.568  1.00 20.00    -0.031 C 
HETATM   12  C2  UNL     1     -34.042  14.032  -7.909  1.00 20.00     0.007 C 
ENDBRANCH   5  11
TORSDOF 3
ENDMDL
MODEL 6
REMARK VINA RESULT:      -4.9     10.743     11.820
REMARK  3 active torsions:
REMARK  status: ('A' for Active; 'I' for Inactive)
REMARK    1  A    between atoms: C4_4  and  C10_10 
REMARK    2  A    between atoms: C5_5  and  C11_11 
REMARK    3  A    between atoms: C6_6  and  C12_12 
ROOT
HETATM    1  C7  UNL     1     -35.637  16.891  -1.716  1.00 20.00     0.009 C 
HETATM    2  C8  UNL     1     -36.299  16.401  -3.001  1.00 20.00     0.010 C 
HETATM    3  C9  UNL     1     -33.367  16.680  -2.796  1.00 20.00     0.017 C 
HETATM    4  C10 UNL     1     -34.309  17.596  -2.005  1.00 20.00     0.008 C 
HETATM    5  C11 UNL     1     -35.370  15.488  -3.816  1.00 20.00     0.015 C 
HETATM    6  C12 UNL     1     -34.017  16.180  -4.099  1.00 20.00     0.015 C 
ENDROOT
BRANCH   4   7
HETATM    7  C4  UNL     1     -33.669  18.050  -0.729  1.00 20.00    -0.032 C 
HETATM    8  C1  UNL     1     -32.402  18.470  -0.634  1.00 20.00     0.007 C 
ENDBRANCH   4   7
BRANCH   6   9
HETATM    9  C6  UNL     1     -33.062  15.270  -4.818  1.00 20.00    -0.031 C 
HETATM   10  C3  UNL     1     -32.547  14.156  -4.286  1.00 20.00     0.007 C 
ENDBRANCH   6   9
BRANCH   5  11
HETATM   11  C5  UNL     1     -36.073  15.074  -5.077  1.00 20.00    -0.031 C 
HETATM   12  C2  UNL     1     -36.479  13.825  -5.332  1.00 20.00     0.007 C 
ENDBRANCH   5  11
TORSDOF 3
ENDMDL
MODEL 7
REMARK VINA RESULT:      -4.9     11.090     11.811
REMARK  3 active torsions:
REMARK  status: ('A' for Active; 'I' for Inactive)
REMARK    1  A    between atoms: C4_4  and  C10_10 
REMARK    2  A    between atoms: C5_5  and  C11_11 
REMARK    3  A    between atoms: C6_6  and  C12_12 
ROOT
HETATM    1  C7  UNL     1     -35.827  16.458  -3.114  1.00 20.00     0.009 C 
HETATM    2  C8  UNL     1     -36.117  17.035  -1.731  1.00 20.00     0.010 C 
HETATM    3  C9  UNL     1     -33.365  16.901  -2.790  1.00 20.00     0.017 C 
HETATM    4  C10 UNL     1     -34.419  15.860  -3.185  1.00 20.00     0.008 C 
HETATM    5  C11 UNL     1     -35.067  18.075  -1.309  1.00 20.00     0.015 C 
HETATM    6  C12 UNL     1     -33.639  17.490  -1.395  1.00 20.00     0.015 C 
ENDROOT
BRANCH   4   7
HETATM    7  C4  UNL     1     -34.151  15.317  -4.556  1.00 20.00    -0.032 C 
HETATM    8  C1  UNL     1     -33.007  15.503  -5.225  1.00 20.00     0.007 C 
ENDBRANCH   4   7
BRANCH   6   9
HETATM    9  C6  UNL     1     -32.592  18.519  -1.073  1.00 20.00    -0.031 C 
HETATM   10  C3  UNL     1     -31.763  18.439  -0.026  1.00 20.00     0.007 C 
ENDBRANCH   6   9
BRANCH   5  11
HETATM   11  C5  UNL     1     -35.397  18.573   0.069  1.00 20.00    -0.031 C 
HETATM   12  C2  UNL     1     -35.534  17.781   1.138  1.00 20.00     0.007 C 
ENDBRANCH   5  11
TORSDOF 3
ENDMDL
MODEL 8
REMARK VINA RESULT:      -4.8     10.938     12.548
REMARK  3 active torsions:
REMARK  status: ('A' for Active; 'I' for Inactive)
REMARK    1  A    between atoms: C4_4  and  C10_10 
REMARK    2  A    between atoms: C5_5  and  C11_11 
REMARK    3  A    between atoms: C6_6  and  C12_12 
ROOT
HETATM    1  C7  UNL     1     -33.783  17.972  -3.625  1.00 20.00     0.009 C 
HETATM    2  C8  UNL     1     -33.343  17.420  -4.978  1.00 20.00     0.010 C 
HETATM    3  C9  UNL     1     -34.706  15.710  -2.994  1.00 20.00     0.017 C 
HETATM    4  C10 UNL     1     -33.810  16.876  -2.556  1.00 20.00     0.008 C 
HETATM    5  C11 UNL     1     -34.221  16.245  -5.434  1.00 20.00     0.015 C 
HETATM    6  C12 UNL     1     -34.272  15.138  -4.356  1.00 20.00     0.015 C 
ENDROOT
BRANCH   4   7
HETATM    7  C4  UNL     1     -34.263  17.437  -1.243  1.00 20.00    -0.032 C 
HETATM    8  C1  UNL     1     -35.471  17.217  -0.711  1.00 20.00     0.007 C 
ENDBRANCH   4   7
BRANCH   6   9
HETATM    9  C6  UNL     1     -35.197  14.020  -4.745  1.00 20.00    -0.031 C 
HETATM   10  C3  UNL     1     -36.507  14.174  -4.964  1.00 20.00     0.007 C 
ENDBRANCH   6   9
BRANCH   5  11
HETATM   11  C5  UNL     1     -33.710  15.734  -6.751  1.00 20.00    -0.031 C 
HETATM   12  C2  UNL     1     -34.342  15.907  -7.917  1.00 20.00     0.007 C 
ENDBRANCH   5  11
TORSDOF 3
ENDMDL
MODEL 9
REMARK VINA RESULT:      -4.8     11.477     12.394
REMARK  3 active torsions:
REMARK  status: ('A' for Active; 'I' for Inactive)
REMARK    1  A    between atoms: C4_4  and  C10_10 
REMARK    2  A    between atoms: C5_5  and  C11_11 
REMARK    3  A    between atoms: C6_6  and  C12_12 
ROOT
HETATM    1  C7  UNL     1     -33.369  18.639   1.640  1.00 20.00     0.009 C 
HETATM    2  C8  UNL     1     -34.730  18.528   0.957  1.00 20.00     0.010 C 
HETATM    3  C9  UNL     1     -32.221  18.172  -0.558  1.00 20.00     0.017 C 
HETATM    4  C10 UNL     1     -32.288  19.103   0.659  1.00 20.00     0.008 C 
HETATM    5  C11 UNL     1     -34.685  17.607  -0.271  1.00 20.00     0.015 C 
HETATM    6  C12 UNL     1     -33.585  18.053  -1.262  1.00 20.00     0.015 C 
ENDROOT
BRANCH   4   7
HETATM    7  C4  UNL     1     -30.959  19.185   1.347  1.00 20.00    -0.032 C 
HETATM    8  C1  UNL     1     -30.787  19.028   2.664  1.00 20.00     0.007 C 
ENDBRANCH   4   7
BRANCH   6   9
HETATM    9  C6  UNL     1     -33.465  17.112  -2.427  1.00 20.00    -0.031 C 
HETATM   10  C3  UNL     1     -33.624  17.479  -3.703  1.00 20.00     0.007 C 
ENDBRANCH   6   9
BRANCH   5  11
HETATM   11  C5  UNL     1     -36.045  17.573  -0.908  1.00 20.00    -0.031 C 
HETATM   12  C2  UNL     1     -36.725  18.663  -1.279  1.00 20.00     0.007 C 
ENDBRANCH   5  11
TORSDOF 3
ENDMDL
