MODEL 1
REMARK VINA RESULT:      -6.3      0.000      0.000
REMARK  0 active torsions:
REMARK  status: ('A' for Active; 'I' for Inactive)
ROOT
HETATM    1  C1  UNL     1     -33.107   7.325   2.930  1.00 20.00    -0.089 C 
HETATM    2  C2  UNL     1     -32.168   8.069   2.318  1.00 20.00     0.014 C 
HETATM    3  C3  UNL     1     -33.523   5.990   2.353  1.00 20.00     0.033 C 
HETATM    4  C4  UNL     1     -33.786   7.830   4.183  1.00 20.00     0.033 C 
HETATM    5  C5  UNL     1     -33.079   4.793   3.198  1.00 20.00     0.004 C 
HETATM    6  C6  UNL     1     -33.404   7.050   5.444  1.00 20.00     0.004 C 
HETATM    7  C7  UNL     1     -34.162   4.183   4.090  1.00 20.00     0.000 C 
HETATM    8  C8  UNL     1     -34.428   6.012   5.908  1.00 20.00     0.000 C 
HETATM    9  C9  UNL     1     -35.085   5.134   4.846  1.00 20.00     0.000 C 
ENDROOT
TORSDOF 0
ENDMDL
MODEL 2
REMARK VINA RESULT:      -5.9      0.903      2.453
REMARK  0 active torsions:
REMARK  status: ('A' for Active; 'I' for Inactive)
ROOT
HETATM    1  C1  UNL     1     -32.687   7.350   2.999  1.00 20.00    -0.089 C 
HETATM    2  C2  UNL     1     -32.349   8.206   2.018  1.00 20.00     0.014 C 
HETATM    3  C3  UNL     1     -32.368   7.673   4.441  1.00 20.00     0.033 C 
HETATM    4  C4  UNL     1     -33.357   6.035   2.668  1.00 20.00     0.033 C 
HETATM    5  C5  UNL     1     -33.607   7.976   5.289  1.00 20.00     0.004 C 
HETATM    6  C6  UNL     1     -34.821   5.966   3.115  1.00 20.00     0.004 C 
HETATM    7  C7  UNL     1     -34.092   6.826   6.173  1.00 20.00     0.000 C 
HETATM    8  C8  UNL     1     -35.074   5.196   4.413  1.00 20.00     0.000 C 
HETATM    9  C9  UNL     1     -34.110   5.422   5.575  1.00 20.00     0.000 C 
ENDROOT
TORSDOF 0
ENDMDL
MODEL 3
REMARK VINA RESULT:      -4.6      0.995      3.834
REMARK  0 active torsions:
REMARK  status: ('A' for Active; 'I' for Inactive)
ROOT
HETATM    1  C1  UNL     1     -34.472   5.926   5.051  1.00 20.00    -0.089 C 
HETATM    2  C2  UNL     1     -34.802   5.090   6.052  1.00 20.00     0.014 C 
HETATM    3  C3  UNL     1     -33.986   7.326   5.352  1.00 20.00     0.033 C 
HETATM    4  C4  UNL     1     -34.619   5.490   3.611  1.00 20.00     0.033 C 
HETATM    5  C5  UNL     1     -32.505   7.543   5.029  1.00 20.00     0.004 C 
HETATM    6  C6  UNL     1     -33.281   5.290   2.893  1.00 20.00     0.004 C 
HETATM    7  C7  UNL     1     -32.220   8.262   3.710  1.00 20.00     0.000 C 
HETATM    8  C8  UNL     1     -32.851   6.439   1.978  1.00 20.00     0.000 C 
HETATM    9  C9  UNL     1     -33.042   7.866   2.487  1.00 20.00     0.000 C 
ENDROOT
TORSDOF 0
ENDMDL
MODEL 4
REMARK VINA RESULT:      -4.5      0.874      2.814
REMARK  0 active torsions:
REMARK  status: ('A' for Active; 'I' for Inactive)
ROOT
HETATM    1  C1  UNL     1     -33.168   4.908   2.974  1.00 20.00    -0.089 C 
HETATM    2  C2  UNL     1     -33.193   4.257   1.797  1.00 20.00     0.014 C 
HETATM    3  C3  UNL     1     -32.590   6.303   3.065  1.00 20.00     0.033 C 
HETATM    4  C4  UNL     1     -33.682   4.241   4.229  1.00 20.00     0.033 C 
HETATM    5  C5  UNL     1     -33.641   7.385   3.330  1.00 20.00     0.004 C 
HETATM    6  C6  UNL     1     -34.981   4.855   4.760  1.00 20.00     0.004 C 
HETATM    7  C7  UNL     1     -33.733   7.866   4.779  1.00 20.00     0.000 C 
HETATM    8  C8  UNL     1     -34.816   5.817   5.939  1.00 20.00     0.000 C 
HETATM    9  C9  UNL     1     -33.666   6.819   5.886  1.00 20.00     0.000 C 
ENDROOT
TORSDOF 0
ENDMDL
MODEL 5
REMARK VINA RESULT:      -4.4      0.818      2.901
REMARK  0 active torsions:
REMARK  status: ('A' for Active; 'I' for Inactive)
ROOT
HETATM    1  C1  UNL     1     -33.568   7.090   5.636  1.00 20.00    -0.089 C 
HETATM    2  C2  UNL     1     -33.932   8.038   6.518  1.00 20.00     0.014 C 
HETATM    3  C3  UNL     1     -33.808   5.628   5.940  1.00 20.00     0.033 C 
HETATM    4  C4  UNL     1     -32.878   7.470   4.346  1.00 20.00     0.033 C 
HETATM    5  C5  UNL     1     -34.885   4.988   5.059  1.00 20.00     0.004 C 
HETATM    6  C6  UNL     1     -33.743   7.248   3.101  1.00 20.00     0.004 C 
HETATM    7  C7  UNL     1     -34.362   4.147   3.893  1.00 20.00     0.000 C 
HETATM    8  C8  UNL     1     -33.434   5.976   2.308  1.00 20.00     0.000 C 
HETATM    9  C9  UNL     1     -33.183   4.690   3.091  1.00 20.00     0.000 C 
ENDROOT
TORSDOF 0
ENDMDL
MODEL 6
REMARK VINA RESULT:      -4.3     11.474     13.122
REMARK  0 active torsions:
REMARK  status: ('A' for Active; 'I' for Inactive)
ROOT
HETATM    1  C1  UNL     1     -33.789  15.431  -4.194  1.00 20.00    -0.089 C 
HETATM    2  C2  UNL     1     -33.750  16.266  -3.140  1.00 20.00     0.014 C 
HETATM    3  C3  UNL     1     -34.589  14.149  -4.125  1.00 20.00     0.033 C 
HETATM    4  C4  UNL     1     -33.004  15.743  -5.447  1.00 20.00     0.033 C 
HETATM    5  C5  UNL     1     -35.830  14.152  -5.023  1.00 20.00     0.004 C 
HETATM    6  C6  UNL     1     -33.884  16.108  -6.646  1.00 20.00     0.004 C 
HETATM    7  C7  UNL     1     -35.681  13.404  -6.348  1.00 20.00     0.000 C 
HETATM    8  C8  UNL     1     -34.103  14.986  -7.663  1.00 20.00     0.000 C 
HETATM    9  C9  UNL     1     -34.382  13.583  -7.129  1.00 20.00     0.000 C 
ENDROOT
TORSDOF 0
ENDMDL
MODEL 7
REMARK VINA RESULT:      -4.3      0.797      3.632
REMARK  0 active torsions:
REMARK  status: ('A' for Active; 'I' for Inactive)
ROOT
HETATM    1  C1  UNL     1     -34.221   4.856   4.105  1.00 20.00    -0.089 C 
HETATM    2  C2  UNL     1     -34.200   3.524   4.289  1.00 20.00     0.014 C 
HETATM    3  C3  UNL     1     -34.704   5.774   5.206  1.00 20.00     0.033 C 
HETATM    4  C4  UNL     1     -33.799   5.452   2.781  1.00 20.00     0.033 C 
HETATM    5  C5  UNL     1     -33.591   6.621   5.829  1.00 20.00     0.004 C 
HETATM    6  C6  UNL     1     -32.480   6.228   2.853  1.00 20.00     0.004 C 
HETATM    7  C7  UNL     1     -33.516   8.068   5.337  1.00 20.00     0.000 C 
HETATM    8  C8  UNL     1     -32.619   7.751   2.925  1.00 20.00     0.000 C 
HETATM    9  C9  UNL     1     -33.695   8.326   3.844  1.00 20.00     0.000 C 
ENDROOT
TORSDOF 0
ENDMDL
MODEL 8
REMARK VINA RESULT:      -4.2      1.033      3.230
REMARK  0 active torsions:
REMARK  status: ('A' for Active; 'I' for Inactive)
ROOT
HETATM    1  C1  UNL     1     -34.113   5.408   4.375  1.00 20.00    -0.089 C 
HETATM    2  C2  UNL     1     -35.191   4.623   4.557  1.00 20.00     0.014 C 
HETATM    3  C3  UNL     1     -33.471   5.523   3.010  1.00 20.00     0.033 C 
HETATM    4  C4  UNL     1     -33.507   6.156   5.540  1.00 20.00     0.033 C 
HETATM    5  C5  UNL     1     -33.661   6.895   2.358  1.00 20.00     0.004 C 
HETATM    6  C6  UNL     1     -33.703   7.673   5.463  1.00 20.00     0.004 C 
HETATM    7  C7  UNL     1     -32.460   7.837   2.454  1.00 20.00     0.000 C 
HETATM    8  C8  UNL     1     -32.491   8.465   4.969  1.00 20.00     0.000 C 
HETATM    9  C9  UNL     1     -31.710   7.908   3.781  1.00 20.00     0.000 C 
ENDROOT
TORSDOF 0
ENDMDL
MODEL 9
REMARK VINA RESULT:      -4.0     11.680     13.019
REMARK  0 active torsions:
REMARK  status: ('A' for Active; 'I' for Inactive)
ROOT
HETATM    1  C1  UNL     1     -34.102  14.626  -5.577  1.00 20.00    -0.089 C 
HETATM    2  C2  UNL     1     -34.410  13.966  -6.708  1.00 20.00     0.014 C 
HETATM    3  C3  UNL     1     -33.042  15.704  -5.583  1.00 20.00     0.033 C 
HETATM    4  C4  UNL     1     -34.785  14.271  -4.275  1.00 20.00     0.033 C 
HETATM    5  C5  UNL     1     -33.602  17.114  -5.377  1.00 20.00     0.004 C 
HETATM    6  C6  UNL     1     -35.740  15.356  -3.770  1.00 20.00     0.004 C 
HETATM    7  C7  UNL     1     -33.458  17.676  -3.962  1.00 20.00     0.000 C 
HETATM    8  C8  UNL     1     -35.187  16.250  -2.658  1.00 20.00     0.000 C 
HETATM    9  C9  UNL     1     -33.748  16.743  -2.789  1.00 20.00     0.000 C 
ENDROOT
TORSDOF 0
ENDMDL
