MODEL 1
REMARK VINA RESULT:      -4.4      0.000      0.000
REMARK  0 active torsions:
REMARK  status: ('A' for Active; 'I' for Inactive)
ROOT
HETATM    1  C1  UNL     1     -33.063   5.131   2.769  1.00 20.00     0.223 A 
HETATM    2  C2  UNL     1     -35.138   6.171   3.863  1.00 20.00     0.027 A 
HETATM    3  C3  UNL     1     -33.881   5.362   3.980  1.00 20.00     0.089 A 
HETATM    4  C4  UNL     1     -33.842   6.845   4.284  1.00 20.00    -0.006 A 
HETATM    5  C5  UNL     1     -32.913   7.480   3.233  1.00 20.00     0.034 A 
HETATM    6  C6  UNL     1     -33.766   7.325   5.705  1.00 20.00     0.018 C 
HETATM    7  C7  UNL     1     -31.611   8.025   3.834  1.00 20.00     0.039 C 
HETATM    8  C8  UNL     1     -33.625   8.584   2.447  1.00 20.00     0.039 C 
HETATM    9  N9  UNL     1     -32.573   6.356   2.357  1.00 20.00    -0.351 N 
HETATM   10  O10 UNL     1     -32.899   4.032   2.266  1.00 20.00    -0.273 OA
HETATM   11  H23 UNL     1     -31.984   6.460   1.536  1.00 20.00     0.163 HD
ENDROOT
TORSDOF 0
ENDMDL
MODEL 2
REMARK VINA RESULT:      -4.4     11.372     12.254
REMARK  0 active torsions:
REMARK  status: ('A' for Active; 'I' for Inactive)
ROOT
HETATM    1  C1  UNL     1     -35.532  13.834  -4.962  1.00 20.00     0.223 A 
HETATM    2  C2  UNL     1     -33.173  14.632  -4.342  1.00 20.00     0.027 A 
HETATM    3  C3  UNL     1     -34.219  14.372  -5.384  1.00 20.00     0.089 A 
HETATM    4  C4  UNL     1     -34.083  15.762  -4.796  1.00 20.00    -0.006 A 
HETATM    5  C5  UNL     1     -35.401  16.052  -4.055  1.00 20.00     0.034 A 
HETATM    6  C6  UNL     1     -33.442  16.861  -5.594  1.00 20.00     0.018 C 
HETATM    7  C7  UNL     1     -36.229  17.161  -4.715  1.00 20.00     0.039 C 
HETATM    8  C8  UNL     1     -35.155  16.392  -2.584  1.00 20.00     0.039 C 
HETATM    9  N9  UNL     1     -36.144  14.795  -4.180  1.00 20.00    -0.351 N 
HETATM   10  O10 UNL     1     -35.937  12.726  -5.273  1.00 20.00    -0.273 OA
HETATM   11  H23 UNL     1     -37.060  14.656  -3.763  1.00 20.00     0.163 HD
ENDROOT
TORSDOF 0
ENDMDL
MODEL 3
REMARK VINA RESULT:      -4.3     11.622     12.320
REMARK  0 active torsions:
REMARK  status: ('A' for Active; 'I' for Inactive)
ROOT
HETATM    1  C1  UNL     1     -35.080  13.026  -6.529  1.00 20.00     0.223 A 
HETATM    2  C2  UNL     1     -36.532  15.137  -6.388  1.00 20.00     0.027 A 
HETATM    3  C3  UNL     1     -36.133  13.802  -5.836  1.00 20.00     0.089 A 
HETATM    4  C4  UNL     1     -35.489  15.057  -5.285  1.00 20.00    -0.006 A 
HETATM    5  C5  UNL     1     -33.991  14.965  -5.629  1.00 20.00     0.034 A 
HETATM    6  C6  UNL     1     -35.893  15.586  -3.939  1.00 20.00     0.018 C 
HETATM    7  C7  UNL     1     -33.100  14.795  -4.393  1.00 20.00     0.039 C 
HETATM    8  C8  UNL     1     -33.526  16.175  -6.443  1.00 20.00     0.039 C 
HETATM    9  N9  UNL     1     -33.901  13.739  -6.426  1.00 20.00    -0.351 N 
HETATM   10  O10 UNL     1     -35.285  11.959  -7.085  1.00 20.00    -0.273 OA
HETATM   11  H23 UNL     1     -33.029  13.412  -6.833  1.00 20.00     0.163 HD
ENDROOT
TORSDOF 0
ENDMDL
MODEL 4
REMARK VINA RESULT:      -4.3      2.197      3.503
REMARK  0 active torsions:
REMARK  status: ('A' for Active; 'I' for Inactive)
ROOT
HETATM    1  C1  UNL     1     -32.892   7.564   4.720  1.00 20.00     0.223 A 
HETATM    2  C2  UNL     1     -33.268   7.210   2.206  1.00 20.00     0.027 A 
HETATM    3  C3  UNL     1     -32.428   7.005   3.431  1.00 20.00     0.089 A 
HETATM    4  C4  UNL     1     -33.412   5.931   3.016  1.00 20.00    -0.006 A 
HETATM    5  C5  UNL     1     -34.452   5.833   4.146  1.00 20.00     0.034 A 
HETATM    6  C6  UNL     1     -32.923   4.668   2.367  1.00 20.00     0.018 C 
HETATM    7  C7  UNL     1     -34.383   4.506   4.912  1.00 20.00     0.039 C 
HETATM    8  C8  UNL     1     -35.872   6.060   3.625  1.00 20.00     0.039 C 
HETATM    9  N9  UNL     1     -34.058   6.906   5.063  1.00 20.00    -0.351 N 
HETATM   10  O10 UNL     1     -32.312   8.457   5.316  1.00 20.00    -0.273 OA
HETATM   11  H23 UNL     1     -34.575   7.120   5.911  1.00 20.00     0.163 HD
ENDROOT
TORSDOF 0
ENDMDL
MODEL 5
REMARK VINA RESULT:      -4.3     11.207     12.249
REMARK  0 active torsions:
REMARK  status: ('A' for Active; 'I' for Inactive)
ROOT
HETATM    1  C1  UNL     1     -35.641  13.712  -5.201  1.00 20.00     0.223 A 
HETATM    2  C2  UNL     1     -34.000  14.413  -7.045  1.00 20.00     0.027 A 
HETATM    3  C3  UNL     1     -35.271  14.648  -6.286  1.00 20.00     0.089 A 
HETATM    4  C4  UNL     1     -34.007  15.366  -5.861  1.00 20.00    -0.006 A 
HETATM    5  C5  UNL     1     -33.673  14.860  -4.446  1.00 20.00     0.034 A 
HETATM    6  C6  UNL     1     -33.825  16.824  -6.172  1.00 20.00     0.018 C 
HETATM    7  C7  UNL     1     -33.826  15.942  -3.370  1.00 20.00     0.039 C 
HETATM    8  C8  UNL     1     -32.268  14.258  -4.382  1.00 20.00     0.039 C 
HETATM    9  N9  UNL     1     -34.690  13.833  -4.205  1.00 20.00    -0.351 N 
HETATM   10  O10 UNL     1     -36.616  12.981  -5.244  1.00 20.00    -0.273 OA
HETATM   11  H23 UNL     1     -34.722  13.284  -3.351  1.00 20.00     0.163 HD
ENDROOT
TORSDOF 0
ENDMDL
MODEL 6
REMARK VINA RESULT:      -4.1     11.512     12.724
REMARK  0 active torsions:
REMARK  status: ('A' for Active; 'I' for Inactive)
ROOT
HETATM    1  C1  UNL     1     -36.820  14.171  -5.283  1.00 20.00     0.223 A 
HETATM    2  C2  UNL     1     -35.097  13.156  -6.891  1.00 20.00     0.027 A 
HETATM    3  C3  UNL     1     -36.249  14.084  -6.645  1.00 20.00     0.089 A 
HETATM    4  C4  UNL     1     -34.834  14.621  -6.584  1.00 20.00    -0.006 A 
HETATM    5  C5  UNL     1     -34.609  15.089  -5.135  1.00 20.00     0.034 A 
HETATM    6  C6  UNL     1     -34.293  15.456  -7.708  1.00 20.00     0.018 C 
HETATM    7  C7  UNL     1     -34.456  16.610  -5.012  1.00 20.00     0.039 C 
HETATM    8  C8  UNL     1     -33.403  14.393  -4.500  1.00 20.00     0.039 C 
HETATM    9  N9  UNL     1     -35.848  14.701  -4.456  1.00 20.00    -0.351 N 
HETATM   10  O10 UNL     1     -37.951  13.809  -5.002  1.00 20.00    -0.273 OA
HETATM   11  H23 UNL     1     -36.000  14.853  -3.463  1.00 20.00     0.163 HD
ENDROOT
TORSDOF 0
ENDMDL
MODEL 7
REMARK VINA RESULT:      -4.1     11.331     12.140
REMARK  0 active torsions:
REMARK  status: ('A' for Active; 'I' for Inactive)
ROOT
HETATM    1  C1  UNL     1     -36.240  14.299  -4.964  1.00 20.00     0.223 A 
HETATM    2  C2  UNL     1     -36.004  16.813  -4.506  1.00 20.00     0.027 A 
HETATM    3  C3  UNL     1     -36.219  15.419  -3.997  1.00 20.00     0.089 A 
HETATM    4  C4  UNL     1     -34.822  16.002  -4.001  1.00 20.00    -0.006 A 
HETATM    5  C5  UNL     1     -33.993  15.140  -4.970  1.00 20.00     0.034 A 
HETATM    6  C6  UNL     1     -34.191  16.463  -2.719  1.00 20.00     0.018 C 
HETATM    7  C7  UNL     1     -32.904  14.322  -4.264  1.00 20.00     0.039 C 
HETATM    8  C8  UNL     1     -33.368  15.986  -6.082  1.00 20.00     0.039 C 
HETATM    9  N9  UNL     1     -34.978  14.206  -5.521  1.00 20.00    -0.351 N 
HETATM   10  O10 UNL     1     -37.231  13.625  -5.193  1.00 20.00    -0.273 OA
HETATM   11  H23 UNL     1     -34.742  13.511  -6.223  1.00 20.00     0.163 HD
ENDROOT
TORSDOF 0
ENDMDL
MODEL 8
REMARK VINA RESULT:      -4.1     11.506     12.710
REMARK  0 active torsions:
REMARK  status: ('A' for Active; 'I' for Inactive)
ROOT
HETATM    1  C1  UNL     1     -35.558  13.819  -5.316  1.00 20.00     0.223 A 
HETATM    2  C2  UNL     1     -35.733  15.755  -3.641  1.00 20.00     0.027 A 
HETATM    3  C3  UNL     1     -34.964  14.599  -4.208  1.00 20.00     0.089 A 
HETATM    4  C4  UNL     1     -34.695  15.997  -4.725  1.00 20.00    -0.006 A 
HETATM    5  C5  UNL     1     -35.100  15.998  -6.210  1.00 20.00     0.034 A 
HETATM    6  C6  UNL     1     -33.452  16.730  -4.311  1.00 20.00     0.018 C 
HETATM    7  C7  UNL     1     -33.905  16.162  -7.158  1.00 20.00     0.039 C 
HETATM    8  C8  UNL     1     -36.150  17.070  -6.507  1.00 20.00     0.039 C 
HETATM    9  N9  UNL     1     -35.657  14.657  -6.411  1.00 20.00    -0.351 N 
HETATM   10  O10 UNL     1     -35.893  12.650  -5.214  1.00 20.00    -0.273 OA
HETATM   11  H23 UNL     1     -36.043  14.351  -7.299  1.00 20.00     0.163 HD
ENDROOT
TORSDOF 0
ENDMDL
MODEL 9
REMARK VINA RESULT:      -4.0     11.517     12.735
REMARK  0 active torsions:
REMARK  status: ('A' for Active; 'I' for Inactive)
ROOT
HETATM    1  C1  UNL     1     -35.146  13.315  -6.340  1.00 20.00     0.223 A 
HETATM    2  C2  UNL     1     -33.757  15.428  -6.775  1.00 20.00     0.027 A 
HETATM    3  C3  UNL     1     -34.963  14.589  -7.070  1.00 20.00     0.089 A 
HETATM    4  C4  UNL     1     -35.069  15.714  -6.062  1.00 20.00    -0.006 A 
HETATM    5  C5  UNL     1     -35.383  15.056  -4.706  1.00 20.00     0.034 A 
HETATM    6  C6  UNL     1     -35.766  16.994  -6.427  1.00 20.00     0.018 C 
HETATM    7  C7  UNL     1     -36.789  15.387  -4.190  1.00 20.00     0.039 C 
HETATM    8  C8  UNL     1     -34.341  15.424  -3.648  1.00 20.00     0.039 C 
HETATM    9  N9  UNL     1     -35.335  13.623  -5.005  1.00 20.00    -0.351 N 
HETATM   10  O10 UNL     1     -35.111  12.219  -6.876  1.00 20.00    -0.273 OA
HETATM   11  H23 UNL     1     -35.477  12.910  -4.296  1.00 20.00     0.163 HD
ENDROOT
TORSDOF 0
ENDMDL
