MODEL 1
REMARK VINA RESULT:      -4.0      0.000      0.000
REMARK  0 active torsions:
REMARK  status: ('A' for Active; 'I' for Inactive)
ROOT
HETATM    1  C1  UNL     1     -33.864   4.500   4.736  1.00 20.00     0.005 C 
HETATM    2  C2  UNL     1     -33.565   4.665   3.240  1.00 20.00     0.008 C 
HETATM    3  C3  UNL     1     -35.489   5.933   3.753  1.00 20.00     0.012 C 
HETATM    4  C4  UNL     1     -33.791   6.982   5.081  1.00 20.00     0.047 C 
HETATM    5  C5  UNL     1     -34.712   5.742   5.056  1.00 20.00    -0.011 C 
HETATM    6  C6  UNL     1     -34.214   6.025   2.902  1.00 20.00     0.025 C 
HETATM    7  C7  UNL     1     -33.468   7.202   3.585  1.00 20.00     0.117 C 
HETATM    8 CL8  UNL     1     -31.716   7.223   3.270  1.00 20.00    -0.101 Cl
HETATM    9 CL9  UNL     1     -34.139   8.773   3.025  1.00 20.00    -0.101 Cl
ENDROOT
TORSDOF 0
ENDMDL
MODEL 2
REMARK VINA RESULT:      -3.8     11.751     12.782
REMARK  0 active torsions:
REMARK  status: ('A' for Active; 'I' for Inactive)
ROOT
HETATM    1  C1  UNL     1     -34.617  16.045  -2.982  1.00 20.00     0.005 C 
HETATM    2  C2  UNL     1     -35.767  16.239  -3.979  1.00 20.00     0.008 C 
HETATM    3  C3  UNL     1     -33.733  16.619  -5.115  1.00 20.00     0.012 C 
HETATM    4  C4  UNL     1     -33.555  14.320  -4.458  1.00 20.00     0.047 C 
HETATM    5  C5  UNL     1     -33.416  15.752  -3.896  1.00 20.00    -0.011 C 
HETATM    6  C6  UNL     1     -35.100  15.955  -5.342  1.00 20.00     0.025 C 
HETATM    7  C7  UNL     1     -34.700  14.462  -5.486  1.00 20.00     0.117 C 
HETATM    8 CL8  UNL     1     -36.035  13.327  -5.169  1.00 20.00    -0.101 Cl
HETATM    9 CL9  UNL     1     -34.096  14.138  -7.147  1.00 20.00    -0.101 Cl
ENDROOT
TORSDOF 0
ENDMDL
MODEL 3
REMARK VINA RESULT:      -3.8     11.972     13.058
REMARK  0 active torsions:
REMARK  status: ('A' for Active; 'I' for Inactive)
ROOT
HETATM    1  C1  UNL     1     -34.469  15.869  -3.361  1.00 20.00     0.005 C 
HETATM    2  C2  UNL     1     -33.644  16.691  -4.359  1.00 20.00     0.008 C 
HETATM    3  C3  UNL     1     -32.990  14.431  -4.546  1.00 20.00     0.012 C 
HETATM    4  C4  UNL     1     -35.297  14.374  -5.195  1.00 20.00     0.047 C 
HETATM    5  C5  UNL     1     -34.395  14.447  -3.943  1.00 20.00    -0.011 C 
HETATM    6  C6  UNL     1     -33.261  15.653  -5.436  1.00 20.00     0.025 C 
HETATM    7  C7  UNL     1     -34.499  15.181  -6.244  1.00 20.00     0.117 C 
HETATM    8 CL8  UNL     1     -35.455  16.514  -6.938  1.00 20.00    -0.101 Cl
HETATM    9 CL9  UNL     1     -33.989  14.117  -7.599  1.00 20.00    -0.101 Cl
ENDROOT
TORSDOF 0
ENDMDL
MODEL 4
REMARK VINA RESULT:      -3.8     11.626     12.708
REMARK  0 active torsions:
REMARK  status: ('A' for Active; 'I' for Inactive)
ROOT
HETATM    1  C1  UNL     1     -34.276  14.764  -6.315  1.00 20.00     0.005 C 
HETATM    2  C2  UNL     1     -35.077  14.131  -5.170  1.00 20.00     0.008 C 
HETATM    3  C3  UNL     1     -32.907  14.611  -4.376  1.00 20.00     0.012 C 
HETATM    4  C4  UNL     1     -33.768  16.781  -4.917  1.00 20.00     0.047 C 
HETATM    5  C5  UNL     1     -33.161  15.523  -5.576  1.00 20.00    -0.011 C 
HETATM    6  C6  UNL     1     -34.369  14.669  -3.908  1.00 20.00     0.025 C 
HETATM    7  C7  UNL     1     -34.580  16.197  -3.739  1.00 20.00     0.117 C 
HETATM    8 CL8  UNL     1     -36.289  16.695  -3.786  1.00 20.00    -0.101 Cl
HETATM    9 CL9  UNL     1     -33.897  16.749  -2.171  1.00 20.00    -0.101 Cl
ENDROOT
TORSDOF 0
ENDMDL
MODEL 5
REMARK VINA RESULT:      -3.7     11.773     12.721
REMARK  0 active torsions:
REMARK  status: ('A' for Active; 'I' for Inactive)
ROOT
HETATM    1  C1  UNL     1     -33.050  15.798  -5.055  1.00 20.00     0.005 C 
HETATM    2  C2  UNL     1     -33.260  14.365  -4.548  1.00 20.00     0.008 C 
HETATM    3  C3  UNL     1     -34.913  15.742  -3.576  1.00 20.00     0.012 C 
HETATM    4  C4  UNL     1     -35.402  15.896  -5.917  1.00 20.00     0.047 C 
HETATM    5  C5  UNL     1     -34.431  16.442  -4.847  1.00 20.00    -0.011 C 
HETATM    6  C6  UNL     1     -34.760  14.340  -4.183  1.00 20.00     0.025 C 
HETATM    7  C7  UNL     1     -35.659  14.447  -5.444  1.00 20.00     0.117 C 
HETATM    8 CL8  UNL     1     -35.277  13.248  -6.704  1.00 20.00    -0.101 Cl
HETATM    9 CL9  UNL     1     -37.387  14.232  -4.996  1.00 20.00    -0.101 Cl
ENDROOT
TORSDOF 0
ENDMDL
MODEL 6
REMARK VINA RESULT:      -3.7     11.871     12.984
REMARK  0 active torsions:
REMARK  status: ('A' for Active; 'I' for Inactive)
ROOT
HETATM    1  C1  UNL     1     -33.394  16.894  -4.591  1.00 20.00     0.005 C 
HETATM    2  C2  UNL     1     -33.411  16.288  -6.001  1.00 20.00     0.008 C 
HETATM    3  C3  UNL     1     -33.240  14.524  -4.442  1.00 20.00     0.012 C 
HETATM    4  C4  UNL     1     -35.363  15.501  -3.909  1.00 20.00     0.047 C 
HETATM    5  C5  UNL     1     -33.847  15.720  -3.707  1.00 20.00    -0.011 C 
HETATM    6  C6  UNL     1     -33.949  14.861  -5.762  1.00 20.00     0.025 C 
HETATM    7  C7  UNL     1     -35.437  14.875  -5.321  1.00 20.00     0.117 C 
HETATM    8 CL8  UNL     1     -36.501  15.795  -6.412  1.00 20.00    -0.101 Cl
HETATM    9 CL9  UNL     1     -36.074  13.197  -5.229  1.00 20.00    -0.101 Cl
ENDROOT
TORSDOF 0
ENDMDL
MODEL 7
REMARK VINA RESULT:      -3.7     11.751     12.921
REMARK  0 active torsions:
REMARK  status: ('A' for Active; 'I' for Inactive)
ROOT
HETATM    1  C1  UNL     1     -35.022  16.145  -3.468  1.00 20.00     0.005 C 
HETATM    2  C2  UNL     1     -33.552  15.956  -3.864  1.00 20.00     0.008 C 
HETATM    3  C3  UNL     1     -34.674  13.906  -4.194  1.00 20.00     0.012 C 
HETATM    4  C4  UNL     1     -35.786  15.375  -5.728  1.00 20.00     0.047 C 
HETATM    5  C5  UNL     1     -35.730  15.011  -4.227  1.00 20.00    -0.011 C 
HETATM    6  C6  UNL     1     -33.607  14.783  -4.867  1.00 20.00     0.025 C 
HETATM    7  C7  UNL     1     -34.321  15.187  -6.184  1.00 20.00     0.117 C 
HETATM    8 CL8  UNL     1     -33.657  16.655  -6.940  1.00 20.00    -0.101 Cl
HETATM    9 CL9  UNL     1     -34.206  13.857  -7.387  1.00 20.00    -0.101 Cl
ENDROOT
TORSDOF 0
ENDMDL
MODEL 8
REMARK VINA RESULT:      -3.7      1.379      2.160
REMARK  0 active torsions:
REMARK  status: ('A' for Active; 'I' for Inactive)
ROOT
HETATM    1  C1  UNL     1     -35.515   5.380   4.034  1.00 20.00     0.005 C 
HETATM    2  C2  UNL     1     -34.316   4.935   4.882  1.00 20.00     0.008 C 
HETATM    3  C3  UNL     1     -33.533   5.471   2.721  1.00 20.00     0.012 C 
HETATM    4  C4  UNL     1     -34.401   7.563   3.506  1.00 20.00     0.047 C 
HETATM    5  C5  UNL     1     -34.857   6.209   2.918  1.00 20.00    -0.011 C 
HETATM    6  C6  UNL     1     -33.122   5.631   4.192  1.00 20.00     0.025 C 
HETATM    7  C7  UNL     1     -33.177   7.172   4.365  1.00 20.00     0.117 C 
HETATM    8 CL8  UNL     1     -33.345   7.699   6.058  1.00 20.00    -0.101 Cl
HETATM    9 CL9  UNL     1     -31.683   7.925   3.708  1.00 20.00    -0.101 Cl
ENDROOT
TORSDOF 0
ENDMDL
MODEL 9
REMARK VINA RESULT:      -3.7     11.750     12.794
REMARK  0 active torsions:
REMARK  status: ('A' for Active; 'I' for Inactive)
ROOT
HETATM    1  C1  UNL     1     -34.952  13.546  -7.357  1.00 20.00     0.005 C 
HETATM    2  C2  UNL     1     -34.019  14.755  -7.210  1.00 20.00     0.008 C 
HETATM    3  C3  UNL     1     -36.144  15.355  -6.374  1.00 20.00     0.012 C 
HETATM    4  C4  UNL     1     -35.475  13.583  -4.906  1.00 20.00     0.047 C 
HETATM    5  C5  UNL     1     -36.049  13.830  -6.318  1.00 20.00    -0.011 C 
HETATM    6  C6  UNL     1     -34.655  15.548  -6.048  1.00 20.00     0.025 C 
HETATM    7  C7  UNL     1     -34.531  14.789  -4.700  1.00 20.00     0.117 C 
HETATM    8 CL8  UNL     1     -32.868  14.286  -4.309  1.00 20.00    -0.101 Cl
HETATM    9 CL9  UNL     1     -35.118  15.820  -3.350  1.00 20.00    -0.101 Cl
ENDROOT
TORSDOF 0
ENDMDL
