MODEL 1
REMARK VINA RESULT:      -6.0      0.000      0.000
REMARK  2 active torsions:
REMARK  status: ('A' for Active; 'I' for Inactive)
REMARK    1  A    between atoms: C1_1  and  C7_7 
REMARK       I    between atoms: C1_1  and  N9_9 
REMARK    2  A    between atoms: C7_7  and  C8_8 
ROOT
HETATM    1  C1  UNL     1     -32.459   7.755   3.370  1.00 20.00     0.219 C 
HETATM    2  C2  UNL     1     -34.646   6.203   5.885  1.00 20.00     0.021 C 
HETATM    3  C3  UNL     1     -34.554   5.086   4.853  1.00 20.00     0.021 C 
HETATM    4  C4  UNL     1     -33.447   7.073   5.548  1.00 20.00     0.126 C 
HETATM    5  C5  UNL     1     -34.083   5.814   3.603  1.00 20.00     0.126 C 
HETATM    6  N9  UNL     1     -33.281   6.923   4.109  1.00 20.00    -0.352 N 
HETATM    7  O10 UNL     1     -31.445   8.295   3.814  1.00 20.00    -0.273 OA
ENDROOT
BRANCH   1   8
HETATM    8  C7  UNL     1     -32.874   7.972   1.937  1.00 20.00     0.103 C 
BRANCH   8   9
HETATM    9  C8  UNL     1     -31.929   8.944   1.251  1.00 20.00     0.005 C 
HETATM   10  C6  UNL     1     -32.613  10.238   0.834  1.00 20.00     0.005 C 
ENDBRANCH   8   9
ENDBRANCH   1   8
TORSDOF 2
ENDMDL
MODEL 2
REMARK VINA RESULT:      -5.2      1.291      1.807
REMARK  2 active torsions:
REMARK  status: ('A' for Active; 'I' for Inactive)
REMARK    1  A    between atoms: C1_1  and  C7_7 
REMARK       I    between atoms: C1_1  and  N9_9 
REMARK    2  A    between atoms: C7_7  and  C8_8 
ROOT
HETATM    1  C1  UNL     1     -33.231   6.981   2.773  1.00 20.00     0.219 C 
HETATM    2  C2  UNL     1     -34.426   4.881   5.544  1.00 20.00     0.021 C 
HETATM    3  C3  UNL     1     -34.626   6.274   6.129  1.00 20.00     0.021 C 
HETATM    4  C4  UNL     1     -34.329   5.153   4.052  1.00 20.00     0.126 C 
HETATM    5  C5  UNL     1     -33.728   7.142   5.260  1.00 20.00     0.126 C 
HETATM    6  N9  UNL     1     -33.726   6.476   3.961  1.00 20.00    -0.352 N 
HETATM    7  O10 UNL     1     -33.673   6.689   1.661  1.00 20.00    -0.273 OA
ENDROOT
BRANCH   1   8
HETATM    8  C7  UNL     1     -32.083   7.950   2.907  1.00 20.00     0.103 C 
BRANCH   8   9
HETATM    9  C8  UNL     1     -31.754   8.574   1.562  1.00 20.00     0.005 C 
HETATM   10  C6  UNL     1     -32.507   9.874   1.314  1.00 20.00     0.005 C 
ENDBRANCH   8   9
ENDBRANCH   1   8
TORSDOF 2
ENDMDL
MODEL 3
REMARK VINA RESULT:      -4.6      1.521      4.367
REMARK  2 active torsions:
REMARK  status: ('A' for Active; 'I' for Inactive)
REMARK    1  A    between atoms: C1_1  and  C7_7 
REMARK       I    between atoms: C1_1  and  N9_9 
REMARK    2  A    between atoms: C7_7  and  C8_8 
ROOT
HETATM    1  C1  UNL     1     -33.929   7.023   4.945  1.00 20.00     0.219 C 
HETATM    2  C2  UNL     1     -31.270   8.234   2.714  1.00 20.00     0.021 C 
HETATM    3  C3  UNL     1     -32.507   8.528   1.875  1.00 20.00     0.021 C 
HETATM    4  C4  UNL     1     -31.840   8.085   4.115  1.00 20.00     0.126 C 
HETATM    5  C5  UNL     1     -33.566   7.637   2.505  1.00 20.00     0.126 C 
HETATM    6  N9  UNL     1     -33.176   7.544   3.909  1.00 20.00    -0.352 N 
HETATM    7  O10 UNL     1     -33.849   7.401   6.115  1.00 20.00    -0.273 OA
ENDROOT
BRANCH   1   8
HETATM    8  C7  UNL     1     -34.895   5.931   4.560  1.00 20.00     0.103 C 
BRANCH   8   9
HETATM    9  C8  UNL     1     -34.485   4.611   5.190  1.00 20.00     0.005 C 
HETATM   10  C6  UNL     1     -33.871   3.644   4.188  1.00 20.00     0.005 C 
ENDBRANCH   8   9
ENDBRANCH   1   8
TORSDOF 2
ENDMDL
MODEL 4
REMARK VINA RESULT:      -4.2      1.825      4.547
REMARK  2 active torsions:
REMARK  status: ('A' for Active; 'I' for Inactive)
REMARK    1  A    between atoms: C1_1  and  C7_7 
REMARK       I    between atoms: C1_1  and  N9_9 
REMARK    2  A    between atoms: C7_7  and  C8_8 
ROOT
HETATM    1  C1  UNL     1     -33.533   5.692   2.866  1.00 20.00     0.219 C 
HETATM    2  C2  UNL     1     -31.679   8.833   2.407  1.00 20.00     0.021 C 
HETATM    3  C3  UNL     1     -31.653   8.701   3.925  1.00 20.00     0.021 C 
HETATM    4  C4  UNL     1     -31.996   7.418   1.951  1.00 20.00     0.126 C 
HETATM    5  C5  UNL     1     -32.782   7.719   4.202  1.00 20.00     0.126 C 
HETATM    6  N9  UNL     1     -32.823   6.868   3.016  1.00 20.00    -0.352 N 
HETATM    7  O10 UNL     1     -33.181   4.760   2.140  1.00 20.00    -0.273 OA
ENDROOT
BRANCH   1   8
HETATM    8  C7  UNL     1     -34.806   5.594   3.669  1.00 20.00     0.103 C 
BRANCH   8   9
HETATM    9  C8  UNL     1     -34.687   4.509   4.726  1.00 20.00     0.005 C 
HETATM   10  C6  UNL     1     -34.573   5.070   6.137  1.00 20.00     0.005 C 
ENDBRANCH   8   9
ENDBRANCH   1   8
TORSDOF 2
ENDMDL
MODEL 5
REMARK VINA RESULT:      -4.1     10.901     11.978
REMARK  2 active torsions:
REMARK  status: ('A' for Active; 'I' for Inactive)
REMARK    1  A    between atoms: C1_1  and  C7_7 
REMARK       I    between atoms: C1_1  and  N9_9 
REMARK    2  A    between atoms: C7_7  and  C8_8 
ROOT
HETATM    1  C1  UNL     1     -36.195  13.842  -5.124  1.00 20.00     0.219 C 
HETATM    2  C2  UNL     1     -33.711  15.978  -3.457  1.00 20.00     0.021 C 
HETATM    3  C3  UNL     1     -34.975  16.357  -2.696  1.00 20.00     0.021 C 
HETATM    4  C4  UNL     1     -34.083  14.646  -4.088  1.00 20.00     0.126 C 
HETATM    5  C5  UNL     1     -36.086  15.891  -3.626  1.00 20.00     0.126 C 
HETATM    6  N9  UNL     1     -35.516  14.745  -4.327  1.00 20.00    -0.352 N 
HETATM    7  O10 UNL     1     -35.867  12.663  -5.265  1.00 20.00    -0.273 OA
ENDROOT
BRANCH   1   8
HETATM    8  C7  UNL     1     -37.407  14.387  -5.836  1.00 20.00     0.103 C 
BRANCH   8   9
HETATM    9  C8  UNL     1     -37.032  14.883  -7.222  1.00 20.00     0.005 C 
HETATM   10  C6  UNL     1     -36.847  16.393  -7.278  1.00 20.00     0.005 C 
ENDBRANCH   8   9
ENDBRANCH   1   8
TORSDOF 2
ENDMDL
MODEL 6
REMARK VINA RESULT:      -4.0      1.516      4.835
REMARK  2 active torsions:
REMARK  status: ('A' for Active; 'I' for Inactive)
REMARK    1  A    between atoms: C1_1  and  C7_7 
REMARK       I    between atoms: C1_1  and  N9_9 
REMARK    2  A    between atoms: C7_7  and  C8_8 
ROOT
HETATM    1  C1  UNL     1     -32.854   7.229   2.789  1.00 20.00     0.219 C 
HETATM    2  C2  UNL     1     -32.800   9.586  -0.032  1.00 20.00     0.021 C 
HETATM    3  C3  UNL     1     -32.492  10.521   1.132  1.00 20.00     0.021 C 
HETATM    4  C4  UNL     1     -32.471   8.216   0.540  1.00 20.00     0.126 C 
HETATM    5  C5  UNL     1     -32.967   9.728   2.341  1.00 20.00     0.126 C 
HETATM    6  N9  UNL     1     -32.772   8.332   1.959  1.00 20.00    -0.352 N 
HETATM    7  O10 UNL     1     -32.213   6.190   2.621  1.00 20.00    -0.273 OA
ENDROOT
BRANCH   1   8
HETATM    8  C7  UNL     1     -33.795   7.364   3.959  1.00 20.00     0.103 C 
BRANCH   8   9
HETATM    9  C8  UNL     1     -34.672   6.129   4.080  1.00 20.00     0.005 C 
HETATM   10  C6  UNL     1     -34.622   5.503   5.467  1.00 20.00     0.005 C 
ENDBRANCH   8   9
ENDBRANCH   1   8
TORSDOF 2
ENDMDL
MODEL 7
REMARK VINA RESULT:      -3.9     11.089     12.524
REMARK  2 active torsions:
REMARK  status: ('A' for Active; 'I' for Inactive)
REMARK    1  A    between atoms: C1_1  and  C7_7 
REMARK       I    between atoms: C1_1  and  N9_9 
REMARK    2  A    between atoms: C7_7  and  C8_8 
ROOT
HETATM    1  C1  UNL     1     -34.142  14.751  -4.407  1.00 20.00     0.219 C 
HETATM    2  C2  UNL     1     -35.456  15.405  -7.778  1.00 20.00     0.021 C 
HETATM    3  C3  UNL     1     -34.059  16.001  -7.892  1.00 20.00     0.021 C 
HETATM    4  C4  UNL     1     -35.334  14.486  -6.573  1.00 20.00     0.126 C 
HETATM    5  C5  UNL     1     -33.652  16.197  -6.439  1.00 20.00     0.126 C 
HETATM    6  N9  UNL     1     -34.348  15.134  -5.720  1.00 20.00    -0.352 N 
HETATM    7  O10 UNL     1     -34.313  13.605  -3.987  1.00 20.00    -0.273 OA
ENDROOT
BRANCH   1   8
HETATM    8  C7  UNL     1     -33.675  15.842  -3.478  1.00 20.00     0.103 C 
BRANCH   8   9
HETATM    9  C8  UNL     1     -34.830  16.352  -2.632  1.00 20.00     0.005 C 
HETATM   10  C6  UNL     1     -34.367  17.129  -1.408  1.00 20.00     0.005 C 
ENDBRANCH   8   9
ENDBRANCH   1   8
TORSDOF 2
ENDMDL
MODEL 8
REMARK VINA RESULT:      -3.8     10.974     12.029
REMARK  2 active torsions:
REMARK  status: ('A' for Active; 'I' for Inactive)
REMARK    1  A    between atoms: C1_1  and  C7_7 
REMARK       I    between atoms: C1_1  and  N9_9 
REMARK    2  A    between atoms: C7_7  and  C8_8 
ROOT
HETATM    1  C1  UNL     1     -34.594  14.659  -4.224  1.00 20.00     0.219 C 
HETATM    2  C2  UNL     1     -37.796  14.835  -6.022  1.00 20.00     0.021 C 
HETATM    3  C3  UNL     1     -36.948  15.796  -6.846  1.00 20.00     0.021 C 
HETATM    4  C4  UNL     1     -36.752  14.017  -5.278  1.00 20.00     0.126 C 
HETATM    5  C5  UNL     1     -35.802  16.134  -5.904  1.00 20.00     0.126 C 
HETATM    6  N9  UNL     1     -35.640  14.936  -5.085  1.00 20.00    -0.352 N 
HETATM    7  O10 UNL     1     -34.196  13.522  -3.964  1.00 20.00    -0.273 OA
ENDROOT
BRANCH   1   8
HETATM    8  C7  UNL     1     -33.933  15.860  -3.596  1.00 20.00     0.103 C 
BRANCH   8   9
HETATM    9  C8  UNL     1     -34.784  16.403  -2.460  1.00 20.00     0.005 C 
HETATM   10  C6  UNL     1     -33.984  17.236  -1.469  1.00 20.00     0.005 C 
ENDBRANCH   8   9
ENDBRANCH   1   8
TORSDOF 2
ENDMDL
MODEL 9
REMARK VINA RESULT:      -3.8     11.479     12.328
REMARK  2 active torsions:
REMARK  status: ('A' for Active; 'I' for Inactive)
REMARK    1  A    between atoms: C1_1  and  C7_7 
REMARK       I    between atoms: C1_1  and  N9_9 
REMARK    2  A    between atoms: C7_7  and  C8_8 
ROOT
HETATM    1  C1  UNL     1     -33.850  16.147  -4.867  1.00 20.00     0.219 C 
HETATM    2  C2  UNL     1     -34.342  13.760  -7.621  1.00 20.00     0.021 C 
HETATM    3  C3  UNL     1     -35.542  13.438  -6.740  1.00 20.00     0.021 C 
HETATM    4  C4  UNL     1     -33.934  15.144  -7.141  1.00 20.00     0.126 C 
HETATM    5  C5  UNL     1     -35.147  14.025  -5.394  1.00 20.00     0.126 C 
HETATM    6  N9  UNL     1     -34.292  15.160  -5.730  1.00 20.00    -0.352 N 
HETATM    7  O10 UNL     1     -33.605  17.305  -5.210  1.00 20.00    -0.273 OA
ENDROOT
BRANCH   1   8
HETATM    8  C7  UNL     1     -33.680  15.724  -3.430  1.00 20.00     0.103 C 
BRANCH   8   9
HETATM    9  C8  UNL     1     -34.556  16.569  -2.520  1.00 20.00     0.005 C 
HETATM   10  C6  UNL     1     -33.756  17.347  -1.485  1.00 20.00     0.005 C 
ENDBRANCH   8   9
ENDBRANCH   1   8
TORSDOF 2
ENDMDL
