MODEL 1
REMARK VINA RESULT:      -5.3      0.000      0.000
REMARK  2 active torsions:
REMARK  status: ('A' for Active; 'I' for Inactive)
REMARK    1  A    between atoms: C5_5  and  C9_9 
REMARK    2  A    between atoms: C9_9  and  O10_10 
ROOT
HETATM    1  C1  UNL     1     -31.968   8.409   3.347  1.00 20.00    -0.024 C 
HETATM    2  C2  UNL     1     -32.456   8.090   2.142  1.00 20.00    -0.087 C 
HETATM    3  C3  UNL     1     -32.504   7.515   4.416  1.00 20.00     0.035 C 
HETATM    4  C4  UNL     1     -33.396   6.928   2.218  1.00 20.00     0.041 C 
HETATM    5  C5  UNL     1     -33.097   6.353   3.611  1.00 20.00     0.026 C 
HETATM    6  C6  UNL     1     -32.181   8.779   0.855  1.00 20.00     0.043 C 
ENDROOT
BRANCH   5   7
HETATM    7  C9  UNL     1     -34.314   5.727   4.272  1.00 20.00     0.055 C 
HETATM    8  C7  UNL     1     -34.499   6.264   5.693  1.00 20.00     0.045 C 
HETATM    9  C8  UNL     1     -34.208   4.200   4.292  1.00 20.00     0.045 C 
BRANCH   7  10
HETATM   10  O10 UNL     1     -35.481   6.087   3.527  1.00 20.00    -0.390 OA
HETATM   11  H26 UNL     1     -36.238   5.873   4.091  1.00 20.00     0.210 HD
ENDBRANCH   7  10
ENDBRANCH   5   7
TORSDOF 2
ENDMDL
MODEL 2
REMARK VINA RESULT:      -4.9      1.560      4.005
REMARK  2 active torsions:
REMARK  status: ('A' for Active; 'I' for Inactive)
REMARK    1  A    between atoms: C5_5  and  C9_9 
REMARK    2  A    between atoms: C9_9  and  O10_10 
ROOT
HETATM    1  C1  UNL     1     -33.956   6.792   5.865  1.00 20.00    -0.024 C 
HETATM    2  C2  UNL     1     -34.300   5.790   5.046  1.00 20.00    -0.087 C 
HETATM    3  C3  UNL     1     -33.250   7.887   5.136  1.00 20.00     0.035 C 
HETATM    4  C4  UNL     1     -33.879   6.063   3.636  1.00 20.00     0.041 C 
HETATM    5  C5  UNL     1     -33.566   7.566   3.670  1.00 20.00     0.026 C 
HETATM    6  C6  UNL     1     -34.977   4.522   5.419  1.00 20.00     0.043 C 
ENDROOT
BRANCH   5   7
HETATM    7  C9  UNL     1     -32.451   7.966   2.717  1.00 20.00     0.055 C 
HETATM    8  C7  UNL     1     -31.200   8.388   3.489  1.00 20.00     0.045 C 
HETATM    9  C8  UNL     1     -32.901   9.091   1.780  1.00 20.00     0.045 C 
BRANCH   7  10
HETATM   10  O10 UNL     1     -32.096   6.832   1.920  1.00 20.00    -0.390 OA
HETATM   11  H26 UNL     1     -32.919   6.351   1.752  1.00 20.00     0.210 HD
ENDBRANCH   7  10
ENDBRANCH   5   7
TORSDOF 2
ENDMDL
MODEL 3
REMARK VINA RESULT:      -4.6     11.223     11.847
REMARK  2 active torsions:
REMARK  status: ('A' for Active; 'I' for Inactive)
REMARK    1  A    between atoms: C5_5  and  C9_9 
REMARK    2  A    between atoms: C9_9  and  O10_10 
ROOT
HETATM    1  C1  UNL     1     -33.717  15.565  -3.468  1.00 20.00    -0.024 C 
HETATM    2  C2  UNL     1     -34.816  16.081  -2.902  1.00 20.00    -0.087 C 
HETATM    3  C3  UNL     1     -34.048  14.738  -4.666  1.00 20.00     0.035 C 
HETATM    4  C4  UNL     1     -36.055  15.679  -3.639  1.00 20.00     0.041 C 
HETATM    5  C5  UNL     1     -35.493  15.152  -4.967  1.00 20.00     0.026 C 
HETATM    6  C6  UNL     1     -34.882  16.919  -1.678  1.00 20.00     0.043 C 
ENDROOT
BRANCH   5   7
HETATM    7  C9  UNL     1     -36.325  14.029  -5.563  1.00 20.00     0.055 C 
HETATM    8  C7  UNL     1     -36.076  13.905  -7.068  1.00 20.00     0.045 C 
HETATM    9  C8  UNL     1     -37.817  14.239  -5.289  1.00 20.00     0.045 C 
BRANCH   7  10
HETATM   10  O10 UNL     1     -35.928  12.792  -4.965  1.00 20.00    -0.390 OA
HETATM   11  H26 UNL     1     -35.017  12.633  -5.250  1.00 20.00     0.210 HD
ENDBRANCH   7  10
ENDBRANCH   5   7
TORSDOF 2
ENDMDL
MODEL 4
REMARK VINA RESULT:      -4.6     11.245     11.896
REMARK  2 active torsions:
REMARK  status: ('A' for Active; 'I' for Inactive)
REMARK    1  A    between atoms: C5_5  and  C9_9 
REMARK    2  A    between atoms: C9_9  and  O10_10 
ROOT
HETATM    1  C1  UNL     1     -35.420  16.642  -2.420  1.00 20.00    -0.024 C 
HETATM    2  C2  UNL     1     -34.086  16.730  -2.497  1.00 20.00    -0.087 C 
HETATM    3  C3  UNL     1     -35.971  15.686  -3.426  1.00 20.00     0.035 C 
HETATM    4  C4  UNL     1     -33.536  15.839  -3.568  1.00 20.00     0.041 C 
HETATM    5  C5  UNL     1     -34.723  14.911  -3.866  1.00 20.00     0.026 C 
HETATM    6  C6  UNL     1     -33.199  17.604  -1.688  1.00 20.00     0.043 C 
ENDROOT
BRANCH   5   7
HETATM    7  C9  UNL     1     -34.780  14.462  -5.317  1.00 20.00     0.055 C 
HETATM    8  C7  UNL     1     -34.916  15.664  -6.255  1.00 20.00     0.045 C 
HETATM    9  C8  UNL     1     -35.929  13.477  -5.548  1.00 20.00     0.045 C 
BRANCH   7  10
HETATM   10  O10 UNL     1     -33.552  13.805  -5.646  1.00 20.00    -0.390 OA
HETATM   11  H26 UNL     1     -33.731  12.855  -5.592  1.00 20.00     0.210 HD
ENDBRANCH   7  10
ENDBRANCH   5   7
TORSDOF 2
ENDMDL
MODEL 5
REMARK VINA RESULT:      -4.6      1.040      1.724
REMARK  2 active torsions:
REMARK  status: ('A' for Active; 'I' for Inactive)
REMARK    1  A    between atoms: C5_5  and  C9_9 
REMARK    2  A    between atoms: C9_9  and  O10_10 
ROOT
HETATM    1  C1  UNL     1     -32.445   7.143   2.228  1.00 20.00    -0.024 C 
HETATM    2  C2  UNL     1     -32.188   7.780   3.378  1.00 20.00    -0.087 C 
HETATM    3  C3  UNL     1     -33.539   6.139   2.383  1.00 20.00     0.035 C 
HETATM    4  C4  UNL     1     -33.077   7.301   4.483  1.00 20.00     0.041 C 
HETATM    5  C5  UNL     1     -34.174   6.544   3.720  1.00 20.00     0.026 C 
HETATM    6  C6  UNL     1     -31.146   8.810   3.616  1.00 20.00     0.043 C 
ENDROOT
BRANCH   5   7
HETATM    7  C9  UNL     1     -34.736   5.364   4.496  1.00 20.00     0.055 C 
HETATM    8  C7  UNL     1     -34.659   5.618   6.003  1.00 20.00     0.045 C 
HETATM    9  C8  UNL     1     -34.003   4.067   4.139  1.00 20.00     0.045 C 
BRANCH   7  10
HETATM   10  O10 UNL     1     -36.117   5.206   4.162  1.00 20.00    -0.390 OA
HETATM   11  H26 UNL     1     -36.139   4.741   3.313  1.00 20.00     0.210 HD
ENDBRANCH   7  10
ENDBRANCH   5   7
TORSDOF 2
ENDMDL
MODEL 6
REMARK VINA RESULT:      -4.5      1.721      4.009
REMARK  2 active torsions:
REMARK  status: ('A' for Active; 'I' for Inactive)
REMARK    1  A    between atoms: C5_5  and  C9_9 
REMARK    2  A    between atoms: C9_9  and  O10_10 
ROOT
HETATM    1  C1  UNL     1     -33.952   6.776   5.937  1.00 20.00    -0.024 C 
HETATM    2  C2  UNL     1     -34.319   5.780   5.122  1.00 20.00    -0.087 C 
HETATM    3  C3  UNL     1     -33.286   7.885   5.192  1.00 20.00     0.035 C 
HETATM    4  C4  UNL     1     -33.957   6.071   3.699  1.00 20.00     0.041 C 
HETATM    5  C5  UNL     1     -33.657   7.577   3.737  1.00 20.00     0.026 C 
HETATM    6  C6  UNL     1     -34.969   4.501   5.508  1.00 20.00     0.043 C 
ENDROOT
BRANCH   5   7
HETATM    7  C9  UNL     1     -32.584   7.997   2.744  1.00 20.00     0.055 C 
HETATM    8  C7  UNL     1     -32.329   6.891   1.718  1.00 20.00     0.045 C 
HETATM    9  C8  UNL     1     -31.282   8.367   3.461  1.00 20.00     0.045 C 
BRANCH   7  10
HETATM   10  O10 UNL     1     -33.043   9.145   2.026  1.00 20.00    -0.390 OA
HETATM   11  H26 UNL     1     -33.524   8.808   1.256  1.00 20.00     0.210 HD
ENDBRANCH   7  10
ENDBRANCH   5   7
TORSDOF 2
ENDMDL
MODEL 7
REMARK VINA RESULT:      -4.4     11.351     11.718
REMARK  2 active torsions:
REMARK  status: ('A' for Active; 'I' for Inactive)
REMARK    1  A    between atoms: C5_5  and  C9_9 
REMARK    2  A    between atoms: C9_9  and  O10_10 
ROOT
HETATM    1  C1  UNL     1     -33.674  16.628  -2.627  1.00 20.00    -0.024 C 
HETATM    2  C2  UNL     1     -34.925  16.643  -2.151  1.00 20.00    -0.087 C 
HETATM    3  C3  UNL     1     -33.566  15.817  -3.876  1.00 20.00     0.035 C 
HETATM    4  C4  UNL     1     -35.852  15.844  -3.014  1.00 20.00     0.041 C 
HETATM    5  C5  UNL     1     -35.031  15.663  -4.299  1.00 20.00     0.026 C 
HETATM    6  C6  UNL     1     -35.403  17.309  -0.912  1.00 20.00     0.043 C 
ENDROOT
BRANCH   5   7
HETATM    7  C9  UNL     1     -35.314  14.347  -5.006  1.00 20.00     0.055 C 
HETATM    8  C7  UNL     1     -34.565  14.273  -6.339  1.00 20.00     0.045 C 
HETATM    9  C8  UNL     1     -36.816  14.151  -5.231  1.00 20.00     0.045 C 
BRANCH   7  10
HETATM   10  O10 UNL     1     -34.838  13.272  -4.191  1.00 20.00    -0.390 OA
HETATM   11  H26 UNL     1     -34.411  12.645  -4.792  1.00 20.00     0.210 HD
ENDBRANCH   7  10
ENDBRANCH   5   7
TORSDOF 2
ENDMDL
MODEL 8
REMARK VINA RESULT:      -4.4     11.404     12.088
REMARK  2 active torsions:
REMARK  status: ('A' for Active; 'I' for Inactive)
REMARK    1  A    between atoms: C5_5  and  C9_9 
REMARK    2  A    between atoms: C9_9  and  O10_10 
ROOT
HETATM    1  C1  UNL     1     -34.550  17.976  -0.107  1.00 20.00    -0.024 C 
HETATM    2  C2  UNL     1     -33.370  18.002  -0.739  1.00 20.00    -0.087 C 
HETATM    3  C3  UNL     1     -35.595  17.275  -0.911  1.00 20.00     0.035 C 
HETATM    4  C4  UNL     1     -33.443  17.317  -2.068  1.00 20.00     0.041 C 
HETATM    5  C5  UNL     1     -34.761  16.536  -1.965  1.00 20.00     0.026 C 
HETATM    6  C6  UNL     1     -32.116  18.643  -0.267  1.00 20.00     0.043 C 
ENDROOT
BRANCH   5   7
HETATM    7  C9  UNL     1     -35.476  16.394  -3.300  1.00 20.00     0.055 C 
HETATM    8  C7  UNL     1     -34.996  15.146  -4.044  1.00 20.00     0.045 C 
HETATM    9  C8  UNL     1     -35.278  17.639  -4.169  1.00 20.00     0.045 C 
BRANCH   7  10
HETATM   10  O10 UNL     1     -36.877  16.232  -3.059  1.00 20.00    -0.390 OA
HETATM   11  H26 UNL     1     -37.306  17.021  -3.419  1.00 20.00     0.210 HD
ENDBRANCH   7  10
ENDBRANCH   5   7
TORSDOF 2
ENDMDL
MODEL 9
REMARK VINA RESULT:      -4.4      2.164      4.362
REMARK  2 active torsions:
REMARK  status: ('A' for Active; 'I' for Inactive)
REMARK    1  A    between atoms: C5_5  and  C9_9 
REMARK    2  A    between atoms: C9_9  and  O10_10 
ROOT
HETATM    1  C1  UNL     1     -33.971   6.415   3.473  1.00 20.00    -0.024 C 
HETATM    2  C2  UNL     1     -33.437   7.256   4.367  1.00 20.00    -0.087 C 
HETATM    3  C3  UNL     1     -33.569   6.761   2.077  1.00 20.00     0.035 C 
HETATM    4  C4  UNL     1     -32.590   8.298   3.706  1.00 20.00     0.041 C 
HETATM    5  C5  UNL     1     -32.389   7.715   2.299  1.00 20.00     0.026 C 
HETATM    6  C6  UNL     1     -33.644   7.248   5.838  1.00 20.00     0.043 C 
ENDROOT
BRANCH   5   7
HETATM    7  C9  UNL     1     -32.272   8.782   1.223  1.00 20.00     0.055 C 
HETATM    8  C7  UNL     1     -32.432  10.181   1.822  1.00 20.00     0.045 C 
HETATM    9  C8  UNL     1     -33.301   8.561   0.110  1.00 20.00     0.045 C 
BRANCH   7  10
HETATM   10  O10 UNL     1     -30.965   8.715   0.645  1.00 20.00    -0.390 OA
HETATM   11  H26 UNL     1     -30.946   9.378  -0.060  1.00 20.00     0.210 HD
ENDBRANCH   7  10
ENDBRANCH   5   7
TORSDOF 2
ENDMDL
