MODEL 1
REMARK VINA RESULT:      -4.2      0.000      0.000
REMARK  1 active torsions:
REMARK  status: ('A' for Active; 'I' for Inactive)
REMARK    1  A    between atoms: C1_1  and  O7_7 
ROOT
HETATM    1  C1  UNL     1     -33.710   6.274   3.240  1.00 20.00     0.294 A 
HETATM    2  C2  UNL     1     -34.278   5.575   4.457  1.00 20.00     0.106 A 
HETATM    3  C3  UNL     1     -34.302   4.079   4.488  1.00 20.00     0.051 C 
HETATM    4  C4  UNL     1     -34.357   6.276   5.777  1.00 20.00     0.051 C 
HETATM    5  O6  UNL     1     -35.124   6.147   3.450  1.00 20.00    -0.343 OA
ENDROOT
BRANCH   1   6
HETATM    6  O7  UNL     1     -33.163   7.588   3.429  1.00 20.00    -0.363 OA
HETATM    7  C5  UNL     1     -32.462   8.016   2.275  1.00 20.00     0.204 C 
ENDBRANCH   1   6
TORSDOF 1
ENDMDL
MODEL 2
REMARK VINA RESULT:      -3.7      1.666      2.094
REMARK  1 active torsions:
REMARK  status: ('A' for Active; 'I' for Inactive)
REMARK    1  A    between atoms: C1_1  and  O7_7 
ROOT
HETATM    1  C1  UNL     1     -33.326   7.598   3.078  1.00 20.00     0.294 A 
HETATM    2  C2  UNL     1     -33.764   6.178   3.369  1.00 20.00     0.106 A 
HETATM    3  C3  UNL     1     -35.175   5.930   3.802  1.00 20.00     0.051 C 
HETATM    4  C4  UNL     1     -33.023   5.013   2.793  1.00 20.00     0.051 C 
HETATM    5  O6  UNL     1     -32.996   6.940   4.311  1.00 20.00    -0.343 OA
ENDROOT
BRANCH   1   6
HETATM    6  O7  UNL     1     -32.243   7.778   2.154  1.00 20.00    -0.363 OA
HETATM    7  C5  UNL     1     -32.271   9.075   1.585  1.00 20.00     0.204 C 
ENDBRANCH   1   6
TORSDOF 1
ENDMDL
MODEL 3
REMARK VINA RESULT:      -3.7      2.512      4.930
REMARK  1 active torsions:
REMARK  status: ('A' for Active; 'I' for Inactive)
REMARK    1  A    between atoms: C1_1  and  O7_7 
ROOT
HETATM    1  C1  UNL     1     -32.254   8.161   1.547  1.00 20.00     0.294 A 
HETATM    2  C2  UNL     1     -32.519   9.430   0.764  1.00 20.00     0.106 A 
HETATM    3  C3  UNL     1     -33.224   9.334  -0.552  1.00 20.00     0.051 C 
HETATM    4  C4  UNL     1     -32.548  10.761   1.447  1.00 20.00     0.051 C 
HETATM    5  O6  UNL     1     -31.229   8.806   0.776  1.00 20.00    -0.343 OA
ENDROOT
BRANCH   1   6
HETATM    6  O7  UNL     1     -32.133   8.278   2.973  1.00 20.00    -0.363 OA
HETATM    7  C5  UNL     1     -32.935   7.313   3.631  1.00 20.00     0.204 C 
ENDBRANCH   1   6
TORSDOF 1
ENDMDL
MODEL 4
REMARK VINA RESULT:      -3.6      1.376      3.521
REMARK  1 active torsions:
REMARK  status: ('A' for Active; 'I' for Inactive)
REMARK    1  A    between atoms: C1_1  and  O7_7 
ROOT
HETATM    1  C1  UNL     1     -33.705   7.147   3.486  1.00 20.00     0.294 A 
HETATM    2  C2  UNL     1     -32.489   7.819   2.885  1.00 20.00     0.106 A 
HETATM    3  C3  UNL     1     -32.621   8.504   1.561  1.00 20.00     0.051 C 
HETATM    4  C4  UNL     1     -31.339   8.235   3.746  1.00 20.00     0.051 C 
HETATM    5  O6  UNL     1     -32.676   6.398   2.822  1.00 20.00    -0.343 OA
ENDROOT
BRANCH   1   6
HETATM    6  O7  UNL     1     -33.750   7.019   4.916  1.00 20.00    -0.363 OA
HETATM    7  C5  UNL     1     -34.502   5.883   5.300  1.00 20.00     0.204 C 
ENDBRANCH   1   6
TORSDOF 1
ENDMDL
MODEL 5
REMARK VINA RESULT:      -3.6      1.610      2.256
REMARK  1 active torsions:
REMARK  status: ('A' for Active; 'I' for Inactive)
REMARK    1  A    between atoms: C1_1  and  O7_7 
ROOT
HETATM    1  C1  UNL     1     -34.095   6.631   4.010  1.00 20.00     0.294 A 
HETATM    2  C2  UNL     1     -33.969   5.181   3.596  1.00 20.00     0.106 A 
HETATM    3  C3  UNL     1     -33.078   4.831   2.445  1.00 20.00     0.051 C 
HETATM    4  C4  UNL     1     -34.294   4.078   4.553  1.00 20.00     0.051 C 
HETATM    5  O6  UNL     1     -35.104   5.976   3.227  1.00 20.00    -0.343 OA
ENDROOT
BRANCH   1   6
HETATM    6  O7  UNL     1     -34.438   6.900   5.378  1.00 20.00    -0.363 OA
HETATM    7  C5  UNL     1     -33.388   7.580   6.041  1.00 20.00     0.204 C 
ENDBRANCH   1   6
TORSDOF 1
ENDMDL
MODEL 6
REMARK VINA RESULT:      -3.6      2.116      2.882
REMARK  1 active torsions:
REMARK  status: ('A' for Active; 'I' for Inactive)
REMARK    1  A    between atoms: C1_1  and  O7_7 
ROOT
HETATM    1  C1  UNL     1     -32.657   8.488   2.765  1.00 20.00     0.294 A 
HETATM    2  C2  UNL     1     -33.014   7.198   3.471  1.00 20.00     0.106 A 
HETATM    3  C3  UNL     1     -33.674   7.265   4.813  1.00 20.00     0.051 C 
HETATM    4  C4  UNL     1     -33.177   5.923   2.705  1.00 20.00     0.051 C 
HETATM    5  O6  UNL     1     -31.674   7.708   3.460  1.00 20.00    -0.343 OA
ENDROOT
BRANCH   1   6
HETATM    6  O7  UNL     1     -32.584   8.458   1.331  1.00 20.00    -0.363 OA
HETATM    7  C5  UNL     1     -32.586   9.768   0.795  1.00 20.00     0.204 C 
ENDBRANCH   1   6
TORSDOF 1
ENDMDL
MODEL 7
REMARK VINA RESULT:      -3.5     11.582     12.473
REMARK  1 active torsions:
REMARK  status: ('A' for Active; 'I' for Inactive)
REMARK    1  A    between atoms: C1_1  and  O7_7 
ROOT
HETATM    1  C1  UNL     1     -36.725  13.756  -5.638  1.00 20.00     0.294 A 
HETATM    2  C2  UNL     1     -35.247  13.970  -5.387  1.00 20.00     0.106 A 
HETATM    3  C3  UNL     1     -34.328  14.120  -6.558  1.00 20.00     0.051 C 
HETATM    4  C4  UNL     1     -34.761  14.507  -4.078  1.00 20.00     0.051 C 
HETATM    5  O6  UNL     1     -35.851  12.673  -5.288  1.00 20.00    -0.343 OA
ENDROOT
BRANCH   1   6
HETATM    6  O7  UNL     1     -37.637  14.183  -4.614  1.00 20.00    -0.363 OA
HETATM    7  C5  UNL     1     -38.794  14.774  -5.179  1.00 20.00     0.204 C 
ENDBRANCH   1   6
TORSDOF 1
ENDMDL
MODEL 8
REMARK VINA RESULT:      -3.4     11.652     12.415
REMARK  1 active torsions:
REMARK  status: ('A' for Active; 'I' for Inactive)
REMARK    1  A    between atoms: C1_1  and  O7_7 
ROOT
HETATM    1  C1  UNL     1     -35.229  13.929  -4.793  1.00 20.00     0.294 A 
HETATM    2  C2  UNL     1     -35.780  13.732  -6.189  1.00 20.00     0.106 A 
HETATM    3  C3  UNL     1     -37.049  14.428  -6.571  1.00 20.00     0.051 C 
HETATM    4  C4  UNL     1     -34.892  13.290  -7.309  1.00 20.00     0.051 C 
HETATM    5  O6  UNL     1     -35.949  12.743  -5.164  1.00 20.00    -0.343 OA
ENDROOT
BRANCH   1   6
HETATM    6  O7  UNL     1     -33.813  13.772  -4.613  1.00 20.00    -0.363 OA
HETATM    7  C5  UNL     1     -33.209  15.001  -4.250  1.00 20.00     0.204 C 
ENDBRANCH   1   6
TORSDOF 1
ENDMDL
MODEL 9
REMARK VINA RESULT:      -3.3      1.349      3.297
REMARK  1 active torsions:
REMARK  status: ('A' for Active; 'I' for Inactive)
REMARK    1  A    between atoms: C1_1  and  O7_7 
ROOT
HETATM    1  C1  UNL     1     -34.559   6.167   3.957  1.00 20.00     0.294 A 
HETATM    2  C2  UNL     1     -33.444   6.086   2.936  1.00 20.00     0.106 A 
HETATM    3  C3  UNL     1     -32.604   7.298   2.683  1.00 20.00     0.051 C 
HETATM    4  C4  UNL     1     -32.856   4.767   2.546  1.00 20.00     0.051 C 
HETATM    5  O6  UNL     1     -34.816   6.241   2.547  1.00 20.00    -0.343 OA
ENDROOT
BRANCH   1   6
HETATM    6  O7  UNL     1     -34.953   4.947   4.604  1.00 20.00    -0.363 OA
HETATM    7  C5  UNL     1     -34.608   4.966   5.977  1.00 20.00     0.204 C 
ENDBRANCH   1   6
TORSDOF 1
ENDMDL
