MODEL 1
REMARK VINA RESULT:      -4.6      0.000      0.000
REMARK  2 active torsions:
REMARK  status: ('A' for Active; 'I' for Inactive)
REMARK    1  A    between atoms: C1_1  and  C3_3 
REMARK    2  A    between atoms: C2_2  and  C5_5 
ROOT
HETATM    1  C1  UNL     1     -33.101   7.083   3.712  1.00 20.00     0.003 C 
HETATM    2  C2  UNL     1     -33.889   6.082   3.301  1.00 20.00     0.041 C 
ENDROOT
BRANCH   1   3
HETATM    3  C3  UNL     1     -32.241   7.820   2.813  1.00 20.00    -0.004 C 
HETATM    4  C4  UNL     1     -32.687   8.418   1.698  1.00 20.00    -0.031 C 
HETATM    5  C6  UNL     1     -31.809   9.181   0.761  1.00 20.00     0.036 C 
ENDBRANCH   1   3
BRANCH   2   6
HETATM    6  C5  UNL     1     -34.734   5.383   4.288  1.00 20.00     0.258 C 
HETATM    7  O7  UNL     1     -34.671   4.170   4.453  1.00 20.00    -0.302 OA
ENDBRANCH   2   6
TORSDOF 2
ENDMDL
MODEL 2
REMARK VINA RESULT:      -4.6      2.659      4.621
REMARK  2 active torsions:
REMARK  status: ('A' for Active; 'I' for Inactive)
REMARK    1  A    between atoms: C1_1  and  C3_3 
REMARK    2  A    between atoms: C2_2  and  C5_5 
ROOT
HETATM    1  C1  UNL     1     -33.352   6.977   2.549  1.00 20.00     0.003 C 
HETATM    2  C2  UNL     1     -32.329   7.817   2.744  1.00 20.00     0.041 C 
ENDROOT
BRANCH   1   3
HETATM    3  C3  UNL     1     -33.663   5.899   3.461  1.00 20.00    -0.004 C 
HETATM    4  C4  UNL     1     -34.362   6.074   4.592  1.00 20.00    -0.031 C 
HETATM    5  C6  UNL     1     -34.689   4.969   5.543  1.00 20.00     0.036 C 
ENDBRANCH   1   3
BRANCH   2   6
HETATM    6  C5  UNL     1     -32.084   8.890   1.761  1.00 20.00     0.258 C 
HETATM    7  O7  UNL     1     -31.408   8.705   0.755  1.00 20.00    -0.302 OA
ENDBRANCH   2   6
TORSDOF 2
ENDMDL
MODEL 3
REMARK VINA RESULT:      -4.6      1.420      1.448
REMARK  2 active torsions:
REMARK  status: ('A' for Active; 'I' for Inactive)
REMARK    1  A    between atoms: C1_1  and  C3_3 
REMARK    2  A    between atoms: C2_2  and  C5_5 
ROOT
HETATM    1  C1  UNL     1     -32.500   7.636   3.672  1.00 20.00     0.003 C 
HETATM    2  C2  UNL     1     -33.690   7.232   4.134  1.00 20.00     0.041 C 
ENDROOT
BRANCH   1   3
HETATM    3  C3  UNL     1     -32.259   7.914   2.274  1.00 20.00    -0.004 C 
HETATM    4  C4  UNL     1     -32.468   9.117   1.718  1.00 20.00    -0.031 C 
HETATM    5  C6  UNL     1     -32.223   9.416   0.275  1.00 20.00     0.036 C 
ENDBRANCH   1   3
BRANCH   2   6
HETATM    6  C5  UNL     1     -33.847   6.970   5.577  1.00 20.00     0.258 C 
HETATM    7  O7  UNL     1     -34.419   5.970   5.997  1.00 20.00    -0.302 OA
ENDBRANCH   2   6
TORSDOF 2
ENDMDL
MODEL 4
REMARK VINA RESULT:      -3.9     10.800     11.134
REMARK  2 active torsions:
REMARK  status: ('A' for Active; 'I' for Inactive)
REMARK    1  A    between atoms: C1_1  and  C3_3 
REMARK    2  A    between atoms: C2_2  and  C5_5 
ROOT
HETATM    1  C1  UNL     1     -34.904  15.665  -3.659  1.00 20.00     0.003 C 
HETATM    2  C2  UNL     1     -34.721  14.503  -4.297  1.00 20.00     0.041 C 
ENDROOT
BRANCH   1   3
HETATM    3  C3  UNL     1     -33.819  16.395  -3.041  1.00 20.00    -0.004 C 
HETATM    4  C4  UNL     1     -33.973  17.143  -1.938  1.00 20.00    -0.031 C 
HETATM    5  C6  UNL     1     -32.860  17.903  -1.291  1.00 20.00     0.036 C 
ENDBRANCH   1   3
BRANCH   2   6
HETATM    6  C5  UNL     1     -35.886  13.825  -4.898  1.00 20.00     0.258 C 
HETATM    7  O7  UNL     1     -35.841  12.654  -5.257  1.00 20.00    -0.302 OA
ENDBRANCH   2   6
TORSDOF 2
ENDMDL
MODEL 5
REMARK VINA RESULT:      -3.8     10.759     11.155
REMARK  2 active torsions:
REMARK  status: ('A' for Active; 'I' for Inactive)
REMARK    1  A    between atoms: C1_1  and  C3_3 
REMARK    2  A    between atoms: C2_2  and  C5_5 
ROOT
HETATM    1  C1  UNL     1     -35.152  15.686  -3.716  1.00 20.00     0.003 C 
HETATM    2  C2  UNL     1     -34.632  14.550  -4.196  1.00 20.00     0.041 C 
ENDROOT
BRANCH   1   3
HETATM    3  C3  UNL     1     -34.546  16.423  -2.629  1.00 20.00    -0.004 C 
HETATM    4  C4  UNL     1     -35.233  16.846  -1.558  1.00 20.00    -0.031 C 
HETATM    5  C6  UNL     1     -34.619  17.610  -0.429  1.00 20.00     0.036 C 
ENDBRANCH   1   3
BRANCH   2   6
HETATM    6  C5  UNL     1     -35.317  13.862  -5.307  1.00 20.00     0.258 C 
HETATM    7  O7  UNL     1     -35.795  12.740  -5.180  1.00 20.00    -0.302 OA
ENDBRANCH   2   6
TORSDOF 2
ENDMDL
MODEL 6
REMARK VINA RESULT:      -3.7     11.517     11.910
REMARK  2 active torsions:
REMARK  status: ('A' for Active; 'I' for Inactive)
REMARK    1  A    between atoms: C1_1  and  C3_3 
REMARK    2  A    between atoms: C2_2  and  C5_5 
ROOT
HETATM    1  C1  UNL     1     -34.257  17.330  -1.186  1.00 20.00     0.003 C 
HETATM    2  C2  UNL     1     -33.029  17.756  -1.505  1.00 20.00     0.041 C 
ENDROOT
BRANCH   1   3
HETATM    3  C3  UNL     1     -35.078  16.563  -2.097  1.00 20.00    -0.004 C 
HETATM    4  C4  UNL     1     -34.587  15.939  -3.178  1.00 20.00    -0.031 C 
HETATM    5  C6  UNL     1     -35.424  15.145  -4.127  1.00 20.00     0.036 C 
ENDBRANCH   1   3
BRANCH   2   6
HETATM    6  C5  UNL     1     -32.261  18.535  -0.514  1.00 20.00     0.258 C 
HETATM    7  O7  UNL     1     -31.077  18.311  -0.288  1.00 20.00    -0.302 OA
ENDBRANCH   2   6
TORSDOF 2
ENDMDL
MODEL 7
REMARK VINA RESULT:      -3.6     10.943     11.176
REMARK  2 active torsions:
REMARK  status: ('A' for Active; 'I' for Inactive)
REMARK    1  A    between atoms: C1_1  and  C3_3 
REMARK    2  A    between atoms: C2_2  and  C5_5 
ROOT
HETATM    1  C1  UNL     1     -34.235  14.871  -4.679  1.00 20.00     0.003 C 
HETATM    2  C2  UNL     1     -35.388  14.232  -4.452  1.00 20.00     0.041 C 
ENDROOT
BRANCH   1   3
HETATM    3  C3  UNL     1     -33.597  15.707  -3.686  1.00 20.00    -0.004 C 
HETATM    4  C4  UNL     1     -34.280  16.412  -2.773  1.00 20.00    -0.031 C 
HETATM    5  C6  UNL     1     -33.632  17.280  -1.744  1.00 20.00     0.036 C 
ENDBRANCH   1   3
BRANCH   2   6
HETATM    6  C5  UNL     1     -35.970  13.400  -5.523  1.00 20.00     0.258 C 
HETATM    7  O7  UNL     1     -35.304  12.574  -6.137  1.00 20.00    -0.302 OA
ENDBRANCH   2   6
TORSDOF 2
ENDMDL
MODEL 8
REMARK VINA RESULT:      -3.5     10.989     11.300
REMARK  2 active torsions:
REMARK  status: ('A' for Active; 'I' for Inactive)
REMARK    1  A    between atoms: C1_1  and  C3_3 
REMARK    2  A    between atoms: C2_2  and  C5_5 
ROOT
HETATM    1  C1  UNL     1     -34.806  16.238  -2.550  1.00 20.00     0.003 C 
HETATM    2  C2  UNL     1     -34.044  15.717  -3.519  1.00 20.00     0.041 C 
ENDROOT
BRANCH   1   3
HETATM    3  C3  UNL     1     -34.292  17.166  -1.567  1.00 20.00    -0.004 C 
HETATM    4  C4  UNL     1     -33.053  17.676  -1.618  1.00 20.00    -0.031 C 
HETATM    5  C6  UNL     1     -32.511  18.635  -0.608  1.00 20.00     0.036 C 
ENDBRANCH   1   3
BRANCH   2   6
HETATM    6  C5  UNL     1     -34.650  14.775  -4.480  1.00 20.00     0.258 C 
HETATM    7  O7  UNL     1     -34.737  13.575  -4.246  1.00 20.00    -0.302 OA
ENDBRANCH   2   6
TORSDOF 2
ENDMDL
MODEL 9
REMARK VINA RESULT:      -3.1     11.054     11.248
REMARK  2 active torsions:
REMARK  status: ('A' for Active; 'I' for Inactive)
REMARK    1  A    between atoms: C1_1  and  C3_3 
REMARK    2  A    between atoms: C2_2  and  C5_5 
ROOT
HETATM    1  C1  UNL     1     -34.082  17.123  -1.818  1.00 20.00     0.003 C 
HETATM    2  C2  UNL     1     -35.231  16.966  -1.150  1.00 20.00     0.041 C 
ENDROOT
BRANCH   1   3
HETATM    3  C3  UNL     1     -33.744  16.339  -2.985  1.00 20.00    -0.004 C 
HETATM    4  C4  UNL     1     -34.571  15.430  -3.523  1.00 20.00    -0.031 C 
HETATM    5  C6  UNL     1     -34.233  14.613  -4.728  1.00 20.00     0.036 C 
ENDBRANCH   1   3
BRANCH   2   6
HETATM    6  C5  UNL     1     -35.493  17.809   0.033  1.00 20.00     0.258 C 
HETATM    7  O7  UNL     1     -35.899  17.337   1.088  1.00 20.00    -0.302 OA
ENDBRANCH   2   6
TORSDOF 2
ENDMDL
