MODEL 1
REMARK VINA RESULT:      -4.7      0.000      0.000
REMARK  2 active torsions:
REMARK  status: ('A' for Active; 'I' for Inactive)
REMARK    1  A    between atoms: C1_1  and  C2_2 
REMARK    2  A    between atoms: C3_3  and  C4_4 
ROOT
HETATM    1  C1  UNL     1     -32.937   7.504   3.951  1.00 20.00     0.051 C 
HETATM    2  C3  UNL     1     -33.786   6.842   4.754  1.00 20.00    -0.014 C 
HETATM    3  C5  UNL     1     -33.990   7.069   6.228  1.00 20.00     0.052 C 
ENDROOT
BRANCH   2   4
HETATM    4  C4  UNL     1     -34.649   5.745   4.175  1.00 20.00     0.151 C 
HETATM    5  C6  UNL     1     -34.263   4.298   4.361  1.00 20.00     0.096 C 
HETATM    6  O8  UNL     1     -35.670   6.033   3.547  1.00 20.00    -0.293 OA
ENDBRANCH   2   4
BRANCH   1   7
HETATM    7  C2  UNL     1     -32.771   7.244   2.503  1.00 20.00     0.259 C 
HETATM    8  O7  UNL     1     -32.565   8.153   1.706  1.00 20.00    -0.302 OA
ENDBRANCH   1   7
TORSDOF 2
ENDMDL
MODEL 2
REMARK VINA RESULT:      -4.2      1.465      3.143
REMARK  2 active torsions:
REMARK  status: ('A' for Active; 'I' for Inactive)
REMARK    1  A    between atoms: C1_1  and  C2_2 
REMARK    2  A    between atoms: C3_3  and  C4_4 
ROOT
HETATM    1  C1  UNL     1     -34.499   5.567   5.474  1.00 20.00     0.051 C 
HETATM    2  C3  UNL     1     -33.865   6.706   5.146  1.00 20.00    -0.014 C 
HETATM    3  C5  UNL     1     -33.499   7.831   6.076  1.00 20.00     0.052 C 
ENDROOT
BRANCH   2   4
HETATM    4  C4  UNL     1     -33.455   6.936   3.710  1.00 20.00     0.151 C 
HETATM    5  C6  UNL     1     -32.192   7.699   3.395  1.00 20.00     0.096 C 
HETATM    6  O8  UNL     1     -34.155   6.501   2.793  1.00 20.00    -0.293 OA
ENDBRANCH   2   4
BRANCH   1   7
HETATM    7  C2  UNL     1     -34.837   4.487   4.521  1.00 20.00     0.259 C 
HETATM    8  O7  UNL     1     -34.090   3.532   4.338  1.00 20.00    -0.302 OA
ENDBRANCH   1   7
TORSDOF 2
ENDMDL
MODEL 3
REMARK VINA RESULT:      -4.2      1.340      1.376
REMARK  2 active torsions:
REMARK  status: ('A' for Active; 'I' for Inactive)
REMARK    1  A    between atoms: C1_1  and  C2_2 
REMARK    2  A    between atoms: C3_3  and  C4_4 
ROOT
HETATM    1  C1  UNL     1     -32.440   8.047   3.693  1.00 20.00     0.051 C 
HETATM    2  C3  UNL     1     -33.244   7.210   4.369  1.00 20.00    -0.014 C 
HETATM    3  C5  UNL     1     -33.572   7.269   5.837  1.00 20.00     0.052 C 
ENDROOT
BRANCH   2   4
HETATM    4  C4  UNL     1     -33.915   6.073   3.633  1.00 20.00     0.151 C 
HETATM    5  C6  UNL     1     -35.407   5.875   3.743  1.00 20.00     0.096 C 
HETATM    6  O8  UNL     1     -33.242   5.306   2.942  1.00 20.00    -0.293 OA
ENDBRANCH   2   4
BRANCH   1   7
HETATM    7  C2  UNL     1     -32.148   7.949   2.245  1.00 20.00     0.259 C 
HETATM    8  O7  UNL     1     -32.235   8.921   1.504  1.00 20.00    -0.302 OA
ENDBRANCH   1   7
TORSDOF 2
ENDMDL
MODEL 4
REMARK VINA RESULT:      -4.2      1.649      2.963
REMARK  2 active torsions:
REMARK  status: ('A' for Active; 'I' for Inactive)
REMARK    1  A    between atoms: C1_1  and  C2_2 
REMARK    2  A    between atoms: C3_3  and  C4_4 
ROOT
HETATM    1  C1  UNL     1     -33.490   7.204   5.191  1.00 20.00     0.051 C 
HETATM    2  C3  UNL     1     -33.160   7.087   3.894  1.00 20.00    -0.014 C 
HETATM    3  C5  UNL     1     -32.175   7.937   3.138  1.00 20.00     0.052 C 
ENDROOT
BRANCH   2   4
HETATM    4  C4  UNL     1     -33.813   6.010   3.059  1.00 20.00     0.151 C 
HETATM    5  C6  UNL     1     -33.023   4.798   2.631  1.00 20.00     0.096 C 
HETATM    6  O8  UNL     1     -34.995   6.122   2.726  1.00 20.00    -0.293 OA
ENDBRANCH   2   4
BRANCH   1   7
HETATM    7  C2  UNL     1     -34.468   6.342   5.893  1.00 20.00     0.259 C 
HETATM    8  O7  UNL     1     -34.315   5.128   5.971  1.00 20.00    -0.302 OA
ENDBRANCH   1   7
TORSDOF 2
ENDMDL
MODEL 5
REMARK VINA RESULT:      -4.0     11.612     12.085
REMARK  2 active torsions:
REMARK  status: ('A' for Active; 'I' for Inactive)
REMARK    1  A    between atoms: C1_1  and  C2_2 
REMARK    2  A    between atoms: C3_3  and  C4_4 
ROOT
HETATM    1  C1  UNL     1     -35.960  14.794  -4.277  1.00 20.00     0.051 C 
HETATM    2  C3  UNL     1     -34.778  15.303  -3.888  1.00 20.00    -0.014 C 
HETATM    3  C5  UNL     1     -34.545  16.270  -2.760  1.00 20.00     0.052 C 
ENDROOT
BRANCH   2   4
HETATM    4  C4  UNL     1     -33.522  14.898  -4.624  1.00 20.00     0.151 C 
HETATM    5  C6  UNL     1     -33.025  15.723  -5.785  1.00 20.00     0.096 C 
HETATM    6  O8  UNL     1     -32.901  13.892  -4.274  1.00 20.00    -0.293 OA
ENDBRANCH   2   4
BRANCH   1   7
HETATM    7  C2  UNL     1     -36.140  13.842  -5.396  1.00 20.00     0.259 C 
HETATM    8  O7  UNL     1     -35.934  12.641  -5.258  1.00 20.00    -0.302 OA
ENDBRANCH   1   7
TORSDOF 2
ENDMDL
MODEL 6
REMARK VINA RESULT:      -3.9      1.086      2.117
REMARK  2 active torsions:
REMARK  status: ('A' for Active; 'I' for Inactive)
REMARK    1  A    between atoms: C1_1  and  C2_2 
REMARK    2  A    between atoms: C3_3  and  C4_4 
ROOT
HETATM    1  C1  UNL     1     -32.595   6.829   2.467  1.00 20.00     0.051 C 
HETATM    2  C3  UNL     1     -33.299   5.833   3.031  1.00 20.00    -0.014 C 
HETATM    3  C5  UNL     1     -33.121   4.358   2.791  1.00 20.00     0.052 C 
ENDROOT
BRANCH   2   4
HETATM    4  C4  UNL     1     -34.396   6.169   4.014  1.00 20.00     0.151 C 
HETATM    5  C6  UNL     1     -34.050   6.633   5.408  1.00 20.00     0.096 C 
HETATM    6  O8  UNL     1     -35.577   6.063   3.678  1.00 20.00    -0.293 OA
ENDBRANCH   2   4
BRANCH   1   7
HETATM    7  C2  UNL     1     -32.807   8.269   2.736  1.00 20.00     0.259 C 
HETATM    8  O7  UNL     1     -32.626   9.118   1.871  1.00 20.00    -0.302 OA
ENDBRANCH   1   7
TORSDOF 2
ENDMDL
MODEL 7
REMARK VINA RESULT:      -3.9      1.462      2.263
REMARK  2 active torsions:
REMARK  status: ('A' for Active; 'I' for Inactive)
REMARK    1  A    between atoms: C1_1  and  C2_2 
REMARK    2  A    between atoms: C3_3  and  C4_4 
ROOT
HETATM    1  C1  UNL     1     -32.612   6.492   2.893  1.00 20.00     0.051 C 
HETATM    2  C3  UNL     1     -33.436   5.447   3.076  1.00 20.00    -0.014 C 
HETATM    3  C5  UNL     1     -33.332   4.096   2.421  1.00 20.00     0.052 C 
ENDROOT
BRANCH   2   4
HETATM    4  C4  UNL     1     -34.605   5.585   4.023  1.00 20.00     0.151 C 
HETATM    5  C6  UNL     1     -34.463   5.172   5.468  1.00 20.00     0.096 C 
HETATM    6  O8  UNL     1     -35.678   6.034   3.616  1.00 20.00    -0.293 OA
ENDBRANCH   2   4
BRANCH   1   7
HETATM    7  C2  UNL     1     -32.754   7.805   3.562  1.00 20.00     0.259 C 
HETATM    8  O7  UNL     1     -31.816   8.333   4.149  1.00 20.00    -0.302 OA
ENDBRANCH   1   7
TORSDOF 2
ENDMDL
MODEL 8
REMARK VINA RESULT:      -3.8      1.645      3.548
REMARK  2 active torsions:
REMARK  status: ('A' for Active; 'I' for Inactive)
REMARK    1  A    between atoms: C1_1  and  C2_2 
REMARK    2  A    between atoms: C3_3  and  C4_4 
ROOT
HETATM    1  C1  UNL     1     -34.026   5.824   3.127  1.00 20.00     0.051 C 
HETATM    2  C3  UNL     1     -33.318   6.954   3.287  1.00 20.00    -0.014 C 
HETATM    3  C5  UNL     1     -32.722   7.804   2.198  1.00 20.00     0.052 C 
ENDROOT
BRANCH   2   4
HETATM    4  C4  UNL     1     -33.060   7.473   4.683  1.00 20.00     0.151 C 
HETATM    5  C6  UNL     1     -33.970   7.075   5.820  1.00 20.00     0.096 C 
HETATM    6  O8  UNL     1     -32.106   8.224   4.895  1.00 20.00    -0.293 OA
ENDBRANCH   2   4
BRANCH   1   7
HETATM    7  C2  UNL     1     -34.594   5.021   4.233  1.00 20.00     0.259 C 
HETATM    8  O7  UNL     1     -34.368   3.820   4.338  1.00 20.00    -0.302 OA
ENDBRANCH   1   7
TORSDOF 2
ENDMDL
MODEL 9
REMARK VINA RESULT:      -3.7      1.903      3.807
REMARK  2 active torsions:
REMARK  status: ('A' for Active; 'I' for Inactive)
REMARK    1  A    between atoms: C1_1  and  C2_2 
REMARK    2  A    between atoms: C3_3  and  C4_4 
ROOT
HETATM    1  C1  UNL     1     -33.987   6.319   4.295  1.00 20.00     0.051 C 
HETATM    2  C3  UNL     1     -33.200   6.342   3.205  1.00 20.00    -0.014 C 
HETATM    3  C5  UNL     1     -33.030   5.238   2.197  1.00 20.00     0.052 C 
ENDROOT
BRANCH   2   4
HETATM    4  C4  UNL     1     -32.378   7.575   2.913  1.00 20.00     0.151 C 
HETATM    5  C6  UNL     1     -32.694   8.429   1.710  1.00 20.00     0.096 C 
HETATM    6  O8  UNL     1     -31.447   7.885   3.659  1.00 20.00    -0.293 OA
ENDBRANCH   2   4
BRANCH   1   7
HETATM    7  C2  UNL     1     -34.121   7.433   5.260  1.00 20.00     0.259 C 
HETATM    8  O7  UNL     1     -33.473   7.464   6.300  1.00 20.00    -0.302 OA
ENDBRANCH   1   7
TORSDOF 2
ENDMDL
