MODEL 1
REMARK VINA RESULT:      -3.7      0.000      0.000
REMARK  1 active torsions:
REMARK  status: ('A' for Active; 'I' for Inactive)
REMARK    1  A    between atoms: C5_5  and  C6_6 
ROOT
HETATM    1  C1  UNL     1     -36.279  14.073  -6.714  1.00 20.00     0.086 C 
HETATM    2  C2  UNL     1     -36.413  13.725  -5.247  1.00 20.00     0.086 C 
HETATM    3  C5  UNL     1     -34.629  15.786  -5.373  1.00 20.00     0.078 C 
HETATM    4  C7  UNL     1     -33.184  15.831  -5.867  1.00 20.00     0.041 C 
HETATM    5  S9  UNL     1     -35.760  15.804  -6.816  1.00 20.00    -0.145 SA
HETATM    6  S10 UNL     1     -34.886  14.238  -4.423  1.00 20.00    -0.145 SA
ENDROOT
BRANCH   3   7
HETATM    7  C6  UNL     1     -34.946  16.983  -4.478  1.00 20.00     0.078 C 
HETATM    8  C8  UNL     1     -36.261  17.647  -4.887  1.00 20.00     0.041 C 
HETATM    9  S11 UNL     1     -33.586  18.206  -4.616  1.00 20.00    -0.145 SA
HETATM   10  C3  UNL     1     -33.340  18.462  -2.841  1.00 20.00     0.086 C 
HETATM   11  C4  UNL     1     -33.517  17.123  -2.158  1.00 20.00     0.086 C 
HETATM   12  S12 UNL     1     -35.080  16.419  -2.739  1.00 20.00    -0.145 SA
ENDBRANCH   3   7
TORSDOF 1
ENDMDL
MODEL 2
REMARK VINA RESULT:      -3.7      1.625      1.814
REMARK  1 active torsions:
REMARK  status: ('A' for Active; 'I' for Inactive)
REMARK    1  A    between atoms: C5_5  and  C6_6 
ROOT
HETATM    1  C1  UNL     1     -34.488  14.130  -7.760  1.00 20.00     0.086 C 
HETATM    2  C2  UNL     1     -35.877  13.824  -7.244  1.00 20.00     0.086 C 
HETATM    3  C5  UNL     1     -34.508  14.889  -5.138  1.00 20.00     0.078 C 
HETATM    4  C7  UNL     1     -33.388  14.310  -4.275  1.00 20.00     0.041 C 
HETATM    5  S9  UNL     1     -33.808  15.457  -6.734  1.00 20.00    -0.145 SA
HETATM    6  S10 UNL     1     -35.753  13.580  -5.455  1.00 20.00    -0.145 SA
ENDROOT
BRANCH   3   7
HETATM    7  C6  UNL     1     -35.186  16.071  -4.445  1.00 20.00     0.078 C 
HETATM    8  C8  UNL     1     -36.592  15.702  -3.970  1.00 20.00     0.041 C 
HETATM    9  S11 UNL     1     -35.298  17.470  -5.625  1.00 20.00    -0.145 SA
HETATM   10  C3  UNL     1     -34.633  18.742  -4.522  1.00 20.00     0.086 C 
HETATM   11  C4  UNL     1     -33.526  18.107  -3.709  1.00 20.00     0.086 C 
HETATM   12  S12 UNL     1     -34.183  16.578  -2.997  1.00 20.00    -0.145 SA
ENDBRANCH   3   7
TORSDOF 1
ENDMDL
MODEL 3
REMARK VINA RESULT:      -3.7      1.599      4.349
REMARK  1 active torsions:
REMARK  status: ('A' for Active; 'I' for Inactive)
REMARK    1  A    between atoms: C5_5  and  C6_6 
ROOT
HETATM    1  C1  UNL     1     -34.619  18.780  -4.432  1.00 20.00     0.086 C 
HETATM    2  C2  UNL     1     -33.506  18.132  -3.635  1.00 20.00     0.086 C 
HETATM    3  C5  UNL     1     -35.161  16.104  -4.407  1.00 20.00     0.078 C 
HETATM    4  C7  UNL     1     -36.563  15.720  -3.935  1.00 20.00     0.041 C 
HETATM    5  S9  UNL     1     -35.281  17.527  -5.557  1.00 20.00    -0.145 SA
HETATM    6  S10 UNL     1     -34.154  16.586  -2.952  1.00 20.00    -0.145 SA
ENDROOT
BRANCH   3   7
HETATM    7  C6  UNL     1     -34.480  14.940  -5.126  1.00 20.00     0.078 C 
HETATM    8  C8  UNL     1     -33.334  14.368  -4.292  1.00 20.00     0.041 C 
HETATM    9  S11 UNL     1     -33.819  15.535  -6.730  1.00 20.00    -0.145 SA
HETATM   10  C3  UNL     1     -34.501  14.210  -7.756  1.00 20.00     0.086 C 
HETATM   11  C4  UNL     1     -35.876  13.878  -7.216  1.00 20.00     0.086 C 
HETATM   12  S12 UNL     1     -35.712  13.618  -5.433  1.00 20.00    -0.145 SA
ENDBRANCH   3   7
TORSDOF 1
ENDMDL
MODEL 4
REMARK VINA RESULT:      -3.7      1.908      3.143
REMARK  1 active torsions:
REMARK  status: ('A' for Active; 'I' for Inactive)
REMARK    1  A    between atoms: C5_5  and  C6_6 
ROOT
HETATM    1  C1  UNL     1     -34.218  14.342  -7.804  1.00 20.00     0.086 C 
HETATM    2  C2  UNL     1     -35.647  13.942  -7.504  1.00 20.00     0.086 C 
HETATM    3  C5  UNL     1     -34.607  14.850  -5.150  1.00 20.00     0.078 C 
HETATM    4  C7  UNL     1     -33.581  14.230  -4.202  1.00 20.00     0.041 C 
HETATM    5  S9  UNL     1     -33.735  15.588  -6.584  1.00 20.00    -0.145 SA
HETATM    6  S10 UNL     1     -35.740  13.535  -5.743  1.00 20.00    -0.145 SA
ENDROOT
BRANCH   3   7
HETATM    7  C6  UNL     1     -35.421  15.937  -4.450  1.00 20.00     0.078 C 
HETATM    8  C8  UNL     1     -34.879  16.218  -3.048  1.00 20.00     0.041 C 
HETATM    9  S11 UNL     1     -37.166  15.386  -4.321  1.00 20.00    -0.145 SA
HETATM   10  C3  UNL     1     -37.923  16.901  -4.959  1.00 20.00     0.086 C 
HETATM   11  C4  UNL     1     -37.038  17.419  -6.073  1.00 20.00     0.086 C 
HETATM   12  S12 UNL     1     -35.344  17.479  -5.438  1.00 20.00    -0.145 SA
ENDBRANCH   3   7
TORSDOF 1
ENDMDL
MODEL 5
REMARK VINA RESULT:      -3.7      1.810      4.091
REMARK  1 active torsions:
REMARK  status: ('A' for Active; 'I' for Inactive)
REMARK    1  A    between atoms: C5_5  and  C6_6 
ROOT
HETATM    1  C1  UNL     1     -37.724  17.065  -4.845  1.00 20.00     0.086 C 
HETATM    2  C2  UNL     1     -36.864  17.530  -6.000  1.00 20.00     0.086 C 
HETATM    3  C5  UNL     1     -35.251  15.986  -4.432  1.00 20.00     0.078 C 
HETATM    4  C7  UNL     1     -34.636  16.252  -3.058  1.00 20.00     0.041 C 
HETATM    5  S9  UNL     1     -37.012  15.521  -4.225  1.00 20.00    -0.145 SA
HETATM    6  S10 UNL     1     -35.144  17.515  -5.439  1.00 20.00    -0.145 SA
ENDROOT
BRANCH   3   7
HETATM    7  C6  UNL     1     -34.520  14.856  -5.155  1.00 20.00     0.078 C 
HETATM    8  C8  UNL     1     -33.461  14.216  -4.257  1.00 20.00     0.041 C 
HETATM    9  S11 UNL     1     -33.708  15.533  -6.654  1.00 20.00    -0.145 SA
HETATM   10  C3  UNL     1     -34.308  14.282  -7.815  1.00 20.00     0.086 C 
HETATM   11  C4  UNL     1     -35.730  13.941  -7.423  1.00 20.00     0.086 C 
HETATM   12  S12 UNL     1     -35.733  13.574  -5.651  1.00 20.00    -0.145 SA
ENDBRANCH   3   7
TORSDOF 1
ENDMDL
MODEL 6
REMARK VINA RESULT:      -3.5      1.884      4.266
REMARK  1 active torsions:
REMARK  status: ('A' for Active; 'I' for Inactive)
REMARK    1  A    between atoms: C5_5  and  C6_6 
ROOT
HETATM    1  C1  UNL     1     -35.072  16.267  -2.710  1.00 20.00     0.086 C 
HETATM    2  C2  UNL     1     -33.691  16.346  -3.324  1.00 20.00     0.086 C 
HETATM    3  C5  UNL     1     -35.221  14.933  -5.087  1.00 20.00     0.078 C 
HETATM    4  C7  UNL     1     -35.783  13.513  -5.012  1.00 20.00     0.041 C 
HETATM    5  S9  UNL     1     -36.255  16.045  -4.061  1.00 20.00    -0.145 SA
HETATM    6  S10 UNL     1     -33.507  14.929  -4.435  1.00 20.00    -0.145 SA
ENDROOT
BRANCH   3   7
HETATM    7  C6  UNL     1     -35.211  15.449  -6.525  1.00 20.00     0.078 C 
HETATM    8  C8  UNL     1     -33.796  15.445  -7.105  1.00 20.00     0.041 C 
HETATM    9  S11 UNL     1     -35.866  17.162  -6.548  1.00 20.00    -0.145 SA
HETATM   10  C3  UNL     1     -37.043  16.930  -7.902  1.00 20.00     0.086 C 
HETATM   11  C4  UNL     1     -37.646  15.550  -7.750  1.00 20.00     0.086 C 
HETATM   12  S12 UNL     1     -36.280  14.378  -7.558  1.00 20.00    -0.145 SA
ENDBRANCH   3   7
TORSDOF 1
ENDMDL
MODEL 7
REMARK VINA RESULT:      -3.5      1.851      2.680
REMARK  1 active torsions:
REMARK  status: ('A' for Active; 'I' for Inactive)
REMARK    1  A    between atoms: C5_5  and  C6_6 
ROOT
HETATM    1  C1  UNL     1     -37.153  16.994  -7.726  1.00 20.00     0.086 C 
HETATM    2  C2  UNL     1     -37.668  15.576  -7.602  1.00 20.00     0.086 C 
HETATM    3  C5  UNL     1     -35.221  15.599  -6.394  1.00 20.00     0.078 C 
HETATM    4  C7  UNL     1     -33.814  15.695  -6.983  1.00 20.00     0.041 C 
HETATM    5  S9  UNL     1     -35.981  17.267  -6.374  1.00 20.00    -0.145 SA
HETATM    6  S10 UNL     1     -36.232  14.487  -7.446  1.00 20.00    -0.145 SA
ENDROOT
BRANCH   3   7
HETATM    7  C6  UNL     1     -35.188  15.051  -4.969  1.00 20.00     0.078 C 
HETATM    8  C8  UNL     1     -35.679  13.603  -4.920  1.00 20.00     0.041 C 
HETATM    9  S11 UNL     1     -36.265  16.087  -3.906  1.00 20.00    -0.145 SA
HETATM   10  C3  UNL     1     -35.076  16.337  -2.564  1.00 20.00     0.086 C 
HETATM   11  C4  UNL     1     -33.708  16.498  -3.191  1.00 20.00     0.086 C 
HETATM   12  S12 UNL     1     -33.469  15.117  -4.336  1.00 20.00    -0.145 SA
ENDBRANCH   3   7
TORSDOF 1
ENDMDL
MODEL 8
REMARK VINA RESULT:      -3.5      1.624      2.772
REMARK  1 active torsions:
REMARK  status: ('A' for Active; 'I' for Inactive)
REMARK    1  A    between atoms: C5_5  and  C6_6 
ROOT
HETATM    1  C1  UNL     1     -35.330  13.124  -7.349  1.00 20.00     0.086 C 
HETATM    2  C2  UNL     1     -34.157  14.026  -7.669  1.00 20.00     0.086 C 
HETATM    3  C5  UNL     1     -35.649  15.357  -5.812  1.00 20.00     0.078 C 
HETATM    4  C7  UNL     1     -37.008  16.047  -5.926  1.00 20.00     0.041 C 
HETATM    5  S9  UNL     1     -35.903  13.545  -5.685  1.00 20.00    -0.145 SA
HETATM    6  S10 UNL     1     -34.665  15.726  -7.315  1.00 20.00    -0.145 SA
ENDROOT
BRANCH   3   7
HETATM    7  C6  UNL     1     -34.885  15.839  -4.579  1.00 20.00     0.078 C 
HETATM    8  C8  UNL     1     -34.105  14.696  -3.929  1.00 20.00     0.041 C 
HETATM    9  S11 UNL     1     -36.081  16.517  -3.365  1.00 20.00    -0.145 SA
HETATM   10  C3  UNL     1     -35.207  18.069  -3.039  1.00 20.00     0.086 C 
HETATM   11  C4  UNL     1     -34.618  18.544  -4.350  1.00 20.00     0.086 C 
HETATM   12  S12 UNL     1     -33.711  17.156  -5.074  1.00 20.00    -0.145 SA
ENDBRANCH   3   7
TORSDOF 1
ENDMDL
MODEL 9
REMARK VINA RESULT:      -3.5      1.588      2.735
REMARK  1 active torsions:
REMARK  status: ('A' for Active; 'I' for Inactive)
REMARK    1  A    between atoms: C5_5  and  C6_6 
ROOT
HETATM    1  C1  UNL     1     -37.493  16.223  -6.790  1.00 20.00     0.086 C 
HETATM    2  C2  UNL     1     -37.604  16.904  -5.442  1.00 20.00     0.086 C 
HETATM    3  C5  UNL     1     -35.690  14.980  -5.160  1.00 20.00     0.078 C 
HETATM    4  C7  UNL     1     -35.801  13.457  -5.093  1.00 20.00     0.041 C 
HETATM    5  S9  UNL     1     -35.830  15.519  -6.907  1.00 20.00    -0.145 SA
HETATM    6  S10 UNL     1     -37.057  15.721  -4.187  1.00 20.00    -0.145 SA
ENDROOT
BRANCH   3   7
HETATM    7  C6  UNL     1     -34.353  15.462  -4.597  1.00 20.00     0.078 C 
HETATM    8  C8  UNL     1     -33.383  14.297  -4.400  1.00 20.00     0.041 C 
HETATM    9  S11 UNL     1     -34.647  16.281  -2.983  1.00 20.00    -0.145 SA
HETATM   10  C3  UNL     1     -33.687  17.779  -3.318  1.00 20.00     0.086 C 
HETATM   11  C4  UNL     1     -33.911  18.149  -4.768  1.00 20.00     0.086 C 
HETATM   12  S12 UNL     1     -33.608  16.666  -5.761  1.00 20.00    -0.145 SA
ENDBRANCH   3   7
TORSDOF 1
ENDMDL
