MODEL 1
REMARK VINA RESULT:      -5.0      0.000      0.000
REMARK  1 active torsions:
REMARK  status: ('A' for Active; 'I' for Inactive)
REMARK    1  A    between atoms: C1_1  and  C8_8 
ROOT
HETATM    1  C1  UNL     1     -33.193   7.474   3.306  1.00 20.00     0.139 C 
HETATM    2  C2  UNL     1     -31.293   8.546   3.121  1.00 20.00     0.209 C 
HETATM    3  C3  UNL     1     -32.144   8.728   1.869  1.00 20.00     0.070 C 
HETATM    4  C4  UNL     1     -32.720  10.145   1.772  1.00 20.00     0.042 C 
HETATM    5  C5  UNL     1     -31.381   8.373   0.598  1.00 20.00     0.042 C 
HETATM    6  N9  UNL     1     -33.265   7.785   2.051  1.00 20.00    -0.258 NA
HETATM    7  O10 UNL     1     -32.181   7.954   4.061  1.00 20.00    -0.335 OA
ENDROOT
BRANCH   1   8
HETATM    8  C8  UNL     1     -34.151   6.598   4.025  1.00 20.00     0.054 C 
HETATM    9  C6  UNL     1     -33.958   5.134   3.621  1.00 20.00     0.018 C 
HETATM   10  C7  UNL     1     -34.015   6.754   5.543  1.00 20.00     0.018 C 
ENDBRANCH   1   8
TORSDOF 1
ENDMDL
MODEL 2
REMARK VINA RESULT:      -4.9      1.154      3.910
REMARK  1 active torsions:
REMARK  status: ('A' for Active; 'I' for Inactive)
REMARK    1  A    between atoms: C1_1  and  C8_8 
ROOT
HETATM    1  C1  UNL     1     -32.455   8.485   1.940  1.00 20.00     0.139 C 
HETATM    2  C2  UNL     1     -32.048   7.585   3.894  1.00 20.00     0.209 C 
HETATM    3  C3  UNL     1     -33.220   6.891   3.209  1.00 20.00     0.070 C 
HETATM    4  C4  UNL     1     -32.842   5.491   2.712  1.00 20.00     0.042 C 
HETATM    5  C5  UNL     1     -34.453   6.826   4.103  1.00 20.00     0.042 C 
HETATM    6  N9  UNL     1     -33.508   7.737   2.033  1.00 20.00    -0.258 NA
HETATM    7  O10 UNL     1     -31.483   8.399   2.874  1.00 20.00    -0.335 OA
ENDROOT
BRANCH   1   8
HETATM    8  C8  UNL     1     -32.204   9.478   0.866  1.00 20.00     0.054 C 
HETATM    9  C6  UNL     1     -33.034   9.153  -0.379  1.00 20.00     0.018 C 
HETATM   10  C7  UNL     1     -32.498  10.902   1.344  1.00 20.00     0.018 C 
ENDBRANCH   1   8
TORSDOF 1
ENDMDL
MODEL 3
REMARK VINA RESULT:      -4.9      1.524      4.133
REMARK  1 active torsions:
REMARK  status: ('A' for Active; 'I' for Inactive)
REMARK    1  A    between atoms: C1_1  and  C8_8 
ROOT
HETATM    1  C1  UNL     1     -32.838   6.778   3.175  1.00 20.00     0.139 C 
HETATM    2  C2  UNL     1     -33.641   4.750   3.363  1.00 20.00     0.209 C 
HETATM    3  C3  UNL     1     -34.434   5.731   4.221  1.00 20.00     0.070 C 
HETATM    4  C4  UNL     1     -35.822   6.008   3.634  1.00 20.00     0.042 C 
HETATM    5  C5  UNL     1     -34.547   5.267   5.669  1.00 20.00     0.042 C 
HETATM    6  N9  UNL     1     -33.649   6.981   4.163  1.00 20.00    -0.258 NA
HETATM    7  O10 UNL     1     -32.828   5.583   2.546  1.00 20.00    -0.335 OA
ENDROOT
BRANCH   1   8
HETATM    8  C8  UNL     1     -31.869   7.771   2.647  1.00 20.00     0.054 C 
HETATM    9  C6  UNL     1     -32.529   8.671   1.599  1.00 20.00     0.018 C 
HETATM   10  C7  UNL     1     -31.270   8.617   3.774  1.00 20.00     0.018 C 
ENDBRANCH   1   8
TORSDOF 1
ENDMDL
MODEL 4
REMARK VINA RESULT:      -4.6      1.415      1.877
REMARK  1 active torsions:
REMARK  status: ('A' for Active; 'I' for Inactive)
REMARK    1  A    between atoms: C1_1  and  C8_8 
ROOT
HETATM    1  C1  UNL     1     -33.775   6.482   3.690  1.00 20.00     0.139 C 
HETATM    2  C2  UNL     1     -32.420   6.601   1.975  1.00 20.00     0.209 C 
HETATM    3  C3  UNL     1     -32.551   7.957   2.659  1.00 20.00     0.070 C 
HETATM    4  C4  UNL     1     -31.281   8.332   3.430  1.00 20.00     0.042 C 
HETATM    5  C5  UNL     1     -32.928   9.062   1.678  1.00 20.00     0.042 C 
HETATM    6  N9  UNL     1     -33.644   7.769   3.633  1.00 20.00    -0.258 NA
HETATM    7  O10 UNL     1     -33.033   5.693   2.882  1.00 20.00    -0.335 OA
ENDROOT
BRANCH   1   8
HETATM    8  C8  UNL     1     -34.705   5.756   4.591  1.00 20.00     0.054 C 
HETATM    9  C6  UNL     1     -34.491   4.244   4.490  1.00 20.00     0.018 C 
HETATM   10  C7  UNL     1     -34.551   6.221   6.042  1.00 20.00     0.018 C 
ENDBRANCH   1   8
TORSDOF 1
ENDMDL
MODEL 5
REMARK VINA RESULT:      -4.6      1.289      1.849
REMARK  1 active torsions:
REMARK  status: ('A' for Active; 'I' for Inactive)
REMARK    1  A    between atoms: C1_1  and  C8_8 
ROOT
HETATM    1  C1  UNL     1     -32.633   7.839   2.457  1.00 20.00     0.139 C 
HETATM    2  C2  UNL     1     -31.259   8.785   1.039  1.00 20.00     0.209 C 
HETATM    3  C3  UNL     1     -32.652   9.398   0.938  1.00 20.00     0.070 C 
HETATM    4  C4  UNL     1     -32.697  10.812   1.526  1.00 20.00     0.042 C 
HETATM    5  C5  UNL     1     -33.178   9.397  -0.493  1.00 20.00     0.042 C 
HETATM    6  N9  UNL     1     -33.496   8.522   1.774  1.00 20.00    -0.258 NA
HETATM    7  O10 UNL     1     -31.313   7.996   2.221  1.00 20.00    -0.335 OA
ENDROOT
BRANCH   1   8
HETATM    8  C8  UNL     1     -32.968   6.852   3.513  1.00 20.00     0.054 C 
HETATM    9  C6  UNL     1     -33.366   7.558   4.811  1.00 20.00     0.018 C 
HETATM   10  C7  UNL     1     -34.083   5.906   3.058  1.00 20.00     0.018 C 
ENDBRANCH   1   8
TORSDOF 1
ENDMDL
MODEL 6
REMARK VINA RESULT:      -4.0      1.125      4.039
REMARK  1 active torsions:
REMARK  status: ('A' for Active; 'I' for Inactive)
REMARK    1  A    between atoms: C1_1  and  C8_8 
ROOT
HETATM    1  C1  UNL     1     -32.927   7.096   3.351  1.00 20.00     0.139 C 
HETATM    2  C2  UNL     1     -34.182   6.736   5.109  1.00 20.00     0.209 C 
HETATM    3  C3  UNL     1     -34.556   5.792   3.971  1.00 20.00     0.070 C 
HETATM    4  C4  UNL     1     -34.104   4.355   4.252  1.00 20.00     0.042 C 
HETATM    5  C5  UNL     1     -36.047   5.833   3.657  1.00 20.00     0.042 C 
HETATM    6  N9  UNL     1     -33.794   6.299   2.813  1.00 20.00    -0.258 NA
HETATM    7  O10 UNL     1     -32.961   7.328   4.682  1.00 20.00    -0.335 OA
ENDROOT
BRANCH   1   8
HETATM    8  C8  UNL     1     -31.858   7.817   2.617  1.00 20.00     0.054 C 
HETATM    9  C6  UNL     1     -32.456   8.725   1.539  1.00 20.00     0.018 C 
HETATM   10  C7  UNL     1     -30.980   8.632   3.571  1.00 20.00     0.018 C 
ENDBRANCH   1   8
TORSDOF 1
ENDMDL
MODEL 7
REMARK VINA RESULT:      -4.0     10.510     11.098
REMARK  1 active torsions:
REMARK  status: ('A' for Active; 'I' for Inactive)
REMARK    1  A    between atoms: C1_1  and  C8_8 
ROOT
HETATM    1  C1  UNL     1     -34.308  15.895  -3.414  1.00 20.00     0.139 C 
HETATM    2  C2  UNL     1     -33.695  14.656  -5.111  1.00 20.00     0.209 C 
HETATM    3  C3  UNL     1     -35.207  14.844  -5.094  1.00 20.00     0.070 C 
HETATM    4  C4  UNL     1     -35.678  15.782  -6.210  1.00 20.00     0.042 C 
HETATM    5  C5  UNL     1     -35.953  13.516  -5.161  1.00 20.00     0.042 C 
HETATM    6  N9  UNL     1     -35.478  15.496  -3.797  1.00 20.00    -0.258 NA
HETATM    7  O10 UNL     1     -33.217  15.590  -4.151  1.00 20.00    -0.335 OA
ENDROOT
BRANCH   1   8
HETATM    8  C8  UNL     1     -34.033  16.684  -2.186  1.00 20.00     0.054 C 
HETATM    9  C6  UNL     1     -33.333  18.001  -2.531  1.00 20.00     0.018 C 
HETATM   10  C7  UNL     1     -35.318  16.953  -1.399  1.00 20.00     0.018 C 
ENDBRANCH   1   8
TORSDOF 1
ENDMDL
MODEL 8
REMARK VINA RESULT:      -3.9     10.589     11.522
REMARK  1 active torsions:
REMARK  status: ('A' for Active; 'I' for Inactive)
REMARK    1  A    between atoms: C1_1  and  C8_8 
ROOT
HETATM    1  C1  UNL     1     -34.672  15.045  -4.708  1.00 20.00     0.139 C 
HETATM    2  C2  UNL     1     -35.805  13.280  -5.335  1.00 20.00     0.209 C 
HETATM    3  C3  UNL     1     -35.553  14.212  -6.515  1.00 20.00     0.070 C 
HETATM    4  C4  UNL     1     -34.513  13.638  -7.483  1.00 20.00     0.042 C 
HETATM    5  C5  UNL     1     -36.838  14.562  -7.257  1.00 20.00     0.042 C 
HETATM    6  N9  UNL     1     -34.990  15.431  -5.902  1.00 20.00    -0.258 NA
HETATM    7  O10 UNL     1     -34.968  13.790  -4.305  1.00 20.00    -0.335 OA
ENDROOT
BRANCH   1   8
HETATM    8  C8  UNL     1     -33.992  15.885  -3.690  1.00 20.00     0.054 C 
HETATM    9  C6  UNL     1     -33.409  17.148  -4.329  1.00 20.00     0.018 C 
HETATM   10  C7  UNL     1     -34.943  16.256  -2.549  1.00 20.00     0.018 C 
ENDBRANCH   1   8
TORSDOF 1
ENDMDL
MODEL 9
REMARK VINA RESULT:      -3.9     10.335     10.986
REMARK  1 active torsions:
REMARK  status: ('A' for Active; 'I' for Inactive)
REMARK    1  A    between atoms: C1_1  and  C8_8 
ROOT
HETATM    1  C1  UNL     1     -34.528  16.177  -3.418  1.00 20.00     0.139 C 
HETATM    2  C2  UNL     1     -33.605  14.485  -4.457  1.00 20.00     0.209 C 
HETATM    3  C3  UNL     1     -34.994  14.775  -5.016  1.00 20.00     0.070 C 
HETATM    4  C4  UNL     1     -34.926  15.407  -6.411  1.00 20.00     0.042 C 
HETATM    5  C5  UNL     1     -35.878  13.534  -5.034  1.00 20.00     0.042 C 
HETATM    6  N9  UNL     1     -35.561  15.771  -4.085  1.00 20.00    -0.258 NA
HETATM    7  O10 UNL     1     -33.321  15.609  -3.633  1.00 20.00    -0.335 OA
ENDROOT
BRANCH   1   8
HETATM    8  C8  UNL     1     -34.541  17.247  -2.389  1.00 20.00     0.054 C 
HETATM    9  C6  UNL     1     -35.489  16.886  -1.242  1.00 20.00     0.018 C 
HETATM   10  C7  UNL     1     -33.134  17.520  -1.851  1.00 20.00     0.018 C 
ENDBRANCH   1   8
TORSDOF 1
ENDMDL
