MODEL 1
REMARK VINA RESULT:      -5.4      0.000      0.000
REMARK  0 active torsions:
REMARK  status: ('A' for Active; 'I' for Inactive)
ROOT
HETATM    1  C1  UNL     1     -33.098   6.769   2.983  1.00 20.00     0.131 C 
HETATM    2  C2  UNL     1     -32.649   5.324   3.092  1.00 20.00     0.079 C 
HETATM    3  C3  UNL     1     -33.787   4.340   3.353  1.00 20.00     0.012 C 
HETATM    4  C4  UNL     1     -33.568   6.133   6.042  1.00 20.00     0.001 C 
HETATM    5  C5  UNL     1     -33.876   7.429   5.290  1.00 20.00     0.012 C 
HETATM    6  C6  UNL     1     -34.541   4.997   5.730  1.00 20.00     0.005 C 
HETATM    7  C7  UNL     1     -35.405   6.206   3.706  1.00 20.00     0.016 C 
HETATM    8  C8  UNL     1     -34.279   7.224   3.827  1.00 20.00     0.056 C 
HETATM    9  C9  UNL     1     -34.923   4.862   4.247  1.00 20.00    -0.013 C 
HETATM   10  O10 UNL     1     -32.460   7.575   2.304  1.00 20.00    -0.298 OA
ENDROOT
TORSDOF 0
ENDMDL
MODEL 2
REMARK VINA RESULT:      -5.3      1.672      2.793
REMARK  0 active torsions:
REMARK  status: ('A' for Active; 'I' for Inactive)
ROOT
HETATM    1  C1  UNL     1     -33.972   6.936   5.313  1.00 20.00     0.131 C 
HETATM    2  C2  UNL     1     -32.765   7.288   4.465  1.00 20.00     0.079 C 
HETATM    3  C3  UNL     1     -33.019   7.212   2.962  1.00 20.00     0.012 C 
HETATM    4  C4  UNL     1     -33.205   4.156   4.022  1.00 20.00     0.001 C 
HETATM    5  C5  UNL     1     -34.379   4.473   4.951  1.00 20.00     0.012 C 
HETATM    6  C6  UNL     1     -33.387   4.684   2.601  1.00 20.00     0.005 C 
HETATM    7  C7  UNL     1     -35.264   6.185   3.330  1.00 20.00     0.016 C 
HETATM    8  C8  UNL     1     -34.941   5.887   4.789  1.00 20.00     0.056 C 
HETATM    9  C9  UNL     1     -33.980   6.100   2.508  1.00 20.00    -0.013 C 
HETATM   10  O10 UNL     1     -34.109   7.414   6.440  1.00 20.00    -0.298 OA
ENDROOT
TORSDOF 0
ENDMDL
MODEL 3
REMARK VINA RESULT:      -5.1      1.351      1.969
REMARK  0 active torsions:
REMARK  status: ('A' for Active; 'I' for Inactive)
ROOT
HETATM    1  C1  UNL     1     -33.398   4.792   2.950  1.00 20.00     0.131 C 
HETATM    2  C2  UNL     1     -33.252   4.163   4.322  1.00 20.00     0.079 C 
HETATM    3  C3  UNL     1     -34.400   4.481   5.276  1.00 20.00     0.012 C 
HETATM    4  C4  UNL     1     -32.869   7.297   4.802  1.00 20.00     0.001 C 
HETATM    5  C5  UNL     1     -33.148   7.278   3.298  1.00 20.00     0.012 C 
HETATM    6  C6  UNL     1     -34.103   7.015   5.658  1.00 20.00     0.005 C 
HETATM    7  C7  UNL     1     -35.360   6.133   3.671  1.00 20.00     0.016 C 
HETATM    8  C8  UNL     1     -34.079   6.149   2.847  1.00 20.00     0.056 C 
HETATM    9  C9  UNL     1     -35.008   5.887   5.136  1.00 20.00    -0.013 C 
HETATM   10  O10 UNL     1     -32.890   4.265   1.959  1.00 20.00    -0.298 OA
ENDROOT
TORSDOF 0
ENDMDL
MODEL 4
REMARK VINA RESULT:      -4.8     11.816     13.194
REMARK  0 active torsions:
REMARK  status: ('A' for Active; 'I' for Inactive)
ROOT
HETATM    1  C1  UNL     1     -35.224  13.777  -5.321  1.00 20.00     0.131 C 
HETATM    2  C2  UNL     1     -35.100  14.489  -6.654  1.00 20.00     0.079 C 
HETATM    3  C3  UNL     1     -33.744  15.153  -6.879  1.00 20.00     0.012 C 
HETATM    4  C4  UNL     1     -35.131  16.819  -4.471  1.00 20.00     0.001 C 
HETATM    5  C5  UNL     1     -35.204  15.589  -3.565  1.00 20.00     0.012 C 
HETATM    6  C6  UNL     1     -33.759  17.029  -5.110  1.00 20.00     0.005 C 
HETATM    7  C7  UNL     1     -33.057  14.690  -4.526  1.00 20.00     0.016 C 
HETATM    8  C8  UNL     1     -34.487  14.357  -4.122  1.00 20.00     0.056 C 
HETATM    9  C9  UNL     1     -33.083  15.749  -5.626  1.00 20.00    -0.013 C 
HETATM   10  O10 UNL     1     -35.982  12.815  -5.190  1.00 20.00    -0.298 OA
ENDROOT
TORSDOF 0
ENDMDL
MODEL 5
REMARK VINA RESULT:      -4.4     12.054     13.503
REMARK  0 active torsions:
REMARK  status: ('A' for Active; 'I' for Inactive)
ROOT
HETATM    1  C1  UNL     1     -35.473  13.843  -5.118  1.00 20.00     0.131 C 
HETATM    2  C2  UNL     1     -34.459  14.152  -4.033  1.00 20.00     0.079 C 
HETATM    3  C3  UNL     1     -34.497  15.597  -3.543  1.00 20.00     0.012 C 
HETATM    4  C4  UNL     1     -33.440  15.754  -6.601  1.00 20.00     0.001 C 
HETATM    5  C5  UNL     1     -34.724  15.133  -7.153  1.00 20.00     0.012 C 
HETATM    6  C6  UNL     1     -33.686  16.897  -5.617  1.00 20.00     0.005 C 
HETATM    7  C7  UNL     1     -36.094  16.236  -5.350  1.00 20.00     0.016 C 
HETATM    8  C8  UNL     1     -35.827  14.942  -6.109  1.00 20.00     0.056 C 
HETATM    9  C9  UNL     1     -34.823  16.652  -4.612  1.00 20.00    -0.013 C 
HETATM   10  O10 UNL     1     -35.921  12.704  -5.253  1.00 20.00    -0.298 OA
ENDROOT
TORSDOF 0
ENDMDL
MODEL 6
REMARK VINA RESULT:      -4.4     12.129     13.310
REMARK  0 active torsions:
REMARK  status: ('A' for Active; 'I' for Inactive)
ROOT
HETATM    1  C1  UNL     1     -35.546  13.876  -5.247  1.00 20.00     0.131 C 
HETATM    2  C2  UNL     1     -36.492  14.964  -4.776  1.00 20.00     0.079 C 
HETATM    3  C3  UNL     1     -36.274  16.312  -5.458  1.00 20.00     0.012 C 
HETATM    4  C4  UNL     1     -33.625  15.819  -3.660  1.00 20.00     0.001 C 
HETATM    5  C5  UNL     1     -33.257  14.543  -4.422  1.00 20.00     0.012 C 
HETATM    6  C6  UNL     1     -33.954  17.002  -4.569  1.00 20.00     0.005 C 
HETATM    7  C7  UNL     1     -34.192  15.491  -6.560  1.00 20.00     0.016 C 
HETATM    8  C8  UNL     1     -34.133  14.272  -5.648  1.00 20.00     0.056 C 
HETATM    9  C9  UNL     1     -34.814  16.656  -5.795  1.00 20.00    -0.013 C 
HETATM   10  O10 UNL     1     -35.882  12.691  -5.210  1.00 20.00    -0.298 OA
ENDROOT
TORSDOF 0
ENDMDL
MODEL 7
REMARK VINA RESULT:      -4.3      1.843      3.414
REMARK  0 active torsions:
REMARK  status: ('A' for Active; 'I' for Inactive)
ROOT
HETATM    1  C1  UNL     1     -34.566   5.444   5.605  1.00 20.00     0.131 C 
HETATM    2  C2  UNL     1     -33.563   6.567   5.784  1.00 20.00     0.079 C 
HETATM    3  C3  UNL     1     -33.670   7.668   4.732  1.00 20.00     0.012 C 
HETATM    4  C4  UNL     1     -32.640   5.046   3.131  1.00 20.00     0.001 C 
HETATM    5  C5  UNL     1     -33.895   4.247   3.487  1.00 20.00     0.012 C 
HETATM    6  C6  UNL     1     -32.937   6.441   2.585  1.00 20.00     0.005 C 
HETATM    7  C7  UNL     1     -35.307   6.330   3.407  1.00 20.00     0.016 C 
HETATM    8  C8  UNL     1     -34.981   5.066   4.190  1.00 20.00     0.056 C 
HETATM    9  C9  UNL     1     -34.055   7.200   3.319  1.00 20.00    -0.013 C 
HETATM   10  O10 UNL     1     -34.958   4.790   6.573  1.00 20.00    -0.298 OA
ENDROOT
TORSDOF 0
ENDMDL
MODEL 8
REMARK VINA RESULT:      -4.3     12.211     13.582
REMARK  0 active torsions:
REMARK  status: ('A' for Active; 'I' for Inactive)
ROOT
HETATM    1  C1  UNL     1     -37.157  14.231  -5.575  1.00 20.00     0.131 C 
HETATM    2  C2  UNL     1     -37.089  15.504  -6.396  1.00 20.00     0.079 C 
HETATM    3  C3  UNL     1     -36.121  15.430  -7.575  1.00 20.00     0.012 C 
HETATM    4  C4  UNL     1     -34.261  15.315  -4.925  1.00 20.00     0.001 C 
HETATM    5  C5  UNL     1     -34.917  14.024  -4.432  1.00 20.00     0.012 C 
HETATM    6  C6  UNL     1     -33.836  15.265  -6.391  1.00 20.00     0.005 C 
HETATM    7  C7  UNL     1     -35.244  13.227  -6.798  1.00 20.00     0.016 C 
HETATM    8  C8  UNL     1     -35.893  13.396  -5.431  1.00 20.00     0.056 C 
HETATM    9  C9  UNL     1     -34.849  14.600  -7.337  1.00 20.00    -0.013 C 
HETATM   10  O10 UNL     1     -38.182  13.935  -4.958  1.00 20.00    -0.298 OA
ENDROOT
TORSDOF 0
ENDMDL
MODEL 9
REMARK VINA RESULT:      -4.2     11.830     13.171
REMARK  0 active torsions:
REMARK  status: ('A' for Active; 'I' for Inactive)
ROOT
HETATM    1  C1  UNL     1     -36.777  14.473  -4.730  1.00 20.00     0.131 C 
HETATM    2  C2  UNL     1     -35.542  13.641  -5.019  1.00 20.00     0.079 C 
HETATM    3  C3  UNL     1     -34.331  14.013  -4.168  1.00 20.00     0.012 C 
HETATM    4  C4  UNL     1     -34.842  16.565  -6.097  1.00 20.00     0.001 C 
HETATM    5  C5  UNL     1     -36.242  16.806  -5.528  1.00 20.00     0.012 C 
HETATM    6  C6  UNL     1     -33.769  16.379  -5.027  1.00 20.00     0.005 C 
HETATM    7  C7  UNL     1     -35.508  16.013  -3.253  1.00 20.00     0.016 C 
HETATM    8  C8  UNL     1     -36.588  15.927  -4.323  1.00 20.00     0.056 C 
HETATM    9  C9  UNL     1     -34.189  15.507  -3.833  1.00 20.00    -0.013 C 
HETATM   10  O10 UNL     1     -37.904  14.012  -4.918  1.00 20.00    -0.298 OA
ENDROOT
TORSDOF 0
ENDMDL
