MODEL 1
REMARK VINA RESULT:      -4.5      0.000      0.000
REMARK  2 active torsions:
REMARK  status: ('A' for Active; 'I' for Inactive)
REMARK    1  A    between atoms: C9_9  and  C11_11 
REMARK    2  A    between atoms: C10_10  and  C11_11 
ROOT
HETATM    1  C6  UNL     1     -36.050  13.359  -5.686  1.00 20.00     0.207 A 
HETATM    2  C11 UNL     1     -35.237  14.558  -5.267  1.00 20.00     0.089 A 
HETATM    3  O12 UNL     1     -35.142  13.309  -4.574  1.00 20.00    -0.374 OA
ENDROOT
BRANCH   2   4
HETATM    4  C9  UNL     1     -35.863  15.683  -4.478  1.00 20.00     0.023 C 
HETATM    5  C2  UNL     1     -35.062  15.875  -3.175  1.00 20.00     0.012 C 
HETATM    6  C7  UNL     1     -33.584  16.168  -3.502  1.00 20.00    -0.013 C 
HETATM    7  C1  UNL     1     -33.498  17.443  -4.358  1.00 20.00     0.009 C 
HETATM    8  C3  UNL     1     -32.997  14.983  -4.296  1.00 20.00     0.012 C 
HETATM    9  C8  UNL     1     -34.286  17.260  -5.666  1.00 20.00    -0.013 C 
HETATM   10  C4  UNL     1     -35.764  16.965  -5.329  1.00 20.00     0.012 C 
HETATM   11  C5  UNL     1     -33.695  16.070  -6.453  1.00 20.00     0.012 C 
HETATM   12  C10 UNL     1     -33.783  14.785  -5.607  1.00 20.00     0.023 C 
ENDBRANCH   2   4
TORSDOF 2
ENDMDL
MODEL 2
REMARK VINA RESULT:      -4.5      1.265      1.790
REMARK  2 active torsions:
REMARK  status: ('A' for Active; 'I' for Inactive)
REMARK    1  A    between atoms: C9_9  and  C11_11 
REMARK    2  A    between atoms: C10_10  and  C11_11 
ROOT
HETATM    1  C6  UNL     1     -35.422  13.287  -7.400  1.00 20.00     0.207 A 
HETATM    2  C11 UNL     1     -35.052  14.236  -6.288  1.00 20.00     0.089 A 
HETATM    3  O12 UNL     1     -34.100  13.320  -6.839  1.00 20.00    -0.374 OA
ENDROOT
BRANCH   2   4
HETATM    4  C9  UNL     1     -35.459  13.956  -4.861  1.00 20.00     0.023 C 
HETATM    5  C2  UNL     1     -34.206  14.033  -3.967  1.00 20.00     0.012 C 
HETATM    6  C7  UNL     1     -33.543  15.419  -4.105  1.00 20.00    -0.013 C 
HETATM    7  C1  UNL     1     -34.548  16.505  -3.684  1.00 20.00     0.009 C 
HETATM    8  C3  UNL     1     -33.139  15.643  -5.577  1.00 20.00     0.012 C 
HETATM    9  C8  UNL     1     -35.800  16.443  -4.576  1.00 20.00    -0.013 C 
HETATM   10  C4  UNL     1     -36.456  15.053  -4.434  1.00 20.00     0.012 C 
HETATM   11  C5  UNL     1     -35.387  16.665  -6.047  1.00 20.00     0.012 C 
HETATM   12  C10 UNL     1     -34.386  15.578  -6.482  1.00 20.00     0.023 C 
ENDBRANCH   2   4
TORSDOF 2
ENDMDL
MODEL 3
REMARK VINA RESULT:      -4.3      1.484      2.821
REMARK  2 active torsions:
REMARK  status: ('A' for Active; 'I' for Inactive)
REMARK    1  A    between atoms: C9_9  and  C11_11 
REMARK    2  A    between atoms: C10_10  and  C11_11 
ROOT
HETATM    1  C6  UNL     1     -35.251  16.587  -2.149  1.00 20.00     0.207 A 
HETATM    2  C11 UNL     1     -34.882  16.076  -3.519  1.00 20.00     0.089 A 
HETATM    3  O12 UNL     1     -33.885  16.506  -2.586  1.00 20.00    -0.374 OA
ENDROOT
BRANCH   2   4
HETATM    4  C9  UNL     1     -35.036  16.950  -4.741  1.00 20.00     0.023 C 
HETATM    5  C2  UNL     1     -33.669  17.057  -5.445  1.00 20.00     0.012 C 
HETATM    6  C7  UNL     1     -33.154  15.652  -5.816  1.00 20.00    -0.013 C 
HETATM    7  C1  UNL     1     -34.167  14.971  -6.752  1.00 20.00     0.009 C 
HETATM    8  C3  UNL     1     -33.005  14.811  -4.530  1.00 20.00     0.012 C 
HETATM    9  C8  UNL     1     -35.534  14.850  -6.056  1.00 20.00    -0.013 C 
HETATM   10  C4  UNL     1     -36.041  16.261  -5.686  1.00 20.00     0.012 C 
HETATM   11  C5  UNL     1     -35.376  14.011  -4.770  1.00 20.00     0.012 C 
HETATM   12  C10 UNL     1     -34.368  14.687  -3.821  1.00 20.00     0.023 C 
ENDBRANCH   2   4
TORSDOF 2
ENDMDL
MODEL 4
REMARK VINA RESULT:      -4.3      1.374      3.082
REMARK  2 active torsions:
REMARK  status: ('A' for Active; 'I' for Inactive)
REMARK    1  A    between atoms: C9_9  and  C11_11 
REMARK    2  A    between atoms: C10_10  and  C11_11 
ROOT
HETATM    1  C6  UNL     1     -35.169  16.603  -2.214  1.00 20.00     0.207 A 
HETATM    2  C11 UNL     1     -34.938  16.099  -3.616  1.00 20.00     0.089 A 
HETATM    3  O12 UNL     1     -36.254  16.192  -3.060  1.00 20.00    -0.374 OA
ENDROOT
BRANCH   2   4
HETATM    4  C9  UNL     1     -34.445  14.693  -3.864  1.00 20.00     0.023 C 
HETATM    5  C2  UNL     1     -35.409  14.000  -4.847  1.00 20.00     0.012 C 
HETATM    6  C7  UNL     1     -35.497  14.808  -6.158  1.00 20.00    -0.013 C 
HETATM    7  C1  UNL     1     -34.097  14.908  -6.787  1.00 20.00     0.009 C 
HETATM    8  C3  UNL     1     -36.016  16.227  -5.844  1.00 20.00     0.012 C 
HETATM    9  C8  UNL     1     -33.128  15.607  -5.818  1.00 20.00    -0.013 C 
HETATM   10  C4  UNL     1     -33.047  14.793  -4.508  1.00 20.00     0.012 C 
HETATM   11  C5  UNL     1     -33.656  17.024  -5.506  1.00 20.00     0.012 C 
HETATM   12  C10 UNL     1     -35.056  16.935  -4.868  1.00 20.00     0.023 C 
ENDBRANCH   2   4
TORSDOF 2
ENDMDL
MODEL 5
REMARK VINA RESULT:      -4.3      1.335      2.552
REMARK  2 active torsions:
REMARK  status: ('A' for Active; 'I' for Inactive)
REMARK    1  A    between atoms: C9_9  and  C11_11 
REMARK    2  A    between atoms: C10_10  and  C11_11 
ROOT
HETATM    1  C6  UNL     1     -35.144  13.313  -7.467  1.00 20.00     0.207 A 
HETATM    2  C11 UNL     1     -35.046  14.273  -6.308  1.00 20.00     0.089 A 
HETATM    3  O12 UNL     1     -36.269  14.093  -7.031  1.00 20.00    -0.374 OA
ENDROOT
BRANCH   2   4
HETATM    4  C9  UNL     1     -34.398  15.627  -6.474  1.00 20.00     0.023 C 
HETATM    5  C2  UNL     1     -35.387  16.709  -5.998  1.00 20.00     0.012 C 
HETATM    6  C7  UNL     1     -35.788  16.449  -4.532  1.00 20.00    -0.013 C 
HETATM    7  C1  UNL     1     -34.529  16.475  -3.650  1.00 20.00     0.009 C 
HETATM    8  C3  UNL     1     -36.455  15.062  -4.427  1.00 20.00     0.012 C 
HETATM    9  C8  UNL     1     -33.537  15.393  -4.110  1.00 20.00    -0.013 C 
HETATM   10  C4  UNL     1     -33.142  15.658  -5.579  1.00 20.00     0.012 C 
HETATM   11  C5  UNL     1     -34.212  14.008  -4.005  1.00 20.00     0.012 C 
HETATM   12  C10 UNL     1     -35.472  13.968  -4.891  1.00 20.00     0.023 C 
ENDBRANCH   2   4
TORSDOF 2
ENDMDL
MODEL 6
REMARK VINA RESULT:      -4.2      1.506      2.210
REMARK  2 active torsions:
REMARK  status: ('A' for Active; 'I' for Inactive)
REMARK    1  A    between atoms: C9_9  and  C11_11 
REMARK    2  A    between atoms: C10_10  and  C11_11 
ROOT
HETATM    1  C6  UNL     1     -38.314  14.748  -4.919  1.00 20.00     0.207 A 
HETATM    2  C11 UNL     1     -36.852  14.876  -5.265  1.00 20.00     0.089 A 
HETATM    3  O12 UNL     1     -37.445  13.606  -4.973  1.00 20.00    -0.374 OA
ENDROOT
BRANCH   2   4
HETATM    4  C9  UNL     1     -35.852  15.365  -4.245  1.00 20.00     0.023 C 
HETATM    5  C2  UNL     1     -34.663  14.385  -4.211  1.00 20.00     0.012 C 
HETATM    6  C7  UNL     1     -34.031  14.273  -5.613  1.00 20.00    -0.013 C 
HETATM    7  C1  UNL     1     -33.546  15.662  -6.064  1.00 20.00     0.009 C 
HETATM    8  C3  UNL     1     -35.093  13.758  -6.607  1.00 20.00     0.012 C 
HETATM    9  C8  UNL     1     -34.727  16.647  -6.109  1.00 20.00    -0.013 C 
HETATM   10  C4  UNL     1     -35.355  16.752  -4.703  1.00 20.00     0.012 C 
HETATM   11  C5  UNL     1     -35.786  16.124  -7.104  1.00 20.00     0.012 C 
HETATM   12  C10 UNL     1     -36.285  14.735  -6.658  1.00 20.00     0.023 C 
ENDBRANCH   2   4
TORSDOF 2
ENDMDL
MODEL 7
REMARK VINA RESULT:      -4.2      1.410      1.802
REMARK  2 active torsions:
REMARK  status: ('A' for Active; 'I' for Inactive)
REMARK    1  A    between atoms: C9_9  and  C11_11 
REMARK    2  A    between atoms: C10_10  and  C11_11 
ROOT
HETATM    1  C6  UNL     1     -37.914  14.693  -5.669  1.00 20.00     0.207 A 
HETATM    2  C11 UNL     1     -36.447  14.923  -5.407  1.00 20.00     0.089 A 
HETATM    3  O12 UNL     1     -37.347  14.555  -4.356  1.00 20.00    -0.374 OA
ENDROOT
BRANCH   2   4
HETATM    4  C9  UNL     1     -35.885  16.322  -5.309  1.00 20.00     0.023 C 
HETATM    5  C2  UNL     1     -35.054  16.429  -4.015  1.00 20.00     0.012 C 
HETATM    6  C7  UNL     1     -33.935  15.368  -4.017  1.00 20.00    -0.013 C 
HETATM    7  C1  UNL     1     -33.026  15.593  -5.238  1.00 20.00     0.009 C 
HETATM    8  C3  UNL     1     -34.567  13.964  -4.106  1.00 20.00     0.012 C 
HETATM    9  C8  UNL     1     -33.843  15.480  -6.536  1.00 20.00    -0.013 C 
HETATM   10  C4  UNL     1     -34.964  16.543  -6.525  1.00 20.00     0.012 C 
HETATM   11  C5  UNL     1     -34.475  14.073  -6.617  1.00 20.00     0.012 C 
HETATM   12  C10 UNL     1     -35.394  13.839  -5.402  1.00 20.00     0.023 C 
ENDBRANCH   2   4
TORSDOF 2
ENDMDL
MODEL 8
REMARK VINA RESULT:      -4.2      1.430      3.399
REMARK  2 active torsions:
REMARK  status: ('A' for Active; 'I' for Inactive)
REMARK    1  A    between atoms: C9_9  and  C11_11 
REMARK    2  A    between atoms: C10_10  and  C11_11 
ROOT
HETATM    1  C6  UNL     1     -32.911  14.878  -4.178  1.00 20.00     0.207 A 
HETATM    2  C11 UNL     1     -34.099  14.832  -5.107  1.00 20.00     0.089 A 
HETATM    3  O12 UNL     1     -33.524  13.638  -4.565  1.00 20.00    -0.374 OA
ENDROOT
BRANCH   2   4
HETATM    4  C9  UNL     1     -33.927  15.008  -6.597  1.00 20.00     0.023 C 
HETATM    5  C2  UNL     1     -34.417  13.728  -7.303  1.00 20.00     0.012 C 
HETATM    6  C7  UNL     1     -35.888  13.451  -6.932  1.00 20.00    -0.013 C 
HETATM    7  C1  UNL     1     -36.754  14.646  -7.364  1.00 20.00     0.009 C 
HETATM    8  C3  UNL     1     -35.999  13.268  -5.404  1.00 20.00     0.012 C 
HETATM    9  C8  UNL     1     -36.279  15.928  -6.659  1.00 20.00    -0.013 C 
HETATM   10  C4  UNL     1     -34.805  16.198  -7.033  1.00 20.00     0.012 C 
HETATM   11  C5  UNL     1     -36.391  15.737  -5.130  1.00 20.00     0.012 C 
HETATM   12  C10 UNL     1     -35.521  14.545  -4.685  1.00 20.00     0.023 C 
ENDBRANCH   2   4
TORSDOF 2
ENDMDL
MODEL 9
REMARK VINA RESULT:      -4.1      1.528      2.817
REMARK  2 active torsions:
REMARK  status: ('A' for Active; 'I' for Inactive)
REMARK    1  A    between atoms: C9_9  and  C11_11 
REMARK    2  A    between atoms: C10_10  and  C11_11 
ROOT
HETATM    1  C6  UNL     1     -37.876  14.438  -5.260  1.00 20.00     0.207 A 
HETATM    2  C11 UNL     1     -36.425  14.834  -5.370  1.00 20.00     0.089 A 
HETATM    3  O12 UNL     1     -37.281  14.798  -6.517  1.00 20.00    -0.374 OA
ENDROOT
BRANCH   2   4
HETATM    4  C9  UNL     1     -35.332  13.792  -5.352  1.00 20.00     0.023 C 
HETATM    5  C2  UNL     1     -34.430  14.004  -6.584  1.00 20.00     0.012 C 
HETATM    6  C7  UNL     1     -33.850  15.432  -6.573  1.00 20.00    -0.013 C 
HETATM    7  C1  UNL     1     -33.030  15.637  -5.288  1.00 20.00     0.009 C 
HETATM    8  C3  UNL     1     -35.009  16.451  -6.605  1.00 20.00     0.012 C 
HETATM    9  C8  UNL     1     -33.923  15.437  -4.052  1.00 20.00    -0.013 C 
HETATM   10  C4  UNL     1     -34.502  14.005  -4.071  1.00 20.00     0.012 C 
HETATM   11  C5  UNL     1     -35.081  16.457  -4.092  1.00 20.00     0.012 C 
HETATM   12  C10 UNL     1     -35.914  16.256  -5.372  1.00 20.00     0.023 C 
ENDBRANCH   2   4
TORSDOF 2
ENDMDL
