MODEL 1
REMARK VINA RESULT:      -5.1      0.000      0.000
REMARK  1 active torsions:
REMARK  status: ('A' for Active; 'I' for Inactive)
REMARK    1  A    between atoms: C1_1  and  C3_3 
ROOT
HETATM    1  C2  UNL     1     -34.612   4.802   5.078  1.00 20.00     0.018 A 
HETATM    2  C3  UNL     1     -34.652   5.675   3.849  1.00 20.00     0.076 A 
HETATM    3  C4  UNL     1     -34.670   6.296   5.226  1.00 20.00    -0.005 A 
HETATM    4  C5  UNL     1     -33.500   7.037   5.777  1.00 20.00     0.011 C 
ENDROOT
BRANCH   2   5
HETATM    5  C1  UNL     1     -33.464   5.770   2.994  1.00 20.00     0.223 C 
HETATM    6  O6  UNL     1     -32.806   4.778   2.692  1.00 20.00    -0.279 OA
HETATM    7 CL7  UNL     1     -33.144   7.404   2.497  1.00 20.00    -0.043 Cl
ENDBRANCH   2   5
TORSDOF 1
ENDMDL
MODEL 2
REMARK VINA RESULT:      -5.1      1.437      1.437
REMARK  1 active torsions:
REMARK  status: ('A' for Active; 'I' for Inactive)
REMARK    1  A    between atoms: C1_1  and  C3_3 
ROOT
HETATM    1  C2  UNL     1     -34.495   4.816   5.171  1.00 20.00     0.018 A 
HETATM    2  C3  UNL     1     -34.775   5.744   4.016  1.00 20.00     0.076 A 
HETATM    3  C4  UNL     1     -34.696   6.284   5.425  1.00 20.00    -0.005 A 
HETATM    4  C5  UNL     1     -33.556   7.124   5.890  1.00 20.00     0.011 C 
ENDROOT
BRANCH   2   5
HETATM    5  C1  UNL     1     -33.714   6.021   3.042  1.00 20.00     0.223 C 
HETATM    6  O6  UNL     1     -33.494   7.158   2.633  1.00 20.00    -0.279 OA
HETATM    7 CL7  UNL     1     -32.859   4.581   2.578  1.00 20.00    -0.043 Cl
ENDBRANCH   2   5
TORSDOF 1
ENDMDL
MODEL 3
REMARK VINA RESULT:      -4.8      2.460      3.330
REMARK  1 active torsions:
REMARK  status: ('A' for Active; 'I' for Inactive)
REMARK    1  A    between atoms: C1_1  and  C3_3 
ROOT
HETATM    1  C2  UNL     1     -32.973   7.462   2.937  1.00 20.00     0.018 A 
HETATM    2  C3  UNL     1     -34.156   7.058   3.780  1.00 20.00     0.076 A 
HETATM    3  C4  UNL     1     -33.678   6.164   2.660  1.00 20.00    -0.005 A 
HETATM    4  C5  UNL     1     -32.986   4.870   2.919  1.00 20.00     0.011 C 
ENDROOT
BRANCH   2   5
HETATM    5  C1  UNL     1     -33.948   6.687   5.183  1.00 20.00     0.223 C 
HETATM    6  O6  UNL     1     -33.254   7.367   5.934  1.00 20.00    -0.279 OA
HETATM    7 CL7  UNL     1     -34.784   5.223   5.604  1.00 20.00    -0.043 Cl
ENDBRANCH   2   5
TORSDOF 1
ENDMDL
MODEL 4
REMARK VINA RESULT:      -4.7      1.926      2.452
REMARK  1 active torsions:
REMARK  status: ('A' for Active; 'I' for Inactive)
REMARK    1  A    between atoms: C1_1  and  C3_3 
ROOT
HETATM    1  C2  UNL     1     -33.779   5.428   3.072  1.00 20.00     0.018 A 
HETATM    2  C3  UNL     1     -34.226   6.692   3.763  1.00 20.00     0.076 A 
HETATM    3  C4  UNL     1     -34.806   5.357   4.167  1.00 20.00    -0.005 A 
HETATM    4  C5  UNL     1     -34.468   4.706   5.465  1.00 20.00     0.011 C 
ENDROOT
BRANCH   2   5
HETATM    5  C1  UNL     1     -33.289   7.404   4.639  1.00 20.00     0.223 C 
HETATM    6  O6  UNL     1     -33.532   7.589   5.828  1.00 20.00    -0.279 OA
HETATM    7 CL7  UNL     1     -31.863   7.918   3.790  1.00 20.00    -0.043 Cl
ENDBRANCH   2   5
TORSDOF 1
ENDMDL
MODEL 5
REMARK VINA RESULT:      -4.4      2.234      2.705
REMARK  1 active torsions:
REMARK  status: ('A' for Active; 'I' for Inactive)
REMARK    1  A    between atoms: C1_1  and  C3_3 
ROOT
HETATM    1  C2  UNL     1     -33.516   7.719   3.043  1.00 20.00     0.018 A 
HETATM    2  C3  UNL     1     -33.407   6.253   3.381  1.00 20.00     0.076 A 
HETATM    3  C4  UNL     1     -32.813   7.293   4.301  1.00 20.00    -0.005 A 
HETATM    4  C5  UNL     1     -33.409   7.607   5.631  1.00 20.00     0.011 C 
ENDROOT
BRANCH   2   5
HETATM    5  C1  UNL     1     -34.613   5.510   3.760  1.00 20.00     0.223 C 
HETATM    6  O6  UNL     1     -35.738   5.961   3.563  1.00 20.00    -0.279 OA
HETATM    7 CL7  UNL     1     -34.235   3.978   4.489  1.00 20.00    -0.043 Cl
ENDBRANCH   2   5
TORSDOF 1
ENDMDL
MODEL 6
REMARK VINA RESULT:      -4.2      2.091      2.465
REMARK  1 active torsions:
REMARK  status: ('A' for Active; 'I' for Inactive)
REMARK    1  A    between atoms: C1_1  and  C3_3 
ROOT
HETATM    1  C2  UNL     1     -33.047   5.769   3.097  1.00 20.00     0.018 A 
HETATM    2  C3  UNL     1     -33.304   7.146   2.539  1.00 20.00     0.076 A 
HETATM    3  C4  UNL     1     -34.028   6.680   3.780  1.00 20.00    -0.005 A 
HETATM    4  C5  UNL     1     -33.720   7.229   5.131  1.00 20.00     0.011 C 
ENDROOT
BRANCH   2   5
HETATM    5  C1  UNL     1     -32.249   8.163   2.618  1.00 20.00     0.223 C 
HETATM    6  O6  UNL     1     -31.286   8.037   3.369  1.00 20.00    -0.279 OA
HETATM    7 CL7  UNL     1     -32.547   9.498   1.547  1.00 20.00    -0.043 Cl
ENDBRANCH   2   5
TORSDOF 1
ENDMDL
MODEL 7
REMARK VINA RESULT:      -4.2      2.075      2.355
REMARK  1 active torsions:
REMARK  status: ('A' for Active; 'I' for Inactive)
REMARK    1  A    between atoms: C1_1  and  C3_3 
ROOT
HETATM    1  C2  UNL     1     -33.931   7.091   5.125  1.00 20.00     0.018 A 
HETATM    2  C3  UNL     1     -34.381   6.408   3.858  1.00 20.00     0.076 A 
HETATM    3  C4  UNL     1     -33.547   7.667   3.791  1.00 20.00    -0.005 A 
HETATM    4  C5  UNL     1     -32.122   7.652   3.355  1.00 20.00     0.011 C 
ENDROOT
BRANCH   2   5
HETATM    5  C1  UNL     1     -33.810   5.105   3.500  1.00 20.00     0.223 C 
HETATM    6  O6  UNL     1     -33.187   4.939   2.455  1.00 20.00    -0.279 OA
HETATM    7 CL7  UNL     1     -34.126   3.899   4.709  1.00 20.00    -0.043 Cl
ENDBRANCH   2   5
TORSDOF 1
ENDMDL
MODEL 8
REMARK VINA RESULT:      -4.2      1.164      1.668
REMARK  1 active torsions:
REMARK  status: ('A' for Active; 'I' for Inactive)
REMARK    1  A    between atoms: C1_1  and  C3_3 
ROOT
HETATM    1  C2  UNL     1     -35.504   6.032   3.694  1.00 20.00     0.018 A 
HETATM    2  C3  UNL     1     -34.197   6.678   4.079  1.00 20.00     0.076 A 
HETATM    3  C4  UNL     1     -34.745   5.527   4.889  1.00 20.00    -0.005 A 
HETATM    4  C5  UNL     1     -34.126   4.171   4.861  1.00 20.00     0.011 C 
ENDROOT
BRANCH   2   5
HETATM    5  C1  UNL     1     -33.024   6.502   3.215  1.00 20.00     0.223 C 
HETATM    6  O6  UNL     1     -32.898   5.517   2.493  1.00 20.00    -0.279 OA
HETATM    7 CL7  UNL     1     -31.903   7.821   3.357  1.00 20.00    -0.043 Cl
ENDBRANCH   2   5
TORSDOF 1
ENDMDL
MODEL 9
REMARK VINA RESULT:      -4.1      3.701      4.389
REMARK  1 active torsions:
REMARK  status: ('A' for Active; 'I' for Inactive)
REMARK    1  A    between atoms: C1_1  and  C3_3 
ROOT
HETATM    1  C2  UNL     1     -31.414   8.476   3.147  1.00 20.00     0.018 A 
HETATM    2  C3  UNL     1     -31.743   8.436   1.676  1.00 20.00     0.076 A 
HETATM    3  C4  UNL     1     -32.377   7.446   2.625  1.00 20.00    -0.005 A 
HETATM    4  C5  UNL     1     -33.818   7.516   2.998  1.00 20.00     0.011 C 
ENDROOT
BRANCH   2   5
HETATM    5  C1  UNL     1     -32.530   9.524   1.085  1.00 20.00     0.223 C 
HETATM    6  O6  UNL     1     -32.698  10.591   1.669  1.00 20.00    -0.279 OA
HETATM    7 CL7  UNL     1     -33.154   9.103  -0.481  1.00 20.00    -0.043 Cl
ENDBRANCH   2   5
TORSDOF 1
ENDMDL
