MODEL 1
REMARK VINA RESULT:      -3.6      0.000      0.000
REMARK  2 active torsions:
REMARK  status: ('A' for Active; 'I' for Inactive)
REMARK    1  A    between atoms: C2_2  and  C3_3 
REMARK    2  A    between atoms: C2_2  and  S5_5 
ROOT
HETATM    1  C1  UNL     1     -32.877   6.969   2.731  1.00 20.00     0.133 C 
HETATM    2  N4  UNL     1     -32.480   8.049   2.579  1.00 20.00    -0.184 NA
HETATM    3  S5  UNL     1     -33.445   5.392   2.945  1.00 20.00    -0.050 SA
ENDROOT
BRANCH   3   4
HETATM    4  C2  UNL     1     -34.877   5.771   4.001  1.00 20.00     0.105 C 
BRANCH   4   5
HETATM    5  C3  UNL     1     -34.536   5.720   5.482  1.00 20.00     0.126 C 
HETATM    6 CL6  UNL     1     -33.856   7.259   6.068  1.00 20.00    -0.130 Cl
ENDBRANCH   4   5
ENDBRANCH   3   4
TORSDOF 2
ENDMDL
MODEL 2
REMARK VINA RESULT:      -3.4      1.615      1.631
REMARK  2 active torsions:
REMARK  status: ('A' for Active; 'I' for Inactive)
REMARK    1  A    between atoms: C2_2  and  C3_3 
REMARK    2  A    between atoms: C2_2  and  S5_5 
ROOT
HETATM    1  C1  UNL     1     -32.515   7.678   2.537  1.00 20.00     0.133 C 
HETATM    2  N4  UNL     1     -31.862   8.544   2.124  1.00 20.00    -0.184 NA
HETATM    3  S5  UNL     1     -33.464   6.410   3.127  1.00 20.00    -0.050 SA
ENDROOT
BRANCH   3   4
HETATM    4  C2  UNL     1     -33.777   7.070   4.793  1.00 20.00     0.105 C 
BRANCH   4   5
HETATM    5  C3  UNL     1     -34.421   6.044   5.713  1.00 20.00     0.126 C 
HETATM    6 CL6  UNL     1     -34.559   4.444   4.943  1.00 20.00    -0.130 Cl
ENDBRANCH   4   5
ENDBRANCH   3   4
TORSDOF 2
ENDMDL
MODEL 3
REMARK VINA RESULT:      -3.4      3.220      4.156
REMARK  2 active torsions:
REMARK  status: ('A' for Active; 'I' for Inactive)
REMARK    1  A    between atoms: C2_2  and  C3_3 
REMARK    2  A    between atoms: C2_2  and  S5_5 
ROOT
HETATM    1  C1  UNL     1     -33.462   7.178   4.606  1.00 20.00     0.133 C 
HETATM    2  N4  UNL     1     -33.707   7.353   5.727  1.00 20.00    -0.184 NA
HETATM    3  S5  UNL     1     -33.115   6.912   2.973  1.00 20.00    -0.050 SA
ENDROOT
BRANCH   3   4
HETATM    4  C2  UNL     1     -31.930   8.271   2.733  1.00 20.00     0.105 C 
BRANCH   4   5
HETATM    5  C3  UNL     1     -31.924   8.791   1.303  1.00 20.00     0.126 C 
HETATM    6 CL6  UNL     1     -32.705  10.386   1.164  1.00 20.00    -0.130 Cl
ENDBRANCH   4   5
ENDBRANCH   3   4
TORSDOF 2
ENDMDL
MODEL 4
REMARK VINA RESULT:      -3.4      2.432      3.114
REMARK  2 active torsions:
REMARK  status: ('A' for Active; 'I' for Inactive)
REMARK    1  A    between atoms: C2_2  and  C3_3 
REMARK    2  A    between atoms: C2_2  and  S5_5 
ROOT
HETATM    1  C1  UNL     1     -34.128   6.676   5.197  1.00 20.00     0.133 C 
HETATM    2  N4  UNL     1     -33.839   7.305   6.129  1.00 20.00    -0.184 NA
HETATM    3  S5  UNL     1     -34.562   5.758   3.846  1.00 20.00    -0.050 SA
ENDROOT
BRANCH   3   4
HETATM    4  C2  UNL     1     -33.099   6.098   2.819  1.00 20.00     0.105 C 
BRANCH   4   5
HETATM    5  C3  UNL     1     -32.904   7.585   2.560  1.00 20.00     0.126 C 
HETATM    6 CL6  UNL     1     -31.458   8.225   3.379  1.00 20.00    -0.130 Cl
ENDBRANCH   4   5
ENDBRANCH   3   4
TORSDOF 2
ENDMDL
MODEL 5
REMARK VINA RESULT:      -3.3      3.186      3.905
REMARK  2 active torsions:
REMARK  status: ('A' for Active; 'I' for Inactive)
REMARK    1  A    between atoms: C2_2  and  C3_3 
REMARK    2  A    between atoms: C2_2  and  S5_5 
ROOT
HETATM    1  C1  UNL     1     -34.296   5.194   4.350  1.00 20.00     0.133 C 
HETATM    2  N4  UNL     1     -34.500   4.053   4.414  1.00 20.00    -0.184 NA
HETATM    3  S5  UNL     1     -34.007   6.856   4.267  1.00 20.00    -0.050 SA
ENDROOT
BRANCH   3   4
HETATM    4  C2  UNL     1     -32.848   6.851   2.865  1.00 20.00     0.105 C 
BRANCH   4   5
HETATM    5  C3  UNL     1     -31.944   8.075   2.854  1.00 20.00     0.126 C 
HETATM    6 CL6  UNL     1     -31.711   8.724   1.212  1.00 20.00    -0.130 Cl
ENDBRANCH   4   5
ENDBRANCH   3   4
TORSDOF 2
ENDMDL
MODEL 6
REMARK VINA RESULT:      -3.3      2.081      2.196
REMARK  2 active torsions:
REMARK  status: ('A' for Active; 'I' for Inactive)
REMARK    1  A    between atoms: C2_2  and  C3_3 
REMARK    2  A    between atoms: C2_2  and  S5_5 
ROOT
HETATM    1  C1  UNL     1     -32.220   8.715   1.840  1.00 20.00     0.133 C 
HETATM    2  N4  UNL     1     -32.508   9.191   0.821  1.00 20.00    -0.184 NA
HETATM    3  S5  UNL     1     -31.787   8.030   3.322  1.00 20.00    -0.050 SA
ENDROOT
BRANCH   3   4
HETATM    4  C2  UNL     1     -33.383   7.257   3.729  1.00 20.00     0.105 C 
BRANCH   4   5
HETATM    5  C3  UNL     1     -33.667   7.263   5.224  1.00 20.00     0.126 C 
HETATM    6 CL6  UNL     1     -34.420   5.744   5.771  1.00 20.00    -0.130 Cl
ENDBRANCH   4   5
ENDBRANCH   3   4
TORSDOF 2
ENDMDL
MODEL 7
REMARK VINA RESULT:      -3.2      2.478      3.032
REMARK  2 active torsions:
REMARK  status: ('A' for Active; 'I' for Inactive)
REMARK    1  A    between atoms: C2_2  and  C3_3 
REMARK    2  A    between atoms: C2_2  and  S5_5 
ROOT
HETATM    1  C1  UNL     1     -34.108   6.575   5.534  1.00 20.00     0.133 C 
HETATM    2  N4  UNL     1     -33.703   7.469   6.154  1.00 20.00    -0.184 NA
HETATM    3  S5  UNL     1     -34.702   5.268   4.644  1.00 20.00    -0.050 SA
ENDROOT
BRANCH   3   4
HETATM    4  C2  UNL     1     -34.304   5.883   2.979  1.00 20.00     0.105 C 
BRANCH   4   5
HETATM    5  C3  UNL     1     -32.846   6.296   2.845  1.00 20.00     0.126 C 
HETATM    6 CL6  UNL     1     -32.670   8.027   2.463  1.00 20.00    -0.130 Cl
ENDBRANCH   4   5
ENDBRANCH   3   4
TORSDOF 2
ENDMDL
MODEL 8
REMARK VINA RESULT:      -3.2      2.673      2.867
REMARK  2 active torsions:
REMARK  status: ('A' for Active; 'I' for Inactive)
REMARK    1  A    between atoms: C2_2  and  C3_3 
REMARK    2  A    between atoms: C2_2  and  S5_5 
ROOT
HETATM    1  C1  UNL     1     -33.367   7.370   4.919  1.00 20.00     0.133 C 
HETATM    2  N4  UNL     1     -33.766   7.329   6.009  1.00 20.00    -0.184 NA
HETATM    3  S5  UNL     1     -32.776   7.440   3.338  1.00 20.00    -0.050 SA
ENDROOT
BRANCH   3   4
HETATM    4  C2  UNL     1     -33.789   6.109   2.622  1.00 20.00     0.105 C 
BRANCH   4   5
HETATM    5  C3  UNL     1     -33.300   4.726   3.024  1.00 20.00     0.126 C 
HETATM    6 CL6  UNL     1     -34.274   4.025   4.339  1.00 20.00    -0.130 Cl
ENDBRANCH   4   5
ENDBRANCH   3   4
TORSDOF 2
ENDMDL
MODEL 9
REMARK VINA RESULT:      -3.2      2.262      2.410
REMARK  2 active torsions:
REMARK  status: ('A' for Active; 'I' for Inactive)
REMARK    1  A    between atoms: C2_2  and  C3_3 
REMARK    2  A    between atoms: C2_2  and  S5_5 
ROOT
HETATM    1  C1  UNL     1     -33.011   7.255   3.990  1.00 20.00     0.133 C 
HETATM    2  N4  UNL     1     -32.616   7.080   2.913  1.00 20.00    -0.184 NA
HETATM    3  S5  UNL     1     -33.580   7.522   5.559  1.00 20.00    -0.050 SA
ENDROOT
BRANCH   3   4
HETATM    4  C2  UNL     1     -34.424   5.930   5.806  1.00 20.00     0.105 C 
BRANCH   4   5
HETATM    5  C3  UNL     1     -34.924   5.329   4.501  1.00 20.00     0.126 C 
HETATM    6 CL6  UNL     1     -34.126   3.782   4.125  1.00 20.00    -0.130 Cl
ENDBRANCH   4   5
ENDBRANCH   3   4
TORSDOF 2
ENDMDL
