MODEL 1
REMARK VINA RESULT:      -5.4      0.000      0.000
REMARK  0 active torsions:
REMARK  status: ('A' for Active; 'I' for Inactive)
ROOT
HETATM    1  C1  UNL     1     -34.438   5.542   4.984  1.00 20.00     0.000 C 
HETATM    2  C2  UNL     1     -34.278   5.400   3.474  1.00 20.00     0.003 C 
HETATM    3  C3  UNL     1     -34.264   6.989   5.430  1.00 20.00     0.003 C 
HETATM    4  C4  UNL     1     -31.673   8.515   1.612  1.00 20.00     0.029 C 
HETATM    5  C5  UNL     1     -32.945   5.973   2.992  1.00 20.00     0.038 C 
HETATM    6  C6  UNL     1     -32.931   7.569   4.954  1.00 20.00     0.038 C 
HETATM    7  C7  UNL     1     -31.381   7.975   2.990  1.00 20.00     0.040 C 
HETATM    8  C8  UNL     1     -33.069   9.068   1.786  1.00 20.00     0.168 C 
HETATM    9  C9  UNL     1     -32.740   7.433   3.437  1.00 20.00     0.061 C 
HETATM   10  O10 UNL     1     -33.724   8.249   2.763  1.00 20.00    -0.380 OA
ENDROOT
TORSDOF 0
ENDMDL
MODEL 2
REMARK VINA RESULT:      -4.8      1.127      2.159
REMARK  0 active torsions:
REMARK  status: ('A' for Active; 'I' for Inactive)
ROOT
HETATM    1  C1  UNL     1     -34.613   5.051   4.956  1.00 20.00     0.000 C 
HETATM    2  C2  UNL     1     -34.283   6.460   5.438  1.00 20.00     0.003 C 
HETATM    3  C3  UNL     1     -33.659   4.598   3.858  1.00 20.00     0.003 C 
HETATM    4  C4  UNL     1     -32.273   9.011   2.370  1.00 20.00     0.029 C 
HETATM    5  C5  UNL     1     -34.254   7.458   4.280  1.00 20.00     0.038 C 
HETATM    6  C6  UNL     1     -33.627   5.590   2.694  1.00 20.00     0.038 C 
HETATM    7  C7  UNL     1     -33.324   8.003   1.978  1.00 20.00     0.040 C 
HETATM    8  C8  UNL     1     -31.243   8.138   3.048  1.00 20.00     0.168 C 
HETATM    9  C9  UNL     1     -33.303   7.019   3.151  1.00 20.00     0.061 C 
HETATM   10  O10 UNL     1     -31.953   7.055   3.664  1.00 20.00    -0.380 OA
ENDROOT
TORSDOF 0
ENDMDL
MODEL 3
REMARK VINA RESULT:      -4.0     11.188     12.488
REMARK  0 active torsions:
REMARK  status: ('A' for Active; 'I' for Inactive)
ROOT
HETATM    1  C1  UNL     1     -33.709  16.235  -3.582  1.00 20.00     0.000 C 
HETATM    2  C2  UNL     1     -34.884  15.263  -3.615  1.00 20.00     0.003 C 
HETATM    3  C3  UNL     1     -33.493  16.896  -4.937  1.00 20.00     0.003 C 
HETATM    4  C4  UNL     1     -35.688  13.510  -7.645  1.00 20.00     0.029 C 
HETATM    5  C5  UNL     1     -34.721  14.220  -4.722  1.00 20.00     0.038 C 
HETATM    6  C6  UNL     1     -33.326  15.860  -6.050  1.00 20.00     0.038 C 
HETATM    7  C7  UNL     1     -34.281  13.807  -7.190  1.00 20.00     0.040 C 
HETATM    8  C8  UNL     1     -36.338  14.872  -7.552  1.00 20.00     0.168 C 
HETATM    9  C9  UNL     1     -34.492  14.864  -6.103  1.00 20.00     0.061 C 
HETATM   10  O10 UNL     1     -35.698  15.568  -6.474  1.00 20.00    -0.380 OA
ENDROOT
TORSDOF 0
ENDMDL
MODEL 4
REMARK VINA RESULT:      -4.0     10.976     12.002
REMARK  0 active torsions:
REMARK  status: ('A' for Active; 'I' for Inactive)
ROOT
HETATM    1  C1  UNL     1     -34.219  17.956  -0.592  1.00 20.00     0.000 C 
HETATM    2  C2  UNL     1     -32.952  18.012  -1.440  1.00 20.00     0.003 C 
HETATM    3  C3  UNL     1     -35.157  16.851  -1.063  1.00 20.00     0.003 C 
HETATM    4  C4  UNL     1     -33.479  16.497  -5.610  1.00 20.00     0.029 C 
HETATM    5  C5  UNL     1     -33.276  18.155  -2.928  1.00 20.00     0.038 C 
HETATM    6  C6  UNL     1     -35.489  16.989  -2.550  1.00 20.00     0.038 C 
HETATM    7  C7  UNL     1     -34.585  17.242  -4.905  1.00 20.00     0.040 C 
HETATM    8  C8  UNL     1     -33.249  15.330  -4.678  1.00 20.00     0.168 C 
HETATM    9  C9  UNL     1     -34.232  17.055  -3.427  1.00 20.00     0.061 C 
HETATM   10  O10 UNL     1     -33.537  15.790  -3.351  1.00 20.00    -0.380 OA
ENDROOT
TORSDOF 0
ENDMDL
MODEL 5
REMARK VINA RESULT:      -3.9     10.713     12.001
REMARK  0 active torsions:
REMARK  status: ('A' for Active; 'I' for Inactive)
ROOT
HETATM    1  C1  UNL     1     -33.349  18.476  -2.549  1.00 20.00     0.000 C 
HETATM    2  C2  UNL     1     -33.407  18.061  -4.016  1.00 20.00     0.003 C 
HETATM    3  C3  UNL     1     -33.675  17.309  -1.625  1.00 20.00     0.003 C 
HETATM    4  C4  UNL     1     -36.163  14.641  -4.836  1.00 20.00     0.029 C 
HETATM    5  C5  UNL     1     -34.755  17.431  -4.370  1.00 20.00     0.038 C 
HETATM    6  C6  UNL     1     -35.023  16.675  -1.971  1.00 20.00     0.038 C 
HETATM    7  C7  UNL     1     -36.486  15.667  -3.779  1.00 20.00     0.040 C 
HETATM    8  C8  UNL     1     -34.833  14.108  -4.354  1.00 20.00     0.168 C 
HETATM    9  C9  UNL     1     -35.113  16.253  -3.444  1.00 20.00     0.061 C 
HETATM   10  O10 UNL     1     -34.166  15.189  -3.688  1.00 20.00    -0.380 OA
ENDROOT
TORSDOF 0
ENDMDL
MODEL 6
REMARK VINA RESULT:      -3.9     10.621     11.771
REMARK  0 active torsions:
REMARK  status: ('A' for Active; 'I' for Inactive)
ROOT
HETATM    1  C1  UNL     1     -36.157  18.077  -1.771  1.00 20.00     0.000 C 
HETATM    2  C2  UNL     1     -35.215  16.998  -1.246  1.00 20.00     0.003 C 
HETATM    3  C3  UNL     1     -36.667  17.743  -3.167  1.00 20.00     0.003 C 
HETATM    4  C4  UNL     1     -33.069  14.737  -4.445  1.00 20.00     0.029 C 
HETATM    5  C5  UNL     1     -34.059  16.742  -2.212  1.00 20.00     0.038 C 
HETATM    6  C6  UNL     1     -35.516  17.487  -4.141  1.00 20.00     0.038 C 
HETATM    7  C7  UNL     1     -33.378  16.205  -4.601  1.00 20.00     0.040 C 
HETATM    8  C8  UNL     1     -34.448  14.148  -4.254  1.00 20.00     0.168 C 
HETATM    9  C9  UNL     1     -34.547  16.409  -3.635  1.00 20.00     0.061 C 
HETATM   10  O10 UNL     1     -35.237  15.141  -3.586  1.00 20.00    -0.380 OA
ENDROOT
TORSDOF 0
ENDMDL
MODEL 7
REMARK VINA RESULT:      -3.9     11.117     12.353
REMARK  0 active torsions:
REMARK  status: ('A' for Active; 'I' for Inactive)
ROOT
HETATM    1  C1  UNL     1     -34.812  16.284  -3.078  1.00 20.00     0.000 C 
HETATM    2  C2  UNL     1     -33.583  15.541  -3.593  1.00 20.00     0.003 C 
HETATM    3  C3  UNL     1     -36.057  15.930  -3.883  1.00 20.00     0.003 C 
HETATM    4  C4  UNL     1     -33.793  14.445  -7.918  1.00 20.00     0.029 C 
HETATM    5  C5  UNL     1     -33.365  15.781  -5.087  1.00 20.00     0.038 C 
HETATM    6  C6  UNL     1     -35.848  16.169  -5.379  1.00 20.00     0.038 C 
HETATM    7  C7  UNL     1     -34.395  15.731  -7.410  1.00 20.00     0.040 C 
HETATM    8  C8  UNL     1     -34.536  13.411  -7.103  1.00 20.00     0.168 C 
HETATM    9  C9  UNL     1     -34.613  15.438  -5.923  1.00 20.00     0.061 C 
HETATM   10  O10 UNL     1     -34.833  14.013  -5.836  1.00 20.00    -0.380 OA
ENDROOT
TORSDOF 0
ENDMDL
MODEL 8
REMARK VINA RESULT:      -3.9     11.012     12.017
REMARK  0 active torsions:
REMARK  status: ('A' for Active; 'I' for Inactive)
ROOT
HETATM    1  C1  UNL     1     -34.960  16.681  -2.281  1.00 20.00     0.000 C 
HETATM    2  C2  UNL     1     -36.247  16.914  -3.065  1.00 20.00     0.003 C 
HETATM    3  C3  UNL     1     -33.857  16.120  -3.170  1.00 20.00     0.003 C 
HETATM    4  C4  UNL     1     -36.724  14.249  -6.619  1.00 20.00     0.029 C 
HETATM    5  C5  UNL     1     -36.705  15.644  -3.784  1.00 20.00     0.038 C 
HETATM    6  C6  UNL     1     -34.307  14.848  -3.892  1.00 20.00     0.038 C 
HETATM    7  C7  UNL     1     -36.062  13.755  -5.357  1.00 20.00     0.040 C 
HETATM    8  C8  UNL     1     -35.849  15.424  -6.988  1.00 20.00     0.168 C 
HETATM    9  C9  UNL     1     -35.605  15.051  -4.684  1.00 20.00     0.061 C 
HETATM   10  O10 UNL     1     -35.358  15.982  -5.762  1.00 20.00    -0.380 OA
ENDROOT
TORSDOF 0
ENDMDL
MODEL 9
REMARK VINA RESULT:      -3.9     11.237     11.942
REMARK  0 active torsions:
REMARK  status: ('A' for Active; 'I' for Inactive)
ROOT
HETATM    1  C1  UNL     1     -34.435  18.176   0.482  1.00 20.00     0.000 C 
HETATM    2  C2  UNL     1     -35.644  17.726  -0.331  1.00 20.00     0.003 C 
HETATM    3  C3  UNL     1     -33.341  18.745  -0.413  1.00 20.00     0.003 C 
HETATM    4  C4  UNL     1     -34.680  16.532  -4.526  1.00 20.00     0.029 C 
HETATM    5  C5  UNL     1     -35.249  16.733  -1.425  1.00 20.00     0.038 C 
HETATM    6  C6  UNL     1     -32.938  17.757  -1.509  1.00 20.00     0.038 C 
HETATM    7  C7  UNL     1     -33.719  16.257  -3.397  1.00 20.00     0.040 C 
HETATM    8  C8  UNL     1     -34.822  18.034  -4.454  1.00 20.00     0.168 C 
HETATM    9  C9  UNL     1     -34.137  17.281  -2.340  1.00 20.00     0.061 C 
HETATM   10  O10 UNL     1     -34.675  18.402  -3.076  1.00 20.00    -0.380 OA
ENDROOT
TORSDOF 0
ENDMDL
