MODEL 1
REMARK VINA RESULT:      -4.7      0.000      0.000
REMARK  3 active torsions:
REMARK  status: ('A' for Active; 'I' for Inactive)
REMARK    1  A    between atoms: C1_1  and  C3_3 
REMARK    2  A    between atoms: C1_1  and  C4_4 
REMARK    3  A    between atoms: C4_4  and  C5_5 
ROOT
HETATM    1  C1  UNL     1     -34.479   5.089   4.502  1.00 20.00     0.127 C 
HETATM    2  O6  UNL     1     -34.490   3.867   4.363  1.00 20.00    -0.298 OA
ENDROOT
BRANCH   1   3
HETATM    3  C3  UNL     1     -34.567   5.749   5.869  1.00 20.00     0.074 C 
HETATM    4  C2  UNL     1     -33.891   7.109   5.909  1.00 20.00     0.013 C 
ENDBRANCH   1   3
BRANCH   1   5
HETATM    5  C4  UNL     1     -34.406   6.043   3.318  1.00 20.00     0.093 C 
BRANCH   5   6
HETATM    6  C5  UNL     1     -33.051   6.064   2.623  1.00 20.00     0.122 C 
HETATM    7 CL7  UNL     1     -32.293   7.671   2.736  1.00 20.00    -0.130 Cl
ENDBRANCH   5   6
ENDBRANCH   1   5
TORSDOF 3
ENDMDL
MODEL 2
REMARK VINA RESULT:      -4.6      1.874      2.291
REMARK  3 active torsions:
REMARK  status: ('A' for Active; 'I' for Inactive)
REMARK    1  A    between atoms: C1_1  and  C3_3 
REMARK    2  A    between atoms: C1_1  and  C4_4 
REMARK    3  A    between atoms: C4_4  and  C5_5 
ROOT
HETATM    1  C1  UNL     1     -33.956   6.740   5.173  1.00 20.00     0.127 C 
HETATM    2  O6  UNL     1     -33.571   7.539   6.025  1.00 20.00    -0.298 OA
ENDROOT
BRANCH   1   3
HETATM    3  C3  UNL     1     -34.642   5.434   5.540  1.00 20.00     0.074 C 
HETATM    4  C2  UNL     1     -34.456   4.357   4.486  1.00 20.00     0.013 C 
ENDBRANCH   1   3
BRANCH   1   5
HETATM    5  C4  UNL     1     -33.750   6.976   3.683  1.00 20.00     0.093 C 
BRANCH   5   6
HETATM    6  C5  UNL     1     -32.380   7.538   3.329  1.00 20.00     0.122 C 
HETATM    7 CL7  UNL     1     -32.438   8.474   1.815  1.00 20.00    -0.130 Cl
ENDBRANCH   5   6
ENDBRANCH   1   5
TORSDOF 3
ENDMDL
MODEL 3
REMARK VINA RESULT:      -4.5      2.039      3.002
REMARK  3 active torsions:
REMARK  status: ('A' for Active; 'I' for Inactive)
REMARK    1  A    between atoms: C1_1  and  C3_3 
REMARK    2  A    between atoms: C1_1  and  C4_4 
REMARK    3  A    between atoms: C4_4  and  C5_5 
ROOT
HETATM    1  C1  UNL     1     -33.476   6.036   2.948  1.00 20.00     0.127 C 
HETATM    2  O6  UNL     1     -32.826   5.026   2.684  1.00 20.00    -0.298 OA
ENDROOT
BRANCH   1   3
HETATM    3  C3  UNL     1     -33.033   7.421   2.506  1.00 20.00     0.074 C 
HETATM    4  C2  UNL     1     -31.820   7.921   3.271  1.00 20.00     0.013 C 
ENDBRANCH   1   3
BRANCH   1   5
HETATM    5  C4  UNL     1     -34.761   5.988   3.764  1.00 20.00     0.093 C 
BRANCH   5   6
HETATM    6  C5  UNL     1     -34.541   5.739   5.250  1.00 20.00     0.122 C 
HETATM    7 CL7  UNL     1     -33.919   7.197   6.064  1.00 20.00    -0.130 Cl
ENDBRANCH   5   6
ENDBRANCH   1   5
TORSDOF 3
ENDMDL
MODEL 4
REMARK VINA RESULT:      -4.4      1.429      1.735
REMARK  3 active torsions:
REMARK  status: ('A' for Active; 'I' for Inactive)
REMARK    1  A    between atoms: C1_1  and  C3_3 
REMARK    2  A    between atoms: C1_1  and  C4_4 
REMARK    3  A    between atoms: C4_4  and  C5_5 
ROOT
HETATM    1  C1  UNL     1     -33.660   5.277   3.362  1.00 20.00     0.127 C 
HETATM    2  O6  UNL     1     -32.943   4.685   2.556  1.00 20.00    -0.298 OA
ENDROOT
BRANCH   1   3
HETATM    3  C3  UNL     1     -34.496   4.540   4.395  1.00 20.00     0.074 C 
HETATM    4  C2  UNL     1     -34.604   5.294   5.709  1.00 20.00     0.013 C 
ENDBRANCH   1   3
BRANCH   1   5
HETATM    5  C4  UNL     1     -33.793   6.793   3.373  1.00 20.00     0.093 C 
BRANCH   5   6
HETATM    6  C5  UNL     1     -32.464   7.530   3.473  1.00 20.00     0.122 C 
HETATM    7 CL7  UNL     1     -32.012   8.262   1.913  1.00 20.00    -0.130 Cl
ENDBRANCH   5   6
ENDBRANCH   1   5
TORSDOF 3
ENDMDL
MODEL 5
REMARK VINA RESULT:      -4.3      3.417      4.470
REMARK  3 active torsions:
REMARK  status: ('A' for Active; 'I' for Inactive)
REMARK    1  A    between atoms: C1_1  and  C3_3 
REMARK    2  A    between atoms: C1_1  and  C4_4 
REMARK    3  A    between atoms: C4_4  and  C5_5 
ROOT
HETATM    1  C1  UNL     1     -32.035   8.114   2.661  1.00 20.00     0.127 C 
HETATM    2  O6  UNL     1     -31.344   8.441   3.624  1.00 20.00    -0.298 OA
ENDROOT
BRANCH   1   3
HETATM    3  C3  UNL     1     -31.879   8.764   1.295  1.00 20.00     0.074 C 
HETATM    4  C2  UNL     1     -32.646  10.070   1.176  1.00 20.00     0.013 C 
ENDBRANCH   1   3
BRANCH   1   5
HETATM    5  C4  UNL     1     -33.123   7.055   2.761  1.00 20.00     0.093 C 
BRANCH   5   6
HETATM    6  C5  UNL     1     -33.759   6.950   4.140  1.00 20.00     0.122 C 
HETATM    7 CL7  UNL     1     -35.057   5.730   4.162  1.00 20.00    -0.130 Cl
ENDBRANCH   5   6
ENDBRANCH   1   5
TORSDOF 3
ENDMDL
MODEL 6
REMARK VINA RESULT:      -4.3      2.764      3.591
REMARK  3 active torsions:
REMARK  status: ('A' for Active; 'I' for Inactive)
REMARK    1  A    between atoms: C1_1  and  C3_3 
REMARK    2  A    between atoms: C1_1  and  C4_4 
REMARK    3  A    between atoms: C4_4  and  C5_5 
ROOT
HETATM    1  C1  UNL     1     -32.936   7.337   3.972  1.00 20.00     0.127 C 
HETATM    2  O6  UNL     1     -33.160   7.508   5.170  1.00 20.00    -0.298 OA
ENDROOT
BRANCH   1   3
HETATM    3  C3  UNL     1     -31.817   8.066   3.247  1.00 20.00     0.074 C 
HETATM    4  C2  UNL     1     -32.208   8.494   1.843  1.00 20.00     0.013 C 
ENDBRANCH   1   3
BRANCH   1   5
HETATM    5  C4  UNL     1     -33.777   6.406   3.111  1.00 20.00     0.093 C 
BRANCH   5   6
HETATM    6  C5  UNL     1     -34.971   5.801   3.837  1.00 20.00     0.122 C 
HETATM    7 CL7  UNL     1     -34.501   4.346   4.751  1.00 20.00    -0.130 Cl
ENDBRANCH   5   6
ENDBRANCH   1   5
TORSDOF 3
ENDMDL
MODEL 7
REMARK VINA RESULT:      -4.3      2.179      2.591
REMARK  3 active torsions:
REMARK  status: ('A' for Active; 'I' for Inactive)
REMARK    1  A    between atoms: C1_1  and  C3_3 
REMARK    2  A    between atoms: C1_1  and  C4_4 
REMARK    3  A    between atoms: C4_4  and  C5_5 
ROOT
HETATM    1  C1  UNL     1     -33.152   7.109   3.523  1.00 20.00     0.127 C 
HETATM    2  O6  UNL     1     -33.655   6.354   2.692  1.00 20.00    -0.298 OA
ENDROOT
BRANCH   1   3
HETATM    3  C3  UNL     1     -33.661   7.192   4.953  1.00 20.00     0.074 C 
HETATM    4  C2  UNL     1     -34.477   5.976   5.357  1.00 20.00     0.013 C 
ENDBRANCH   1   3
BRANCH   1   5
HETATM    5  C4  UNL     1     -32.000   8.044   3.182  1.00 20.00     0.093 C 
BRANCH   5   6
HETATM    6  C5  UNL     1     -31.912   8.405   1.705  1.00 20.00     0.122 C 
HETATM    7 CL7  UNL     1     -32.605  10.015   1.392  1.00 20.00    -0.130 Cl
ENDBRANCH   5   6
ENDBRANCH   1   5
TORSDOF 3
ENDMDL
MODEL 8
REMARK VINA RESULT:      -4.2      2.524      3.224
REMARK  3 active torsions:
REMARK  status: ('A' for Active; 'I' for Inactive)
REMARK    1  A    between atoms: C1_1  and  C3_3 
REMARK    2  A    between atoms: C1_1  and  C4_4 
REMARK    3  A    between atoms: C4_4  and  C5_5 
ROOT
HETATM    1  C1  UNL     1     -32.781   7.441   3.702  1.00 20.00     0.127 C 
HETATM    2  O6  UNL     1     -32.918   7.578   4.917  1.00 20.00    -0.298 OA
ENDROOT
BRANCH   1   3
HETATM    3  C3  UNL     1     -33.548   6.392   2.914  1.00 20.00     0.074 C 
HETATM    4  C2  UNL     1     -34.770   5.878   3.655  1.00 20.00     0.013 C 
ENDBRANCH   1   3
BRANCH   1   5
HETATM    5  C4  UNL     1     -31.811   8.290   2.892  1.00 20.00     0.093 C 
BRANCH   5   6
HETATM    6  C5  UNL     1     -32.291   8.599   1.480  1.00 20.00     0.122 C 
HETATM    7 CL7  UNL     1     -32.646  10.334   1.284  1.00 20.00    -0.130 Cl
ENDBRANCH   5   6
ENDBRANCH   1   5
TORSDOF 3
ENDMDL
MODEL 9
REMARK VINA RESULT:      -4.1      2.674      2.943
REMARK  3 active torsions:
REMARK  status: ('A' for Active; 'I' for Inactive)
REMARK    1  A    between atoms: C1_1  and  C3_3 
REMARK    2  A    between atoms: C1_1  and  C4_4 
REMARK    3  A    between atoms: C4_4  and  C5_5 
ROOT
HETATM    1  C1  UNL     1     -32.897   7.361   3.711  1.00 20.00     0.127 C 
HETATM    2  O6  UNL     1     -31.974   7.744   2.993  1.00 20.00    -0.298 OA
ENDROOT
BRANCH   1   3
HETATM    3  C3  UNL     1     -33.026   7.796   5.162  1.00 20.00     0.074 C 
HETATM    4  C2  UNL     1     -34.034   6.964   5.936  1.00 20.00     0.013 C 
ENDBRANCH   1   3
BRANCH   1   5
HETATM    5  C4  UNL     1     -33.967   6.398   3.218  1.00 20.00     0.093 C 
BRANCH   5   6
HETATM    6  C5  UNL     1     -33.471   4.972   3.020  1.00 20.00     0.122 C 
HETATM    7 CL7  UNL     1     -34.149   3.875   4.249  1.00 20.00    -0.130 Cl
ENDBRANCH   5   6
ENDBRANCH   1   5
TORSDOF 3
ENDMDL
