MODEL 1
REMARK VINA RESULT:      -5.9      0.000      0.000
REMARK  0 active torsions:
REMARK  status: ('A' for Active; 'I' for Inactive)
ROOT
HETATM    1  C1  UNL     1     -32.834   6.852   2.594  1.00 20.00     0.053 A 
HETATM    2  C2  UNL     1     -33.763   6.550   3.502  1.00 20.00    -0.072 A 
HETATM    3  C3  UNL     1     -32.044   7.939   3.189  1.00 20.00     0.150 A 
HETATM    4  C4  UNL     1     -34.779   5.458   3.422  1.00 20.00     0.034 C 
HETATM    5  C5  UNL     1     -32.522   8.294   4.569  1.00 20.00     0.092 A 
HETATM    6  C6  UNL     1     -34.696   4.571   4.668  1.00 20.00     0.004 C 
HETATM    7  C7  UNL     1     -34.717   5.390   5.965  1.00 20.00     0.001 C 
HETATM    8  C8  UNL     1     -33.619   6.459   5.980  1.00 20.00     0.009 C 
HETATM    9  C9  UNL     1     -33.727   7.374   4.757  1.00 20.00     0.022 A 
HETATM   10  O10 UNL     1     -31.106   8.472   2.615  1.00 20.00    -0.293 OA
ENDROOT
TORSDOF 0
ENDMDL
MODEL 2
REMARK VINA RESULT:      -5.5      2.136      4.112
REMARK  0 active torsions:
REMARK  status: ('A' for Active; 'I' for Inactive)
ROOT
HETATM    1  C1  UNL     1     -33.642   6.616   5.876  1.00 20.00     0.053 A 
HETATM    2  C2  UNL     1     -33.388   7.348   4.790  1.00 20.00    -0.072 A 
HETATM    3  C3  UNL     1     -34.571   5.568   5.433  1.00 20.00     0.150 A 
HETATM    4  C4  UNL     1     -32.441   8.498   4.681  1.00 20.00     0.034 C 
HETATM    5  C5  UNL     1     -34.875   5.666   3.964  1.00 20.00     0.092 A 
HETATM    6  C6  UNL     1     -31.457   8.259   3.532  1.00 20.00     0.004 C 
HETATM    7  C7  UNL     1     -32.167   7.871   2.229  1.00 20.00     0.001 C 
HETATM    8  C8  UNL     1     -33.087   6.660   2.423  1.00 20.00     0.009 C 
HETATM    9  C9  UNL     1     -34.100   6.913   3.541  1.00 20.00     0.022 A 
HETATM   10  O10 UNL     1     -35.026   4.719   6.185  1.00 20.00    -0.293 OA
ENDROOT
TORSDOF 0
ENDMDL
MODEL 3
REMARK VINA RESULT:      -5.3      1.005      2.183
REMARK  0 active torsions:
REMARK  status: ('A' for Active; 'I' for Inactive)
ROOT
HETATM    1  C1  UNL     1     -32.735   8.407   3.605  1.00 20.00     0.053 A 
HETATM    2  C2  UNL     1     -33.013   7.296   4.288  1.00 20.00    -0.072 A 
HETATM    3  C3  UNL     1     -32.686   7.998   2.195  1.00 20.00     0.150 A 
HETATM    4  C4  UNL     1     -33.246   7.177   5.759  1.00 20.00     0.034 C 
HETATM    5  C5  UNL     1     -32.985   6.535   2.020  1.00 20.00     0.092 A 
HETATM    6  C6  UNL     1     -34.587   6.485   6.023  1.00 20.00     0.004 C 
HETATM    7  C7  UNL     1     -34.734   5.181   5.230  1.00 20.00     0.001 C 
HETATM    8  C8  UNL     1     -34.519   5.401   3.729  1.00 20.00     0.009 C 
HETATM    9  C9  UNL     1     -33.160   6.052   3.459  1.00 20.00     0.022 A 
HETATM   10  O10 UNL     1     -32.439   8.775   1.284  1.00 20.00    -0.293 OA
ENDROOT
TORSDOF 0
ENDMDL
MODEL 4
REMARK VINA RESULT:      -4.8      1.280      1.720
REMARK  0 active torsions:
REMARK  status: ('A' for Active; 'I' for Inactive)
ROOT
HETATM    1  C1  UNL     1     -32.443   7.645   3.748  1.00 20.00     0.053 A 
HETATM    2  C2  UNL     1     -33.413   6.729   3.752  1.00 20.00    -0.072 A 
HETATM    3  C3  UNL     1     -32.484   8.266   5.078  1.00 20.00     0.150 A 
HETATM    4  C4  UNL     1     -33.746   5.763   2.662  1.00 20.00     0.034 C 
HETATM    5  C5  UNL     1     -33.543   7.656   5.954  1.00 20.00     0.092 A 
HETATM    6  C6  UNL     1     -33.757   4.334   3.212  1.00 20.00     0.004 C 
HETATM    7  C7  UNL     1     -34.609   4.207   4.482  1.00 20.00     0.001 C 
HETATM    8  C8  UNL     1     -34.174   5.205   5.560  1.00 20.00     0.009 C 
HETATM    9  C9  UNL     1     -34.205   6.639   5.026  1.00 20.00     0.022 A 
HETATM   10  O10 UNL     1     -31.730   9.167   5.417  1.00 20.00    -0.293 OA
ENDROOT
TORSDOF 0
ENDMDL
MODEL 5
REMARK VINA RESULT:      -4.6     11.922     12.453
REMARK  0 active torsions:
REMARK  status: ('A' for Active; 'I' for Inactive)
ROOT
HETATM    1  C1  UNL     1     -31.471  18.504   0.300  1.00 20.00     0.053 A 
HETATM    2  C2  UNL     1     -32.658  18.499  -0.309  1.00 20.00    -0.072 A 
HETATM    3  C3  UNL     1     -31.742  18.921   1.682  1.00 20.00     0.150 A 
HETATM    4  C4  UNL     1     -32.949  18.074  -1.711  1.00 20.00     0.034 C 
HETATM    5  C5  UNL     1     -33.207  19.158   1.924  1.00 20.00     0.092 A 
HETATM    6  C6  UNL     1     -34.054  17.014  -1.720  1.00 20.00     0.004 C 
HETATM    7  C7  UNL     1     -35.277  17.443  -0.899  1.00 20.00     0.001 C 
HETATM    8  C8  UNL     1     -34.894  17.823   0.536  1.00 20.00     0.009 C 
HETATM    9  C9  UNL     1     -33.821  18.914   0.547  1.00 20.00     0.022 A 
HETATM   10  O10 UNL     1     -30.865  19.047   2.525  1.00 20.00    -0.293 OA
ENDROOT
TORSDOF 0
ENDMDL
MODEL 6
REMARK VINA RESULT:      -4.6      1.899      2.937
REMARK  0 active torsions:
REMARK  status: ('A' for Active; 'I' for Inactive)
ROOT
HETATM    1  C1  UNL     1     -33.870   4.258   3.711  1.00 20.00     0.053 A 
HETATM    2  C2  UNL     1     -34.196   5.430   4.257  1.00 20.00    -0.072 A 
HETATM    3  C3  UNL     1     -33.141   4.590   2.479  1.00 20.00     0.150 A 
HETATM    4  C4  UNL     1     -34.883   5.655   5.564  1.00 20.00     0.034 C 
HETATM    5  C5  UNL     1     -32.999   6.074   2.289  1.00 20.00     0.092 A 
HETATM    6  C6  UNL     1     -34.058   6.606   6.435  1.00 20.00     0.004 C 
HETATM    7  C7  UNL     1     -33.654   7.880   5.681  1.00 20.00     0.001 C 
HETATM    8  C8  UNL     1     -32.921   7.559   4.374  1.00 20.00     0.009 C 
HETATM    9  C9  UNL     1     -33.763   6.643   3.483  1.00 20.00     0.022 A 
HETATM   10  O10 UNL     1     -32.703   3.742   1.715  1.00 20.00    -0.293 OA
ENDROOT
TORSDOF 0
ENDMDL
MODEL 7
REMARK VINA RESULT:      -4.5     11.478     12.841
REMARK  0 active torsions:
REMARK  status: ('A' for Active; 'I' for Inactive)
ROOT
HETATM    1  C1  UNL     1     -34.452  14.218  -4.179  1.00 20.00     0.053 A 
HETATM    2  C2  UNL     1     -34.706  15.428  -3.677  1.00 20.00    -0.072 A 
HETATM    3  C3  UNL     1     -35.714  13.773  -4.785  1.00 20.00     0.150 A 
HETATM    4  C4  UNL     1     -33.734  16.351  -3.018  1.00 20.00     0.034 C 
HETATM    5  C5  UNL     1     -36.798  14.808  -4.658  1.00 20.00     0.092 A 
HETATM    6  C6  UNL     1     -33.765  17.721  -3.702  1.00 20.00     0.004 C 
HETATM    7  C7  UNL     1     -35.192  18.266  -3.846  1.00 20.00     0.001 C 
HETATM    8  C8  UNL     1     -36.110  17.273  -4.566  1.00 20.00     0.009 C 
HETATM    9  C9  UNL     1     -36.115  15.916  -3.859  1.00 20.00     0.022 A 
HETATM   10  O10 UNL     1     -35.845  12.687  -5.331  1.00 20.00    -0.293 OA
ENDROOT
TORSDOF 0
ENDMDL
MODEL 8
REMARK VINA RESULT:      -4.5     11.711     12.424
REMARK  0 active torsions:
REMARK  status: ('A' for Active; 'I' for Inactive)
ROOT
HETATM    1  C1  UNL     1     -32.447  18.657   0.639  1.00 20.00     0.053 A 
HETATM    2  C2  UNL     1     -33.299  18.449  -0.367  1.00 20.00    -0.072 A 
HETATM    3  C3  UNL     1     -33.279  18.732   1.847  1.00 20.00     0.150 A 
HETATM    4  C4  UNL     1     -32.958  18.224  -1.803  1.00 20.00     0.034 C 
HETATM    5  C5  UNL     1     -34.737  18.525   1.544  1.00 20.00     0.092 A 
HETATM    6  C6  UNL     1     -33.608  16.930  -2.300  1.00 20.00     0.004 C 
HETATM    7  C7  UNL     1     -35.104  16.864  -1.964  1.00 20.00     0.001 C 
HETATM    8  C8  UNL     1     -35.359  17.065  -0.466  1.00 20.00     0.009 C 
HETATM    9  C9  UNL     1     -34.748  18.381   0.023  1.00 20.00     0.022 A 
HETATM   10  O10 UNL     1     -32.819  18.930   2.962  1.00 20.00    -0.293 OA
ENDROOT
TORSDOF 0
ENDMDL
MODEL 9
REMARK VINA RESULT:      -4.5     11.930     12.380
REMARK  0 active torsions:
REMARK  status: ('A' for Active; 'I' for Inactive)
ROOT
HETATM    1  C1  UNL     1     -36.345  14.429  -4.579  1.00 20.00     0.053 A 
HETATM    2  C2  UNL     1     -35.767  15.535  -4.108  1.00 20.00    -0.072 A 
HETATM    3  C3  UNL     1     -35.316  13.766  -5.391  1.00 20.00     0.150 A 
HETATM    4  C4  UNL     1     -36.361  16.529  -3.164  1.00 20.00     0.034 C 
HETATM    5  C5  UNL     1     -34.015  14.520  -5.381  1.00 20.00     0.092 A 
HETATM    6  C6  UNL     1     -35.435  16.728  -1.960  1.00 20.00     0.004 C 
HETATM    7  C7  UNL     1     -33.987  17.010  -2.381  1.00 20.00     0.001 C 
HETATM    8  C8  UNL     1     -33.445  15.922  -3.315  1.00 20.00     0.009 C 
HETATM    9  C9  UNL     1     -34.346  15.752  -4.541  1.00 20.00     0.022 A 
HETATM   10  O10 UNL     1     -35.512  12.718  -5.989  1.00 20.00    -0.293 OA
ENDROOT
TORSDOF 0
ENDMDL
