MODEL 1
REMARK VINA RESULT:      -4.8      0.000      0.000
REMARK  0 active torsions:
REMARK  status: ('A' for Active; 'I' for Inactive)
ROOT
HETATM    1  C1  UNL     1     -33.941   5.230   5.284  1.00 20.00     0.005 C 
HETATM    2  C2  UNL     1     -34.121   6.735   5.526  1.00 20.00     0.008 C 
HETATM    3  C3  UNL     1     -35.206   6.179   3.506  1.00 20.00     0.012 C 
HETATM    4  C4  UNL     1     -32.913   5.660   3.038  1.00 20.00     0.047 C 
HETATM    5  C5  UNL     1     -34.154   5.099   3.767  1.00 20.00    -0.011 C 
HETATM    6  C6  UNL     1     -34.338   7.295   4.104  1.00 20.00     0.025 C 
HETATM    7  C7  UNL     1     -33.052   7.186   3.241  1.00 20.00     0.117 C 
HETATM    8 CL8  UNL     1     -33.292   8.010   1.661  1.00 20.00    -0.101 Cl
HETATM    9 CL9  UNL     1     -31.611   7.899   4.006  1.00 20.00    -0.101 Cl
ENDROOT
TORSDOF 0
ENDMDL
MODEL 2
REMARK VINA RESULT:      -4.3      2.064      3.086
REMARK  0 active torsions:
REMARK  status: ('A' for Active; 'I' for Inactive)
ROOT
HETATM    1  C1  UNL     1     -33.474   7.537   2.246  1.00 20.00     0.005 C 
HETATM    2  C2  UNL     1     -32.374   7.270   3.283  1.00 20.00     0.008 C 
HETATM    3  C3  UNL     1     -33.310   5.199   2.650  1.00 20.00     0.012 C 
HETATM    4  C4  UNL     1     -35.166   6.336   3.652  1.00 20.00     0.047 C 
HETATM    5  C5  UNL     1     -34.349   6.277   2.342  1.00 20.00    -0.011 C 
HETATM    6  C6  UNL     1     -32.799   5.922   3.904  1.00 20.00     0.025 C 
HETATM    7  C7  UNL     1     -34.101   6.059   4.737  1.00 20.00     0.117 C 
HETATM    8 CL8  UNL     1     -34.460   4.516   5.589  1.00 20.00    -0.101 Cl
HETATM    9 CL9  UNL     1     -34.037   7.347   5.965  1.00 20.00    -0.101 Cl
ENDROOT
TORSDOF 0
ENDMDL
MODEL 3
REMARK VINA RESULT:      -3.8     11.720     12.630
REMARK  0 active torsions:
REMARK  status: ('A' for Active; 'I' for Inactive)
ROOT
HETATM    1  C1  UNL     1     -33.646  16.637  -3.903  1.00 20.00     0.005 C 
HETATM    2  C2  UNL     1     -34.756  15.742  -3.337  1.00 20.00     0.008 C 
HETATM    3  C3  UNL     1     -33.177  14.363  -4.419  1.00 20.00     0.012 C 
HETATM    4  C4  UNL     1     -34.010  15.723  -6.208  1.00 20.00     0.047 C 
HETATM    5  C5  UNL     1     -33.034  15.765  -5.012  1.00 20.00    -0.011 C 
HETATM    6  C6  UNL     1     -34.697  14.494  -4.244  1.00 20.00     0.025 C 
HETATM    7  C7  UNL     1     -35.150  14.816  -5.693  1.00 20.00     0.117 C 
HETATM    8 CL8  UNL     1     -35.240  13.307  -6.666  1.00 20.00    -0.101 Cl
HETATM    9 CL9  UNL     1     -36.741  15.611  -5.788  1.00 20.00    -0.101 Cl
ENDROOT
TORSDOF 0
ENDMDL
MODEL 4
REMARK VINA RESULT:      -3.8     11.561     12.671
REMARK  0 active torsions:
REMARK  status: ('A' for Active; 'I' for Inactive)
ROOT
HETATM    1  C1  UNL     1     -34.737  14.514  -6.082  1.00 20.00     0.005 C 
HETATM    2  C2  UNL     1     -33.685  15.612  -6.289  1.00 20.00     0.008 C 
HETATM    3  C3  UNL     1     -33.122  14.410  -4.338  1.00 20.00     0.012 C 
HETATM    4  C4  UNL     1     -35.249  15.365  -3.780  1.00 20.00     0.047 C 
HETATM    5  C5  UNL     1     -34.618  14.204  -4.581  1.00 20.00    -0.011 C 
HETATM    6  C6  UNL     1     -33.145  15.853  -4.863  1.00 20.00     0.025 C 
HETATM    7  C7  UNL     1     -34.215  16.502  -3.945  1.00 20.00     0.117 C 
HETATM    8 CL8  UNL     1     -33.494  16.930  -2.355  1.00 20.00    -0.101 Cl
HETATM    9 CL9  UNL     1     -34.941  17.980  -4.622  1.00 20.00    -0.101 Cl
ENDROOT
TORSDOF 0
ENDMDL
MODEL 5
REMARK VINA RESULT:      -3.8     11.836     12.761
REMARK  0 active torsions:
REMARK  status: ('A' for Active; 'I' for Inactive)
ROOT
HETATM    1  C1  UNL     1     -33.209  14.983  -4.232  1.00 20.00     0.005 C 
HETATM    2  C2  UNL     1     -33.163  15.615  -5.630  1.00 20.00     0.008 C 
HETATM    3  C3  UNL     1     -35.206  16.218  -4.614  1.00 20.00     0.012 C 
HETATM    4  C4  UNL     1     -35.371  13.832  -4.765  1.00 20.00     0.047 C 
HETATM    5  C5  UNL     1     -34.714  14.947  -3.921  1.00 20.00    -0.011 C 
HETATM    6  C6  UNL     1     -34.655  15.792  -5.983  1.00 20.00     0.025 C 
HETATM    7  C7  UNL     1     -35.362  14.427  -6.191  1.00 20.00     0.117 C 
HETATM    8 CL8  UNL     1     -37.044  14.679  -6.776  1.00 20.00    -0.101 Cl
HETATM    9 CL9  UNL     1     -34.541  13.364  -7.360  1.00 20.00    -0.101 Cl
ENDROOT
TORSDOF 0
ENDMDL
MODEL 6
REMARK VINA RESULT:      -3.7     11.483     12.654
REMARK  0 active torsions:
REMARK  status: ('A' for Active; 'I' for Inactive)
ROOT
HETATM    1  C1  UNL     1     -34.340  16.299  -3.420  1.00 20.00     0.005 C 
HETATM    2  C2  UNL     1     -35.701  15.767  -3.887  1.00 20.00     0.008 C 
HETATM    3  C3  UNL     1     -34.127  14.017  -4.055  1.00 20.00     0.012 C 
HETATM    4  C4  UNL     1     -33.278  15.646  -5.595  1.00 20.00     0.047 C 
HETATM    5  C5  UNL     1     -33.347  15.332  -4.084  1.00 20.00    -0.011 C 
HETATM    6  C6  UNL     1     -35.318  14.603  -4.826  1.00 20.00     0.025 C 
HETATM    7  C7  UNL     1     -34.630  15.113  -6.121  1.00 20.00     0.117 C 
HETATM    8 CL8  UNL     1     -34.366  13.750  -7.263  1.00 20.00    -0.101 Cl
HETATM    9 CL9  UNL     1     -35.559  16.364  -6.983  1.00 20.00    -0.101 Cl
ENDROOT
TORSDOF 0
ENDMDL
MODEL 7
REMARK VINA RESULT:      -3.7     11.518     12.534
REMARK  0 active torsions:
REMARK  status: ('A' for Active; 'I' for Inactive)
ROOT
HETATM    1  C1  UNL     1     -32.911  15.528  -5.357  1.00 20.00     0.005 C 
HETATM    2  C2  UNL     1     -33.251  14.550  -4.224  1.00 20.00     0.008 C 
HETATM    3  C3  UNL     1     -34.840  14.266  -5.945  1.00 20.00     0.012 C 
HETATM    4  C4  UNL     1     -35.207  16.531  -5.251  1.00 20.00     0.047 C 
HETATM    5  C5  UNL     1     -34.249  15.668  -6.102  1.00 20.00    -0.011 C 
HETATM    6  C6  UNL     1     -34.764  14.309  -4.412  1.00 20.00     0.025 C 
HETATM    7  C7  UNL     1     -35.593  15.582  -4.094  1.00 20.00     0.117 C 
HETATM    8 CL8  UNL     1     -37.351  15.209  -4.148  1.00 20.00    -0.101 Cl
HETATM    9 CL9  UNL     1     -35.242  16.287  -2.497  1.00 20.00    -0.101 Cl
ENDROOT
TORSDOF 0
ENDMDL
MODEL 8
REMARK VINA RESULT:      -3.6     11.619     12.499
REMARK  0 active torsions:
REMARK  status: ('A' for Active; 'I' for Inactive)
ROOT
HETATM    1  C1  UNL     1     -35.000  16.536  -2.044  1.00 20.00     0.005 C 
HETATM    2  C2  UNL     1     -33.564  16.877  -2.465  1.00 20.00     0.008 C 
HETATM    3  C3  UNL     1     -35.031  17.673  -4.133  1.00 20.00     0.012 C 
HETATM    4  C4  UNL     1     -35.395  15.304  -4.191  1.00 20.00     0.047 C 
HETATM    5  C5  UNL     1     -35.765  16.564  -3.377  1.00 20.00    -0.011 C 
HETATM    6  C6  UNL     1     -33.666  16.982  -4.002  1.00 20.00     0.025 C 
HETATM    7  C7  UNL     1     -33.951  15.603  -4.654  1.00 20.00     0.117 C 
HETATM    8 CL8  UNL     1     -33.881  15.737  -6.446  1.00 20.00    -0.101 Cl
HETATM    9 CL9  UNL     1     -32.808  14.328  -4.166  1.00 20.00    -0.101 Cl
ENDROOT
TORSDOF 0
ENDMDL
MODEL 9
REMARK VINA RESULT:      -3.6     11.945     12.904
REMARK  0 active torsions:
REMARK  status: ('A' for Active; 'I' for Inactive)
ROOT
HETATM    1  C1  UNL     1     -34.822  14.109  -4.253  1.00 20.00     0.005 C 
HETATM    2  C2  UNL     1     -33.352  14.483  -4.488  1.00 20.00     0.008 C 
HETATM    3  C3  UNL     1     -34.315  16.121  -3.090  1.00 20.00     0.012 C 
HETATM    4  C4  UNL     1     -35.582  16.338  -5.112  1.00 20.00     0.047 C 
HETATM    5  C5  UNL     1     -35.457  15.451  -3.853  1.00 20.00    -0.011 C 
HETATM    6  C6  UNL     1     -33.341  16.011  -4.271  1.00 20.00     0.025 C 
HETATM    7  C7  UNL     1     -34.120  16.756  -5.387  1.00 20.00     0.117 C 
HETATM    8 CL8  UNL     1     -33.929  18.534  -5.199  1.00 20.00    -0.101 Cl
HETATM    9 CL9  UNL     1     -33.596  16.331  -7.035  1.00 20.00    -0.101 Cl
ENDROOT
TORSDOF 0
ENDMDL
