MODEL 1
REMARK VINA RESULT:      -5.0      0.000      0.000
REMARK  4 active torsions:
REMARK  status: ('A' for Active; 'I' for Inactive)
REMARK    1  A    between atoms: C1_1  and  C2_2 
REMARK    2  A    between atoms: C2_2  and  C3_3 
REMARK    3  A    between atoms: C3_3  and  C4_4 
REMARK    4  A    between atoms: C4_4  and  C5_5 
ROOT
HETATM    1  C2  UNL     1     -34.416   5.991   3.224  1.00 20.00     0.096 C 
ENDROOT
BRANCH   1   2
HETATM    2  C1  UNL     1     -34.467   5.092   4.449  1.00 20.00     0.218 C 
HETATM    3  O6  UNL     1     -34.498   3.868   4.378  1.00 20.00    -0.280 OA
HETATM    4 CL7  UNL     1     -34.427   6.016   5.925  1.00 20.00    -0.044 Cl
ENDBRANCH   1   2
BRANCH   1   5
HETATM    5  C3  UNL     1     -32.994   6.337   2.781  1.00 20.00     0.010 C 
BRANCH   5   6
HETATM    6  C4  UNL     1     -32.667   7.822   2.981  1.00 20.00     0.015 C 
BRANCH   6   7
HETATM    7  C5  UNL     1     -31.917   8.435   1.803  1.00 20.00     0.114 C 
HETATM    8 CL8  UNL     1     -32.683   9.936   1.234  1.00 20.00    -0.130 Cl
ENDBRANCH   6   7
ENDBRANCH   5   6
ENDBRANCH   1   5
TORSDOF 4
ENDMDL
MODEL 2
REMARK VINA RESULT:      -4.9      1.697      1.697
REMARK  4 active torsions:
REMARK  status: ('A' for Active; 'I' for Inactive)
REMARK    1  A    between atoms: C1_1  and  C2_2 
REMARK    2  A    between atoms: C2_2  and  C3_3 
REMARK    3  A    between atoms: C3_3  and  C4_4 
REMARK    4  A    between atoms: C4_4  and  C5_5 
ROOT
HETATM    1  C2  UNL     1     -34.056   6.905   3.667  1.00 20.00     0.096 C 
ENDROOT
BRANCH   1   2
HETATM    2  C1  UNL     1     -33.961   6.647   5.163  1.00 20.00     0.218 C 
HETATM    3  O6  UNL     1     -33.502   7.464   5.954  1.00 20.00    -0.280 OA
HETATM    4 CL7  UNL     1     -34.621   5.092   5.588  1.00 20.00    -0.044 Cl
ENDBRANCH   1   2
BRANCH   1   5
HETATM    5  C3  UNL     1     -32.709   6.822   2.949  1.00 20.00     0.010 C 
BRANCH   5   6
HETATM    6  C4  UNL     1     -32.027   8.191   2.831  1.00 20.00     0.015 C 
BRANCH   6   7
HETATM    7  C5  UNL     1     -31.941   8.697   1.395  1.00 20.00     0.114 C 
HETATM    8 CL8  UNL     1     -32.706  10.290   1.203  1.00 20.00    -0.130 Cl
ENDBRANCH   6   7
ENDBRANCH   5   6
ENDBRANCH   1   5
TORSDOF 4
ENDMDL
MODEL 3
REMARK VINA RESULT:      -4.9      1.284      1.642
REMARK  4 active torsions:
REMARK  status: ('A' for Active; 'I' for Inactive)
REMARK    1  A    between atoms: C1_1  and  C2_2 
REMARK    2  A    between atoms: C2_2  and  C3_3 
REMARK    3  A    between atoms: C3_3  and  C4_4 
REMARK    4  A    between atoms: C4_4  and  C5_5 
ROOT
HETATM    1  C2  UNL     1     -33.147   6.597   2.949  1.00 20.00     0.096 C 
ENDROOT
BRANCH   1   2
HETATM    2  C1  UNL     1     -34.186   6.451   4.049  1.00 20.00     0.218 C 
HETATM    3  O6  UNL     1     -35.222   5.810   3.908  1.00 20.00    -0.280 OA
HETATM    4 CL7  UNL     1     -33.690   7.258   5.511  1.00 20.00    -0.044 Cl
ENDBRANCH   1   2
BRANCH   1   5
HETATM    5  C3  UNL     1     -32.280   7.848   3.093  1.00 20.00     0.010 C 
BRANCH   5   6
HETATM    6  C4  UNL     1     -31.808   8.390   1.737  1.00 20.00     0.015 C 
BRANCH   6   7
HETATM    7  C5  UNL     1     -32.569   9.633   1.290  1.00 20.00     0.114 C 
HETATM    8 CL8  UNL     1     -33.127   9.502  -0.394  1.00 20.00    -0.130 Cl
ENDBRANCH   6   7
ENDBRANCH   5   6
ENDBRANCH   1   5
TORSDOF 4
ENDMDL
MODEL 4
REMARK VINA RESULT:      -4.9      2.076      4.418
REMARK  4 active torsions:
REMARK  status: ('A' for Active; 'I' for Inactive)
REMARK    1  A    between atoms: C1_1  and  C2_2 
REMARK    2  A    between atoms: C2_2  and  C3_3 
REMARK    3  A    between atoms: C3_3  and  C4_4 
REMARK    4  A    between atoms: C4_4  and  C5_5 
ROOT
HETATM    1  C2  UNL     1     -32.856   6.514   2.742  1.00 20.00     0.096 C 
ENDROOT
BRANCH   1   2
HETATM    2  C1  UNL     1     -32.183   7.877   2.783  1.00 20.00     0.218 C 
HETATM    3  O6  UNL     1     -31.520   8.266   3.738  1.00 20.00    -0.280 OA
HETATM    4 CL7  UNL     1     -32.440   8.762   1.304  1.00 20.00    -0.044 Cl
ENDBRANCH   1   2
BRANCH   1   5
HETATM    5  C3  UNL     1     -34.253   6.506   3.364  1.00 20.00     0.010 C 
BRANCH   5   6
HETATM    6  C4  UNL     1     -34.489   5.275   4.249  1.00 20.00     0.015 C 
BRANCH   6   7
HETATM    7  C5  UNL     1     -34.538   5.606   5.736  1.00 20.00     0.114 C 
HETATM    8 CL8  UNL     1     -33.877   7.220   6.082  1.00 20.00    -0.130 Cl
ENDBRANCH   6   7
ENDBRANCH   5   6
ENDBRANCH   1   5
TORSDOF 4
ENDMDL
MODEL 5
REMARK VINA RESULT:      -4.8      1.164      1.174
REMARK  4 active torsions:
REMARK  status: ('A' for Active; 'I' for Inactive)
REMARK    1  A    between atoms: C1_1  and  C2_2 
REMARK    2  A    between atoms: C2_2  and  C3_3 
REMARK    3  A    between atoms: C3_3  and  C4_4 
REMARK    4  A    between atoms: C4_4  and  C5_5 
ROOT
HETATM    1  C2  UNL     1     -34.789   6.106   3.735  1.00 20.00     0.096 C 
ENDROOT
BRANCH   1   2
HETATM    2  C1  UNL     1     -34.455   5.785   5.183  1.00 20.00     0.218 C 
HETATM    3  O6  UNL     1     -34.508   4.651   5.646  1.00 20.00    -0.280 OA
HETATM    4 CL7  UNL     1     -33.954   7.208   6.055  1.00 20.00    -0.044 Cl
ENDBRANCH   1   2
BRANCH   1   5
HETATM    5  C3  UNL     1     -33.627   5.859   2.773  1.00 20.00     0.010 C 
BRANCH   5   6
HETATM    6  C4  UNL     1     -32.505   6.892   2.938  1.00 20.00     0.015 C 
BRANCH   6   7
HETATM    7  C5  UNL     1     -32.782   8.201   2.208  1.00 20.00     0.114 C 
HETATM    8 CL8  UNL     1     -31.501   8.596   1.040  1.00 20.00    -0.130 Cl
ENDBRANCH   6   7
ENDBRANCH   5   6
ENDBRANCH   1   5
TORSDOF 4
ENDMDL
MODEL 6
REMARK VINA RESULT:      -4.8      2.407      4.281
REMARK  4 active torsions:
REMARK  status: ('A' for Active; 'I' for Inactive)
REMARK    1  A    between atoms: C1_1  and  C2_2 
REMARK    2  A    between atoms: C2_2  and  C3_3 
REMARK    3  A    between atoms: C3_3  and  C4_4 
REMARK    4  A    between atoms: C4_4  and  C5_5 
ROOT
HETATM    1  C2  UNL     1     -32.979   6.328   2.784  1.00 20.00     0.096 C 
ENDROOT
BRANCH   1   2
HETATM    2  C1  UNL     1     -32.450   7.729   2.523  1.00 20.00     0.218 C 
HETATM    3  O6  UNL     1     -32.755   8.383   1.531  1.00 20.00    -0.280 OA
HETATM    4 CL7  UNL     1     -31.419   8.277   3.816  1.00 20.00    -0.044 Cl
ENDBRANCH   1   2
BRANCH   1   5
HETATM    5  C3  UNL     1     -34.389   6.310   3.375  1.00 20.00     0.010 C 
BRANCH   5   6
HETATM    6  C4  UNL     1     -34.619   5.105   4.297  1.00 20.00     0.015 C 
BRANCH   6   7
HETATM    7  C5  UNL     1     -34.534   5.457   5.778  1.00 20.00     0.114 C 
HETATM    8 CL8  UNL     1     -33.970   7.124   6.035  1.00 20.00    -0.130 Cl
ENDBRANCH   6   7
ENDBRANCH   5   6
ENDBRANCH   1   5
TORSDOF 4
ENDMDL
MODEL 7
REMARK VINA RESULT:      -4.8      3.027      5.172
REMARK  4 active torsions:
REMARK  status: ('A' for Active; 'I' for Inactive)
REMARK    1  A    between atoms: C1_1  and  C2_2 
REMARK    2  A    between atoms: C2_2  and  C3_3 
REMARK    3  A    between atoms: C3_3  and  C4_4 
REMARK    4  A    between atoms: C4_4  and  C5_5 
ROOT
HETATM    1  C2  UNL     1     -31.731   8.583   1.430  1.00 20.00     0.096 C 
ENDROOT
BRANCH   1   2
HETATM    2  C1  UNL     1     -32.548   9.739   0.874  1.00 20.00     0.218 C 
HETATM    3  O6  UNL     1     -32.649  10.820   1.443  1.00 20.00    -0.280 OA
HETATM    4 CL7  UNL     1     -33.259   9.338  -0.666  1.00 20.00    -0.044 Cl
ENDBRANCH   1   2
BRANCH   1   5
HETATM    5  C3  UNL     1     -32.104   8.211   2.866  1.00 20.00     0.010 C 
BRANCH   5   6
HETATM    6  C4  UNL     1     -32.808   6.851   2.951  1.00 20.00     0.015 C 
BRANCH   6   7
HETATM    7  C5  UNL     1     -34.010   6.855   3.889  1.00 20.00     0.114 C 
HETATM    8 CL8  UNL     1     -33.563   7.333   5.542  1.00 20.00    -0.130 Cl
ENDBRANCH   6   7
ENDBRANCH   5   6
ENDBRANCH   1   5
TORSDOF 4
ENDMDL
MODEL 8
REMARK VINA RESULT:      -4.8      2.402      4.700
REMARK  4 active torsions:
REMARK  status: ('A' for Active; 'I' for Inactive)
REMARK    1  A    between atoms: C1_1  and  C2_2 
REMARK    2  A    between atoms: C2_2  and  C3_3 
REMARK    3  A    between atoms: C3_3  and  C4_4 
REMARK    4  A    between atoms: C4_4  and  C5_5 
ROOT
HETATM    1  C2  UNL     1     -32.842   6.802   2.903  1.00 20.00     0.096 C 
ENDROOT
BRANCH   1   2
HETATM    2  C1  UNL     1     -32.017   8.074   2.802  1.00 20.00     0.218 C 
HETATM    3  O6  UNL     1     -31.286   8.469   3.704  1.00 20.00    -0.280 OA
HETATM    4 CL7  UNL     1     -32.213   8.845   1.252  1.00 20.00    -0.044 Cl
ENDBRANCH   1   2
BRANCH   1   5
HETATM    5  C3  UNL     1     -34.141   6.979   3.691  1.00 20.00     0.010 C 
BRANCH   5   6
HETATM    6  C4  UNL     1     -33.952   6.717   5.190  1.00 20.00     0.015 C 
BRANCH   6   7
HETATM    7  C5  UNL     1     -34.610   5.424   5.661  1.00 20.00     0.114 C 
HETATM    8 CL8  UNL     1     -34.357   4.092   4.511  1.00 20.00    -0.130 Cl
ENDBRANCH   6   7
ENDBRANCH   5   6
ENDBRANCH   1   5
TORSDOF 4
ENDMDL
MODEL 9
REMARK VINA RESULT:      -4.7      1.771      1.952
REMARK  4 active torsions:
REMARK  status: ('A' for Active; 'I' for Inactive)
REMARK    1  A    between atoms: C1_1  and  C2_2 
REMARK    2  A    between atoms: C2_2  and  C3_3 
REMARK    3  A    between atoms: C3_3  and  C4_4 
REMARK    4  A    between atoms: C4_4  and  C5_5 
ROOT
HETATM    1  C2  UNL     1     -34.204   6.368   5.544  1.00 20.00     0.096 C 
ENDROOT
BRANCH   1   2
HETATM    2  C1  UNL     1     -34.860   5.523   4.464  1.00 20.00     0.218 C 
HETATM    3  O6  UNL     1     -35.747   5.947   3.731  1.00 20.00    -0.280 OA
HETATM    4 CL7  UNL     1     -34.160   3.930   4.383  1.00 20.00    -0.044 Cl
ENDBRANCH   1   2
BRANCH   1   5
HETATM    5  C3  UNL     1     -33.386   7.535   4.991  1.00 20.00     0.010 C 
BRANCH   5   6
HETATM    6  C4  UNL     1     -32.809   7.235   3.602  1.00 20.00     0.015 C 
BRANCH   6   7
HETATM    7  C5  UNL     1     -31.706   8.203   3.188  1.00 20.00     0.114 C 
HETATM    8 CL8  UNL     1     -31.865   8.708   1.491  1.00 20.00    -0.130 Cl
ENDBRANCH   6   7
ENDBRANCH   5   6
ENDBRANCH   1   5
TORSDOF 4
ENDMDL
