MODEL 1
REMARK VINA RESULT:      -5.9      0.000      0.000
REMARK  1 active torsions:
REMARK  status: ('A' for Active; 'I' for Inactive)
REMARK    1  A    between atoms: C2_2  and  C3_3 
ROOT
HETATM    1  C1  UNL     1     -34.127   6.534   5.233  1.00 20.00     0.147 C 
HETATM    2  C2  UNL     1     -34.503   5.579   4.194  1.00 20.00     0.425 C 
HETATM    3  N4  UNL     1     -33.829   7.292   6.059  1.00 20.00    -0.191 NA
HETATM    4  F5  UNL     1     -35.791   5.806   3.833  1.00 20.00    -0.179 F 
HETATM    5  F6  UNL     1     -34.455   4.325   4.710  1.00 20.00    -0.179 F 
ENDROOT
BRANCH   2   6
HETATM    6  C3  UNL     1     -33.624   5.650   2.974  1.00 20.00     0.469 C 
HETATM    7  F7  UNL     1     -34.342   6.031   1.894  1.00 20.00    -0.164 F 
HETATM    8  F8  UNL     1     -32.624   6.543   3.136  1.00 20.00    -0.164 F 
HETATM    9  F9  UNL     1     -33.070   4.451   2.694  1.00 20.00    -0.164 F 
ENDBRANCH   2   6
TORSDOF 1
ENDMDL
MODEL 2
REMARK VINA RESULT:      -5.8      1.397      2.815
REMARK  1 active torsions:
REMARK  status: ('A' for Active; 'I' for Inactive)
REMARK    1  A    between atoms: C2_2  and  C3_3 
ROOT
HETATM    1  C1  UNL     1     -32.797   6.919   3.182  1.00 20.00     0.147 C 
HETATM    2  C2  UNL     1     -33.690   5.778   2.998  1.00 20.00     0.425 C 
HETATM    3  N4  UNL     1     -32.088   7.825   3.327  1.00 20.00    -0.191 NA
HETATM    4  F5  UNL     1     -32.943   4.662   2.800  1.00 20.00    -0.179 F 
HETATM    5  F6  UNL     1     -34.418   5.966   1.869  1.00 20.00    -0.179 F 
ENDROOT
BRANCH   2   6
HETATM    6  C3  UNL     1     -34.620   5.555   4.160  1.00 20.00     0.469 C 
HETATM    7  F7  UNL     1     -35.890   5.865   3.818  1.00 20.00    -0.164 F 
HETATM    8  F8  UNL     1     -34.609   4.264   4.560  1.00 20.00    -0.164 F 
HETATM    9  F9  UNL     1     -34.282   6.321   5.218  1.00 20.00    -0.164 F 
ENDBRANCH   2   6
TORSDOF 1
ENDMDL
MODEL 3
REMARK VINA RESULT:      -5.1      1.896      2.480
REMARK  1 active torsions:
REMARK  status: ('A' for Active; 'I' for Inactive)
REMARK    1  A    between atoms: C2_2  and  C3_3 
ROOT
HETATM    1  C1  UNL     1     -34.256   4.935   4.042  1.00 20.00     0.147 C 
HETATM    2  C2  UNL     1     -33.592   5.789   3.061  1.00 20.00     0.425 C 
HETATM    3  N4  UNL     1     -34.784   4.256   4.820  1.00 20.00    -0.191 NA
HETATM    4  F5  UNL     1     -34.438   6.007   2.023  1.00 20.00    -0.179 F 
HETATM    5  F6  UNL     1     -32.518   5.130   2.559  1.00 20.00    -0.179 F 
ENDROOT
BRANCH   2   6
HETATM    6  C3  UNL     1     -33.146   7.111   3.626  1.00 20.00     0.469 C 
HETATM    7  F7  UNL     1     -33.882   8.120   3.110  1.00 20.00    -0.164 F 
HETATM    8  F8  UNL     1     -33.288   7.146   4.969  1.00 20.00    -0.164 F 
HETATM    9  F9  UNL     1     -31.851   7.360   3.338  1.00 20.00    -0.164 F 
ENDBRANCH   2   6
TORSDOF 1
ENDMDL
MODEL 4
REMARK VINA RESULT:      -5.1      1.893      2.607
REMARK  1 active torsions:
REMARK  status: ('A' for Active; 'I' for Inactive)
REMARK    1  A    between atoms: C2_2  and  C3_3 
ROOT
HETATM    1  C1  UNL     1     -34.256   4.940   4.043  1.00 20.00     0.147 C 
HETATM    2  C2  UNL     1     -33.593   5.784   3.054  1.00 20.00     0.425 C 
HETATM    3  N4  UNL     1     -34.783   4.268   4.829  1.00 20.00    -0.191 NA
HETATM    4  F5  UNL     1     -34.443   5.998   2.017  1.00 20.00    -0.179 F 
HETATM    5  F6  UNL     1     -32.524   5.117   2.552  1.00 20.00    -0.179 F 
ENDROOT
BRANCH   2   6
HETATM    6  C3  UNL     1     -33.140   7.108   3.607  1.00 20.00     0.469 C 
HETATM    7  F7  UNL     1     -31.829   7.308   3.346  1.00 20.00    -0.164 F 
HETATM    8  F8  UNL     1     -33.827   8.134   3.059  1.00 20.00    -0.164 F 
HETATM    9  F9  UNL     1     -33.303   7.167   4.946  1.00 20.00    -0.164 F 
ENDBRANCH   2   6
TORSDOF 1
ENDMDL
MODEL 5
REMARK VINA RESULT:      -5.1      1.900      2.626
REMARK  1 active torsions:
REMARK  status: ('A' for Active; 'I' for Inactive)
REMARK    1  A    between atoms: C2_2  and  C3_3 
ROOT
HETATM    1  C1  UNL     1     -34.261   4.933   4.026  1.00 20.00     0.147 C 
HETATM    2  C2  UNL     1     -33.600   5.783   3.041  1.00 20.00     0.425 C 
HETATM    3  N4  UNL     1     -34.786   4.256   4.808  1.00 20.00    -0.191 NA
HETATM    4  F5  UNL     1     -34.451   6.003   2.007  1.00 20.00    -0.179 F 
HETATM    5  F6  UNL     1     -32.531   5.120   2.533  1.00 20.00    -0.179 F 
ENDROOT
BRANCH   2   6
HETATM    6  C3  UNL     1     -33.146   7.104   3.601  1.00 20.00     0.469 C 
HETATM    7  F7  UNL     1     -33.308   7.132   4.943  1.00 20.00    -0.164 F 
HETATM    8  F8  UNL     1     -31.838   7.327   3.344  1.00 20.00    -0.164 F 
HETATM    9  F9  UNL     1     -33.852   8.131   3.083  1.00 20.00    -0.164 F 
ENDBRANCH   2   6
TORSDOF 1
ENDMDL
MODEL 6
REMARK VINA RESULT:      -5.1      1.055      2.283
REMARK  1 active torsions:
REMARK  status: ('A' for Active; 'I' for Inactive)
REMARK    1  A    between atoms: C2_2  and  C3_3 
ROOT
HETATM    1  C1  UNL     1     -33.546   7.201   4.950  1.00 20.00     0.147 C 
HETATM    2  C2  UNL     1     -33.215   7.061   3.535  1.00 20.00     0.425 C 
HETATM    3  N4  UNL     1     -33.807   7.313   6.074  1.00 20.00    -0.191 NA
HETATM    4  F5  UNL     1     -31.871   7.177   3.383  1.00 20.00    -0.179 F 
HETATM    5  F6  UNL     1     -33.777   8.087   2.848  1.00 20.00    -0.179 F 
ENDROOT
BRANCH   2   6
HETATM    6  C3  UNL     1     -33.672   5.755   2.941  1.00 20.00     0.469 C 
HETATM    7  F7  UNL     1     -34.416   5.972   1.834  1.00 20.00    -0.164 F 
HETATM    8  F8  UNL     1     -32.624   4.982   2.585  1.00 20.00    -0.164 F 
HETATM    9  F9  UNL     1     -34.429   5.055   3.812  1.00 20.00    -0.164 F 
ENDBRANCH   2   6
TORSDOF 1
ENDMDL
MODEL 7
REMARK VINA RESULT:      -5.1      1.863      2.990
REMARK  1 active torsions:
REMARK  status: ('A' for Active; 'I' for Inactive)
REMARK    1  A    between atoms: C2_2  and  C3_3 
ROOT
HETATM    1  C1  UNL     1     -33.581   6.473   3.361  1.00 20.00     0.147 C 
HETATM    2  C2  UNL     1     -34.464   5.599   4.128  1.00 20.00     0.425 C 
HETATM    3  N4  UNL     1     -32.881   7.167   2.750  1.00 20.00    -0.191 NA
HETATM    4  F5  UNL     1     -34.243   4.313   3.755  1.00 20.00    -0.179 F 
HETATM    5  F6  UNL     1     -35.751   5.883   3.810  1.00 20.00    -0.179 F 
ENDROOT
BRANCH   2   6
HETATM    6  C3  UNL     1     -34.279   5.724   5.617  1.00 20.00     0.469 C 
HETATM    7  F7  UNL     1     -33.403   6.711   5.905  1.00 20.00    -0.164 F 
HETATM    8  F8  UNL     1     -35.444   6.017   6.236  1.00 20.00    -0.164 F 
HETATM    9  F9  UNL     1     -33.799   4.582   6.153  1.00 20.00    -0.164 F 
ENDBRANCH   2   6
TORSDOF 1
ENDMDL
MODEL 8
REMARK VINA RESULT:      -5.1      1.968      2.702
REMARK  1 active torsions:
REMARK  status: ('A' for Active; 'I' for Inactive)
REMARK    1  A    between atoms: C2_2  and  C3_3 
ROOT
HETATM    1  C1  UNL     1     -32.926   7.124   3.563  1.00 20.00     0.147 C 
HETATM    2  C2  UNL     1     -33.847   6.895   4.673  1.00 20.00     0.425 C 
HETATM    3  N4  UNL     1     -32.194   7.307   2.682  1.00 20.00    -0.191 NA
HETATM    4  F5  UNL     1     -34.739   7.916   4.722  1.00 20.00    -0.179 F 
HETATM    5  F6  UNL     1     -33.151   6.927   5.837  1.00 20.00    -0.179 F 
ENDROOT
BRANCH   2   6
HETATM    6  C3  UNL     1     -34.589   5.590   4.572  1.00 20.00     0.469 C 
HETATM    7  F7  UNL     1     -35.779   5.766   3.956  1.00 20.00    -0.164 F 
HETATM    8  F8  UNL     1     -33.891   4.679   3.860  1.00 20.00    -0.164 F 
HETATM    9  F9  UNL     1     -34.834   5.065   5.791  1.00 20.00    -0.164 F 
ENDBRANCH   2   6
TORSDOF 1
ENDMDL
MODEL 9
REMARK VINA RESULT:      -5.1      1.964      2.823
REMARK  1 active torsions:
REMARK  status: ('A' for Active; 'I' for Inactive)
REMARK    1  A    between atoms: C2_2  and  C3_3 
ROOT
HETATM    1  C1  UNL     1     -32.959   7.103   3.529  1.00 20.00     0.147 C 
HETATM    2  C2  UNL     1     -33.871   6.896   4.650  1.00 20.00     0.425 C 
HETATM    3  N4  UNL     1     -32.234   7.269   2.639  1.00 20.00    -0.191 NA
HETATM    4  F5  UNL     1     -34.765   7.917   4.685  1.00 20.00    -0.179 F 
HETATM    5  F6  UNL     1     -33.166   6.954   5.808  1.00 20.00    -0.179 F 
ENDROOT
BRANCH   2   6
HETATM    6  C3  UNL     1     -34.613   5.588   4.583  1.00 20.00     0.469 C 
HETATM    7  F7  UNL     1     -33.896   4.672   3.895  1.00 20.00    -0.164 F 
HETATM    8  F8  UNL     1     -34.841   5.086   5.816  1.00 20.00    -0.164 F 
HETATM    9  F9  UNL     1     -35.803   5.726   3.963  1.00 20.00    -0.164 F 
ENDBRANCH   2   6
TORSDOF 1
ENDMDL
