MODEL 1
REMARK VINA RESULT:      -3.7      0.000      0.000
REMARK  0 active torsions:
REMARK  status: ('A' for Active; 'I' for Inactive)
ROOT
HETATM    1  C1  UNL     1     -34.349   4.369   4.830  1.00 20.00     0.044 C 
HETATM    2  C2  UNL     1     -35.616   6.159   3.580  1.00 20.00     0.044 C 
HETATM    3  C3  UNL     1     -34.281   5.747   4.184  1.00 20.00     0.087 C 
HETATM    4 CL4  UNL     1     -33.014   5.766   2.928  1.00 20.00    -0.107 Cl
HETATM    5 BR5  UNL     1     -33.791   7.057   5.561  1.00 20.00    -0.069 Br
ENDROOT
TORSDOF 0
ENDMDL
MODEL 2
REMARK VINA RESULT:      -3.6      1.397      1.980
REMARK  0 active torsions:
REMARK  status: ('A' for Active; 'I' for Inactive)
ROOT
HETATM    1  C1  UNL     1     -35.642   6.116   3.588  1.00 20.00     0.044 C 
HETATM    2  C2  UNL     1     -33.188   6.019   3.002  1.00 20.00     0.044 C 
HETATM    3  C3  UNL     1     -34.238   5.790   4.081  1.00 20.00     0.087 C 
HETATM    4 CL4  UNL     1     -34.171   4.098   4.644  1.00 20.00    -0.107 Cl
HETATM    5 BR5  UNL     1     -33.827   6.955   5.606  1.00 20.00    -0.069 Br
ENDROOT
TORSDOF 0
ENDMDL
MODEL 3
REMARK VINA RESULT:      -3.6      1.509      2.103
REMARK  0 active torsions:
REMARK  status: ('A' for Active; 'I' for Inactive)
ROOT
HETATM    1  C1  UNL     1     -33.259   5.902   3.008  1.00 20.00     0.044 C 
HETATM    2  C2  UNL     1     -34.297   4.306   4.666  1.00 20.00     0.044 C 
HETATM    3  C3  UNL     1     -34.289   5.726   4.117  1.00 20.00     0.087 C 
HETATM    4 CL4  UNL     1     -35.912   6.152   3.510  1.00 20.00    -0.107 Cl
HETATM    5 BR5  UNL     1     -33.845   6.956   5.580  1.00 20.00    -0.069 Br
ENDROOT
TORSDOF 0
ENDMDL
MODEL 4
REMARK VINA RESULT:      -3.5      1.902      2.473
REMARK  0 active torsions:
REMARK  status: ('A' for Active; 'I' for Inactive)
ROOT
HETATM    1  C1  UNL     1     -35.706   6.087   3.654  1.00 20.00     0.044 C 
HETATM    2  C2  UNL     1     -34.203   4.219   4.447  1.00 20.00     0.044 C 
HETATM    3  C3  UNL     1     -34.346   5.721   4.234  1.00 20.00     0.087 C 
HETATM    4 CL4  UNL     1     -34.093   6.579   5.777  1.00 20.00    -0.107 Cl
HETATM    5 BR5  UNL     1     -32.956   6.306   2.978  1.00 20.00    -0.069 Br
ENDROOT
TORSDOF 0
ENDMDL
MODEL 5
REMARK VINA RESULT:      -3.5      1.846      1.990
REMARK  0 active torsions:
REMARK  status: ('A' for Active; 'I' for Inactive)
ROOT
HETATM    1  C1  UNL     1     -34.106   6.546   5.568  1.00 20.00     0.044 C 
HETATM    2  C2  UNL     1     -35.688   6.101   3.652  1.00 20.00     0.044 C 
HETATM    3  C3  UNL     1     -34.318   5.811   4.251  1.00 20.00     0.087 C 
HETATM    4 CL4  UNL     1     -34.124   4.055   4.498  1.00 20.00    -0.107 Cl
HETATM    5 BR5  UNL     1     -32.945   6.402   2.979  1.00 20.00    -0.069 Br
ENDROOT
TORSDOF 0
ENDMDL
MODEL 6
REMARK VINA RESULT:      -3.4      1.973      2.154
REMARK  0 active torsions:
REMARK  status: ('A' for Active; 'I' for Inactive)
ROOT
HETATM    1  C1  UNL     1     -34.202   4.213   4.450  1.00 20.00     0.044 C 
HETATM    2  C2  UNL     1     -34.170   6.462   5.597  1.00 20.00     0.044 C 
HETATM    3  C3  UNL     1     -34.347   5.720   4.278  1.00 20.00     0.087 C 
HETATM    4 CL4  UNL     1     -35.944   6.100   3.578  1.00 20.00    -0.107 Cl
HETATM    5 BR5  UNL     1     -32.971   6.340   3.025  1.00 20.00    -0.069 Br
ENDROOT
TORSDOF 0
ENDMDL
MODEL 7
REMARK VINA RESULT:      -3.3      2.084      2.315
REMARK  0 active torsions:
REMARK  status: ('A' for Active; 'I' for Inactive)
ROOT
HETATM    1  C1  UNL     1     -33.160   6.230   2.957  1.00 20.00     0.044 C 
HETATM    2  C2  UNL     1     -35.619   6.264   3.530  1.00 20.00     0.044 C 
HETATM    3  C3  UNL     1     -34.208   5.993   4.037  1.00 20.00     0.087 C 
HETATM    4 CL4  UNL     1     -33.864   7.022   5.453  1.00 20.00    -0.107 Cl
HETATM    5 BR5  UNL     1     -34.102   4.118   4.607  1.00 20.00    -0.069 Br
ENDROOT
TORSDOF 0
ENDMDL
MODEL 8
REMARK VINA RESULT:      -3.1      1.981      2.431
REMARK  0 active torsions:
REMARK  status: ('A' for Active; 'I' for Inactive)
ROOT
HETATM    1  C1  UNL     1     -33.564   7.244   4.459  1.00 20.00     0.044 C 
HETATM    2  C2  UNL     1     -33.344   5.245   2.932  1.00 20.00     0.044 C 
HETATM    3  C3  UNL     1     -34.203   5.948   3.975  1.00 20.00     0.087 C 
HETATM    4 CL4  UNL     1     -35.821   6.284   3.302  1.00 20.00    -0.107 Cl
HETATM    5 BR5  UNL     1     -34.421   4.749   5.513  1.00 20.00    -0.069 Br
ENDROOT
TORSDOF 0
ENDMDL
MODEL 9
REMARK VINA RESULT:      -2.6      9.033      9.628
REMARK  0 active torsions:
REMARK  status: ('A' for Active; 'I' for Inactive)
ROOT
HETATM    1  C1  UNL     1     -42.230   7.841  -0.805  1.00 20.00     0.044 C 
HETATM    2  C2  UNL     1     -40.881   5.756  -0.349  1.00 20.00     0.044 C 
HETATM    3  C3  UNL     1     -42.270   6.378  -0.381  1.00 20.00     0.087 C 
HETATM    4 CL4  UNL     1     -43.324   5.455  -1.486  1.00 20.00    -0.107 Cl
HETATM    5 BR5  UNL     1     -43.040   6.274   1.421  1.00 20.00    -0.069 Br
ENDROOT
TORSDOF 0
ENDMDL
