MODEL 1
REMARK VINA RESULT:      -3.6      0.000      0.000
REMARK  1 active torsions:
REMARK  status: ('A' for Active; 'I' for Inactive)
REMARK    1  A    between atoms: C4_4  and  O5_5 
ROOT
HETATM    1  C1  UNL     1     -33.690   7.286   5.901  1.00 20.00     0.014 C 
HETATM    2  C2  UNL     1     -34.254   6.465   5.231  1.00 20.00    -0.091 C 
HETATM    3  C4  UNL     1     -34.945   5.467   4.415  1.00 20.00     0.259 C 
ENDROOT
BRANCH   3   4
HETATM    4  O5  UNL     1     -34.012   4.561   3.842  1.00 20.00    -0.384 OA
HETATM    5  C3  UNL     1     -33.244   5.180   2.819  1.00 20.00     0.202 C 
ENDBRANCH   3   4
TORSDOF 1
ENDMDL
MODEL 2
REMARK VINA RESULT:      -3.5      1.921      2.485
REMARK  1 active torsions:
REMARK  status: ('A' for Active; 'I' for Inactive)
REMARK    1  A    between atoms: C4_4  and  O5_5 
ROOT
HETATM    1  C1  UNL     1     -34.671   4.703   5.222  1.00 20.00     0.014 C 
HETATM    2  C2  UNL     1     -34.310   5.831   5.421  1.00 20.00    -0.091 C 
HETATM    3  C4  UNL     1     -33.871   7.205   5.668  1.00 20.00     0.259 C 
ENDROOT
BRANCH   3   4
HETATM    4  O5  UNL     1     -32.791   7.543   4.809  1.00 20.00    -0.384 OA
HETATM    5  C3  UNL     1     -33.145   7.390   3.441  1.00 20.00     0.202 C 
ENDBRANCH   3   4
TORSDOF 1
ENDMDL
MODEL 3
REMARK VINA RESULT:      -3.4      1.708      2.057
REMARK  1 active torsions:
REMARK  status: ('A' for Active; 'I' for Inactive)
REMARK    1  A    between atoms: C4_4  and  O5_5 
ROOT
HETATM    1  C1  UNL     1     -34.650   5.004   5.579  1.00 20.00     0.014 C 
HETATM    2  C2  UNL     1     -34.471   5.452   4.479  1.00 20.00    -0.091 C 
HETATM    3  C4  UNL     1     -34.257   6.000   3.140  1.00 20.00     0.259 C 
ENDROOT
BRANCH   3   4
HETATM    4  O5  UNL     1     -32.869   6.163   2.885  1.00 20.00    -0.384 OA
HETATM    5  C3  UNL     1     -32.500   7.536   2.867  1.00 20.00     0.202 C 
ENDBRANCH   3   4
TORSDOF 1
ENDMDL
MODEL 4
REMARK VINA RESULT:      -3.4      2.598      2.705
REMARK  1 active torsions:
REMARK  status: ('A' for Active; 'I' for Inactive)
REMARK    1  A    between atoms: C4_4  and  O5_5 
ROOT
HETATM    1  C1  UNL     1     -33.863   7.190   5.905  1.00 20.00     0.014 C 
HETATM    2  C2  UNL     1     -33.585   7.156   4.738  1.00 20.00    -0.091 C 
HETATM    3  C4  UNL     1     -33.250   7.115   3.314  1.00 20.00     0.259 C 
ENDROOT
BRANCH   3   4
HETATM    4  O5  UNL     1     -31.996   7.743   3.080  1.00 20.00    -0.384 OA
HETATM    5  C3  UNL     1     -32.038   8.578   1.931  1.00 20.00     0.202 C 
ENDBRANCH   3   4
TORSDOF 1
ENDMDL
MODEL 5
REMARK VINA RESULT:      -3.3      1.374      2.631
REMARK  1 active torsions:
REMARK  status: ('A' for Active; 'I' for Inactive)
REMARK    1  A    between atoms: C4_4  and  O5_5 
ROOT
HETATM    1  C1  UNL     1     -32.971   6.574   2.683  1.00 20.00     0.014 C 
HETATM    2  C2  UNL     1     -33.818   6.204   3.449  1.00 20.00    -0.091 C 
HETATM    3  C4  UNL     1     -34.853   5.750   4.378  1.00 20.00     0.259 C 
ENDROOT
BRANCH   3   4
HETATM    4  O5  UNL     1     -34.417   5.906   5.722  1.00 20.00    -0.384 OA
HETATM    5  C3  UNL     1     -33.859   7.195   5.942  1.00 20.00     0.202 C 
ENDBRANCH   3   4
TORSDOF 1
ENDMDL
MODEL 6
REMARK VINA RESULT:      -3.2      1.660      2.192
REMARK  1 active torsions:
REMARK  status: ('A' for Active; 'I' for Inactive)
REMARK    1  A    between atoms: C4_4  and  O5_5 
ROOT
HETATM    1  C1  UNL     1     -32.584   7.547   2.947  1.00 20.00     0.014 C 
HETATM    2  C2  UNL     1     -33.266   7.169   3.860  1.00 20.00    -0.091 C 
HETATM    3  C4  UNL     1     -34.097   6.712   4.974  1.00 20.00     0.259 C 
ENDROOT
BRANCH   3   4
HETATM    4  O5  UNL     1     -35.044   5.752   4.527  1.00 20.00    -0.384 OA
HETATM    5  C3  UNL     1     -34.502   4.438   4.545  1.00 20.00     0.202 C 
ENDBRANCH   3   4
TORSDOF 1
ENDMDL
MODEL 7
REMARK VINA RESULT:      -3.2      3.884      4.451
REMARK  1 active torsions:
REMARK  status: ('A' for Active; 'I' for Inactive)
REMARK    1  A    between atoms: C4_4  and  O5_5 
ROOT
HETATM    1  C1  UNL     1     -32.606  10.230   0.732  1.00 20.00     0.014 C 
HETATM    2  C2  UNL     1     -32.305   9.357   1.499  1.00 20.00    -0.091 C 
HETATM    3  C4  UNL     1     -31.936   8.296   2.437  1.00 20.00     0.259 C 
ENDROOT
BRANCH   3   4
HETATM    4  O5  UNL     1     -32.966   7.319   2.512  1.00 20.00    -0.384 OA
HETATM    5  C3  UNL     1     -33.427   7.151   3.846  1.00 20.00     0.202 C 
ENDBRANCH   3   4
TORSDOF 1
ENDMDL
MODEL 8
REMARK VINA RESULT:      -3.1      2.287      3.148
REMARK  1 active torsions:
REMARK  status: ('A' for Active; 'I' for Inactive)
REMARK    1  A    between atoms: C4_4  and  O5_5 
ROOT
HETATM    1  C1  UNL     1     -31.916   8.392   2.278  1.00 20.00     0.014 C 
HETATM    2  C2  UNL     1     -32.577   7.507   2.748  1.00 20.00    -0.091 C 
HETATM    3  C4  UNL     1     -33.380   6.425   3.320  1.00 20.00     0.259 C 
ENDROOT
BRANCH   3   4
HETATM    4  O5  UNL     1     -34.319   6.943   4.252  1.00 20.00    -0.384 OA
HETATM    5  C3  UNL     1     -33.724   7.165   5.523  1.00 20.00     0.202 C 
ENDBRANCH   3   4
TORSDOF 1
ENDMDL
MODEL 9
REMARK VINA RESULT:      -3.1      3.834      4.392
REMARK  1 active torsions:
REMARK  status: ('A' for Active; 'I' for Inactive)
REMARK    1  A    between atoms: C4_4  and  O5_5 
ROOT
HETATM    1  C1  UNL     1     -33.362   6.213   2.927  1.00 20.00     0.014 C 
HETATM    2  C2  UNL     1     -32.684   7.190   2.763  1.00 20.00    -0.091 C 
HETATM    3  C4  UNL     1     -31.855   8.379   2.566  1.00 20.00     0.259 C 
ENDROOT
BRANCH   3   4
HETATM    4  O5  UNL     1     -31.826   8.743   1.193  1.00 20.00    -0.384 OA
HETATM    5  C3  UNL     1     -32.565   9.934   0.953  1.00 20.00     0.202 C 
ENDBRANCH   3   4
TORSDOF 1
ENDMDL
