MODEL 1
REMARK VINA RESULT:      -4.7      0.000      0.000
REMARK  3 active torsions:
REMARK  status: ('A' for Active; 'I' for Inactive)
REMARK    1  A    between atoms: C5_5  and  C7_7 
REMARK    2  A    between atoms: C5_5  and  C8_8 
REMARK    3  A    between atoms: C6_6  and  C8_8 
ROOT
HETATM    1  C3  UNL     1     -35.619   5.915   3.551  1.00 20.00     0.016 C 
HETATM    2  C4  UNL     1     -33.321   5.154   2.920  1.00 20.00     0.016 C 
HETATM    3  C8  UNL     1     -34.114   6.159   3.786  1.00 20.00    -0.035 C 
ENDROOT
BRANCH   3   4
HETATM    4  C5  UNL     1     -33.728   7.591   3.291  1.00 20.00     0.013 C 
BRANCH   4   5
HETATM    5  C7  UNL     1     -32.343   7.748   2.617  1.00 20.00    -0.022 C 
HETATM    6  C1  UNL     1     -32.396   8.726   1.439  1.00 20.00     0.009 C 
HETATM    7  C2  UNL     1     -31.315   8.256   3.634  1.00 20.00     0.009 C 
ENDBRANCH   4   5
ENDBRANCH   3   4
BRANCH   3   8
HETATM    8  C6  UNL     1     -33.756   5.983   5.280  1.00 20.00     0.123 C 
HETATM    9 CL9  UNL     1     -33.709   7.508   6.208  1.00 20.00    -0.130 Cl
ENDBRANCH   3   8
TORSDOF 3
ENDMDL
MODEL 2
REMARK VINA RESULT:      -4.4      1.174      2.281
REMARK  3 active torsions:
REMARK  status: ('A' for Active; 'I' for Inactive)
REMARK    1  A    between atoms: C5_5  and  C7_7 
REMARK    2  A    between atoms: C5_5  and  C8_8 
REMARK    3  A    between atoms: C6_6  and  C8_8 
ROOT
HETATM    1  C3  UNL     1     -32.713   5.839   2.781  1.00 20.00     0.016 C 
HETATM    2  C4  UNL     1     -31.734   7.845   3.909  1.00 20.00     0.016 C 
HETATM    3  C8  UNL     1     -33.007   7.283   3.236  1.00 20.00    -0.035 C 
ENDROOT
BRANCH   3   4
HETATM    4  C5  UNL     1     -33.296   8.180   1.989  1.00 20.00     0.013 C 
BRANCH   4   5
HETATM    5  C7  UNL     1     -32.192   9.184   1.578  1.00 20.00    -0.022 C 
HETATM    6  C1  UNL     1     -31.353   8.654   0.410  1.00 20.00     0.009 C 
HETATM    7  C2  UNL     1     -32.819  10.522   1.168  1.00 20.00     0.009 C 
ENDBRANCH   4   5
ENDBRANCH   3   4
BRANCH   3   8
HETATM    8  C6  UNL     1     -34.198   7.318   4.221  1.00 20.00     0.123 C 
HETATM    9 CL9  UNL     1     -33.727   7.282   5.944  1.00 20.00    -0.130 Cl
ENDBRANCH   3   8
TORSDOF 3
ENDMDL
MODEL 3
REMARK VINA RESULT:      -4.3      1.518      2.044
REMARK  3 active torsions:
REMARK  status: ('A' for Active; 'I' for Inactive)
REMARK    1  A    between atoms: C5_5  and  C7_7 
REMARK    2  A    between atoms: C5_5  and  C8_8 
REMARK    3  A    between atoms: C6_6  and  C8_8 
ROOT
HETATM    1  C3  UNL     1     -34.055   6.585   5.528  1.00 20.00     0.016 C 
HETATM    2  C4  UNL     1     -35.684   6.153   3.680  1.00 20.00     0.016 C 
HETATM    3  C8  UNL     1     -34.191   6.388   4.004  1.00 20.00    -0.035 C 
ENDROOT
BRANCH   3   4
HETATM    4  C5  UNL     1     -33.766   7.698   3.263  1.00 20.00     0.013 C 
BRANCH   4   5
HETATM    5  C7  UNL     1     -32.338   7.732   2.666  1.00 20.00    -0.022 C 
HETATM    6  C1  UNL     1     -32.267   8.624   1.422  1.00 20.00     0.009 C 
HETATM    7  C2  UNL     1     -31.343   8.257   3.708  1.00 20.00     0.009 C 
ENDBRANCH   4   5
ENDBRANCH   3   4
BRANCH   3   8
HETATM    8  C6  UNL     1     -33.340   5.190   3.526  1.00 20.00     0.123 C 
HETATM    9 CL9  UNL     1     -33.902   3.604   4.126  1.00 20.00    -0.130 Cl
ENDBRANCH   3   8
TORSDOF 3
ENDMDL
MODEL 4
REMARK VINA RESULT:      -4.3      2.270      4.079
REMARK  3 active torsions:
REMARK  status: ('A' for Active; 'I' for Inactive)
REMARK    1  A    between atoms: C5_5  and  C7_7 
REMARK    2  A    between atoms: C5_5  and  C8_8 
REMARK    3  A    between atoms: C6_6  and  C8_8 
ROOT
HETATM    1  C3  UNL     1     -31.467   8.170   3.569  1.00 20.00     0.016 C 
HETATM    2  C4  UNL     1     -32.408   6.291   2.214  1.00 20.00     0.016 C 
HETATM    3  C8  UNL     1     -32.695   7.709   2.758  1.00 20.00    -0.035 C 
ENDROOT
BRANCH   3   4
HETATM    4  C5  UNL     1     -33.937   7.593   3.700  1.00 20.00     0.013 C 
BRANCH   4   5
HETATM    5  C7  UNL     1     -33.876   6.512   4.807  1.00 20.00    -0.022 C 
HETATM    6  C1  UNL     1     -33.952   7.132   6.206  1.00 20.00     0.009 C 
HETATM    7  C2  UNL     1     -35.035   5.522   4.642  1.00 20.00     0.009 C 
ENDBRANCH   4   5
ENDBRANCH   3   4
BRANCH   3   8
HETATM    8  C6  UNL     1     -32.983   8.685   1.594  1.00 20.00     0.123 C 
HETATM    9 CL9  UNL     1     -31.576   9.010   0.542  1.00 20.00    -0.130 Cl
ENDBRANCH   3   8
TORSDOF 3
ENDMDL
MODEL 5
REMARK VINA RESULT:      -4.1      2.014      3.637
REMARK  3 active torsions:
REMARK  status: ('A' for Active; 'I' for Inactive)
REMARK    1  A    between atoms: C5_5  and  C7_7 
REMARK    2  A    between atoms: C5_5  and  C8_8 
REMARK    3  A    between atoms: C6_6  and  C8_8 
ROOT
HETATM    1  C3  UNL     1     -32.933   4.786   2.637  1.00 20.00     0.016 C 
HETATM    2  C4  UNL     1     -34.361   6.424   1.399  1.00 20.00     0.016 C 
HETATM    3  C8  UNL     1     -33.523   6.210   2.680  1.00 20.00    -0.035 C 
ENDROOT
BRANCH   3   4
HETATM    4  C5  UNL     1     -34.503   6.339   3.891  1.00 20.00     0.013 C 
BRANCH   4   5
HETATM    5  C7  UNL     1     -33.911   6.093   5.300  1.00 20.00    -0.022 C 
HETATM    6  C1  UNL     1     -33.911   7.372   6.144  1.00 20.00     0.009 C 
HETATM    7  C2  UNL     1     -34.720   5.017   6.033  1.00 20.00     0.009 C 
ENDBRANCH   4   5
ENDBRANCH   3   4
BRANCH   3   8
HETATM    8  C6  UNL     1     -32.399   7.269   2.773  1.00 20.00     0.123 C 
HETATM    9 CL9  UNL     1     -32.505   8.560   1.543  1.00 20.00    -0.130 Cl
ENDBRANCH   3   8
TORSDOF 3
ENDMDL
MODEL 6
REMARK VINA RESULT:      -4.0      1.853      2.975
REMARK  3 active torsions:
REMARK  status: ('A' for Active; 'I' for Inactive)
REMARK    1  A    between atoms: C5_5  and  C7_7 
REMARK    2  A    between atoms: C5_5  and  C8_8 
REMARK    3  A    between atoms: C6_6  and  C8_8 
ROOT
HETATM    1  C3  UNL     1     -31.364   8.023   3.411  1.00 20.00     0.016 C 
HETATM    2  C4  UNL     1     -33.627   7.644   4.404  1.00 20.00     0.016 C 
HETATM    3  C8  UNL     1     -32.785   7.503   3.116  1.00 20.00    -0.035 C 
ENDROOT
BRANCH   3   4
HETATM    4  C5  UNL     1     -33.462   8.402   2.030  1.00 20.00     0.013 C 
BRANCH   4   5
HETATM    5  C7  UNL     1     -32.522   9.249   1.138  1.00 20.00    -0.022 C 
HETATM    6  C1  UNL     1     -32.829   9.055  -0.350  1.00 20.00     0.009 C 
HETATM    7  C2  UNL     1     -32.666  10.736   1.483  1.00 20.00     0.009 C 
ENDBRANCH   4   5
ENDBRANCH   3   4
BRANCH   3   8
HETATM    8  C6  UNL     1     -32.747   6.027   2.656  1.00 20.00     0.123 C 
HETATM    9 CL9  UNL     1     -33.888   4.959   3.520  1.00 20.00    -0.130 Cl
ENDBRANCH   3   8
TORSDOF 3
ENDMDL
MODEL 7
REMARK VINA RESULT:      -3.7      2.427      4.261
REMARK  3 active torsions:
REMARK  status: ('A' for Active; 'I' for Inactive)
REMARK    1  A    between atoms: C5_5  and  C7_7 
REMARK    2  A    between atoms: C5_5  and  C8_8 
REMARK    3  A    between atoms: C6_6  and  C8_8 
ROOT
HETATM    1  C3  UNL     1     -31.490   8.451   3.423  1.00 20.00     0.016 C 
HETATM    2  C4  UNL     1     -31.188   8.061   0.971  1.00 20.00     0.016 C 
HETATM    3  C8  UNL     1     -32.215   8.441   2.062  1.00 20.00    -0.035 C 
ENDROOT
BRANCH   3   4
HETATM    4  C5  UNL     1     -33.315   7.329   2.059  1.00 20.00     0.013 C 
BRANCH   4   5
HETATM    5  C7  UNL     1     -33.252   6.279   3.194  1.00 20.00    -0.022 C 
HETATM    6  C1  UNL     1     -34.544   6.260   4.018  1.00 20.00     0.009 C 
HETATM    7  C2  UNL     1     -33.018   4.881   2.609  1.00 20.00     0.009 C 
ENDBRANCH   4   5
ENDBRANCH   3   4
BRANCH   3   8
HETATM    8  C6  UNL     1     -32.837   9.823   1.759  1.00 20.00     0.123 C 
HETATM    9 CL9  UNL     1     -33.109  10.141   0.023  1.00 20.00    -0.130 Cl
ENDBRANCH   3   8
TORSDOF 3
ENDMDL
MODEL 8
REMARK VINA RESULT:      -3.5     11.088     12.138
REMARK  3 active torsions:
REMARK  status: ('A' for Active; 'I' for Inactive)
REMARK    1  A    between atoms: C5_5  and  C7_7 
REMARK    2  A    between atoms: C5_5  and  C8_8 
REMARK    3  A    between atoms: C6_6  and  C8_8 
ROOT
HETATM    1  C3  UNL     1     -33.321  15.950  -6.221  1.00 20.00     0.016 C 
HETATM    2  C4  UNL     1     -33.330  14.515  -4.172  1.00 20.00     0.016 C 
HETATM    3  C8  UNL     1     -34.081  15.644  -4.914  1.00 20.00    -0.035 C 
ENDROOT
BRANCH   3   4
HETATM    4  C5  UNL     1     -34.052  16.898  -3.981  1.00 20.00     0.013 C 
BRANCH   4   5
HETATM    5  C7  UNL     1     -33.980  16.636  -2.457  1.00 20.00    -0.022 C 
HETATM    6  C1  UNL     1     -33.071  17.648  -1.752  1.00 20.00     0.009 C 
HETATM    7  C2  UNL     1     -35.381  16.715  -1.840  1.00 20.00     0.009 C 
ENDBRANCH   4   5
ENDBRANCH   3   4
BRANCH   3   8
HETATM    8  C6  UNL     1     -35.537  15.218  -5.211  1.00 20.00     0.123 C 
HETATM    9 CL9  UNL     1     -35.834  13.463  -5.062  1.00 20.00    -0.130 Cl
ENDBRANCH   3   8
TORSDOF 3
ENDMDL
MODEL 9
REMARK VINA RESULT:      -3.4     11.460     12.318
REMARK  3 active torsions:
REMARK  status: ('A' for Active; 'I' for Inactive)
REMARK    1  A    between atoms: C5_5  and  C7_7 
REMARK    2  A    between atoms: C5_5  and  C8_8 
REMARK    3  A    between atoms: C6_6  and  C8_8 
ROOT
HETATM    1  C3  UNL     1     -33.827  17.747  -5.046  1.00 20.00     0.016 C 
HETATM    2  C4  UNL     1     -32.906  15.436  -5.297  1.00 20.00     0.016 C 
HETATM    3  C8  UNL     1     -33.976  16.286  -4.576  1.00 20.00    -0.035 C 
ENDROOT
BRANCH   3   4
HETATM    4  C5  UNL     1     -33.676  16.192  -3.044  1.00 20.00     0.013 C 
BRANCH   4   5
HETATM    5  C7  UNL     1     -34.129  17.384  -2.168  1.00 20.00    -0.022 C 
HETATM    6  C1  UNL     1     -35.255  16.985  -1.208  1.00 20.00     0.009 C 
HETATM    7  C2  UNL     1     -32.947  17.916  -1.348  1.00 20.00     0.009 C 
ENDBRANCH   4   5
ENDBRANCH   3   4
BRANCH   3   8
HETATM    8  C6  UNL     1     -35.392  15.749  -4.888  1.00 20.00     0.123 C 
HETATM    9 CL9  UNL     1     -35.572  13.985  -4.672  1.00 20.00    -0.130 Cl
ENDBRANCH   3   8
TORSDOF 3
ENDMDL
