MODEL 1
REMARK VINA RESULT:      -4.6      0.000      0.000
REMARK  2 active torsions:
REMARK  status: ('A' for Active; 'I' for Inactive)
REMARK    1  A    between atoms: C1_1  and  C2_2 
REMARK    2  A    between atoms: C2_2  and  C3_3 
ROOT
HETATM    1  C3  UNL     1     -34.603   5.214   4.345  1.00 20.00     0.393 C 
HETATM    2  F5  UNL     1     -34.717   3.871   4.273  1.00 20.00    -0.171 F 
HETATM    3  F6  UNL     1     -35.765   5.745   3.900  1.00 20.00    -0.171 F 
HETATM    4  F7  UNL     1     -33.627   5.601   3.497  1.00 20.00    -0.171 F 
ENDROOT
BRANCH   1   5
HETATM    5  C2  UNL     1     -34.324   5.672   5.756  1.00 20.00     0.186 C 
BRANCH   5   6
HETATM    6  C1  UNL     1     -34.001   7.142   5.848  1.00 20.00     0.239 C 
HETATM    7  O4  UNL     1     -32.920   7.641   5.554  1.00 20.00    -0.307 OA
ENDBRANCH   5   6
ENDBRANCH   1   5
TORSDOF 2
ENDMDL
MODEL 2
REMARK VINA RESULT:      -4.6      1.661      2.243
REMARK  2 active torsions:
REMARK  status: ('A' for Active; 'I' for Inactive)
REMARK    1  A    between atoms: C1_1  and  C2_2 
REMARK    2  A    between atoms: C2_2  and  C3_3 
ROOT
HETATM    1  C3  UNL     1     -34.735   5.526   4.187  1.00 20.00     0.393 C 
HETATM    2  F5  UNL     1     -35.941   5.903   3.714  1.00 20.00    -0.171 F 
HETATM    3  F6  UNL     1     -34.837   4.236   4.581  1.00 20.00    -0.171 F 
HETATM    4  F7  UNL     1     -34.460   6.267   5.281  1.00 20.00    -0.171 F 
ENDROOT
BRANCH   1   5
HETATM    5  C2  UNL     1     -33.659   5.670   3.137  1.00 20.00     0.186 C 
BRANCH   5   6
HETATM    6  C1  UNL     1     -33.179   7.090   2.972  1.00 20.00     0.239 C 
HETATM    7  O4  UNL     1     -32.151   7.543   3.466  1.00 20.00    -0.307 OA
ENDBRANCH   5   6
ENDBRANCH   1   5
TORSDOF 2
ENDMDL
MODEL 3
REMARK VINA RESULT:      -4.6      1.657      2.108
REMARK  2 active torsions:
REMARK  status: ('A' for Active; 'I' for Inactive)
REMARK    1  A    between atoms: C1_1  and  C2_2 
REMARK    2  A    between atoms: C2_2  and  C3_3 
ROOT
HETATM    1  C3  UNL     1     -34.744   5.506   4.180  1.00 20.00     0.393 C 
HETATM    2  F5  UNL     1     -34.839   4.231   4.610  1.00 20.00    -0.171 F 
HETATM    3  F6  UNL     1     -34.453   6.277   5.252  1.00 20.00    -0.171 F 
HETATM    4  F7  UNL     1     -35.955   5.887   3.721  1.00 20.00    -0.171 F 
ENDROOT
BRANCH   1   5
HETATM    5  C2  UNL     1     -33.678   5.656   3.121  1.00 20.00     0.186 C 
BRANCH   5   6
HETATM    6  C1  UNL     1     -33.196   7.076   2.964  1.00 20.00     0.239 C 
HETATM    7  O4  UNL     1     -32.164   7.523   3.454  1.00 20.00    -0.307 OA
ENDBRANCH   5   6
ENDBRANCH   1   5
TORSDOF 2
ENDMDL
MODEL 4
REMARK VINA RESULT:      -4.5      1.695      2.097
REMARK  2 active torsions:
REMARK  status: ('A' for Active; 'I' for Inactive)
REMARK    1  A    between atoms: C1_1  and  C2_2 
REMARK    2  A    between atoms: C2_2  and  C3_3 
ROOT
HETATM    1  C3  UNL     1     -34.692   5.465   4.242  1.00 20.00     0.393 C 
HETATM    2  F5  UNL     1     -34.437   6.074   5.419  1.00 20.00    -0.171 F 
HETATM    3  F6  UNL     1     -35.927   5.847   3.845  1.00 20.00    -0.171 F 
HETATM    4  F7  UNL     1     -34.726   4.133   4.455  1.00 20.00    -0.171 F 
ENDROOT
BRANCH   1   5
HETATM    5  C2  UNL     1     -33.668   5.833   3.195  1.00 20.00     0.186 C 
BRANCH   5   6
HETATM    6  C1  UNL     1     -33.185   7.256   3.313  1.00 20.00     0.239 C 
HETATM    7  O4  UNL     1     -32.009   7.602   3.276  1.00 20.00    -0.307 OA
ENDBRANCH   5   6
ENDBRANCH   1   5
TORSDOF 2
ENDMDL
MODEL 5
REMARK VINA RESULT:      -4.4      1.688      2.170
REMARK  2 active torsions:
REMARK  status: ('A' for Active; 'I' for Inactive)
REMARK    1  A    between atoms: C1_1  and  C2_2 
REMARK    2  A    between atoms: C2_2  and  C3_3 
ROOT
HETATM    1  C3  UNL     1     -34.605   5.705   4.390  1.00 20.00     0.393 C 
HETATM    2  F5  UNL     1     -35.834   5.783   3.840  1.00 20.00    -0.171 F 
HETATM    3  F6  UNL     1     -33.882   4.832   3.651  1.00 20.00    -0.171 F 
HETATM    4  F7  UNL     1     -34.728   5.185   5.629  1.00 20.00    -0.171 F 
ENDROOT
BRANCH   1   5
HETATM    5  C2  UNL     1     -33.925   7.053   4.421  1.00 20.00     0.186 C 
BRANCH   5   6
HETATM    6  C1  UNL     1     -32.931   7.240   3.302  1.00 20.00     0.239 C 
HETATM    7  O4  UNL     1     -31.850   7.809   3.414  1.00 20.00    -0.307 OA
ENDBRANCH   5   6
ENDBRANCH   1   5
TORSDOF 2
ENDMDL
MODEL 6
REMARK VINA RESULT:      -4.3      1.481      1.687
REMARK  2 active torsions:
REMARK  status: ('A' for Active; 'I' for Inactive)
REMARK    1  A    between atoms: C1_1  and  C2_2 
REMARK    2  A    between atoms: C2_2  and  C3_3 
ROOT
HETATM    1  C3  UNL     1     -33.811   5.718   3.154  1.00 20.00     0.393 C 
HETATM    2  F5  UNL     1     -33.264   4.487   3.079  1.00 20.00    -0.171 F 
HETATM    3  F6  UNL     1     -34.338   6.005   1.942  1.00 20.00    -0.171 F 
HETATM    4  F7  UNL     1     -32.822   6.606   3.389  1.00 20.00    -0.171 F 
ENDROOT
BRANCH   1   5
HETATM    5  C2  UNL     1     -34.880   5.785   4.219  1.00 20.00     0.186 C 
BRANCH   5   6
HETATM    6  C1  UNL     1     -34.323   5.999   5.604  1.00 20.00     0.239 C 
HETATM    7  O4  UNL     1     -34.078   7.095   6.098  1.00 20.00    -0.307 OA
ENDBRANCH   5   6
ENDBRANCH   1   5
TORSDOF 2
ENDMDL
MODEL 7
REMARK VINA RESULT:      -4.3      2.674      2.969
REMARK  2 active torsions:
REMARK  status: ('A' for Active; 'I' for Inactive)
REMARK    1  A    between atoms: C1_1  and  C2_2 
REMARK    2  A    between atoms: C2_2  and  C3_3 
ROOT
HETATM    1  C3  UNL     1     -33.437   6.864   3.630  1.00 20.00     0.393 C 
HETATM    2  F5  UNL     1     -32.473   6.143   3.021  1.00 20.00    -0.171 F 
HETATM    3  F6  UNL     1     -33.595   8.009   2.928  1.00 20.00    -0.171 F 
HETATM    4  F7  UNL     1     -32.998   7.199   4.862  1.00 20.00    -0.171 F 
ENDROOT
BRANCH   1   5
HETATM    5  C2  UNL     1     -34.740   6.104   3.694  1.00 20.00     0.186 C 
BRANCH   5   6
HETATM    6  C1  UNL     1     -34.696   4.932   4.643  1.00 20.00     0.239 C 
HETATM    7  O4  UNL     1     -34.348   3.796   4.336  1.00 20.00    -0.307 OA
ENDBRANCH   5   6
ENDBRANCH   1   5
TORSDOF 2
ENDMDL
MODEL 8
REMARK VINA RESULT:      -4.3      2.670      3.097
REMARK  2 active torsions:
REMARK  status: ('A' for Active; 'I' for Inactive)
REMARK    1  A    between atoms: C1_1  and  C2_2 
REMARK    2  A    between atoms: C2_2  and  C3_3 
ROOT
HETATM    1  C3  UNL     1     -33.430   6.861   3.597  1.00 20.00     0.393 C 
HETATM    2  F5  UNL     1     -33.558   8.002   2.888  1.00 20.00    -0.171 F 
HETATM    3  F6  UNL     1     -32.989   7.196   4.831  1.00 20.00    -0.171 F 
HETATM    4  F7  UNL     1     -32.474   6.107   3.014  1.00 20.00    -0.171 F 
ENDROOT
BRANCH   1   5
HETATM    5  C2  UNL     1     -34.740   6.118   3.692  1.00 20.00     0.186 C 
BRANCH   5   6
HETATM    6  C1  UNL     1     -34.687   4.942   4.635  1.00 20.00     0.239 C 
HETATM    7  O4  UNL     1     -34.344   3.807   4.321  1.00 20.00    -0.307 OA
ENDBRANCH   5   6
ENDBRANCH   1   5
TORSDOF 2
ENDMDL
MODEL 9
REMARK VINA RESULT:      -4.2      1.828      2.379
REMARK  2 active torsions:
REMARK  status: ('A' for Active; 'I' for Inactive)
REMARK    1  A    between atoms: C1_1  and  C2_2 
REMARK    2  A    between atoms: C2_2  and  C3_3 
ROOT
HETATM    1  C3  UNL     1     -34.399   5.883   3.454  1.00 20.00     0.393 C 
HETATM    2  F5  UNL     1     -34.291   5.885   2.110  1.00 20.00    -0.171 F 
HETATM    3  F6  UNL     1     -33.920   4.698   3.899  1.00 20.00    -0.171 F 
HETATM    4  F7  UNL     1     -35.709   5.938   3.773  1.00 20.00    -0.171 F 
ENDROOT
BRANCH   1   5
HETATM    5  C2  UNL     1     -33.630   7.025   4.074  1.00 20.00     0.186 C 
BRANCH   5   6
HETATM    6  C1  UNL     1     -32.468   7.483   3.229  1.00 20.00     0.239 C 
HETATM    7  O4  UNL     1     -31.572   8.228   3.615  1.00 20.00    -0.307 OA
ENDBRANCH   5   6
ENDBRANCH   1   5
TORSDOF 2
ENDMDL
