MODEL 1
REMARK VINA RESULT:      -5.2      0.000      0.000
REMARK  2 active torsions:
REMARK  status: ('A' for Active; 'I' for Inactive)
REMARK    1  A    between atoms: C1_1  and  C2_2 
REMARK    2  A    between atoms: C1_1  and  C3_3 
ROOT
HETATM    1  C1  UNL     1     -33.613   6.740   4.208  1.00 20.00     0.188 C 
ENDROOT
BRANCH   1   2
HETATM    2  C2  UNL     1     -34.131   6.865   5.625  1.00 20.00     0.361 C 
HETATM    3  F4  UNL     1     -33.208   7.508   6.384  1.00 20.00    -0.214 F 
HETATM    4  F5  UNL     1     -34.291   5.634   6.170  1.00 20.00    -0.214 F 
ENDBRANCH   1   2
BRANCH   1   5
HETATM    5  C3  UNL     1     -34.414   5.755   3.389  1.00 20.00     0.392 C 
HETATM    6  F6  UNL     1     -34.263   5.975   2.065  1.00 20.00    -0.171 F 
HETATM    7  F7  UNL     1     -34.040   4.484   3.645  1.00 20.00    -0.171 F 
HETATM    8  F8  UNL     1     -35.730   5.861   3.674  1.00 20.00    -0.171 F 
ENDBRANCH   1   5
TORSDOF 2
ENDMDL
MODEL 2
REMARK VINA RESULT:      -5.2      1.265      2.106
REMARK  2 active torsions:
REMARK  status: ('A' for Active; 'I' for Inactive)
REMARK    1  A    between atoms: C1_1  and  C2_2 
REMARK    2  A    between atoms: C1_1  and  C3_3 
ROOT
HETATM    1  C1  UNL     1     -34.751   6.102   4.104  1.00 20.00     0.188 C 
ENDROOT
BRANCH   1   2
HETATM    2  C2  UNL     1     -34.221   5.831   5.497  1.00 20.00     0.361 C 
HETATM    3  F4  UNL     1     -34.959   4.848   6.072  1.00 20.00    -0.214 F 
HETATM    4  F5  UNL     1     -34.372   6.932   6.272  1.00 20.00    -0.214 F 
ENDBRANCH   1   2
BRANCH   1   5
HETATM    5  C3  UNL     1     -33.733   5.788   3.032  1.00 20.00     0.392 C 
HETATM    6  F6  UNL     1     -33.317   4.505   3.106  1.00 20.00    -0.171 F 
HETATM    7  F7  UNL     1     -34.240   5.991   1.798  1.00 20.00    -0.171 F 
HETATM    8  F8  UNL     1     -32.646   6.579   3.164  1.00 20.00    -0.171 F 
ENDBRANCH   1   5
TORSDOF 2
ENDMDL
MODEL 3
REMARK VINA RESULT:      -5.1      1.503      2.571
REMARK  2 active torsions:
REMARK  status: ('A' for Active; 'I' for Inactive)
REMARK    1  A    between atoms: C1_1  and  C2_2 
REMARK    2  A    between atoms: C1_1  and  C3_3 
ROOT
HETATM    1  C1  UNL     1     -33.615   5.807   3.366  1.00 20.00     0.188 C 
ENDROOT
BRANCH   1   2
HETATM    2  C2  UNL     1     -33.313   7.291   3.340  1.00 20.00     0.361 C 
HETATM    3  F4  UNL     1     -32.645   7.591   2.197  1.00 20.00    -0.214 F 
HETATM    4  F5  UNL     1     -32.489   7.613   4.366  1.00 20.00    -0.214 F 
ENDBRANCH   1   2
BRANCH   1   5
HETATM    5  C3  UNL     1     -34.759   5.470   4.293  1.00 20.00     0.392 C 
HETATM    6  F6  UNL     1     -34.854   4.139   4.500  1.00 20.00    -0.171 F 
HETATM    7  F7  UNL     1     -34.612   6.069   5.493  1.00 20.00    -0.171 F 
HETATM    8  F8  UNL     1     -35.933   5.887   3.768  1.00 20.00    -0.171 F 
ENDBRANCH   1   5
TORSDOF 2
ENDMDL
MODEL 4
REMARK VINA RESULT:      -5.1      1.499      2.707
REMARK  2 active torsions:
REMARK  status: ('A' for Active; 'I' for Inactive)
REMARK    1  A    between atoms: C1_1  and  C2_2 
REMARK    2  A    between atoms: C1_1  and  C3_3 
ROOT
HETATM    1  C1  UNL     1     -33.615   5.808   3.378  1.00 20.00     0.188 C 
ENDROOT
BRANCH   1   2
HETATM    2  C2  UNL     1     -33.307   7.291   3.350  1.00 20.00     0.361 C 
HETATM    3  F4  UNL     1     -32.623   7.584   2.215  1.00 20.00    -0.214 F 
HETATM    4  F5  UNL     1     -32.496   7.615   4.386  1.00 20.00    -0.214 F 
ENDBRANCH   1   2
BRANCH   1   5
HETATM    5  C3  UNL     1     -34.772   5.480   4.293  1.00 20.00     0.392 C 
HETATM    6  F6  UNL     1     -34.628   6.063   5.502  1.00 20.00    -0.171 F 
HETATM    7  F7  UNL     1     -35.945   5.893   3.769  1.00 20.00    -0.171 F 
HETATM    8  F8  UNL     1     -34.858   4.146   4.489  1.00 20.00    -0.171 F 
ENDBRANCH   1   5
TORSDOF 2
ENDMDL
MODEL 5
REMARK VINA RESULT:      -5.1      1.506      2.468
REMARK  2 active torsions:
REMARK  status: ('A' for Active; 'I' for Inactive)
REMARK    1  A    between atoms: C1_1  and  C2_2 
REMARK    2  A    between atoms: C1_1  and  C3_3 
ROOT
HETATM    1  C1  UNL     1     -33.611   5.807   3.364  1.00 20.00     0.188 C 
ENDROOT
BRANCH   1   2
HETATM    2  C2  UNL     1     -33.312   7.292   3.335  1.00 20.00     0.361 C 
HETATM    3  F4  UNL     1     -32.636   7.590   2.197  1.00 20.00    -0.214 F 
HETATM    4  F5  UNL     1     -32.498   7.621   4.367  1.00 20.00    -0.214 F 
ENDBRANCH   1   2
BRANCH   1   5
HETATM    5  C3  UNL     1     -34.766   5.473   4.279  1.00 20.00     0.392 C 
HETATM    6  F6  UNL     1     -35.943   5.889   3.762  1.00 20.00    -0.171 F 
HETATM    7  F7  UNL     1     -34.853   4.143   4.495  1.00 20.00    -0.171 F 
HETATM    8  F8  UNL     1     -34.611   6.074   5.479  1.00 20.00    -0.171 F 
ENDBRANCH   1   5
TORSDOF 2
ENDMDL
MODEL 6
REMARK VINA RESULT:      -5.1      1.444      2.884
REMARK  2 active torsions:
REMARK  status: ('A' for Active; 'I' for Inactive)
REMARK    1  A    between atoms: C1_1  and  C2_2 
REMARK    2  A    between atoms: C1_1  and  C3_3 
ROOT
HETATM    1  C1  UNL     1     -33.698   6.461   4.245  1.00 20.00     0.188 C 
ENDROOT
BRANCH   1   2
HETATM    2  C2  UNL     1     -33.319   6.383   2.780  1.00 20.00     0.361 C 
HETATM    3  F4  UNL     1     -32.579   5.266   2.568  1.00 20.00    -0.214 F 
HETATM    4  F5  UNL     1     -32.533   7.437   2.449  1.00 20.00    -0.214 F 
ENDBRANCH   1   2
BRANCH   1   5
HETATM    5  C3  UNL     1     -34.777   5.468   4.611  1.00 20.00     0.392 C 
HETATM    6  F6  UNL     1     -34.413   4.205   4.303  1.00 20.00    -0.171 F 
HETATM    7  F7  UNL     1     -35.057   5.512   5.930  1.00 20.00    -0.171 F 
HETATM    8  F8  UNL     1     -35.918   5.740   3.940  1.00 20.00    -0.171 F 
ENDBRANCH   1   5
TORSDOF 2
ENDMDL
MODEL 7
REMARK VINA RESULT:      -5.1      1.446      2.813
REMARK  2 active torsions:
REMARK  status: ('A' for Active; 'I' for Inactive)
REMARK    1  A    between atoms: C1_1  and  C2_2 
REMARK    2  A    between atoms: C1_1  and  C3_3 
ROOT
HETATM    1  C1  UNL     1     -33.666   6.435   4.266  1.00 20.00     0.188 C 
ENDROOT
BRANCH   1   2
HETATM    2  C2  UNL     1     -33.261   6.363   2.808  1.00 20.00     0.361 C 
HETATM    3  F4  UNL     1     -32.609   5.194   2.583  1.00 20.00    -0.214 F 
HETATM    4  F5  UNL     1     -32.385   7.357   2.521  1.00 20.00    -0.214 F 
ENDBRANCH   1   2
BRANCH   1   5
HETATM    5  C3  UNL     1     -34.776   5.467   4.602  1.00 20.00     0.392 C 
HETATM    6  F6  UNL     1     -35.908   5.759   3.925  1.00 20.00    -0.171 F 
HETATM    7  F7  UNL     1     -34.428   4.197   4.304  1.00 20.00    -0.171 F 
HETATM    8  F8  UNL     1     -35.065   5.515   5.921  1.00 20.00    -0.171 F 
ENDBRANCH   1   5
TORSDOF 2
ENDMDL
MODEL 8
REMARK VINA RESULT:      -5.0      1.636      2.744
REMARK  2 active torsions:
REMARK  status: ('A' for Active; 'I' for Inactive)
REMARK    1  A    between atoms: C1_1  and  C2_2 
REMARK    2  A    between atoms: C1_1  and  C3_3 
ROOT
HETATM    1  C1  UNL     1     -33.781   7.077   4.524  1.00 20.00     0.188 C 
ENDROOT
BRANCH   1   2
HETATM    2  C2  UNL     1     -34.500   5.745   4.576  1.00 20.00     0.361 C 
HETATM    3  F4  UNL     1     -35.663   5.837   3.882  1.00 20.00    -0.214 F 
HETATM    4  F5  UNL     1     -34.835   5.450   5.856  1.00 20.00    -0.214 F 
ENDBRANCH   1   2
BRANCH   1   5
HETATM    5  C3  UNL     1     -32.846   7.178   3.341  1.00 20.00     0.392 C 
HETATM    6  F6  UNL     1     -32.611   5.967   2.792  1.00 20.00    -0.171 F 
HETATM    7  F7  UNL     1     -33.354   7.979   2.381  1.00 20.00    -0.171 F 
HETATM    8  F8  UNL     1     -31.656   7.694   3.720  1.00 20.00    -0.171 F 
ENDBRANCH   1   5
TORSDOF 2
ENDMDL
MODEL 9
REMARK VINA RESULT:      -5.0      1.507      2.321
REMARK  2 active torsions:
REMARK  status: ('A' for Active; 'I' for Inactive)
REMARK    1  A    between atoms: C1_1  and  C2_2 
REMARK    2  A    between atoms: C1_1  and  C3_3 
ROOT
HETATM    1  C1  UNL     1     -33.848   6.321   4.238  1.00 20.00     0.188 C 
ENDROOT
BRANCH   1   2
HETATM    2  C2  UNL     1     -34.881   5.286   4.634  1.00 20.00     0.361 C 
HETATM    3  F4  UNL     1     -35.013   5.281   5.985  1.00 20.00    -0.214 F 
HETATM    4  F5  UNL     1     -34.456   4.049   4.282  1.00 20.00    -0.214 F 
ENDBRANCH   1   2
BRANCH   1   5
HETATM    5  C3  UNL     1     -33.428   6.187   2.793  1.00 20.00     0.392 C 
HETATM    6  F6  UNL     1     -34.486   5.941   1.991  1.00 20.00    -0.171 F 
HETATM    7  F7  UNL     1     -32.822   7.309   2.351  1.00 20.00    -0.171 F 
HETATM    8  F8  UNL     1     -32.556   5.165   2.646  1.00 20.00    -0.171 F 
ENDBRANCH   1   5
TORSDOF 2
ENDMDL
