MODEL 1
REMARK VINA RESULT:      -4.8      0.000      0.000
REMARK  2 active torsions:
REMARK  status: ('A' for Active; 'I' for Inactive)
REMARK    1  A    between atoms: C3_3  and  C8_8 
REMARK    2  A    between atoms: C4_4  and  C7_7 
ROOT
HETATM    1  C5  UNL     1     -33.157   5.901   1.956  1.00 20.00     0.040 C 
HETATM    2  C6  UNL     1     -33.152   5.293   3.341  1.00 20.00     0.045 C 
HETATM    3  C7  UNL     1     -33.344   7.382   2.238  1.00 20.00     0.151 C 
HETATM    4  C8  UNL     1     -34.133   6.183   4.105  1.00 20.00     0.075 C 
HETATM    5  C10 UNL     1     -35.573   5.678   3.989  1.00 20.00     0.050 C 
HETATM    6  O11 UNL     1     -34.073   7.480   3.474  1.00 20.00    -0.367 OA
ENDROOT
BRANCH   3   7
HETATM    7  C4  UNL     1     -32.059   8.129   2.392  1.00 20.00    -0.065 C 
HETATM    8  C2  UNL     1     -31.464   8.278   3.586  1.00 20.00     0.016 C 
HETATM    9  C9  UNL     1     -31.472   8.701   1.137  1.00 20.00     0.045 C 
ENDBRANCH   3   7
BRANCH   4  10
HETATM   10  C3  UNL     1     -33.737   6.341   5.540  1.00 20.00     0.000 C 
HETATM   11  C1  UNL     1     -33.735   7.510   6.191  1.00 20.00     0.010 C 
ENDBRANCH   4  10
TORSDOF 2
ENDMDL
MODEL 2
REMARK VINA RESULT:      -4.6      1.479      2.607
REMARK  2 active torsions:
REMARK  status: ('A' for Active; 'I' for Inactive)
REMARK    1  A    between atoms: C3_3  and  C8_8 
REMARK    2  A    between atoms: C4_4  and  C7_7 
ROOT
HETATM    1  C5  UNL     1     -31.431   8.305   3.005  1.00 20.00     0.040 C 
HETATM    2  C6  UNL     1     -32.608   7.784   3.800  1.00 20.00     0.045 C 
HETATM    3  C7  UNL     1     -31.936   8.236   1.573  1.00 20.00     0.151 C 
HETATM    4  C8  UNL     1     -33.214   6.738   2.865  1.00 20.00     0.075 C 
HETATM    5  C10 UNL     1     -32.584   5.357   3.067  1.00 20.00     0.050 C 
HETATM    6  O11 UNL     1     -32.899   7.169   1.524  1.00 20.00    -0.367 OA
ENDROOT
BRANCH   3   7
HETATM    7  C4  UNL     1     -32.604   9.491   1.113  1.00 20.00    -0.065 C 
HETATM    8  C2  UNL     1     -32.638  10.596   1.874  1.00 20.00     0.016 C 
HETATM    9  C9  UNL     1     -33.233   9.445  -0.247  1.00 20.00     0.045 C 
ENDBRANCH   3   7
BRANCH   4  10
HETATM   10  C3  UNL     1     -34.703   6.670   2.998  1.00 20.00     0.000 C 
HETATM   11  C1  UNL     1     -35.341   5.874   3.865  1.00 20.00     0.010 C 
ENDBRANCH   4  10
TORSDOF 2
ENDMDL
MODEL 3
REMARK VINA RESULT:      -4.4      1.432      4.389
REMARK  2 active torsions:
REMARK  status: ('A' for Active; 'I' for Inactive)
REMARK    1  A    between atoms: C3_3  and  C8_8 
REMARK    2  A    between atoms: C4_4  and  C7_7 
ROOT
HETATM    1  C5  UNL     1     -31.803   7.951   3.649  1.00 20.00     0.040 C 
HETATM    2  C6  UNL     1     -31.375   8.205   2.221  1.00 20.00     0.045 C 
HETATM    3  C7  UNL     1     -33.300   7.722   3.517  1.00 20.00     0.151 C 
HETATM    4  C8  UNL     1     -32.582   8.935   1.630  1.00 20.00     0.075 C 
HETATM    5  C10 UNL     1     -32.488  10.450   1.831  1.00 20.00     0.050 C 
HETATM    6  O11 UNL     1     -33.732   8.467   2.365  1.00 20.00    -0.367 OA
ENDROOT
BRANCH   3   7
HETATM    7  C4  UNL     1     -33.671   6.289   3.314  1.00 20.00    -0.065 C 
HETATM    8  C2  UNL     1     -32.915   5.458   2.579  1.00 20.00     0.016 C 
HETATM    9  C9  UNL     1     -34.934   5.833   3.979  1.00 20.00     0.045 C 
ENDBRANCH   3   7
BRANCH   4  10
HETATM   10  C3  UNL     1     -32.780   8.599   0.185  1.00 20.00     0.000 C 
HETATM   11  C1  UNL     1     -33.210   9.473  -0.733  1.00 20.00     0.010 C 
ENDBRANCH   4  10
TORSDOF 2
ENDMDL
MODEL 4
REMARK VINA RESULT:      -4.4     11.085     12.499
REMARK  2 active torsions:
REMARK  status: ('A' for Active; 'I' for Inactive)
REMARK    1  A    between atoms: C3_3  and  C8_8 
REMARK    2  A    between atoms: C4_4  and  C7_7 
ROOT
HETATM    1  C5  UNL     1     -36.484  14.472  -4.907  1.00 20.00     0.040 C 
HETATM    2  C6  UNL     1     -36.177  14.975  -6.300  1.00 20.00     0.045 C 
HETATM    3  C7  UNL     1     -35.103  14.313  -4.294  1.00 20.00     0.151 C 
HETATM    4  C8  UNL     1     -34.866  14.264  -6.636  1.00 20.00     0.075 C 
HETATM    5  C10 UNL     1     -35.106  12.898  -7.283  1.00 20.00     0.050 C 
HETATM    6  O11 UNL     1     -34.197  14.040  -5.377  1.00 20.00    -0.367 OA
ENDROOT
BRANCH   3   7
HETATM    7  C4  UNL     1     -34.622  15.534  -3.579  1.00 20.00    -0.065 C 
HETATM    8  C2  UNL     1     -33.357  15.969  -3.691  1.00 20.00     0.016 C 
HETATM    9  C9  UNL     1     -35.633  16.245  -2.730  1.00 20.00     0.045 C 
ENDBRANCH   3   7
BRANCH   4  10
HETATM   10  C3  UNL     1     -33.979  15.112  -7.494  1.00 20.00     0.000 C 
HETATM   11  C1  UNL     1     -33.964  16.449  -7.463  1.00 20.00     0.010 C 
ENDBRANCH   4  10
TORSDOF 2
ENDMDL
MODEL 5
REMARK VINA RESULT:      -4.3     10.929     11.999
REMARK  2 active torsions:
REMARK  status: ('A' for Active; 'I' for Inactive)
REMARK    1  A    between atoms: C3_3  and  C8_8 
REMARK    2  A    between atoms: C4_4  and  C7_7 
ROOT
HETATM    1  C5  UNL     1     -33.167  15.278  -4.161  1.00 20.00     0.040 C 
HETATM    2  C6  UNL     1     -33.959  14.007  -4.375  1.00 20.00     0.045 C 
HETATM    3  C7  UNL     1     -34.223  16.361  -4.304  1.00 20.00     0.151 C 
HETATM    4  C8  UNL     1     -35.011  14.432  -5.400  1.00 20.00     0.075 C 
HETATM    5  C10 UNL     1     -34.512  14.254  -6.837  1.00 20.00     0.050 C 
HETATM    6  O11 UNL     1     -35.233  15.841  -5.187  1.00 20.00    -0.367 OA
ENDROOT
BRANCH   3   7
HETATM    7  C4  UNL     1     -34.877  16.734  -3.013  1.00 20.00    -0.065 C 
HETATM    8  C2  UNL     1     -36.210  16.827  -2.894  1.00 20.00     0.016 C 
HETATM    9  C9  UNL     1     -33.957  16.999  -1.859  1.00 20.00     0.045 C 
ENDBRANCH   3   7
BRANCH   4  10
HETATM   10  C3  UNL     1     -36.309  13.715  -5.194  1.00 20.00     0.000 C 
HETATM   11  C1  UNL     1     -37.508  14.304  -5.270  1.00 20.00     0.010 C 
ENDBRANCH   4  10
TORSDOF 2
ENDMDL
MODEL 6
REMARK VINA RESULT:      -4.3     11.212     12.202
REMARK  2 active torsions:
REMARK  status: ('A' for Active; 'I' for Inactive)
REMARK    1  A    between atoms: C3_3  and  C8_8 
REMARK    2  A    between atoms: C4_4  and  C7_7 
ROOT
HETATM    1  C5  UNL     1     -33.262  16.006  -5.450  1.00 20.00     0.040 C 
HETATM    2  C6  UNL     1     -34.287  16.952  -4.865  1.00 20.00     0.045 C 
HETATM    3  C7  UNL     1     -33.746  14.647  -4.973  1.00 20.00     0.151 C 
HETATM    4  C8  UNL     1     -34.647  16.283  -3.538  1.00 20.00     0.075 C 
HETATM    5  C10 UNL     1     -33.722  16.729  -2.403  1.00 20.00     0.050 C 
HETATM    6  O11 UNL     1     -34.445  14.868  -3.735  1.00 20.00    -0.367 OA
ENDROOT
BRANCH   3   7
HETATM    7  C4  UNL     1     -34.682  13.976  -5.925  1.00 20.00    -0.065 C 
HETATM    8  C2  UNL     1     -34.420  13.897  -7.239  1.00 20.00     0.016 C 
HETATM    9  C9  UNL     1     -35.929  13.396  -5.329  1.00 20.00     0.045 C 
ENDBRANCH   3   7
BRANCH   4  10
HETATM   10  C3  UNL     1     -36.082  16.506  -3.176  1.00 20.00     0.000 C 
HETATM   11  C1  UNL     1     -37.052  16.734  -4.069  1.00 20.00     0.010 C 
ENDBRANCH   4  10
TORSDOF 2
ENDMDL
MODEL 7
REMARK VINA RESULT:      -4.3     10.568     12.005
REMARK  2 active torsions:
REMARK  status: ('A' for Active; 'I' for Inactive)
REMARK    1  A    between atoms: C3_3  and  C8_8 
REMARK    2  A    between atoms: C4_4  and  C7_7 
ROOT
HETATM    1  C5  UNL     1     -34.440  14.093  -6.636  1.00 20.00     0.040 C 
HETATM    2  C6  UNL     1     -33.710  15.246  -5.984  1.00 20.00     0.045 C 
HETATM    3  C7  UNL     1     -35.485  13.723  -5.596  1.00 20.00     0.151 C 
HETATM    4  C8  UNL     1     -33.746  14.874  -4.501  1.00 20.00     0.075 C 
HETATM    5  C10 UNL     1     -32.549  14.008  -4.099  1.00 20.00     0.050 C 
HETATM    6  O11 UNL     1     -34.939  14.083  -4.315  1.00 20.00    -0.367 OA
ENDROOT
BRANCH   3   7
HETATM    7  C4  UNL     1     -36.783  14.442  -5.770  1.00 20.00    -0.065 C 
HETATM    8  C2  UNL     1     -37.594  14.701  -4.733  1.00 20.00     0.016 C 
HETATM    9  C9  UNL     1     -37.126  14.857  -7.169  1.00 20.00     0.045 C 
ENDBRANCH   3   7
BRANCH   4  10
HETATM   10  C3  UNL     1     -33.846  16.085  -3.627  1.00 20.00     0.000 C 
HETATM   11  C1  UNL     1     -34.795  16.262  -2.700  1.00 20.00     0.010 C 
ENDBRANCH   4  10
TORSDOF 2
ENDMDL
MODEL 8
REMARK VINA RESULT:      -4.2     10.944     12.264
REMARK  2 active torsions:
REMARK  status: ('A' for Active; 'I' for Inactive)
REMARK    1  A    between atoms: C3_3  and  C8_8 
REMARK    2  A    between atoms: C4_4  and  C7_7 
ROOT
HETATM    1  C5  UNL     1     -33.107  14.914  -4.651  1.00 20.00     0.040 C 
HETATM    2  C6  UNL     1     -33.376  16.400  -4.730  1.00 20.00     0.045 C 
HETATM    3  C7  UNL     1     -34.455  14.349  -4.234  1.00 20.00     0.151 C 
HETATM    4  C8  UNL     1     -34.397  16.619  -3.613  1.00 20.00     0.075 C 
HETATM    5  C10 UNL     1     -33.721  16.906  -2.269  1.00 20.00     0.050 C 
HETATM    6  O11 UNL     1     -35.120  15.378  -3.481  1.00 20.00    -0.367 OA
ENDROOT
BRANCH   3   7
HETATM    7  C4  UNL     1     -35.328  13.972  -5.386  1.00 20.00    -0.065 C 
HETATM    8  C2  UNL     1     -36.665  13.923  -5.276  1.00 20.00     0.016 C 
HETATM    9  C9  UNL     1     -34.626  13.654  -6.672  1.00 20.00     0.045 C 
ENDBRANCH   3   7
BRANCH   4  10
HETATM   10  C3  UNL     1     -35.376  17.698  -3.959  1.00 20.00     0.000 C 
HETATM   11  C1  UNL     1     -35.956  17.824  -5.158  1.00 20.00     0.010 C 
ENDBRANCH   4  10
TORSDOF 2
ENDMDL
MODEL 9
REMARK VINA RESULT:      -4.1     11.141     12.120
REMARK  2 active torsions:
REMARK  status: ('A' for Active; 'I' for Inactive)
REMARK    1  A    between atoms: C3_3  and  C8_8 
REMARK    2  A    between atoms: C4_4  and  C7_7 
ROOT
HETATM    1  C5  UNL     1     -36.296  16.329  -3.472  1.00 20.00     0.040 C 
HETATM    2  C6  UNL     1     -35.615  16.697  -2.172  1.00 20.00     0.045 C 
HETATM    3  C7  UNL     1     -35.131  16.204  -4.439  1.00 20.00     0.151 C 
HETATM    4  C8  UNL     1     -34.437  17.553  -2.638  1.00 20.00     0.075 C 
HETATM    5  C10 UNL     1     -34.814  19.032  -2.753  1.00 20.00     0.050 C 
HETATM    6  O11 UNL     1     -34.099  17.084  -3.960  1.00 20.00    -0.367 OA
ENDROOT
BRANCH   3   7
HETATM    7  C4  UNL     1     -34.567  14.823  -4.523  1.00 20.00    -0.065 C 
HETATM    8  C2  UNL     1     -33.261  14.578  -4.333  1.00 20.00     0.016 C 
HETATM    9  C9  UNL     1     -35.543  13.728  -4.830  1.00 20.00     0.045 C 
ENDBRANCH   3   7
BRANCH   4  10
HETATM   10  C3  UNL     1     -33.239  17.375  -1.757  1.00 20.00     0.000 C 
HETATM   11  C1  UNL     1     -32.664  18.366  -1.068  1.00 20.00     0.010 C 
ENDBRANCH   4  10
TORSDOF 2
ENDMDL
