MODEL 1
REMARK VINA RESULT:      -5.0      0.000      0.000
REMARK  2 active torsions:
REMARK  status: ('A' for Active; 'I' for Inactive)
REMARK    1  A    between atoms: C3_3  and  C8_8 
REMARK    2  A    between atoms: C4_4  and  C7_7 
ROOT
HETATM    1  C5  UNL     1     -31.918   8.066   4.116  1.00 20.00     0.040 C 
HETATM    2  C6  UNL     1     -31.164   8.634   2.935  1.00 20.00     0.045 C 
HETATM    3  C7  UNL     1     -32.701   6.937   3.467  1.00 20.00     0.151 C 
HETATM    4  C8  UNL     1     -32.184   8.513   1.804  1.00 20.00     0.075 C 
HETATM    5  C10 UNL     1     -31.518   8.289   0.450  1.00 20.00     0.050 C 
HETATM    6  O11 UNL     1     -32.985   7.356   2.119  1.00 20.00    -0.367 OA
ENDROOT
BRANCH   3   7
HETATM    7  C4  UNL     1     -33.970   6.620   4.177  1.00 20.00    -0.065 C 
HETATM    8  C2  UNL     1     -34.998   6.022   3.557  1.00 20.00     0.016 C 
HETATM    9  C9  UNL     1     -34.032   7.006   5.625  1.00 20.00     0.045 C 
ENDBRANCH   3   7
BRANCH   4  10
HETATM   10  C3  UNL     1     -33.098   9.702   1.731  1.00 20.00     0.000 C 
HETATM   11  C1  UNL     1     -32.698  10.934   1.399  1.00 20.00     0.010 C 
ENDBRANCH   4  10
TORSDOF 2
ENDMDL
MODEL 2
REMARK VINA RESULT:      -5.0      1.277      4.419
REMARK  2 active torsions:
REMARK  status: ('A' for Active; 'I' for Inactive)
REMARK    1  A    between atoms: C3_3  and  C8_8 
REMARK    2  A    between atoms: C4_4  and  C7_7 
ROOT
HETATM    1  C5  UNL     1     -34.637   7.110   2.661  1.00 20.00     0.040 C 
HETATM    2  C6  UNL     1     -35.252   5.935   3.385  1.00 20.00     0.045 C 
HETATM    3  C7  UNL     1     -33.165   6.735   2.660  1.00 20.00     0.151 C 
HETATM    4  C8  UNL     1     -34.200   5.615   4.446  1.00 20.00     0.075 C 
HETATM    5  C10 UNL     1     -34.164   4.130   4.792  1.00 20.00     0.050 C 
HETATM    6  O11 UNL     1     -32.932   5.983   3.865  1.00 20.00    -0.367 OA
ENDROOT
BRANCH   3   7
HETATM    7  C4  UNL     1     -32.259   7.915   2.617  1.00 20.00    -0.065 C 
HETATM    8  C2  UNL     1     -31.375   8.166   3.593  1.00 20.00     0.016 C 
HETATM    9  C9  UNL     1     -32.391   8.806   1.417  1.00 20.00     0.045 C 
ENDBRANCH   3   7
BRANCH   4  10
HETATM   10  C3  UNL     1     -34.388   6.424   5.697  1.00 20.00     0.000 C 
HETATM   11  C1  UNL     1     -33.564   7.403   6.086  1.00 20.00     0.010 C 
ENDBRANCH   4  10
TORSDOF 2
ENDMDL
MODEL 3
REMARK VINA RESULT:      -4.9      1.323      2.344
REMARK  2 active torsions:
REMARK  status: ('A' for Active; 'I' for Inactive)
REMARK    1  A    between atoms: C3_3  and  C8_8 
REMARK    2  A    between atoms: C4_4  and  C7_7 
ROOT
HETATM    1  C5  UNL     1     -33.347   5.447   2.967  1.00 20.00     0.040 C 
HETATM    2  C6  UNL     1     -32.929   6.311   1.800  1.00 20.00     0.045 C 
HETATM    3  C7  UNL     1     -34.275   6.381   3.725  1.00 20.00     0.151 C 
HETATM    4  C8  UNL     1     -32.811   7.694   2.441  1.00 20.00     0.075 C 
HETATM    5  C10 UNL     1     -33.143   8.813   1.459  1.00 20.00     0.050 C 
HETATM    6  O11 UNL     1     -33.781   7.715   3.509  1.00 20.00    -0.367 OA
ENDROOT
BRANCH   3   7
HETATM    7  C4  UNL     1     -34.333   6.093   5.184  1.00 20.00    -0.065 C 
HETATM    8  C2  UNL     1     -34.726   4.902   5.656  1.00 20.00     0.016 C 
HETATM    9  C9  UNL     1     -33.926   7.213   6.096  1.00 20.00     0.045 C 
ENDBRANCH   3   7
BRANCH   4  10
HETATM   10  C3  UNL     1     -31.456   7.930   3.042  1.00 20.00     0.000 C 
HETATM   11  C1  UNL     1     -31.235   8.702   4.112  1.00 20.00     0.010 C 
ENDBRANCH   4  10
TORSDOF 2
ENDMDL
MODEL 4
REMARK VINA RESULT:      -4.6      1.179      4.287
REMARK  2 active torsions:
REMARK  status: ('A' for Active; 'I' for Inactive)
REMARK    1  A    between atoms: C3_3  and  C8_8 
REMARK    2  A    between atoms: C4_4  and  C7_7 
ROOT
HETATM    1  C5  UNL     1     -31.545   8.404   3.107  1.00 20.00     0.040 C 
HETATM    2  C6  UNL     1     -32.311   7.626   4.152  1.00 20.00     0.045 C 
HETATM    3  C7  UNL     1     -32.654   8.811   2.152  1.00 20.00     0.151 C 
HETATM    4  C8  UNL     1     -33.361   6.897   3.315  1.00 20.00     0.075 C 
HETATM    5  C10 UNL     1     -34.658   6.673   4.087  1.00 20.00     0.050 C 
HETATM    6  O11 UNL     1     -33.637   7.760   2.192  1.00 20.00    -0.367 OA
ENDROOT
BRANCH   3   7
HETATM    7  C4  UNL     1     -32.182   9.008   0.755  1.00 20.00    -0.065 C 
HETATM    8  C2  UNL     1     -30.970   8.598   0.352  1.00 20.00     0.016 C 
HETATM    9  C9  UNL     1     -33.139   9.692  -0.177  1.00 20.00     0.045 C 
ENDBRANCH   3   7
BRANCH   4  10
HETATM   10  C3  UNL     1     -32.856   5.589   2.779  1.00 20.00     0.000 C 
HETATM   11  C1  UNL     1     -33.440   4.409   3.010  1.00 20.00     0.010 C 
ENDBRANCH   4  10
TORSDOF 2
ENDMDL
MODEL 5
REMARK VINA RESULT:      -4.1     10.262     11.038
REMARK  2 active torsions:
REMARK  status: ('A' for Active; 'I' for Inactive)
REMARK    1  A    between atoms: C3_3  and  C8_8 
REMARK    2  A    between atoms: C4_4  and  C7_7 
ROOT
HETATM    1  C5  UNL     1     -33.525  17.073  -4.440  1.00 20.00     0.040 C 
HETATM    2  C6  UNL     1     -33.931  16.124  -5.545  1.00 20.00     0.045 C 
HETATM    3  C7  UNL     1     -33.725  16.210  -3.205  1.00 20.00     0.151 C 
HETATM    4  C8  UNL     1     -35.097  15.364  -4.913  1.00 20.00     0.075 C 
HETATM    5  C10 UNL     1     -35.201  13.934  -5.434  1.00 20.00     0.050 C 
HETATM    6  O11 UNL     1     -34.816  15.319  -3.499  1.00 20.00    -0.367 OA
ENDROOT
BRANCH   3   7
HETATM    7  C4  UNL     1     -34.032  17.001  -1.982  1.00 20.00    -0.065 C 
HETATM    8  C2  UNL     1     -35.213  16.904  -1.354  1.00 20.00     0.016 C 
HETATM    9  C9  UNL     1     -32.945  17.911  -1.491  1.00 20.00     0.045 C 
ENDBRANCH   3   7
BRANCH   4  10
HETATM   10  C3  UNL     1     -36.408  16.070  -5.102  1.00 20.00     0.000 C 
HETATM   11  C1  UNL     1     -37.430  15.995  -4.243  1.00 20.00     0.010 C 
ENDBRANCH   4  10
TORSDOF 2
ENDMDL
MODEL 6
REMARK VINA RESULT:      -4.1     10.145     11.210
REMARK  2 active torsions:
REMARK  status: ('A' for Active; 'I' for Inactive)
REMARK    1  A    between atoms: C3_3  and  C8_8 
REMARK    2  A    between atoms: C4_4  and  C7_7 
ROOT
HETATM    1  C5  UNL     1     -35.552  17.343  -3.881  1.00 20.00     0.040 C 
HETATM    2  C6  UNL     1     -35.366  16.678  -5.225  1.00 20.00     0.045 C 
HETATM    3  C7  UNL     1     -34.116  17.475  -3.402  1.00 20.00     0.151 C 
HETATM    4  C8  UNL     1     -34.204  15.721  -4.961  1.00 20.00     0.075 C 
HETATM    5  C10 UNL     1     -33.345  15.502  -6.202  1.00 20.00     0.050 C 
HETATM    6  O11 UNL     1     -33.396  16.355  -3.947  1.00 20.00    -0.367 OA
ENDROOT
BRANCH   3   7
HETATM    7  C4  UNL     1     -33.992  17.483  -1.918  1.00 20.00    -0.065 C 
HETATM    8  C2  UNL     1     -32.885  17.922  -1.302  1.00 20.00     0.016 C 
HETATM    9  C9  UNL     1     -35.177  16.972  -1.152  1.00 20.00     0.045 C 
ENDBRANCH   3   7
BRANCH   4  10
HETATM   10  C3  UNL     1     -34.667  14.398  -4.422  1.00 20.00     0.000 C 
HETATM   11  C1  UNL     1     -35.665  13.682  -4.951  1.00 20.00     0.010 C 
ENDBRANCH   4  10
TORSDOF 2
ENDMDL
MODEL 7
REMARK VINA RESULT:      -4.0      1.299      4.296
REMARK  2 active torsions:
REMARK  status: ('A' for Active; 'I' for Inactive)
REMARK    1  A    between atoms: C3_3  and  C8_8 
REMARK    2  A    between atoms: C4_4  and  C7_7 
ROOT
HETATM    1  C5  UNL     1     -32.980   7.501   5.000  1.00 20.00     0.040 C 
HETATM    2  C6  UNL     1     -34.185   6.631   5.275  1.00 20.00     0.045 C 
HETATM    3  C7  UNL     1     -33.285   8.016   3.603  1.00 20.00     0.151 C 
HETATM    4  C8  UNL     1     -34.457   6.004   3.908  1.00 20.00     0.075 C 
HETATM    5  C10 UNL     1     -35.940   5.719   3.690  1.00 20.00     0.050 C 
HETATM    6  O11 UNL     1     -34.027   6.979   2.936  1.00 20.00    -0.367 OA
ENDROOT
BRANCH   3   7
HETATM    7  C4  UNL     1     -32.063   8.347   2.821  1.00 20.00    -0.065 C 
HETATM    8  C2  UNL     1     -30.834   8.235   3.345  1.00 20.00     0.016 C 
HETATM    9  C9  UNL     1     -32.285   8.812   1.412  1.00 20.00     0.045 C 
ENDBRANCH   3   7
BRANCH   4  10
HETATM   10  C3  UNL     1     -33.661   4.750   3.689  1.00 20.00     0.000 C 
HETATM   11  C1  UNL     1     -32.923   4.513   2.599  1.00 20.00     0.010 C 
ENDBRANCH   4  10
TORSDOF 2
ENDMDL
MODEL 8
REMARK VINA RESULT:      -4.0      9.971     11.421
REMARK  2 active torsions:
REMARK  status: ('A' for Active; 'I' for Inactive)
REMARK    1  A    between atoms: C3_3  and  C8_8 
REMARK    2  A    between atoms: C4_4  and  C7_7 
ROOT
HETATM    1  C5  UNL     1     -34.824  14.013  -4.220  1.00 20.00     0.040 C 
HETATM    2  C6  UNL     1     -35.558  13.559  -5.461  1.00 20.00     0.045 C 
HETATM    3  C7  UNL     1     -35.513  15.334  -3.921  1.00 20.00     0.151 C 
HETATM    4  C8  UNL     1     -35.785  14.872  -6.208  1.00 20.00     0.075 C 
HETATM    5  C10 UNL     1     -37.069  14.852  -7.033  1.00 20.00     0.050 C 
HETATM    6  O11 UNL     1     -35.908  15.887  -5.190  1.00 20.00    -0.367 OA
ENDROOT
BRANCH   3   7
HETATM    7  C4  UNL     1     -34.641  16.299  -3.198  1.00 20.00    -0.065 C 
HETATM    8  C2  UNL     1     -34.871  16.644  -1.923  1.00 20.00     0.016 C 
HETATM    9  C9  UNL     1     -33.489  16.863  -3.977  1.00 20.00     0.045 C 
ENDBRANCH   3   7
BRANCH   4  10
HETATM   10  C3  UNL     1     -34.623  15.237  -7.086  1.00 20.00     0.000 C 
HETATM   11  C1  UNL     1     -34.016  14.384  -7.918  1.00 20.00     0.010 C 
ENDBRANCH   4  10
TORSDOF 2
ENDMDL
MODEL 9
REMARK VINA RESULT:      -4.0     10.370     11.552
REMARK  2 active torsions:
REMARK  status: ('A' for Active; 'I' for Inactive)
REMARK    1  A    between atoms: C3_3  and  C8_8 
REMARK    2  A    between atoms: C4_4  and  C7_7 
ROOT
HETATM    1  C5  UNL     1     -33.313  15.903  -5.522  1.00 20.00     0.040 C 
HETATM    2  C6  UNL     1     -33.513  17.193  -4.758  1.00 20.00     0.045 C 
HETATM    3  C7  UNL     1     -34.720  15.622  -6.022  1.00 20.00     0.151 C 
HETATM    4  C8  UNL     1     -34.885  16.987  -4.119  1.00 20.00     0.075 C 
HETATM    5  C10 UNL     1     -35.643  18.300  -3.948  1.00 20.00     0.050 C 
HETATM    6  O11 UNL     1     -35.622  16.146  -5.031  1.00 20.00    -0.367 OA
ENDROOT
BRANCH   3   7
HETATM    7  C4  UNL     1     -34.988  14.173  -6.234  1.00 20.00    -0.065 C 
HETATM    8  C2  UNL     1     -34.519  13.515  -7.304  1.00 20.00     0.016 C 
HETATM    9  C9  UNL     1     -35.812  13.492  -5.181  1.00 20.00     0.045 C 
ENDBRANCH   3   7
BRANCH   4  10
HETATM   10  C3  UNL     1     -34.799  16.274  -2.801  1.00 20.00     0.000 C 
HETATM   11  C1  UNL     1     -34.720  16.894  -1.618  1.00 20.00     0.010 C 
ENDBRANCH   4  10
TORSDOF 2
ENDMDL
