MODEL 1
REMARK VINA RESULT:      -6.0      0.000      0.000
REMARK  1 active torsions:
REMARK  status: ('A' for Active; 'I' for Inactive)
REMARK    1  A    between atoms: C3_3  and  C7_7 
ROOT
HETATM    1  C1  UNL     1     -34.134   6.506   5.699  1.00 20.00     0.001 C 
HETATM    2  C2  UNL     1     -34.261   5.691   4.639  1.00 20.00    -0.083 C 
HETATM    3  C5  UNL     1     -33.335   7.774   5.643  1.00 20.00     0.196 C 
HETATM    4  C6  UNL     1     -33.622   6.052   3.323  1.00 20.00     0.069 C 
HETATM    5  C7  UNL     1     -33.208   7.529   3.285  1.00 20.00     0.148 C 
HETATM    6  C8  UNL     1     -35.023   4.403   4.694  1.00 20.00     0.043 C 
HETATM    7  O11 UNL     1     -32.495   7.842   4.485  1.00 20.00    -0.378 OA
ENDROOT
BRANCH   5   8
HETATM    8  C3  UNL     1     -32.320   7.821   2.122  1.00 20.00     0.007 C 
HETATM    9  C4  UNL     1     -32.287   8.937   1.368  1.00 20.00    -0.089 C 
HETATM   10  C9  UNL     1     -31.324   9.075   0.222  1.00 20.00     0.042 C 
HETATM   11  C10 UNL     1     -33.185  10.121   1.592  1.00 20.00     0.042 C 
ENDBRANCH   5   8
TORSDOF 1
ENDMDL
MODEL 2
REMARK VINA RESULT:      -5.4      1.374      2.187
REMARK  1 active torsions:
REMARK  status: ('A' for Active; 'I' for Inactive)
REMARK    1  A    between atoms: C3_3  and  C7_7 
ROOT
HETATM    1  C1  UNL     1     -33.773   4.599   3.842  1.00 20.00     0.001 C 
HETATM    2  C2  UNL     1     -34.155   5.558   4.700  1.00 20.00    -0.083 C 
HETATM    3  C5  UNL     1     -33.222   4.914   2.483  1.00 20.00     0.196 C 
HETATM    4  C6  UNL     1     -34.005   7.012   4.331  1.00 20.00     0.069 C 
HETATM    5  C7  UNL     1     -33.067   7.192   3.130  1.00 20.00     0.148 C 
HETATM    6  C8  UNL     1     -34.742   5.256   6.044  1.00 20.00     0.043 C 
HETATM    7  O11 UNL     1     -33.449   6.275   2.100  1.00 20.00    -0.378 OA
ENDROOT
BRANCH   5   8
HETATM    8  C3  UNL     1     -33.144   8.577   2.577  1.00 20.00     0.007 C 
HETATM    9  C4  UNL     1     -32.406   9.111   1.585  1.00 20.00    -0.089 C 
HETATM   10  C9  UNL     1     -32.609  10.533   1.142  1.00 20.00     0.042 C 
HETATM   11  C10 UNL     1     -31.337   8.360   0.842  1.00 20.00     0.042 C 
ENDBRANCH   5   8
TORSDOF 1
ENDMDL
MODEL 3
REMARK VINA RESULT:      -4.8      0.987      4.620
REMARK  1 active torsions:
REMARK  status: ('A' for Active; 'I' for Inactive)
REMARK    1  A    between atoms: C3_3  and  C7_7 
ROOT
HETATM    1  C1  UNL     1     -31.589   9.208   2.059  1.00 20.00     0.001 C 
HETATM    2  C2  UNL     1     -32.612   8.775   1.305  1.00 20.00    -0.083 C 
HETATM    3  C5  UNL     1     -31.230   8.566   3.366  1.00 20.00     0.196 C 
HETATM    4  C6  UNL     1     -33.426   7.583   1.740  1.00 20.00     0.069 C 
HETATM    5  C7  UNL     1     -32.712   6.788   2.841  1.00 20.00     0.148 C 
HETATM    6  C8  UNL     1     -33.004   9.432   0.018  1.00 20.00     0.043 C 
HETATM    7  O11 UNL     1     -32.258   7.695   3.851  1.00 20.00    -0.378 OA
ENDROOT
BRANCH   5   8
HETATM    8  C3  UNL     1     -33.624   5.794   3.480  1.00 20.00     0.007 C 
HETATM    9  C4  UNL     1     -34.179   5.852   4.705  1.00 20.00    -0.089 C 
HETATM   10  C9  UNL     1     -35.084   4.759   5.203  1.00 20.00     0.042 C 
HETATM   11  C10 UNL     1     -33.958   6.983   5.669  1.00 20.00     0.042 C 
ENDBRANCH   5   8
TORSDOF 1
ENDMDL
MODEL 4
REMARK VINA RESULT:      -4.6     10.621     11.960
REMARK  1 active torsions:
REMARK  status: ('A' for Active; 'I' for Inactive)
REMARK    1  A    between atoms: C3_3  and  C7_7 
ROOT
HETATM    1  C1  UNL     1     -35.060  13.989  -6.054  1.00 20.00     0.001 C 
HETATM    2  C2  UNL     1     -34.323  15.031  -6.471  1.00 20.00    -0.083 C 
HETATM    3  C5  UNL     1     -35.303  13.712  -4.600  1.00 20.00     0.196 C 
HETATM    4  C6  UNL     1     -33.736  15.995  -5.473  1.00 20.00     0.069 C 
HETATM    5  C7  UNL     1     -34.392  15.845  -4.094  1.00 20.00     0.148 C 
HETATM    6  C8  UNL     1     -34.040  15.295  -7.918  1.00 20.00     0.043 C 
HETATM    7  O11 UNL     1     -34.428  14.457  -3.745  1.00 20.00    -0.378 OA
ENDROOT
BRANCH   5   8
HETATM    8  C3  UNL     1     -33.628  16.573  -3.039  1.00 20.00     0.007 C 
HETATM    9  C4  UNL     1     -34.098  17.091  -1.889  1.00 20.00    -0.089 C 
HETATM   10  C9  UNL     1     -33.188  17.802  -0.925  1.00 20.00     0.042 C 
HETATM   11  C10 UNL     1     -35.538  17.013  -1.465  1.00 20.00     0.042 C 
ENDBRANCH   5   8
TORSDOF 1
ENDMDL
MODEL 5
REMARK VINA RESULT:      -4.5     11.225     12.181
REMARK  1 active torsions:
REMARK  status: ('A' for Active; 'I' for Inactive)
REMARK    1  A    between atoms: C3_3  and  C7_7 
ROOT
HETATM    1  C1  UNL     1     -33.915  15.189  -6.977  1.00 20.00     0.001 C 
HETATM    2  C2  UNL     1     -34.683  14.258  -6.388  1.00 20.00    -0.083 C 
HETATM    3  C5  UNL     1     -33.573  16.486  -6.305  1.00 20.00     0.196 C 
HETATM    4  C6  UNL     1     -35.206  14.476  -4.991  1.00 20.00     0.069 C 
HETATM    5  C7  UNL     1     -34.457  15.612  -4.283  1.00 20.00     0.148 C 
HETATM    6  C8  UNL     1     -35.063  12.977  -7.064  1.00 20.00     0.043 C 
HETATM    7  O11 UNL     1     -34.392  16.742  -5.158  1.00 20.00    -0.378 OA
ENDROOT
BRANCH   5   8
HETATM    8  C3  UNL     1     -35.153  16.030  -3.029  1.00 20.00     0.007 C 
HETATM    9  C4  UNL     1     -34.657  16.768  -2.018  1.00 20.00    -0.089 C 
HETATM   10  C9  UNL     1     -35.495  17.104  -0.816  1.00 20.00     0.042 C 
HETATM   11  C10 UNL     1     -33.258  17.314  -1.991  1.00 20.00     0.042 C 
ENDBRANCH   5   8
TORSDOF 1
ENDMDL
MODEL 6
REMARK VINA RESULT:      -4.5     10.614     11.593
REMARK  1 active torsions:
REMARK  status: ('A' for Active; 'I' for Inactive)
REMARK    1  A    between atoms: C3_3  and  C7_7 
ROOT
HETATM    1  C1  UNL     1     -34.669  17.930   0.080  1.00 20.00     0.001 C 
HETATM    2  C2  UNL     1     -33.420  18.252  -0.294  1.00 20.00    -0.083 C 
HETATM    3  C5  UNL     1     -35.629  17.243  -0.846  1.00 20.00     0.196 C 
HETATM    4  C6  UNL     1     -32.922  17.893  -1.670  1.00 20.00     0.069 C 
HETATM    5  C7  UNL     1     -33.828  16.852  -2.341  1.00 20.00     0.148 C 
HETATM    6  C8  UNL     1     -32.466  18.973   0.608  1.00 20.00     0.043 C 
HETATM    7  O11 UNL     1     -35.191  17.268  -2.209  1.00 20.00    -0.378 OA
ENDROOT
BRANCH   5   8
HETATM    8  C3  UNL     1     -33.520  16.712  -3.795  1.00 20.00     0.007 C 
HETATM    9  C4  UNL     1     -33.701  15.630  -4.576  1.00 20.00    -0.089 C 
HETATM   10  C9  UNL     1     -33.336  15.653  -6.035  1.00 20.00     0.042 C 
HETATM   11  C10 UNL     1     -34.270  14.330  -4.083  1.00 20.00     0.042 C 
ENDBRANCH   5   8
TORSDOF 1
ENDMDL
MODEL 7
REMARK VINA RESULT:      -4.3     10.843     11.580
REMARK  1 active torsions:
REMARK  status: ('A' for Active; 'I' for Inactive)
REMARK    1  A    between atoms: C3_3  and  C7_7 
ROOT
HETATM    1  C1  UNL     1     -36.887  14.024  -5.127  1.00 20.00     0.001 C 
HETATM    2  C2  UNL     1     -37.344  15.158  -4.571  1.00 20.00    -0.083 C 
HETATM    3  C5  UNL     1     -35.440  13.633  -5.071  1.00 20.00     0.196 C 
HETATM    4  C6  UNL     1     -36.405  16.072  -3.826  1.00 20.00     0.069 C 
HETATM    5  C7  UNL     1     -35.084  15.367  -3.490  1.00 20.00     0.148 C 
HETATM    6  C8  UNL     1     -38.779  15.579  -4.654  1.00 20.00     0.043 C 
HETATM    7  O11 UNL     1     -34.594  14.714  -4.665  1.00 20.00    -0.378 OA
ENDROOT
BRANCH   5   8
HETATM    8  C3  UNL     1     -34.048  16.335  -3.024  1.00 20.00     0.007 C 
HETATM    9  C4  UNL     1     -34.049  17.063  -1.892  1.00 20.00    -0.089 C 
HETATM   10  C9  UNL     1     -32.919  18.001  -1.568  1.00 20.00     0.042 C 
HETATM   11  C10 UNL     1     -35.148  17.013  -0.868  1.00 20.00     0.042 C 
ENDBRANCH   5   8
TORSDOF 1
ENDMDL
MODEL 8
REMARK VINA RESULT:      -4.2     10.981     11.647
REMARK  1 active torsions:
REMARK  status: ('A' for Active; 'I' for Inactive)
REMARK    1  A    between atoms: C3_3  and  C7_7 
ROOT
HETATM    1  C1  UNL     1     -33.836  18.643   0.366  1.00 20.00     0.001 C 
HETATM    2  C2  UNL     1     -34.870  17.830   0.093  1.00 20.00    -0.083 C 
HETATM    3  C5  UNL     1     -32.634  18.735  -0.526  1.00 20.00     0.196 C 
HETATM    4  C6  UNL     1     -34.871  16.996  -1.162  1.00 20.00     0.069 C 
HETATM    5  C7  UNL     1     -33.816  17.487  -2.163  1.00 20.00     0.148 C 
HETATM    6  C8  UNL     1     -36.058  17.701   0.996  1.00 20.00     0.043 C 
HETATM    7  O11 UNL     1     -32.573  17.666  -1.477  1.00 20.00    -0.378 OA
ENDROOT
BRANCH   5   8
HETATM    8  C3  UNL     1     -33.605  16.503  -3.266  1.00 20.00     0.007 C 
HETATM    9  C4  UNL     1     -33.538  16.748  -4.588  1.00 20.00    -0.089 C 
HETATM   10  C9  UNL     1     -33.320  15.636  -5.576  1.00 20.00     0.042 C 
HETATM   11  C10 UNL     1     -33.670  18.118  -5.191  1.00 20.00     0.042 C 
ENDBRANCH   5   8
TORSDOF 1
ENDMDL
MODEL 9
REMARK VINA RESULT:      -4.2     10.595     12.029
REMARK  1 active torsions:
REMARK  status: ('A' for Active; 'I' for Inactive)
REMARK    1  A    between atoms: C3_3  and  C7_7 
ROOT
HETATM    1  C1  UNL     1     -35.881  14.470  -5.616  1.00 20.00     0.001 C 
HETATM    2  C2  UNL     1     -35.957  15.801  -5.772  1.00 20.00    -0.083 C 
HETATM    3  C5  UNL     1     -35.037  13.836  -4.550  1.00 20.00     0.196 C 
HETATM    4  C6  UNL     1     -35.211  16.720  -4.839  1.00 20.00     0.069 C 
HETATM    5  C7  UNL     1     -34.745  15.981  -3.577  1.00 20.00     0.148 C 
HETATM    6  C8  UNL     1     -36.765  16.444  -6.857  1.00 20.00     0.043 C 
HETATM    7  O11 UNL     1     -34.111  14.757  -3.963  1.00 20.00    -0.378 OA
ENDROOT
BRANCH   5   8
HETATM    8  C3  UNL     1     -33.764  16.791  -2.797  1.00 20.00     0.007 C 
HETATM    9  C4  UNL     1     -33.923  17.323  -1.571  1.00 20.00    -0.089 C 
HETATM   10  C9  UNL     1     -32.828  18.120  -0.919  1.00 20.00     0.042 C 
HETATM   11  C10 UNL     1     -35.176  17.177  -0.754  1.00 20.00     0.042 C 
ENDBRANCH   5   8
TORSDOF 1
ENDMDL
