MODEL 1
REMARK VINA RESULT:      -6.0      0.000      0.000
REMARK  2 active torsions:
REMARK  status: ('A' for Active; 'I' for Inactive)
REMARK    1  A    between atoms: C1_1  and  C3_3 
REMARK    2  A    between atoms: C2_2  and  C4_4 
ROOT
HETATM    1  C1  UNL     1     -33.794   6.495   3.667  1.00 20.00     0.017 C 
HETATM    2  C2  UNL     1     -33.024   7.265   3.161  1.00 20.00     0.017 C 
ENDROOT
BRANCH   1   3
HETATM    3  C3  UNL     1     -34.724   5.566   4.280  1.00 20.00     0.459 C 
HETATM    4  F5  UNL     1     -34.741   5.717   5.623  1.00 20.00    -0.159 F 
HETATM    5  F6  UNL     1     -35.979   5.766   3.820  1.00 20.00    -0.159 F 
HETATM    6  F7  UNL     1     -34.378   4.287   4.008  1.00 20.00    -0.159 F 
ENDBRANCH   1   3
BRANCH   2   7
HETATM    7  C4  UNL     1     -32.094   8.197   2.549  1.00 20.00     0.459 C 
HETATM    8  F8  UNL     1     -31.088   8.500   3.398  1.00 20.00    -0.159 F 
HETATM    9  F9  UNL     1     -32.718   9.347   2.211  1.00 20.00    -0.159 F 
HETATM   10  F10 UNL     1     -31.552   7.670   1.428  1.00 20.00    -0.159 F 
ENDBRANCH   2   7
TORSDOF 2
ENDMDL
MODEL 2
REMARK VINA RESULT:      -6.0      0.011      4.579
REMARK  2 active torsions:
REMARK  status: ('A' for Active; 'I' for Inactive)
REMARK    1  A    between atoms: C1_1  and  C3_3 
REMARK    2  A    between atoms: C2_2  and  C4_4 
ROOT
HETATM    1  C1  UNL     1     -33.021   7.257   3.165  1.00 20.00     0.017 C 
HETATM    2  C2  UNL     1     -33.791   6.488   3.672  1.00 20.00     0.017 C 
ENDROOT
BRANCH   1   3
HETATM    3  C3  UNL     1     -32.091   8.188   2.553  1.00 20.00     0.459 C 
HETATM    4  F5  UNL     1     -31.081   8.487   3.400  1.00 20.00    -0.159 F 
HETATM    5  F6  UNL     1     -31.554   7.664   1.429  1.00 20.00    -0.159 F 
HETATM    6  F7  UNL     1     -32.713   9.342   2.221  1.00 20.00    -0.159 F 
ENDBRANCH   1   3
BRANCH   2   7
HETATM    7  C4  UNL     1     -34.722   5.558   4.286  1.00 20.00     0.459 C 
HETATM    8  F8  UNL     1     -35.976   5.757   3.823  1.00 20.00    -0.159 F 
HETATM    9  F9  UNL     1     -34.741   5.714   5.628  1.00 20.00    -0.159 F 
HETATM   10  F10 UNL     1     -34.373   4.280   4.017  1.00 20.00    -0.159 F 
ENDBRANCH   2   7
TORSDOF 2
ENDMDL
MODEL 3
REMARK VINA RESULT:      -6.0      0.013      4.579
REMARK  2 active torsions:
REMARK  status: ('A' for Active; 'I' for Inactive)
REMARK    1  A    between atoms: C1_1  and  C3_3 
REMARK    2  A    between atoms: C2_2  and  C4_4 
ROOT
HETATM    1  C1  UNL     1     -33.025   7.254   3.163  1.00 20.00     0.017 C 
HETATM    2  C2  UNL     1     -33.794   6.484   3.671  1.00 20.00     0.017 C 
ENDROOT
BRANCH   1   3
HETATM    3  C3  UNL     1     -32.097   8.185   2.550  1.00 20.00     0.459 C 
HETATM    4  F5  UNL     1     -32.722   9.333   2.206  1.00 20.00    -0.159 F 
HETATM    5  F6  UNL     1     -31.092   8.494   3.399  1.00 20.00    -0.159 F 
HETATM    6  F7  UNL     1     -31.551   7.656   1.432  1.00 20.00    -0.159 F 
ENDBRANCH   1   3
BRANCH   2   7
HETATM    7  C4  UNL     1     -34.722   5.553   4.286  1.00 20.00     0.459 C 
HETATM    8  F8  UNL     1     -34.373   4.276   4.017  1.00 20.00    -0.159 F 
HETATM    9  F9  UNL     1     -35.978   5.750   3.826  1.00 20.00    -0.159 F 
HETATM   10  F10 UNL     1     -34.740   5.708   5.629  1.00 20.00    -0.159 F 
ENDBRANCH   2   7
TORSDOF 2
ENDMDL
MODEL 4
REMARK VINA RESULT:      -6.0      0.012      4.579
REMARK  2 active torsions:
REMARK  status: ('A' for Active; 'I' for Inactive)
REMARK    1  A    between atoms: C1_1  and  C3_3 
REMARK    2  A    between atoms: C2_2  and  C4_4 
ROOT
HETATM    1  C1  UNL     1     -33.022   7.255   3.164  1.00 20.00     0.017 C 
HETATM    2  C2  UNL     1     -33.792   6.485   3.672  1.00 20.00     0.017 C 
ENDROOT
BRANCH   1   3
HETATM    3  C3  UNL     1     -32.094   8.186   2.551  1.00 20.00     0.459 C 
HETATM    4  F5  UNL     1     -32.717   9.337   2.214  1.00 20.00    -0.159 F 
HETATM    5  F6  UNL     1     -31.085   8.488   3.398  1.00 20.00    -0.159 F 
HETATM    6  F7  UNL     1     -31.553   7.659   1.429  1.00 20.00    -0.159 F 
ENDBRANCH   1   3
BRANCH   2   7
HETATM    7  C4  UNL     1     -34.722   5.556   4.287  1.00 20.00     0.459 C 
HETATM    8  F8  UNL     1     -35.976   5.753   3.825  1.00 20.00    -0.159 F 
HETATM    9  F9  UNL     1     -34.740   5.711   5.629  1.00 20.00    -0.159 F 
HETATM   10  F10 UNL     1     -34.373   4.278   4.018  1.00 20.00    -0.159 F 
ENDBRANCH   2   7
TORSDOF 2
ENDMDL
MODEL 5
REMARK VINA RESULT:      -6.0      0.002      1.198
REMARK  2 active torsions:
REMARK  status: ('A' for Active; 'I' for Inactive)
REMARK    1  A    between atoms: C1_1  and  C3_3 
REMARK    2  A    between atoms: C2_2  and  C4_4 
ROOT
HETATM    1  C1  UNL     1     -33.795   6.494   3.667  1.00 20.00     0.017 C 
HETATM    2  C2  UNL     1     -33.025   7.264   3.161  1.00 20.00     0.017 C 
ENDROOT
BRANCH   1   3
HETATM    3  C3  UNL     1     -34.724   5.564   4.280  1.00 20.00     0.459 C 
HETATM    4  F5  UNL     1     -34.742   5.716   5.623  1.00 20.00    -0.159 F 
HETATM    5  F6  UNL     1     -35.979   5.764   3.820  1.00 20.00    -0.159 F 
HETATM    6  F7  UNL     1     -34.378   4.286   4.008  1.00 20.00    -0.159 F 
ENDBRANCH   1   3
BRANCH   2   7
HETATM    7  C4  UNL     1     -32.096   8.196   2.548  1.00 20.00     0.459 C 
HETATM    8  F8  UNL     1     -32.720   9.345   2.209  1.00 20.00    -0.159 F 
HETATM    9  F9  UNL     1     -31.553   7.668   1.428  1.00 20.00    -0.159 F 
HETATM   10  F10 UNL     1     -31.089   8.501   3.397  1.00 20.00    -0.159 F 
ENDBRANCH   2   7
TORSDOF 2
ENDMDL
MODEL 6
REMARK VINA RESULT:      -6.0      0.004      1.694
REMARK  2 active torsions:
REMARK  status: ('A' for Active; 'I' for Inactive)
REMARK    1  A    between atoms: C1_1  and  C3_3 
REMARK    2  A    between atoms: C2_2  and  C4_4 
ROOT
HETATM    1  C1  UNL     1     -33.794   6.494   3.667  1.00 20.00     0.017 C 
HETATM    2  C2  UNL     1     -33.026   7.265   3.161  1.00 20.00     0.017 C 
ENDROOT
BRANCH   1   3
HETATM    3  C3  UNL     1     -34.724   5.564   4.280  1.00 20.00     0.459 C 
HETATM    4  F5  UNL     1     -35.979   5.763   3.820  1.00 20.00    -0.159 F 
HETATM    5  F6  UNL     1     -34.376   4.286   4.009  1.00 20.00    -0.159 F 
HETATM    6  F7  UNL     1     -34.742   5.715   5.624  1.00 20.00    -0.159 F 
ENDBRANCH   1   3
BRANCH   2   7
HETATM    7  C4  UNL     1     -32.098   8.198   2.547  1.00 20.00     0.459 C 
HETATM    8  F8  UNL     1     -31.554   7.670   1.429  1.00 20.00    -0.159 F 
HETATM    9  F9  UNL     1     -31.093   8.506   3.397  1.00 20.00    -0.159 F 
HETATM   10  F10 UNL     1     -32.724   9.346   2.207  1.00 20.00    -0.159 F 
ENDBRANCH   2   7
TORSDOF 2
ENDMDL
MODEL 7
REMARK VINA RESULT:      -6.0      0.013      4.579
REMARK  2 active torsions:
REMARK  status: ('A' for Active; 'I' for Inactive)
REMARK    1  A    between atoms: C1_1  and  C3_3 
REMARK    2  A    between atoms: C2_2  and  C4_4 
ROOT
HETATM    1  C1  UNL     1     -33.025   7.254   3.163  1.00 20.00     0.017 C 
HETATM    2  C2  UNL     1     -33.794   6.485   3.672  1.00 20.00     0.017 C 
ENDROOT
BRANCH   1   3
HETATM    3  C3  UNL     1     -32.097   8.186   2.550  1.00 20.00     0.459 C 
HETATM    4  F5  UNL     1     -32.722   9.334   2.207  1.00 20.00    -0.159 F 
HETATM    5  F6  UNL     1     -31.092   8.494   3.399  1.00 20.00    -0.159 F 
HETATM    6  F7  UNL     1     -31.552   7.656   1.431  1.00 20.00    -0.159 F 
ENDBRANCH   1   3
BRANCH   2   7
HETATM    7  C4  UNL     1     -34.722   5.554   4.288  1.00 20.00     0.459 C 
HETATM    8  F8  UNL     1     -34.740   5.709   5.630  1.00 20.00    -0.159 F 
HETATM    9  F9  UNL     1     -34.373   4.277   4.018  1.00 20.00    -0.159 F 
HETATM   10  F10 UNL     1     -35.978   5.751   3.826  1.00 20.00    -0.159 F 
ENDBRANCH   2   7
TORSDOF 2
ENDMDL
MODEL 8
REMARK VINA RESULT:      -6.0      0.002      1.694
REMARK  2 active torsions:
REMARK  status: ('A' for Active; 'I' for Inactive)
REMARK    1  A    between atoms: C1_1  and  C3_3 
REMARK    2  A    between atoms: C2_2  and  C4_4 
ROOT
HETATM    1  C1  UNL     1     -33.794   6.495   3.669  1.00 20.00     0.017 C 
HETATM    2  C2  UNL     1     -33.025   7.265   3.162  1.00 20.00     0.017 C 
ENDROOT
BRANCH   1   3
HETATM    3  C3  UNL     1     -34.724   5.565   4.280  1.00 20.00     0.459 C 
HETATM    4  F5  UNL     1     -35.979   5.766   3.821  1.00 20.00    -0.159 F 
HETATM    5  F6  UNL     1     -34.379   4.287   4.008  1.00 20.00    -0.159 F 
HETATM    6  F7  UNL     1     -34.742   5.715   5.624  1.00 20.00    -0.159 F 
ENDBRANCH   1   3
BRANCH   2   7
HETATM    7  C4  UNL     1     -32.096   8.196   2.548  1.00 20.00     0.459 C 
HETATM    8  F8  UNL     1     -32.719   9.346   2.209  1.00 20.00    -0.159 F 
HETATM    9  F9  UNL     1     -31.554   7.667   1.428  1.00 20.00    -0.159 F 
HETATM   10  F10 UNL     1     -31.088   8.500   3.397  1.00 20.00    -0.159 F 
ENDBRANCH   2   7
TORSDOF 2
ENDMDL
MODEL 9
REMARK VINA RESULT:      -5.9      0.010      4.579
REMARK  2 active torsions:
REMARK  status: ('A' for Active; 'I' for Inactive)
REMARK    1  A    between atoms: C1_1  and  C3_3 
REMARK    2  A    between atoms: C2_2  and  C4_4 
ROOT
HETATM    1  C1  UNL     1     -33.026   7.256   3.160  1.00 20.00     0.017 C 
HETATM    2  C2  UNL     1     -33.797   6.487   3.667  1.00 20.00     0.017 C 
ENDROOT
BRANCH   1   3
HETATM    3  C3  UNL     1     -32.096   8.185   2.547  1.00 20.00     0.459 C 
HETATM    4  F5  UNL     1     -31.556   7.657   1.426  1.00 20.00    -0.159 F 
HETATM    5  F6  UNL     1     -32.716   9.338   2.210  1.00 20.00    -0.159 F 
HETATM    6  F7  UNL     1     -31.086   8.487   3.395  1.00 20.00    -0.159 F 
ENDBRANCH   1   3
BRANCH   2   7
HETATM    7  C4  UNL     1     -34.730   5.559   4.279  1.00 20.00     0.459 C 
HETATM    8  F8  UNL     1     -34.750   5.713   5.622  1.00 20.00    -0.159 F 
HETATM    9  F9  UNL     1     -34.384   4.281   4.009  1.00 20.00    -0.159 F 
HETATM   10  F10 UNL     1     -35.983   5.761   3.816  1.00 20.00    -0.159 F 
ENDBRANCH   2   7
TORSDOF 2
ENDMDL
