MODEL 1
REMARK VINA RESULT:      -5.9      0.000      0.000
REMARK  3 active torsions:
REMARK  status: ('A' for Active; 'I' for Inactive)
REMARK    1  A    between atoms: C1_1  and  C10_10 
REMARK    2  A    between atoms: C2_2  and  C8_8 
REMARK    3  A    between atoms: C9_9  and  C10_10 
ROOT
HETATM    1  C1  UNL     1     -33.416   7.339   2.326  1.00 20.00    -0.016 C 
HETATM    2  C2  UNL     1     -32.355   8.169   2.232  1.00 20.00    -0.087 C 
HETATM    3  C3  UNL     1     -31.382   8.253   3.386  1.00 20.00     0.043 C 
ENDROOT
BRANCH   1   4
HETATM    4  C10 UNL     1     -33.870   6.397   3.440  1.00 20.00    -0.030 C 
HETATM    5  C6  UNL     1     -35.387   6.136   3.324  1.00 20.00     0.019 C 
HETATM    6  C7  UNL     1     -33.172   5.030   3.221  1.00 20.00     0.019 C 
BRANCH   4   7
HETATM    7  C9  UNL     1     -33.538   6.900   4.872  1.00 20.00     0.008 C 
HETATM    8  C5  UNL     1     -34.355   6.266   5.994  1.00 20.00     0.006 C 
ENDBRANCH   4   7
ENDBRANCH   1   4
BRANCH   2   9
HETATM    9  C8  UNL     1     -31.985   9.025   1.044  1.00 20.00     0.029 C 
HETATM   10  C4  UNL     1     -32.706  10.367   1.027  1.00 20.00     0.010 C 
ENDBRANCH   2   9
TORSDOF 3
ENDMDL
MODEL 2
REMARK VINA RESULT:      -5.7      0.622      1.646
REMARK  3 active torsions:
REMARK  status: ('A' for Active; 'I' for Inactive)
REMARK    1  A    between atoms: C1_1  and  C10_10 
REMARK    2  A    between atoms: C2_2  and  C8_8 
REMARK    3  A    between atoms: C9_9  and  C10_10 
ROOT
HETATM    1  C1  UNL     1     -33.523   7.339   2.484  1.00 20.00    -0.016 C 
HETATM    2  C2  UNL     1     -32.424   8.110   2.344  1.00 20.00    -0.087 C 
HETATM    3  C3  UNL     1     -31.408   8.154   3.463  1.00 20.00     0.043 C 
ENDROOT
BRANCH   1   4
HETATM    4  C10 UNL     1     -33.987   6.432   3.623  1.00 20.00    -0.030 C 
HETATM    5  C6  UNL     1     -33.725   7.117   4.982  1.00 20.00     0.019 C 
HETATM    6  C7  UNL     1     -35.524   6.266   3.504  1.00 20.00     0.019 C 
BRANCH   4   7
HETATM    7  C9  UNL     1     -33.333   5.022   3.619  1.00 20.00     0.008 C 
HETATM    8  C5  UNL     1     -34.117   3.936   4.350  1.00 20.00     0.006 C 
ENDBRANCH   4   7
ENDBRANCH   1   4
BRANCH   2   9
HETATM    9  C8  UNL     1     -32.051   8.934   1.134  1.00 20.00     0.029 C 
HETATM   10  C4  UNL     1     -32.737  10.293   1.103  1.00 20.00     0.010 C 
ENDBRANCH   2   9
TORSDOF 3
ENDMDL
MODEL 3
REMARK VINA RESULT:      -5.3      0.945      4.501
REMARK  3 active torsions:
REMARK  status: ('A' for Active; 'I' for Inactive)
REMARK    1  A    between atoms: C1_1  and  C10_10 
REMARK    2  A    between atoms: C2_2  and  C8_8 
REMARK    3  A    between atoms: C9_9  and  C10_10 
ROOT
HETATM    1  C1  UNL     1     -33.174   7.084   2.648  1.00 20.00    -0.016 C 
HETATM    2  C2  UNL     1     -33.771   6.658   3.782  1.00 20.00    -0.087 C 
HETATM    3  C3  UNL     1     -33.580   7.449   5.056  1.00 20.00     0.043 C 
ENDROOT
BRANCH   1   4
HETATM    4  C10 UNL     1     -32.281   8.290   2.365  1.00 20.00    -0.030 C 
HETATM    5  C6  UNL     1     -31.214   8.429   3.473  1.00 20.00     0.019 C 
HETATM    6  C7  UNL     1     -31.511   8.015   1.048  1.00 20.00     0.019 C 
BRANCH   4   7
HETATM    7  C9  UNL     1     -33.052   9.632   2.218  1.00 20.00     0.008 C 
HETATM    8  C5  UNL     1     -32.706  10.453   0.979  1.00 20.00     0.006 C 
ENDBRANCH   4   7
ENDBRANCH   1   4
BRANCH   2   9
HETATM    9  C8  UNL     1     -34.680   5.460   3.925  1.00 20.00     0.029 C 
HETATM   10  C4  UNL     1     -34.649   4.849   5.320  1.00 20.00     0.010 C 
ENDBRANCH   2   9
TORSDOF 3
ENDMDL
MODEL 4
REMARK VINA RESULT:      -5.0      0.953      1.707
REMARK  3 active torsions:
REMARK  status: ('A' for Active; 'I' for Inactive)
REMARK    1  A    between atoms: C1_1  and  C10_10 
REMARK    2  A    between atoms: C2_2  and  C8_8 
REMARK    3  A    between atoms: C9_9  and  C10_10 
ROOT
HETATM    1  C1  UNL     1     -33.571   7.856   2.416  1.00 20.00    -0.016 C 
HETATM    2  C2  UNL     1     -32.579   8.710   2.086  1.00 20.00    -0.087 C 
HETATM    3  C3  UNL     1     -31.236   8.576   2.766  1.00 20.00     0.043 C 
ENDROOT
BRANCH   1   4
HETATM    4  C10 UNL     1     -33.620   6.695   3.408  1.00 20.00    -0.030 C 
HETATM    5  C6  UNL     1     -32.646   5.581   2.967  1.00 20.00     0.019 C 
HETATM    6  C7  UNL     1     -33.105   7.213   4.775  1.00 20.00     0.019 C 
BRANCH   4   7
HETATM    7  C9  UNL     1     -35.039   6.091   3.610  1.00 20.00     0.008 C 
HETATM    8  C5  UNL     1     -35.137   4.988   4.659  1.00 20.00     0.006 C 
ENDBRANCH   4   7
ENDBRANCH   1   4
BRANCH   2   9
HETATM    9  C8  UNL     1     -32.641   9.800   1.042  1.00 20.00     0.029 C 
HETATM   10  C4  UNL     1     -33.074   9.292  -0.327  1.00 20.00     0.010 C 
ENDBRANCH   2   9
TORSDOF 3
ENDMDL
MODEL 5
REMARK VINA RESULT:      -4.8      1.033      4.552
REMARK  3 active torsions:
REMARK  status: ('A' for Active; 'I' for Inactive)
REMARK    1  A    between atoms: C1_1  and  C10_10 
REMARK    2  A    between atoms: C2_2  and  C8_8 
REMARK    3  A    between atoms: C9_9  and  C10_10 
ROOT
HETATM    1  C1  UNL     1     -33.092   6.985   2.657  1.00 20.00    -0.016 C 
HETATM    2  C2  UNL     1     -33.673   6.518   3.783  1.00 20.00    -0.087 C 
HETATM    3  C3  UNL     1     -33.629   7.360   5.037  1.00 20.00     0.043 C 
ENDROOT
BRANCH   1   4
HETATM    4  C10 UNL     1     -32.343   8.285   2.367  1.00 20.00    -0.030 C 
HETATM    5  C6  UNL     1     -33.294   9.490   2.533  1.00 20.00     0.019 C 
HETATM    6  C7  UNL     1     -31.237   8.448   3.441  1.00 20.00     0.019 C 
BRANCH   4   7
HETATM    7  C9  UNL     1     -31.681   8.337   0.961  1.00 20.00     0.008 C 
HETATM    8  C5  UNL     1     -32.344   9.279  -0.039  1.00 20.00     0.006 C 
ENDBRANCH   4   7
ENDBRANCH   1   4
BRANCH   2   9
HETATM    9  C8  UNL     1     -34.433   5.221   3.931  1.00 20.00     0.029 C 
HETATM   10  C4  UNL     1     -34.659   4.825   5.385  1.00 20.00     0.010 C 
ENDBRANCH   2   9
TORSDOF 3
ENDMDL
MODEL 6
REMARK VINA RESULT:      -4.4      1.141      4.446
REMARK  3 active torsions:
REMARK  status: ('A' for Active; 'I' for Inactive)
REMARK    1  A    between atoms: C1_1  and  C10_10 
REMARK    2  A    between atoms: C2_2  and  C8_8 
REMARK    3  A    between atoms: C9_9  and  C10_10 
ROOT
HETATM    1  C1  UNL     1     -33.077   8.149   1.671  1.00 20.00    -0.016 C 
HETATM    2  C2  UNL     1     -32.768   7.723   2.914  1.00 20.00    -0.087 C 
HETATM    3  C3  UNL     1     -31.476   8.180   3.549  1.00 20.00     0.043 C 
ENDROOT
BRANCH   1   4
HETATM    4  C10 UNL     1     -32.335   9.069   0.701  1.00 20.00    -0.030 C 
HETATM    5  C6  UNL     1     -31.009   8.413   0.262  1.00 20.00     0.019 C 
HETATM    6  C7  UNL     1     -33.200   9.210  -0.578  1.00 20.00     0.019 C 
BRANCH   4   7
HETATM    7  C9  UNL     1     -32.049  10.488   1.266  1.00 20.00     0.008 C 
HETATM    8  C5  UNL     1     -33.231  11.171   1.949  1.00 20.00     0.006 C 
ENDBRANCH   4   7
ENDBRANCH   1   4
BRANCH   2   9
HETATM    9  C8  UNL     1     -33.618   6.841   3.799  1.00 20.00     0.029 C 
HETATM   10  C4  UNL     1     -33.632   7.293   5.254  1.00 20.00     0.010 C 
ENDBRANCH   2   9
TORSDOF 3
ENDMDL
MODEL 7
REMARK VINA RESULT:      -4.3     10.369     11.478
REMARK  3 active torsions:
REMARK  status: ('A' for Active; 'I' for Inactive)
REMARK    1  A    between atoms: C1_1  and  C10_10 
REMARK    2  A    between atoms: C2_2  and  C8_8 
REMARK    3  A    between atoms: C9_9  and  C10_10 
ROOT
HETATM    1  C1  UNL     1     -33.515  16.567  -3.475  1.00 20.00    -0.016 C 
HETATM    2  C2  UNL     1     -33.979  16.999  -2.283  1.00 20.00    -0.087 C 
HETATM    3  C3  UNL     1     -35.393  16.655  -1.875  1.00 20.00     0.043 C 
ENDROOT
BRANCH   1   4
HETATM    4  C10 UNL     1     -34.172  15.739  -4.578  1.00 20.00    -0.030 C 
HETATM    5  C6  UNL     1     -35.422  16.471  -5.113  1.00 20.00     0.019 C 
HETATM    6  C7  UNL     1     -33.176  15.648  -5.763  1.00 20.00     0.019 C 
BRANCH   4   7
HETATM    7  C9  UNL     1     -34.561  14.298  -4.145  1.00 20.00     0.008 C 
HETATM    8  C5  UNL     1     -35.694  13.658  -4.943  1.00 20.00     0.006 C 
ENDBRANCH   4   7
ENDBRANCH   1   4
BRANCH   2   9
HETATM    9  C8  UNL     1     -33.206  17.779  -1.246  1.00 20.00     0.029 C 
HETATM   10  C4  UNL     1     -34.046  18.155  -0.032  1.00 20.00     0.010 C 
ENDBRANCH   2   9
TORSDOF 3
ENDMDL
MODEL 8
REMARK VINA RESULT:      -4.2     10.489     11.562
REMARK  3 active torsions:
REMARK  status: ('A' for Active; 'I' for Inactive)
REMARK    1  A    between atoms: C1_1  and  C10_10 
REMARK    2  A    between atoms: C2_2  and  C8_8 
REMARK    3  A    between atoms: C9_9  and  C10_10 
ROOT
HETATM    1  C1  UNL     1     -35.149  15.675  -3.109  1.00 20.00    -0.016 C 
HETATM    2  C2  UNL     1     -34.672  16.605  -2.254  1.00 20.00    -0.087 C 
HETATM    3  C3  UNL     1     -33.371  17.302  -2.578  1.00 20.00     0.043 C 
ENDROOT
BRANCH   1   4
HETATM    4  C10 UNL     1     -34.607  15.143  -4.435  1.00 20.00    -0.030 C 
HETATM    5  C6  UNL     1     -33.162  14.631  -4.246  1.00 20.00     0.019 C 
HETATM    6  C7  UNL     1     -35.459  13.913  -4.840  1.00 20.00     0.019 C 
BRANCH   4   7
HETATM    7  C9  UNL     1     -34.643  16.176  -5.596  1.00 20.00     0.008 C 
HETATM    8  C5  UNL     1     -33.528  16.039  -6.628  1.00 20.00     0.006 C 
ENDBRANCH   4   7
ENDBRANCH   1   4
BRANCH   2   9
HETATM    9  C8  UNL     1     -35.334  17.082  -0.983  1.00 20.00     0.029 C 
HETATM   10  C4  UNL     1     -34.417  17.936  -0.117  1.00 20.00     0.010 C 
ENDBRANCH   2   9
TORSDOF 3
ENDMDL
MODEL 9
REMARK VINA RESULT:      -4.2     10.390     11.491
REMARK  3 active torsions:
REMARK  status: ('A' for Active; 'I' for Inactive)
REMARK    1  A    between atoms: C1_1  and  C10_10 
REMARK    2  A    between atoms: C2_2  and  C8_8 
REMARK    3  A    between atoms: C9_9  and  C10_10 
ROOT
HETATM    1  C1  UNL     1     -34.781  16.056  -2.623  1.00 20.00    -0.016 C 
HETATM    2  C2  UNL     1     -34.308  15.542  -3.778  1.00 20.00    -0.087 C 
HETATM    3  C3  UNL     1     -33.392  16.383  -4.638  1.00 20.00     0.043 C 
ENDROOT
BRANCH   1   4
HETATM    4  C10 UNL     1     -34.566  17.413  -1.955  1.00 20.00    -0.030 C 
HETATM    5  C6  UNL     1     -35.220  18.527  -2.800  1.00 20.00     0.019 C 
HETATM    6  C7  UNL     1     -35.312  17.399  -0.596  1.00 20.00     0.019 C 
BRANCH   4   7
HETATM    7  C9  UNL     1     -33.074  17.766  -1.698  1.00 20.00     0.008 C 
HETATM    8  C5  UNL     1     -32.792  18.501  -0.391  1.00 20.00     0.006 C 
ENDBRANCH   4   7
ENDBRANCH   1   4
BRANCH   2   9
HETATM    9  C8  UNL     1     -34.558  14.152  -4.313  1.00 20.00     0.029 C 
HETATM   10  C4  UNL     1     -35.938  13.993  -4.939  1.00 20.00     0.010 C 
ENDBRANCH   2   9
TORSDOF 3
ENDMDL
