MODEL 1
REMARK VINA RESULT:      -5.9      0.000      0.000
REMARK  0 active torsions:
REMARK  status: ('A' for Active; 'I' for Inactive)
ROOT
HETATM    1  C1  UNL     1     -34.489   4.977   5.457  1.00 20.00     0.000 C 
HETATM    2  C2  UNL     1     -34.514   6.351   6.128  1.00 20.00     0.000 C 
HETATM    3  C3  UNL     1     -34.916   4.977   3.990  1.00 20.00     0.000 C 
HETATM    4  C4  UNL     1     -33.472   7.364   5.652  1.00 20.00     0.001 C 
HETATM    5  C5  UNL     1     -33.773   4.903   2.980  1.00 20.00     0.001 C 
HETATM    6  C6  UNL     1     -33.703   7.894   4.232  1.00 20.00     0.012 C 
HETATM    7  C7  UNL     1     -32.552   5.793   3.214  1.00 20.00     0.012 C 
HETATM    8  C8  UNL     1     -33.238   7.765   1.752  1.00 20.00     0.038 C 
HETATM    9  C9  UNL     1     -32.728   9.188   1.644  1.00 20.00     0.168 C 
HETATM   10  C10 UNL     1     -31.409   8.042   3.185  1.00 20.00     0.177 C 
HETATM   11  C11 UNL     1     -32.764   7.317   3.136  1.00 20.00    -0.017 C 
HETATM   12  O12 UNL     1     -31.570   9.284   2.482  1.00 20.00    -0.390 OA
ENDROOT
TORSDOF 0
ENDMDL
MODEL 2
REMARK VINA RESULT:      -5.5      0.791      2.470
REMARK  0 active torsions:
REMARK  status: ('A' for Active; 'I' for Inactive)
ROOT
HETATM    1  C1  UNL     1     -34.739   4.743   5.188  1.00 20.00     0.000 C 
HETATM    2  C2  UNL     1     -34.123   4.097   3.947  1.00 20.00     0.000 C 
HETATM    3  C3  UNL     1     -33.791   5.651   5.970  1.00 20.00     0.000 C 
HETATM    4  C4  UNL     1     -33.789   5.031   2.782  1.00 20.00     0.001 C 
HETATM    5  C5  UNL     1     -33.989   7.148   5.742  1.00 20.00     0.001 C 
HETATM    6  C6  UNL     1     -32.616   5.981   3.046  1.00 20.00     0.012 C 
HETATM    7  C7  UNL     1     -34.182   7.635   4.306  1.00 20.00     0.012 C 
HETATM    8  C8  UNL     1     -31.761   8.240   3.785  1.00 20.00     0.038 C 
HETATM    9  C9  UNL     1     -31.032   8.532   2.488  1.00 20.00     0.168 C 
HETATM   10  C10 UNL     1     -33.287   8.186   2.012  1.00 20.00     0.177 C 
HETATM   11  C11 UNL     1     -32.997   7.459   3.336  1.00 20.00    -0.017 C 
HETATM   12  O12 UNL     1     -32.019   8.557   1.449  1.00 20.00    -0.390 OA
ENDROOT
TORSDOF 0
ENDMDL
MODEL 3
REMARK VINA RESULT:      -4.4     11.440     12.896
REMARK  0 active torsions:
REMARK  status: ('A' for Active; 'I' for Inactive)
ROOT
HETATM    1  C1  UNL     1     -33.674  18.368  -3.455  1.00 20.00     0.000 C 
HETATM    2  C2  UNL     1     -33.736  17.290  -2.373  1.00 20.00     0.000 C 
HETATM    3  C3  UNL     1     -33.337  17.849  -4.852  1.00 20.00     0.000 C 
HETATM    4  C4  UNL     1     -34.893  16.294  -2.463  1.00 20.00     0.001 C 
HETATM    5  C5  UNL     1     -34.527  17.715  -5.800  1.00 20.00     0.001 C 
HETATM    6  C6  UNL     1     -34.796  15.313  -3.637  1.00 20.00     0.012 C 
HETATM    7  C7  UNL     1     -35.809  17.083  -5.256  1.00 20.00     0.012 C 
HETATM    8  C8  UNL     1     -35.395  14.683  -6.010  1.00 20.00     0.038 C 
HETATM    9  C9  UNL     1     -36.039  13.364  -5.633  1.00 20.00     0.168 C 
HETATM   10  C10 UNL     1     -37.153  15.079  -4.517  1.00 20.00     0.177 C 
HETATM   11  C11 UNL     1     -35.742  15.601  -4.837  1.00 20.00    -0.017 C 
HETATM   12  O12 UNL     1     -37.149  13.667  -4.779  1.00 20.00    -0.390 OA
ENDROOT
TORSDOF 0
ENDMDL
MODEL 4
REMARK VINA RESULT:      -4.4     11.529     12.617
REMARK  0 active torsions:
REMARK  status: ('A' for Active; 'I' for Inactive)
ROOT
HETATM    1  C1  UNL     1     -35.530  13.873  -6.710  1.00 20.00     0.000 C 
HETATM    2  C2  UNL     1     -34.047  14.174  -6.932  1.00 20.00     0.000 C 
HETATM    3  C3  UNL     1     -35.917  13.623  -5.253  1.00 20.00     0.000 C 
HETATM    4  C4  UNL     1     -33.531  15.509  -6.392  1.00 20.00     0.001 C 
HETATM    5  C5  UNL     1     -36.595  14.797  -4.550  1.00 20.00     0.001 C 
HETATM    6  C6  UNL     1     -33.467  15.593  -4.863  1.00 20.00     0.012 C 
HETATM    7  C7  UNL     1     -35.997  16.191  -4.746  1.00 20.00     0.012 C 
HETATM    8  C8  UNL     1     -34.523  16.263  -2.668  1.00 20.00     0.038 C 
HETATM    9  C9  UNL     1     -33.383  17.171  -2.250  1.00 20.00     0.168 C 
HETATM   10  C10 UNL     1     -34.229  17.930  -4.283  1.00 20.00     0.177 C 
HETATM   11  C11 UNL     1     -34.583  16.437  -4.186  1.00 20.00    -0.017 C 
HETATM   12  O12 UNL     1     -33.292  18.211  -3.231  1.00 20.00    -0.390 OA
ENDROOT
TORSDOF 0
ENDMDL
MODEL 5
REMARK VINA RESULT:      -4.4     11.738     12.559
REMARK  0 active torsions:
REMARK  status: ('A' for Active; 'I' for Inactive)
ROOT
HETATM    1  C1  UNL     1     -35.582  14.758  -5.851  1.00 20.00     0.000 C 
HETATM    2  C2  UNL     1     -34.064  14.580  -5.830  1.00 20.00     0.000 C 
HETATM    3  C3  UNL     1     -36.239  14.781  -4.471  1.00 20.00     0.000 C 
HETATM    4  C4  UNL     1     -33.245  15.748  -5.276  1.00 20.00     0.001 C 
HETATM    5  C5  UNL     1     -36.616  16.168  -3.954  1.00 20.00     0.001 C 
HETATM    6  C6  UNL     1     -33.385  15.962  -3.765  1.00 20.00     0.012 C 
HETATM    7  C7  UNL     1     -35.594  17.294  -4.113  1.00 20.00     0.012 C 
HETATM    8  C8  UNL     1     -34.495  17.131  -1.820  1.00 20.00     0.038 C 
HETATM    9  C9  UNL     1     -33.205  17.696  -1.257  1.00 20.00     0.168 C 
HETATM   10  C10 UNL     1     -33.463  18.466  -3.441  1.00 20.00     0.177 C 
HETATM   11  C11 UNL     1     -34.272  17.163  -3.332  1.00 20.00    -0.017 C 
HETATM   12  O12 UNL     1     -32.653  18.558  -2.259  1.00 20.00    -0.390 OA
ENDROOT
TORSDOF 0
ENDMDL
MODEL 6
REMARK VINA RESULT:      -4.4     11.412     13.029
REMARK  0 active torsions:
REMARK  status: ('A' for Active; 'I' for Inactive)
ROOT
HETATM    1  C1  UNL     1     -34.581  18.077  -3.752  1.00 20.00     0.000 C 
HETATM    2  C2  UNL     1     -33.668  16.986  -3.192  1.00 20.00     0.000 C 
HETATM    3  C3  UNL     1     -34.611  18.159  -5.278  1.00 20.00     0.000 C 
HETATM    4  C4  UNL     1     -34.106  15.539  -3.427  1.00 20.00     0.001 C 
HETATM    5  C5  UNL     1     -35.839  17.534  -5.938  1.00 20.00     0.001 C 
HETATM    6  C6  UNL     1     -34.005  15.075  -4.884  1.00 20.00     0.012 C 
HETATM    7  C7  UNL     1     -36.303  16.166  -5.436  1.00 20.00     0.012 C 
HETATM    8  C8  UNL     1     -35.088  14.708  -7.137  1.00 20.00     0.038 C 
HETATM    9  C9  UNL     1     -34.784  13.224  -7.185  1.00 20.00     0.168 C 
HETATM   10  C10 UNL     1     -36.059  13.659  -5.285  1.00 20.00     0.177 C 
HETATM   11  C11 UNL     1     -35.352  14.974  -5.655  1.00 20.00    -0.017 C 
HETATM   12  O12 UNL     1     -35.459  12.621  -6.074  1.00 20.00    -0.390 OA
ENDROOT
TORSDOF 0
ENDMDL
MODEL 7
REMARK VINA RESULT:      -4.3     11.538     12.503
REMARK  0 active torsions:
REMARK  status: ('A' for Active; 'I' for Inactive)
ROOT
HETATM    1  C1  UNL     1     -33.839  18.535   1.217  1.00 20.00     0.000 C 
HETATM    2  C2  UNL     1     -32.527  18.903   0.524  1.00 20.00     0.000 C 
HETATM    3  C3  UNL     1     -35.098  18.991   0.479  1.00 20.00     0.000 C 
HETATM    4  C4  UNL     1     -32.220  18.180  -0.789  1.00 20.00     0.001 C 
HETATM    5  C5  UNL     1     -35.822  17.899  -0.306  1.00 20.00     0.001 C 
HETATM    6  C6  UNL     1     -33.119  18.585  -1.962  1.00 20.00     0.012 C 
HETATM    7  C7  UNL     1     -34.979  16.950  -1.158  1.00 20.00     0.012 C 
HETATM    8  C8  UNL     1     -35.167  18.176  -3.385  1.00 20.00     0.038 C 
HETATM    9  C9  UNL     1     -34.398  18.064  -4.686  1.00 20.00     0.168 C 
HETATM   10  C10 UNL     1     -33.604  16.444  -3.212  1.00 20.00     0.177 C 
HETATM   11  C11 UNL     1     -34.221  17.560  -2.353  1.00 20.00    -0.017 C 
HETATM   12  O12 UNL     1     -33.509  16.948  -4.554  1.00 20.00    -0.390 OA
ENDROOT
TORSDOF 0
ENDMDL
MODEL 8
REMARK VINA RESULT:      -4.3     11.601     12.895
REMARK  0 active torsions:
REMARK  status: ('A' for Active; 'I' for Inactive)
ROOT
HETATM    1  C1  UNL     1     -34.182  18.680  -1.120  1.00 20.00     0.000 C 
HETATM    2  C2  UNL     1     -34.822  17.326  -0.809  1.00 20.00     0.000 C 
HETATM    3  C3  UNL     1     -32.939  18.606  -2.006  1.00 20.00     0.000 C 
HETATM    4  C4  UNL     1     -35.494  16.602  -1.977  1.00 20.00     0.001 C 
HETATM    5  C5  UNL     1     -33.164  18.973  -3.472  1.00 20.00     0.001 C 
HETATM    6  C6  UNL     1     -34.523  16.061  -3.032  1.00 20.00     0.012 C 
HETATM    7  C7  UNL     1     -34.394  18.397  -4.174  1.00 20.00     0.012 C 
HETATM    8  C8  UNL     1     -33.303  16.348  -5.225  1.00 20.00     0.038 C 
HETATM    9  C9  UNL     1     -33.871  15.091  -5.853  1.00 20.00     0.168 C 
HETATM   10  C10 UNL     1     -35.638  16.488  -5.258  1.00 20.00     0.177 C 
HETATM   11  C11 UNL     1     -34.450  16.868  -4.358  1.00 20.00    -0.017 C 
HETATM   12  O12 UNL     1     -35.293  15.258  -5.914  1.00 20.00    -0.390 OA
ENDROOT
TORSDOF 0
ENDMDL
MODEL 9
REMARK VINA RESULT:      -4.3     11.270     12.502
REMARK  0 active torsions:
REMARK  status: ('A' for Active; 'I' for Inactive)
ROOT
HETATM    1  C1  UNL     1     -35.482  18.303  -1.783  1.00 20.00     0.000 C 
HETATM    2  C2  UNL     1     -36.921  18.067  -2.244  1.00 20.00     0.000 C 
HETATM    3  C3  UNL     1     -34.690  17.028  -1.494  1.00 20.00     0.000 C 
HETATM    4  C4  UNL     1     -37.102  17.441  -3.629  1.00 20.00     0.001 C 
HETATM    5  C5  UNL     1     -33.708  16.611  -2.587  1.00 20.00     0.001 C 
HETATM    6  C6  UNL     1     -36.679  15.971  -3.721  1.00 20.00     0.012 C 
HETATM    7  C7  UNL     1     -34.189  16.662  -4.038  1.00 20.00     0.012 C 
HETATM    8  C8  UNL     1     -34.929  14.234  -4.274  1.00 20.00     0.038 C 
HETATM    9  C9  UNL     1     -35.782  13.517  -5.302  1.00 20.00     0.168 C 
HETATM   10  C10 UNL     1     -35.535  15.738  -5.962  1.00 20.00     0.177 C 
HETATM   11  C11 UNL     1     -35.326  15.702  -4.438  1.00 20.00    -0.017 C 
HETATM   12  O12 UNL     1     -36.064  14.458  -6.344  1.00 20.00    -0.390 OA
ENDROOT
TORSDOF 0
ENDMDL
