MODEL 1
REMARK VINA RESULT:      -6.2      0.000      0.000
REMARK  0 active torsions:
REMARK  status: ('A' for Active; 'I' for Inactive)
ROOT
HETATM    1  C1  UNL     1     -34.666   5.778   5.640  1.00 20.00    -0.030 C 
HETATM    2  C2  UNL     1     -35.064   5.344   4.430  1.00 20.00    -0.030 C 
HETATM    3  C3  UNL     1     -31.657   8.299   3.106  1.00 20.00    -0.030 C 
HETATM    4  C4  UNL     1     -32.115   8.405   4.363  1.00 20.00    -0.025 C 
HETATM    5  C5  UNL     1     -33.604   6.837   5.842  1.00 20.00     0.035 C 
HETATM    6  C6  UNL     1     -34.452   5.819   3.130  1.00 20.00     0.032 C 
HETATM    7  C7  UNL     1     -32.477   7.333   2.292  1.00 20.00     0.032 C 
HETATM    8  C8  UNL     1     -33.347   7.576   4.532  1.00 20.00     0.016 C 
HETATM    9  C9  UNL     1     -33.143   6.544   3.414  1.00 20.00     0.000 C 
ENDROOT
TORSDOF 0
ENDMDL
MODEL 2
REMARK VINA RESULT:      -6.2      0.187      2.054
REMARK  0 active torsions:
REMARK  status: ('A' for Active; 'I' for Inactive)
ROOT
HETATM    1  C1  UNL     1     -35.037   5.419   4.428  1.00 20.00    -0.030 C 
HETATM    2  C2  UNL     1     -34.576   5.861   5.612  1.00 20.00    -0.030 C 
HETATM    3  C3  UNL     1     -31.840   8.377   2.738  1.00 20.00    -0.030 C 
HETATM    4  C4  UNL     1     -32.489   7.326   2.212  1.00 20.00    -0.025 C 
HETATM    5  C5  UNL     1     -34.460   5.843   3.094  1.00 20.00     0.035 C 
HETATM    6  C6  UNL     1     -33.467   6.880   5.750  1.00 20.00     0.032 C 
HETATM    7  C7  UNL     1     -31.992   8.436   4.234  1.00 20.00     0.032 C 
HETATM    8  C8  UNL     1     -33.101   6.505   3.301  1.00 20.00     0.016 C 
HETATM    9  C9  UNL     1     -33.227   7.561   4.408  1.00 20.00     0.000 C 
ENDROOT
TORSDOF 0
ENDMDL
MODEL 3
REMARK VINA RESULT:      -5.8      1.018      3.769
REMARK  0 active torsions:
REMARK  status: ('A' for Active; 'I' for Inactive)
ROOT
HETATM    1  C1  UNL     1     -32.595   6.741   2.130  1.00 20.00    -0.030 C 
HETATM    2  C2  UNL     1     -32.779   7.877   2.828  1.00 20.00    -0.030 C 
HETATM    3  C3  UNL     1     -34.731   4.815   5.812  1.00 20.00    -0.030 C 
HETATM    4  C4  UNL     1     -34.522   4.404   4.551  1.00 20.00    -0.025 C 
HETATM    5  C5  UNL     1     -33.103   5.389   2.581  1.00 20.00     0.035 C 
HETATM    6  C6  UNL     1     -33.463   7.927   4.177  1.00 20.00     0.032 C 
HETATM    7  C7  UNL     1     -34.445   6.284   5.975  1.00 20.00     0.032 C 
HETATM    8  C8  UNL     1     -34.136   5.564   3.691  1.00 20.00     0.016 C 
HETATM    9  C9  UNL     1     -33.569   6.519   4.750  1.00 20.00     0.000 C 
ENDROOT
TORSDOF 0
ENDMDL
MODEL 4
REMARK VINA RESULT:      -5.6      1.028      3.291
REMARK  0 active torsions:
REMARK  status: ('A' for Active; 'I' for Inactive)
ROOT
HETATM    1  C1  UNL     1     -32.864   7.967   2.849  1.00 20.00    -0.030 C 
HETATM    2  C2  UNL     1     -32.660   6.859   2.113  1.00 20.00    -0.030 C 
HETATM    3  C3  UNL     1     -34.855   4.941   5.799  1.00 20.00    -0.030 C 
HETATM    4  C4  UNL     1     -34.368   6.183   5.946  1.00 20.00    -0.025 C 
HETATM    5  C5  UNL     1     -33.490   7.954   4.226  1.00 20.00     0.035 C 
HETATM    6  C6  UNL     1     -33.091   5.476   2.549  1.00 20.00     0.032 C 
HETATM    7  C7  UNL     1     -34.433   4.327   4.491  1.00 20.00     0.032 C 
HETATM    8  C8  UNL     1     -33.497   6.533   4.783  1.00 20.00     0.016 C 
HETATM    9  C9  UNL     1     -34.064   5.586   3.716  1.00 20.00     0.000 C 
ENDROOT
TORSDOF 0
ENDMDL
MODEL 5
REMARK VINA RESULT:      -5.0      1.241      2.829
REMARK  0 active torsions:
REMARK  status: ('A' for Active; 'I' for Inactive)
ROOT
HETATM    1  C1  UNL     1     -33.616   7.647   5.728  1.00 20.00    -0.030 C 
HETATM    2  C2  UNL     1     -34.373   6.705   6.320  1.00 20.00    -0.030 C 
HETATM    3  C3  UNL     1     -33.214   4.401   2.392  1.00 20.00    -0.030 C 
HETATM    4  C4  UNL     1     -33.022   5.729   2.410  1.00 20.00    -0.025 C 
HETATM    5  C5  UNL     1     -33.007   7.488   4.351  1.00 20.00     0.035 C 
HETATM    6  C6  UNL     1     -34.653   5.351   5.706  1.00 20.00     0.032 C 
HETATM    7  C7  UNL     1     -33.948   3.926   3.617  1.00 20.00     0.032 C 
HETATM    8  C8  UNL     1     -33.668   6.324   3.619  1.00 20.00     0.016 C 
HETATM    9  C9  UNL     1     -33.693   5.103   4.550  1.00 20.00     0.000 C 
ENDROOT
TORSDOF 0
ENDMDL
MODEL 6
REMARK VINA RESULT:      -4.9      1.096      1.787
REMARK  0 active torsions:
REMARK  status: ('A' for Active; 'I' for Inactive)
ROOT
HETATM    1  C1  UNL     1     -34.443   4.068   4.460  1.00 20.00    -0.030 C 
HETATM    2  C2  UNL     1     -34.022   4.296   3.203  1.00 20.00    -0.030 C 
HETATM    3  C3  UNL     1     -32.761   8.366   5.184  1.00 20.00    -0.030 C 
HETATM    4  C4  UNL     1     -33.631   7.594   5.855  1.00 20.00    -0.025 C 
HETATM    5  C5  UNL     1     -34.363   5.095   5.569  1.00 20.00     0.035 C 
HETATM    6  C6  UNL     1     -33.362   5.584   2.763  1.00 20.00     0.032 C 
HETATM    7  C7  UNL     1     -32.490   7.832   3.803  1.00 20.00     0.032 C 
HETATM    8  C8  UNL     1     -34.107   6.480   4.980  1.00 20.00     0.016 C 
HETATM    9  C9  UNL     1     -32.940   6.387   3.987  1.00 20.00     0.000 C 
ENDROOT
TORSDOF 0
ENDMDL
MODEL 7
REMARK VINA RESULT:      -4.8      1.169      2.938
REMARK  0 active torsions:
REMARK  status: ('A' for Active; 'I' for Inactive)
ROOT
HETATM    1  C1  UNL     1     -33.060   5.311   2.129  1.00 20.00    -0.030 C 
HETATM    2  C2  UNL     1     -33.583   4.247   2.766  1.00 20.00    -0.030 C 
HETATM    3  C3  UNL     1     -34.061   7.476   6.146  1.00 20.00    -0.030 C 
HETATM    4  C4  UNL     1     -33.235   7.763   5.128  1.00 20.00    -0.025 C 
HETATM    5  C5  UNL     1     -32.880   6.667   2.775  1.00 20.00     0.035 C 
HETATM    6  C6  UNL     1     -34.109   4.297   4.184  1.00 20.00     0.032 C 
HETATM    7  C7  UNL     1     -34.552   6.055   6.083  1.00 20.00     0.032 C 
HETATM    8  C8  UNL     1     -33.011   6.546   4.290  1.00 20.00     0.016 C 
HETATM    9  C9  UNL     1     -34.282   5.748   4.615  1.00 20.00     0.000 C 
ENDROOT
TORSDOF 0
ENDMDL
MODEL 8
REMARK VINA RESULT:      -4.3     11.693     12.382
REMARK  0 active torsions:
REMARK  status: ('A' for Active; 'I' for Inactive)
ROOT
HETATM    1  C1  UNL     1     -32.435  18.954   0.511  1.00 20.00    -0.030 C 
HETATM    2  C2  UNL     1     -33.670  19.097   1.026  1.00 20.00    -0.030 C 
HETATM    3  C3  UNL     1     -34.689  16.378  -2.669  1.00 20.00    -0.030 C 
HETATM    4  C4  UNL     1     -33.493  16.987  -2.659  1.00 20.00    -0.025 C 
HETATM    5  C5  UNL     1     -32.145  18.209  -0.774  1.00 20.00     0.035 C 
HETATM    6  C6  UNL     1     -34.907  18.477   0.415  1.00 20.00     0.032 C 
HETATM    7  C7  UNL     1     -35.562  16.845  -1.534  1.00 20.00     0.032 C 
HETATM    8  C8  UNL     1     -33.438  17.992  -1.555  1.00 20.00     0.016 C 
HETATM    9  C9  UNL     1     -34.500  17.421  -0.606  1.00 20.00     0.000 C 
ENDROOT
TORSDOF 0
ENDMDL
MODEL 9
REMARK VINA RESULT:      -4.2     11.681     12.394
REMARK  0 active torsions:
REMARK  status: ('A' for Active; 'I' for Inactive)
ROOT
HETATM    1  C1  UNL     1     -33.499  19.262   1.098  1.00 20.00    -0.030 C 
HETATM    2  C2  UNL     1     -32.306  19.065   0.506  1.00 20.00    -0.030 C 
HETATM    3  C3  UNL     1     -35.039  16.642  -2.451  1.00 20.00    -0.030 C 
HETATM    4  C4  UNL     1     -35.554  16.963  -1.253  1.00 20.00    -0.025 C 
HETATM    5  C5  UNL     1     -34.788  18.636   0.611  1.00 20.00     0.035 C 
HETATM    6  C6  UNL     1     -32.123  18.245  -0.752  1.00 20.00     0.032 C 
HETATM    7  C7  UNL     1     -33.577  16.988  -2.540  1.00 20.00     0.032 C 
HETATM    8  C8  UNL     1     -34.483  17.500  -0.362  1.00 20.00     0.016 C 
HETATM    9  C9  UNL     1     -33.477  18.002  -1.407  1.00 20.00     0.000 C 
ENDROOT
TORSDOF 0
ENDMDL
