MODEL 1
REMARK VINA RESULT:      -5.4      0.000      0.000
REMARK  0 active torsions:
REMARK  status: ('A' for Active; 'I' for Inactive)
ROOT
HETATM    1  C1  UNL     1     -34.247  14.182  -4.279  1.00 20.00     0.047 C 
HETATM    2  C2  UNL     1     -33.971  15.386  -3.765  1.00 20.00    -0.014 C 
HETATM    3  C3  UNL     1     -35.612  13.860  -4.756  1.00 20.00     0.149 C 
HETATM    4  C4  UNL     1     -36.694  14.901  -4.599  1.00 20.00     0.084 C 
HETATM    5  C5  UNL     1     -36.112  16.308  -4.669  1.00 20.00     0.021 C 
HETATM    6  C6  UNL     1     -33.869  18.439  -1.597  1.00 20.00     0.000 C 
HETATM    7  C7  UNL     1     -33.262  18.378  -2.994  1.00 20.00     0.001 C 
HETATM    8  C8  UNL     1     -34.483  17.104  -1.193  1.00 20.00     0.001 C 
HETATM    9  C9  UNL     1     -34.271  17.882  -4.031  1.00 20.00     0.013 C 
HETATM   10  C10 UNL     1     -35.512  16.625  -2.217  1.00 20.00     0.013 C 
HETATM   11  C11 UNL     1     -34.956  16.539  -3.661  1.00 20.00    -0.022 C 
HETATM   12  O12 UNL     1     -35.851  12.743  -5.213  1.00 20.00    -0.293 OA
ENDROOT
TORSDOF 0
ENDMDL
MODEL 2
REMARK VINA RESULT:      -4.9      2.475      4.512
REMARK  0 active torsions:
REMARK  status: ('A' for Active; 'I' for Inactive)
ROOT
HETATM    1  C1  UNL     1     -35.325  17.037  -1.071  1.00 20.00     0.047 C 
HETATM    2  C2  UNL     1     -35.473  16.558  -2.312  1.00 20.00    -0.014 C 
HETATM    3  C3  UNL     1     -34.087  17.753  -0.682  1.00 20.00     0.149 C 
HETATM    4  C4  UNL     1     -32.979  17.881  -1.699  1.00 20.00     0.084 C 
HETATM    5  C5  UNL     1     -33.540  17.925  -3.115  1.00 20.00     0.021 C 
HETATM    6  C6  UNL     1     -35.090  14.615  -5.492  1.00 20.00     0.000 C 
HETATM    7  C7  UNL     1     -35.964  15.857  -5.364  1.00 20.00     0.001 C 
HETATM    8  C8  UNL     1     -34.430  14.255  -4.166  1.00 20.00     0.001 C 
HETATM    9  C9  UNL     1     -35.190  17.040  -4.777  1.00 20.00     0.013 C 
HETATM   10  C10 UNL     1     -33.633  15.429  -3.596  1.00 20.00     0.013 C 
HETATM   11  C11 UNL     1     -34.468  16.726  -3.440  1.00 20.00    -0.022 C 
HETATM   12  O12 UNL     1     -33.962  18.174   0.467  1.00 20.00    -0.293 OA
ENDROOT
TORSDOF 0
ENDMDL
MODEL 3
REMARK VINA RESULT:      -4.9      1.542      2.219
REMARK  0 active torsions:
REMARK  status: ('A' for Active; 'I' for Inactive)
ROOT
HETATM    1  C1  UNL     1     -35.022  13.924  -4.732  1.00 20.00     0.047 C 
HETATM    2  C2  UNL     1     -35.064  14.889  -3.806  1.00 20.00    -0.014 C 
HETATM    3  C3  UNL     1     -34.326  14.146  -6.021  1.00 20.00     0.149 C 
HETATM    4  C4  UNL     1     -33.714  15.501  -6.285  1.00 20.00     0.084 C 
HETATM    5  C5  UNL     1     -33.263  16.159  -4.986  1.00 20.00     0.021 C 
HETATM    6  C6  UNL     1     -35.739  18.072  -1.950  1.00 20.00     0.000 C 
HETATM    7  C7  UNL     1     -34.741  17.020  -1.481  1.00 20.00     0.001 C 
HETATM    8  C8  UNL     1     -36.439  17.649  -3.235  1.00 20.00     0.001 C 
HETATM    9  C9  UNL     1     -33.739  16.657  -2.579  1.00 20.00     0.013 C 
HETATM   10  C10 UNL     1     -35.435  17.315  -4.339  1.00 20.00     0.013 C 
HETATM   11  C11 UNL     1     -34.392  16.247  -3.926  1.00 20.00    -0.022 C 
HETATM   12  O12 UNL     1     -34.308  13.253  -6.866  1.00 20.00    -0.293 OA
ENDROOT
TORSDOF 0
ENDMDL
MODEL 4
REMARK VINA RESULT:      -4.8     10.932     11.914
REMARK  0 active torsions:
REMARK  status: ('A' for Active; 'I' for Inactive)
ROOT
HETATM    1  C1  UNL     1     -33.247   4.623   2.998  1.00 20.00     0.047 C 
HETATM    2  C2  UNL     1     -32.918   5.850   2.576  1.00 20.00    -0.014 C 
HETATM    3  C3  UNL     1     -34.139   4.441   4.167  1.00 20.00     0.149 C 
HETATM    4  C4  UNL     1     -34.622   5.669   4.902  1.00 20.00     0.084 C 
HETATM    5  C5  UNL     1     -34.741   6.859   3.958  1.00 20.00     0.021 C 
HETATM    6  C6  UNL     1     -31.533   9.321   2.328  1.00 20.00     0.000 C 
HETATM    7  C7  UNL     1     -32.545   8.747   1.345  1.00 20.00     0.001 C 
HETATM    8  C8  UNL     1     -31.139   8.301   3.390  1.00 20.00     0.001 C 
HETATM    9  C9  UNL     1     -33.770   8.172   2.059  1.00 20.00     0.013 C 
HETATM   10  C10 UNL     1     -32.364   7.750   4.122  1.00 20.00     0.013 C 
HETATM   11  C11 UNL     1     -33.433   7.148   3.175  1.00 20.00    -0.022 C 
HETATM   12  O12 UNL     1     -34.420   3.307   4.549  1.00 20.00    -0.293 OA
ENDROOT
TORSDOF 0
ENDMDL
MODEL 5
REMARK VINA RESULT:      -4.8     10.468     11.745
REMARK  0 active torsions:
REMARK  status: ('A' for Active; 'I' for Inactive)
ROOT
HETATM    1  C1  UNL     1     -33.850   8.998   1.997  1.00 20.00     0.047 C 
HETATM    2  C2  UNL     1     -34.152   7.968   2.796  1.00 20.00    -0.014 C 
HETATM    3  C3  UNL     1     -32.438   9.326   1.690  1.00 20.00     0.149 C 
HETATM    4  C4  UNL     1     -31.350   8.505   2.340  1.00 20.00     0.084 C 
HETATM    5  C5  UNL     1     -31.823   7.080   2.601  1.00 20.00     0.021 C 
HETATM    6  C6  UNL     1     -34.506   5.674   5.736  1.00 20.00     0.000 C 
HETATM    7  C7  UNL     1     -34.824   5.262   4.304  1.00 20.00     0.001 C 
HETATM    8  C8  UNL     1     -34.065   7.130   5.816  1.00 20.00     0.001 C 
HETATM    9  C9  UNL     1     -33.658   5.553   3.356  1.00 20.00     0.013 C 
HETATM   10  C10 UNL     1     -32.881   7.412   4.890  1.00 20.00     0.013 C 
HETATM   11  C11 UNL     1     -33.142   7.015   3.415  1.00 20.00    -0.022 C 
HETATM   12  O12 UNL     1     -32.178  10.285   0.965  1.00 20.00    -0.293 OA
ENDROOT
TORSDOF 0
ENDMDL
MODEL 6
REMARK VINA RESULT:      -4.8      0.983      2.311
REMARK  0 active torsions:
REMARK  status: ('A' for Active; 'I' for Inactive)
ROOT
HETATM    1  C1  UNL     1     -36.142  14.994  -4.222  1.00 20.00     0.047 C 
HETATM    2  C2  UNL     1     -35.504  16.080  -3.771  1.00 20.00    -0.014 C 
HETATM    3  C3  UNL     1     -35.388  13.877  -4.837  1.00 20.00     0.149 C 
HETATM    4  C4  UNL     1     -33.893  14.016  -4.991  1.00 20.00     0.084 C 
HETATM    5  C5  UNL     1     -33.309  14.889  -3.887  1.00 20.00     0.021 C 
HETATM    6  C6  UNL     1     -33.492  19.230  -3.519  1.00 20.00     0.000 C 
HETATM    7  C7  UNL     1     -33.918  18.405  -2.311  1.00 20.00     0.001 C 
HETATM    8  C8  UNL     1     -34.013  18.631  -4.820  1.00 20.00     0.001 C 
HETATM    9  C9  UNL     1     -33.521  16.934  -2.457  1.00 20.00     0.013 C 
HETATM   10  C10 UNL     1     -33.590  17.170  -4.977  1.00 20.00     0.013 C 
HETATM   11  C11 UNL     1     -33.996  16.276  -3.779  1.00 20.00    -0.022 C 
HETATM   12  O12 UNL     1     -35.992  12.892  -5.259  1.00 20.00    -0.293 OA
ENDROOT
TORSDOF 0
ENDMDL
MODEL 7
REMARK VINA RESULT:      -4.7      2.210      3.173
REMARK  0 active torsions:
REMARK  status: ('A' for Active; 'I' for Inactive)
ROOT
HETATM    1  C1  UNL     1     -34.598  18.200  -4.834  1.00 20.00     0.047 C 
HETATM    2  C2  UNL     1     -34.772  18.186  -3.507  1.00 20.00    -0.014 C 
HETATM    3  C3  UNL     1     -33.882  17.094  -5.512  1.00 20.00     0.149 C 
HETATM    4  C4  UNL     1     -33.309  15.982  -4.667  1.00 20.00     0.084 C 
HETATM    5  C5  UNL     1     -34.140  15.769  -3.407  1.00 20.00     0.021 C 
HETATM    6  C6  UNL     1     -34.221  18.220   0.198  1.00 20.00     0.000 C 
HETATM    7  C7  UNL     1     -35.558  17.882  -0.451  1.00 20.00     0.001 C 
HETATM    8  C8  UNL     1     -33.164  18.570  -0.842  1.00 20.00     0.001 C 
HETATM    9  C9  UNL     1     -35.416  16.783  -1.506  1.00 20.00     0.013 C 
HETATM   10  C10 UNL     1     -33.004  17.456  -1.879  1.00 20.00     0.013 C 
HETATM   11  C11 UNL     1     -34.331  17.066  -2.578  1.00 20.00    -0.022 C 
HETATM   12  O12 UNL     1     -33.719  17.129  -6.730  1.00 20.00    -0.293 OA
ENDROOT
TORSDOF 0
ENDMDL
MODEL 8
REMARK VINA RESULT:      -4.7      3.070      4.594
REMARK  0 active torsions:
REMARK  status: ('A' for Active; 'I' for Inactive)
ROOT
HETATM    1  C1  UNL     1     -32.958  18.140  -0.803  1.00 20.00     0.047 C 
HETATM    2  C2  UNL     1     -33.059  17.645  -2.042  1.00 20.00    -0.014 C 
HETATM    3  C3  UNL     1     -34.151  18.232   0.072  1.00 20.00     0.149 C 
HETATM    4  C4  UNL     1     -35.487  17.806  -0.485  1.00 20.00     0.084 C 
HETATM    5  C5  UNL     1     -35.320  16.708  -1.528  1.00 20.00     0.021 C 
HETATM    6  C6  UNL     1     -33.936  17.104  -5.644  1.00 20.00     0.000 C 
HETATM    7  C7  UNL     1     -33.260  16.051  -4.775  1.00 20.00     0.001 C 
HETATM    8  C8  UNL     1     -34.173  18.399  -4.874  1.00 20.00     0.001 C 
HETATM    9  C9  UNL     1     -34.031  15.804  -3.476  1.00 20.00     0.013 C 
HETATM   10  C10 UNL     1     -34.969  18.153  -3.592  1.00 20.00     0.013 C 
HETATM   11  C11 UNL     1     -34.332  17.090  -2.661  1.00 20.00    -0.022 C 
HETATM   12  O12 UNL     1     -34.042  18.703   1.203  1.00 20.00    -0.293 OA
ENDROOT
TORSDOF 0
ENDMDL
MODEL 9
REMARK VINA RESULT:      -4.6      2.334      4.471
REMARK  0 active torsions:
REMARK  status: ('A' for Active; 'I' for Inactive)
ROOT
HETATM    1  C1  UNL     1     -34.183  17.022  -1.785  1.00 20.00     0.047 C 
HETATM    2  C2  UNL     1     -35.058  16.355  -2.546  1.00 20.00    -0.014 C 
HETATM    3  C3  UNL     1     -33.260  18.013  -2.387  1.00 20.00     0.149 C 
HETATM    4  C4  UNL     1     -33.295  18.212  -3.883  1.00 20.00     0.084 C 
HETATM    5  C5  UNL     1     -34.690  17.948  -4.438  1.00 20.00     0.021 C 
HETATM    6  C6  UNL     1     -36.634  14.101  -5.089  1.00 20.00     0.000 C 
HETATM    7  C7  UNL     1     -37.407  15.153  -4.304  1.00 20.00     0.001 C 
HETATM    8  C8  UNL     1     -35.165  14.065  -4.685  1.00 20.00     0.001 C 
HETATM    9  C9  UNL     1     -36.756  16.534  -4.410  1.00 20.00     0.013 C 
HETATM   10  C10 UNL     1     -34.510  15.440  -4.820  1.00 20.00     0.013 C 
HETATM   11  C11 UNL     1     -35.249  16.557  -4.041  1.00 20.00    -0.022 C 
HETATM   12  O12 UNL     1     -32.453  18.607  -1.674  1.00 20.00    -0.293 OA
ENDROOT
TORSDOF 0
ENDMDL
