MODEL 1
REMARK VINA RESULT:      -4.9      0.000      0.000
REMARK  2 active torsions:
REMARK  status: ('A' for Active; 'I' for Inactive)
REMARK    1  A    between atoms: C1_1  and  C2_2 
REMARK    2  A    between atoms: C1_1  and  C3_3 
ROOT
HETATM    1  C3  UNL     1     -34.650   5.477   4.204  1.00 20.00     0.321 C 
HETATM    2  F4  UNL     1     -35.905   5.829   3.818  1.00 20.00    -0.188 F 
HETATM    3  F5  UNL     1     -34.624   4.120   4.232  1.00 20.00    -0.188 F 
HETATM    4 CL7  UNL     1     -34.348   6.112   5.829  1.00 20.00    -0.048 Cl
ENDROOT
BRANCH   1   5
HETATM    5  C1  UNL     1     -33.657   5.988   3.169  1.00 20.00     0.112 C 
BRANCH   5   6
HETATM    6  C2  UNL     1     -32.979   7.293   3.570  1.00 20.00     0.122 C 
HETATM    7 CL6  UNL     1     -32.176   8.029   2.161  1.00 20.00    -0.130 Cl
ENDBRANCH   5   6
ENDBRANCH   1   5
TORSDOF 2
ENDMDL
MODEL 2
REMARK VINA RESULT:      -4.8      1.501      1.745
REMARK  2 active torsions:
REMARK  status: ('A' for Active; 'I' for Inactive)
REMARK    1  A    between atoms: C1_1  and  C2_2 
REMARK    2  A    between atoms: C1_1  and  C3_3 
ROOT
HETATM    1  C3  UNL     1     -34.756   5.628   4.608  1.00 20.00     0.321 C 
HETATM    2  F4  UNL     1     -35.111   5.504   5.914  1.00 20.00    -0.188 F 
HETATM    3  F5  UNL     1     -35.904   5.853   3.919  1.00 20.00    -0.188 F 
HETATM    4 CL7  UNL     1     -34.021   4.112   4.064  1.00 20.00    -0.048 Cl
ENDROOT
BRANCH   1   5
HETATM    5  C1  UNL     1     -33.828   6.827   4.463  1.00 20.00     0.112 C 
BRANCH   5   6
HETATM    6  C2  UNL     1     -33.056   6.842   3.149  1.00 20.00     0.122 C 
HETATM    7 CL6  UNL     1     -31.785   8.088   3.196  1.00 20.00    -0.130 Cl
ENDBRANCH   5   6
ENDBRANCH   1   5
TORSDOF 2
ENDMDL
MODEL 3
REMARK VINA RESULT:      -4.8      1.285      1.512
REMARK  2 active torsions:
REMARK  status: ('A' for Active; 'I' for Inactive)
REMARK    1  A    between atoms: C1_1  and  C2_2 
REMARK    2  A    between atoms: C1_1  and  C3_3 
ROOT
HETATM    1  C3  UNL     1     -34.594   5.825   4.020  1.00 20.00     0.321 C 
HETATM    2  F4  UNL     1     -34.398   6.700   5.042  1.00 20.00    -0.188 F 
HETATM    3  F5  UNL     1     -35.874   6.003   3.604  1.00 20.00    -0.188 F 
HETATM    4 CL7  UNL     1     -34.387   4.174   4.625  1.00 20.00    -0.048 Cl
ENDROOT
BRANCH   1   5
HETATM    5  C1  UNL     1     -33.635   6.171   2.889  1.00 20.00     0.112 C 
BRANCH   5   6
HETATM    6  C2  UNL     1     -32.637   7.265   3.251  1.00 20.00     0.122 C 
HETATM    7 CL6  UNL     1     -32.445   8.399   1.891  1.00 20.00    -0.130 Cl
ENDBRANCH   5   6
ENDBRANCH   1   5
TORSDOF 2
ENDMDL
MODEL 4
REMARK VINA RESULT:      -4.7      1.601      2.999
REMARK  2 active torsions:
REMARK  status: ('A' for Active; 'I' for Inactive)
REMARK    1  A    between atoms: C1_1  and  C2_2 
REMARK    2  A    between atoms: C1_1  and  C3_3 
ROOT
HETATM    1  C3  UNL     1     -33.821   5.834   2.890  1.00 20.00     0.321 C 
HETATM    2  F4  UNL     1     -33.221   4.620   3.005  1.00 20.00    -0.188 F 
HETATM    3  F5  UNL     1     -34.356   5.882   1.644  1.00 20.00    -0.188 F 
HETATM    4 CL7  UNL     1     -32.596   7.101   3.062  1.00 20.00    -0.048 Cl
ENDROOT
BRANCH   1   5
HETATM    5  C1  UNL     1     -34.931   5.933   3.928  1.00 20.00     0.112 C 
BRANCH   5   6
HETATM    6  C2  UNL     1     -34.454   5.677   5.354  1.00 20.00     0.122 C 
HETATM    7 CL6  UNL     1     -33.930   7.202   6.111  1.00 20.00    -0.130 Cl
ENDBRANCH   5   6
ENDBRANCH   1   5
TORSDOF 2
ENDMDL
MODEL 5
REMARK VINA RESULT:      -4.5      2.072      3.647
REMARK  2 active torsions:
REMARK  status: ('A' for Active; 'I' for Inactive)
REMARK    1  A    between atoms: C1_1  and  C2_2 
REMARK    2  A    between atoms: C1_1  and  C3_3 
ROOT
HETATM    1  C3  UNL     1     -32.820   7.174   3.020  1.00 20.00     0.321 C 
HETATM    2  F4  UNL     1     -32.392   5.905   2.789  1.00 20.00    -0.188 F 
HETATM    3  F5  UNL     1     -33.292   7.641   1.836  1.00 20.00    -0.188 F 
HETATM    4 CL7  UNL     1     -31.445   8.159   3.545  1.00 20.00    -0.048 Cl
ENDROOT
BRANCH   1   5
HETATM    5  C1  UNL     1     -33.948   7.133   4.042  1.00 20.00     0.112 C 
BRANCH   5   6
HETATM    6  C2  UNL     1     -34.760   5.843   3.999  1.00 20.00     0.122 C 
HETATM    7 CL6  UNL     1     -34.601   4.964   5.540  1.00 20.00    -0.130 Cl
ENDBRANCH   5   6
ENDBRANCH   1   5
TORSDOF 2
ENDMDL
MODEL 6
REMARK VINA RESULT:      -4.4      2.556      3.477
REMARK  2 active torsions:
REMARK  status: ('A' for Active; 'I' for Inactive)
REMARK    1  A    between atoms: C1_1  and  C2_2 
REMARK    2  A    between atoms: C1_1  and  C3_3 
ROOT
HETATM    1  C3  UNL     1     -33.099   7.287   3.599  1.00 20.00     0.321 C 
HETATM    2  F4  UNL     1     -31.786   7.194   3.257  1.00 20.00    -0.188 F 
HETATM    3  F5  UNL     1     -33.598   8.349   2.917  1.00 20.00    -0.188 F 
HETATM    4 CL7  UNL     1     -33.221   7.585   5.340  1.00 20.00    -0.048 Cl
ENDROOT
BRANCH   1   5
HETATM    5  C1  UNL     1     -33.811   6.014   3.159  1.00 20.00     0.112 C 
BRANCH   5   6
HETATM    6  C2  UNL     1     -35.018   5.665   4.022  1.00 20.00     0.122 C 
HETATM    7 CL6  UNL     1     -34.572   4.446   5.241  1.00 20.00    -0.130 Cl
ENDBRANCH   5   6
ENDBRANCH   1   5
TORSDOF 2
ENDMDL
MODEL 7
REMARK VINA RESULT:      -4.4      2.649      3.506
REMARK  2 active torsions:
REMARK  status: ('A' for Active; 'I' for Inactive)
REMARK    1  A    between atoms: C1_1  and  C2_2 
REMARK    2  A    between atoms: C1_1  and  C3_3 
ROOT
HETATM    1  C3  UNL     1     -32.963   6.944   3.050  1.00 20.00     0.321 C 
HETATM    2  F4  UNL     1     -33.118   7.640   1.893  1.00 20.00    -0.188 F 
HETATM    3  F5  UNL     1     -31.778   7.341   3.580  1.00 20.00    -0.188 F 
HETATM    4 CL7  UNL     1     -32.901   5.214   2.678  1.00 20.00    -0.048 Cl
ENDROOT
BRANCH   1   5
HETATM    5  C1  UNL     1     -34.097   7.311   3.998  1.00 20.00     0.112 C 
BRANCH   5   6
HETATM    6  C2  UNL     1     -33.839   6.899   5.443  1.00 20.00     0.122 C 
HETATM    7 CL6  UNL     1     -34.581   5.314   5.774  1.00 20.00    -0.130 Cl
ENDBRANCH   5   6
ENDBRANCH   1   5
TORSDOF 2
ENDMDL
MODEL 8
REMARK VINA RESULT:      -4.3      2.428      3.780
REMARK  2 active torsions:
REMARK  status: ('A' for Active; 'I' for Inactive)
REMARK    1  A    between atoms: C1_1  and  C2_2 
REMARK    2  A    between atoms: C1_1  and  C3_3 
ROOT
HETATM    1  C3  UNL     1     -32.631   7.435   3.219  1.00 20.00     0.321 C 
HETATM    2  F4  UNL     1     -31.747   7.906   4.138  1.00 20.00    -0.188 F 
HETATM    3  F5  UNL     1     -32.145   6.240   2.797  1.00 20.00    -0.188 F 
HETATM    4 CL7  UNL     1     -32.703   8.564   1.857  1.00 20.00    -0.048 Cl
ENDROOT
BRANCH   1   5
HETATM    5  C1  UNL     1     -33.979   7.230   3.896  1.00 20.00     0.112 C 
BRANCH   5   6
HETATM    6  C2  UNL     1     -33.874   6.974   5.396  1.00 20.00     0.122 C 
HETATM    7 CL6  UNL     1     -34.530   5.368   5.795  1.00 20.00    -0.130 Cl
ENDBRANCH   5   6
ENDBRANCH   1   5
TORSDOF 2
ENDMDL
MODEL 9
REMARK VINA RESULT:      -4.3      2.244      2.380
REMARK  2 active torsions:
REMARK  status: ('A' for Active; 'I' for Inactive)
REMARK    1  A    between atoms: C1_1  and  C2_2 
REMARK    2  A    between atoms: C1_1  and  C3_3 
ROOT
HETATM    1  C3  UNL     1     -33.579   5.344   2.915  1.00 20.00     0.321 C 
HETATM    2  F4  UNL     1     -34.510   5.702   1.993  1.00 20.00    -0.188 F 
HETATM    3  F5  UNL     1     -32.699   4.532   2.277  1.00 20.00    -0.188 F 
HETATM    4 CL7  UNL     1     -34.375   4.452   4.221  1.00 20.00    -0.048 Cl
ENDROOT
BRANCH   1   5
HETATM    5  C1  UNL     1     -32.862   6.597   3.400  1.00 20.00     0.112 C 
BRANCH   5   6
HETATM    6  C2  UNL     1     -33.771   7.568   4.146  1.00 20.00     0.122 C 
HETATM    7 CL6  UNL     1     -33.569   7.371   5.905  1.00 20.00    -0.130 Cl
ENDBRANCH   5   6
ENDBRANCH   1   5
TORSDOF 2
ENDMDL
