MODEL 1
REMARK VINA RESULT:      -5.4      0.000      0.000
REMARK  2 active torsions:
REMARK  status: ('A' for Active; 'I' for Inactive)
REMARK    1  A    between atoms: C1_1  and  C2_2 
REMARK    2  A    between atoms: C2_2  and  C3_3 
ROOT
HETATM    1  C2  UNL     1     -33.724   5.819   3.013  1.00 20.00     0.391 C 
HETATM    2  F5  UNL     1     -34.444   5.978   1.871  1.00 20.00    -0.188 F 
HETATM    3  F6  UNL     1     -32.929   4.734   2.820  1.00 20.00    -0.188 F 
ENDROOT
BRANCH   1   4
HETATM    4  C1  UNL     1     -32.892   7.035   3.304  1.00 20.00     0.319 C 
HETATM    5  O4  UNL     1     -32.625   7.888   2.464  1.00 20.00    -0.300 OA
ENDBRANCH   1   4
BRANCH   1   6
HETATM    6  C3  UNL     1     -34.673   5.529   4.148  1.00 20.00     0.461 C 
HETATM    7  F7  UNL     1     -34.349   6.236   5.251  1.00 20.00    -0.165 F 
HETATM    8  F8  UNL     1     -35.938   5.857   3.807  1.00 20.00    -0.165 F 
HETATM    9  F9  UNL     1     -34.664   4.219   4.476  1.00 20.00    -0.165 F 
ENDBRANCH   1   6
TORSDOF 2
ENDMDL
MODEL 2
REMARK VINA RESULT:      -5.4      1.654      2.919
REMARK  2 active torsions:
REMARK  status: ('A' for Active; 'I' for Inactive)
REMARK    1  A    between atoms: C1_1  and  C2_2 
REMARK    2  A    between atoms: C2_2  and  C3_3 
ROOT
HETATM    1  C2  UNL     1     -34.339   5.775   4.181  1.00 20.00     0.391 C 
HETATM    2  F5  UNL     1     -34.197   4.614   4.873  1.00 20.00    -0.188 F 
HETATM    3  F6  UNL     1     -35.659   5.882   3.874  1.00 20.00    -0.188 F 
ENDROOT
BRANCH   1   4
HETATM    4  C1  UNL     1     -33.894   6.953   4.999  1.00 20.00     0.319 C 
HETATM    5  O4  UNL     1     -34.098   7.054   6.205  1.00 20.00    -0.300 OA
ENDBRANCH   1   4
BRANCH   1   6
HETATM    6  C3  UNL     1     -33.549   5.677   2.901  1.00 20.00     0.461 C 
HETATM    7  F7  UNL     1     -34.308   5.996   1.830  1.00 20.00    -0.165 F 
HETATM    8  F8  UNL     1     -32.498   6.524   2.925  1.00 20.00    -0.165 F 
HETATM    9  F9  UNL     1     -33.067   4.430   2.713  1.00 20.00    -0.165 F 
ENDBRANCH   1   6
TORSDOF 2
ENDMDL
MODEL 3
REMARK VINA RESULT:      -5.1      1.995      3.123
REMARK  2 active torsions:
REMARK  status: ('A' for Active; 'I' for Inactive)
REMARK    1  A    between atoms: C1_1  and  C2_2 
REMARK    2  A    between atoms: C2_2  and  C3_3 
ROOT
HETATM    1  C2  UNL     1     -34.592   5.889   3.985  1.00 20.00     0.391 C 
HETATM    2  F5  UNL     1     -35.839   6.076   3.477  1.00 20.00    -0.188 F 
HETATM    3  F6  UNL     1     -34.305   6.996   4.719  1.00 20.00    -0.188 F 
ENDROOT
BRANCH   1   4
HETATM    4  C1  UNL     1     -34.534   4.659   4.845  1.00 20.00     0.319 C 
HETATM    5  O4  UNL     1     -34.458   4.693   6.069  1.00 20.00    -0.300 OA
ENDBRANCH   1   4
BRANCH   1   6
HETATM    6  C3  UNL     1     -33.612   5.797   2.843  1.00 20.00     0.461 C 
HETATM    7  F7  UNL     1     -33.063   4.565   2.765  1.00 20.00    -0.165 F 
HETATM    8  F8  UNL     1     -34.226   6.047   1.667  1.00 20.00    -0.165 F 
HETATM    9  F9  UNL     1     -32.608   6.690   2.980  1.00 20.00    -0.165 F 
ENDBRANCH   1   6
TORSDOF 2
ENDMDL
MODEL 4
REMARK VINA RESULT:      -5.1      1.995      3.126
REMARK  2 active torsions:
REMARK  status: ('A' for Active; 'I' for Inactive)
REMARK    1  A    between atoms: C1_1  and  C2_2 
REMARK    2  A    between atoms: C2_2  and  C3_3 
ROOT
HETATM    1  C2  UNL     1     -34.597   5.889   3.988  1.00 20.00     0.391 C 
HETATM    2  F5  UNL     1     -35.850   6.074   3.495  1.00 20.00    -0.188 F 
HETATM    3  F6  UNL     1     -34.304   6.994   4.721  1.00 20.00    -0.188 F 
ENDROOT
BRANCH   1   4
HETATM    4  C1  UNL     1     -34.527   4.657   4.844  1.00 20.00     0.319 C 
HETATM    5  O4  UNL     1     -34.469   4.688   6.069  1.00 20.00    -0.300 OA
ENDBRANCH   1   4
BRANCH   1   6
HETATM    6  C3  UNL     1     -33.630   5.801   2.835  1.00 20.00     0.461 C 
HETATM    7  F7  UNL     1     -32.623   6.690   2.969  1.00 20.00    -0.165 F 
HETATM    8  F8  UNL     1     -33.082   4.568   2.766  1.00 20.00    -0.165 F 
HETATM    9  F9  UNL     1     -34.243   6.043   1.656  1.00 20.00    -0.165 F 
ENDBRANCH   1   6
TORSDOF 2
ENDMDL
MODEL 5
REMARK VINA RESULT:      -5.1      2.106      2.927
REMARK  2 active torsions:
REMARK  status: ('A' for Active; 'I' for Inactive)
REMARK    1  A    between atoms: C1_1  and  C2_2 
REMARK    2  A    between atoms: C2_2  and  C3_3 
ROOT
HETATM    1  C2  UNL     1     -33.674   5.762   3.107  1.00 20.00     0.391 C 
HETATM    2  F5  UNL     1     -32.633   4.997   2.683  1.00 20.00    -0.188 F 
HETATM    3  F6  UNL     1     -34.455   5.987   2.018  1.00 20.00    -0.188 F 
ENDROOT
BRANCH   1   4
HETATM    4  C1  UNL     1     -34.458   5.063   4.180  1.00 20.00     0.319 C 
HETATM    5  O4  UNL     1     -34.425   3.850   4.360  1.00 20.00    -0.300 OA
ENDBRANCH   1   4
BRANCH   1   6
HETATM    6  C3  UNL     1     -33.138   7.081   3.601  1.00 20.00     0.461 C 
HETATM    7  F7  UNL     1     -31.833   7.229   3.288  1.00 20.00    -0.165 F 
HETATM    8  F8  UNL     1     -33.813   8.108   3.043  1.00 20.00    -0.165 F 
HETATM    9  F9  UNL     1     -33.259   7.191   4.942  1.00 20.00    -0.165 F 
ENDBRANCH   1   6
TORSDOF 2
ENDMDL
MODEL 6
REMARK VINA RESULT:      -5.1      2.106      3.019
REMARK  2 active torsions:
REMARK  status: ('A' for Active; 'I' for Inactive)
REMARK    1  A    between atoms: C1_1  and  C2_2 
REMARK    2  A    between atoms: C2_2  and  C3_3 
ROOT
HETATM    1  C2  UNL     1     -33.679   5.761   3.108  1.00 20.00     0.391 C 
HETATM    2  F5  UNL     1     -32.629   4.998   2.706  1.00 20.00    -0.188 F 
HETATM    3  F6  UNL     1     -34.448   5.970   2.007  1.00 20.00    -0.188 F 
ENDROOT
BRANCH   1   4
HETATM    4  C1  UNL     1     -34.474   5.071   4.180  1.00 20.00     0.319 C 
HETATM    5  O4  UNL     1     -34.421   3.863   4.387  1.00 20.00    -0.300 OA
ENDBRANCH   1   4
BRANCH   1   6
HETATM    6  C3  UNL     1     -33.157   7.089   3.594  1.00 20.00     0.461 C 
HETATM    7  F7  UNL     1     -33.841   8.116   3.046  1.00 20.00    -0.165 F 
HETATM    8  F8  UNL     1     -33.276   7.186   4.936  1.00 20.00    -0.165 F 
HETATM    9  F9  UNL     1     -31.851   7.248   3.286  1.00 20.00    -0.165 F 
ENDBRANCH   1   6
TORSDOF 2
ENDMDL
MODEL 7
REMARK VINA RESULT:      -5.0      1.183      2.257
REMARK  2 active torsions:
REMARK  status: ('A' for Active; 'I' for Inactive)
REMARK    1  A    between atoms: C1_1  and  C2_2 
REMARK    2  A    between atoms: C2_2  and  C3_3 
ROOT
HETATM    1  C2  UNL     1     -33.793   6.877   4.236  1.00 20.00     0.391 C 
HETATM    2  F5  UNL     1     -33.126   7.159   5.386  1.00 20.00    -0.188 F 
HETATM    3  F6  UNL     1     -34.603   7.940   3.989  1.00 20.00    -0.188 F 
ENDROOT
BRANCH   1   4
HETATM    4  C1  UNL     1     -32.841   6.667   3.094  1.00 20.00     0.319 C 
HETATM    5  O4  UNL     1     -32.251   7.582   2.529  1.00 20.00    -0.300 OA
ENDBRANCH   1   4
BRANCH   1   6
HETATM    6  C3  UNL     1     -34.649   5.656   4.457  1.00 20.00     0.461 C 
HETATM    7  F7  UNL     1     -35.858   5.790   3.871  1.00 20.00    -0.165 F 
HETATM    8  F8  UNL     1     -34.059   4.560   3.933  1.00 20.00    -0.165 F 
HETATM    9  F9  UNL     1     -34.848   5.424   5.773  1.00 20.00    -0.165 F 
ENDBRANCH   1   6
TORSDOF 2
ENDMDL
MODEL 8
REMARK VINA RESULT:      -5.0      1.199      1.978
REMARK  2 active torsions:
REMARK  status: ('A' for Active; 'I' for Inactive)
REMARK    1  A    between atoms: C1_1  and  C2_2 
REMARK    2  A    between atoms: C2_2  and  C3_3 
ROOT
HETATM    1  C2  UNL     1     -33.792   6.855   4.261  1.00 20.00     0.391 C 
HETATM    2  F5  UNL     1     -33.127   7.156   5.407  1.00 20.00    -0.188 F 
HETATM    3  F6  UNL     1     -34.612   7.907   4.003  1.00 20.00    -0.188 F 
ENDROOT
BRANCH   1   4
HETATM    4  C1  UNL     1     -32.838   6.642   3.120  1.00 20.00     0.319 C 
HETATM    5  O4  UNL     1     -32.170   7.542   2.621  1.00 20.00    -0.300 OA
ENDBRANCH   1   4
BRANCH   1   6
HETATM    6  C3  UNL     1     -34.635   5.627   4.496  1.00 20.00     0.461 C 
HETATM    7  F7  UNL     1     -34.842   5.419   5.814  1.00 20.00    -0.165 F 
HETATM    8  F8  UNL     1     -35.843   5.760   3.907  1.00 20.00    -0.165 F 
HETATM    9  F9  UNL     1     -34.050   4.522   3.988  1.00 20.00    -0.165 F 
ENDBRANCH   1   6
TORSDOF 2
ENDMDL
MODEL 9
REMARK VINA RESULT:      -5.0      1.192      2.291
REMARK  2 active torsions:
REMARK  status: ('A' for Active; 'I' for Inactive)
REMARK    1  A    between atoms: C1_1  and  C2_2 
REMARK    2  A    between atoms: C2_2  and  C3_3 
ROOT
HETATM    1  C2  UNL     1     -33.795   6.854   4.251  1.00 20.00     0.391 C 
HETATM    2  F5  UNL     1     -33.158   7.149   5.415  1.00 20.00    -0.188 F 
HETATM    3  F6  UNL     1     -34.609   7.907   3.980  1.00 20.00    -0.188 F 
ENDROOT
BRANCH   1   4
HETATM    4  C1  UNL     1     -32.813   6.648   3.133  1.00 20.00     0.319 C 
HETATM    5  O4  UNL     1     -32.201   7.565   2.594  1.00 20.00    -0.300 OA
ENDBRANCH   1   4
BRANCH   1   6
HETATM    6  C3  UNL     1     -34.642   5.626   4.459  1.00 20.00     0.461 C 
HETATM    7  F7  UNL     1     -34.056   4.530   3.931  1.00 20.00    -0.165 F 
HETATM    8  F8  UNL     1     -34.832   5.395   5.776  1.00 20.00    -0.165 F 
HETATM    9  F9  UNL     1     -35.858   5.762   3.887  1.00 20.00    -0.165 F 
ENDBRANCH   1   6
TORSDOF 2
ENDMDL
