MODEL 1
REMARK VINA RESULT:      -5.1      0.000      0.000
REMARK  3 active torsions:
REMARK  status: ('A' for Active; 'I' for Inactive)
REMARK    1  A    between atoms: C1_1  and  C3_3 
REMARK    2  A    between atoms: C1_1  and  O4_4 
REMARK    3  A    between atoms: C2_2  and  O4_4 
ROOT
HETATM    1  C1  UNL     1     -33.943   6.868   4.102  1.00 20.00     0.291 C 
ENDROOT
BRANCH   1   2
HETATM    2  C3  UNL     1     -32.857   6.901   3.059  1.00 20.00     0.408 C 
HETATM    3  F7  UNL     1     -31.746   7.494   3.548  1.00 20.00    -0.169 F 
HETATM    4  F8  UNL     1     -33.247   7.594   1.968  1.00 20.00    -0.169 F 
HETATM    5  F9  UNL     1     -32.518   5.655   2.665  1.00 20.00    -0.169 F 
ENDBRANCH   1   2
BRANCH   1   6
HETATM    6  O4  UNL     1     -34.791   5.755   3.854  1.00 20.00    -0.324 OA
BRANCH   6   7
HETATM    7  C2  UNL     1     -34.787   4.817   4.920  1.00 20.00     0.500 C 
HETATM    8  F5  UNL     1     -34.048   3.737   4.569  1.00 20.00    -0.185 F 
HETATM    9  F6  UNL     1     -34.216   5.377   6.013  1.00 20.00    -0.185 F 
ENDBRANCH   6   7
ENDBRANCH   1   6
TORSDOF 3
ENDMDL
MODEL 2
REMARK VINA RESULT:      -5.1      1.260      3.635
REMARK  3 active torsions:
REMARK  status: ('A' for Active; 'I' for Inactive)
REMARK    1  A    between atoms: C1_1  and  C3_3 
REMARK    2  A    between atoms: C1_1  and  O4_4 
REMARK    3  A    between atoms: C2_2  and  O4_4 
ROOT
HETATM    1  C1  UNL     1     -33.823   6.728   4.888  1.00 20.00     0.291 C 
ENDROOT
BRANCH   1   2
HETATM    2  C3  UNL     1     -34.689   5.503   4.758  1.00 20.00     0.408 C 
HETATM    3  F7  UNL     1     -35.109   5.085   5.972  1.00 20.00    -0.169 F 
HETATM    4  F8  UNL     1     -34.014   4.485   4.183  1.00 20.00    -0.169 F 
HETATM    5  F9  UNL     1     -35.785   5.756   4.010  1.00 20.00    -0.169 F 
ENDBRANCH   1   2
BRANCH   1   6
HETATM    6  O4  UNL     1     -33.921   7.496   3.697  1.00 20.00    -0.324 OA
BRANCH   6   7
HETATM    7  C2  UNL     1     -32.706   7.524   2.964  1.00 20.00     0.500 C 
HETATM    8  F5  UNL     1     -31.709   7.986   3.757  1.00 20.00    -0.185 F 
HETATM    9  F6  UNL     1     -32.381   6.268   2.577  1.00 20.00    -0.185 F 
ENDBRANCH   6   7
ENDBRANCH   1   6
TORSDOF 3
ENDMDL
MODEL 3
REMARK VINA RESULT:      -5.1      0.021      1.258
REMARK  3 active torsions:
REMARK  status: ('A' for Active; 'I' for Inactive)
REMARK    1  A    between atoms: C1_1  and  C3_3 
REMARK    2  A    between atoms: C1_1  and  O4_4 
REMARK    3  A    between atoms: C2_2  and  O4_4 
ROOT
HETATM    1  C1  UNL     1     -33.959   6.869   4.102  1.00 20.00     0.291 C 
ENDROOT
BRANCH   1   2
HETATM    2  C3  UNL     1     -32.861   6.910   3.072  1.00 20.00     0.408 C 
HETATM    3  F7  UNL     1     -33.252   7.612   1.985  1.00 20.00    -0.169 F 
HETATM    4  F8  UNL     1     -32.528   5.668   2.661  1.00 20.00    -0.169 F 
HETATM    5  F9  UNL     1     -31.750   7.501   3.563  1.00 20.00    -0.169 F 
ENDBRANCH   1   2
BRANCH   1   6
HETATM    6  O4  UNL     1     -34.784   5.740   3.856  1.00 20.00    -0.324 OA
BRANCH   6   7
HETATM    7  C2  UNL     1     -34.784   4.818   4.936  1.00 20.00     0.500 C 
HETATM    8  F5  UNL     1     -34.054   3.727   4.600  1.00 20.00    -0.185 F 
HETATM    9  F6  UNL     1     -34.206   5.390   6.019  1.00 20.00    -0.185 F 
ENDBRANCH   6   7
ENDBRANCH   1   6
TORSDOF 3
ENDMDL
MODEL 4
REMARK VINA RESULT:      -5.0      0.035      1.264
REMARK  3 active torsions:
REMARK  status: ('A' for Active; 'I' for Inactive)
REMARK    1  A    between atoms: C1_1  and  C3_3 
REMARK    2  A    between atoms: C1_1  and  O4_4 
REMARK    3  A    between atoms: C2_2  and  O4_4 
ROOT
HETATM    1  C1  UNL     1     -33.957   6.874   4.103  1.00 20.00     0.291 C 
ENDROOT
BRANCH   1   2
HETATM    2  C3  UNL     1     -32.855   6.929   3.077  1.00 20.00     0.408 C 
HETATM    3  F7  UNL     1     -32.519   5.685   2.671  1.00 20.00    -0.169 F 
HETATM    4  F8  UNL     1     -31.745   7.510   3.582  1.00 20.00    -0.169 F 
HETATM    5  F9  UNL     1     -33.235   7.629   1.986  1.00 20.00    -0.169 F 
ENDBRANCH   1   2
BRANCH   1   6
HETATM    6  O4  UNL     1     -34.766   5.734   3.853  1.00 20.00    -0.324 OA
BRANCH   6   7
HETATM    7  C2  UNL     1     -34.776   4.822   4.942  1.00 20.00     0.500 C 
HETATM    8  F5  UNL     1     -34.051   3.724   4.618  1.00 20.00    -0.185 F 
HETATM    9  F6  UNL     1     -34.197   5.401   6.021  1.00 20.00    -0.185 F 
ENDBRANCH   6   7
ENDBRANCH   1   6
TORSDOF 3
ENDMDL
MODEL 5
REMARK VINA RESULT:      -5.0      1.498      3.853
REMARK  3 active torsions:
REMARK  status: ('A' for Active; 'I' for Inactive)
REMARK    1  A    between atoms: C1_1  and  C3_3 
REMARK    2  A    between atoms: C1_1  and  O4_4 
REMARK    3  A    between atoms: C2_2  and  O4_4 
ROOT
HETATM    1  C1  UNL     1     -33.660   5.892   3.328  1.00 20.00     0.291 C 
ENDROOT
BRANCH   1   2
HETATM    2  C3  UNL     1     -34.666   5.412   4.340  1.00 20.00     0.408 C 
HETATM    3  F7  UNL     1     -35.917   5.761   3.971  1.00 20.00    -0.169 F 
HETATM    4  F8  UNL     1     -34.431   5.949   5.557  1.00 20.00    -0.169 F 
HETATM    5  F9  UNL     1     -34.634   4.067   4.463  1.00 20.00    -0.169 F 
ENDBRANCH   1   2
BRANCH   1   6
HETATM    6  O4  UNL     1     -33.386   7.267   3.561  1.00 20.00    -0.324 OA
BRANCH   6   7
HETATM    7  C2  UNL     1     -32.169   7.690   2.964  1.00 20.00     0.500 C 
HETATM    8  F5  UNL     1     -32.438   8.542   1.945  1.00 20.00    -0.185 F 
HETATM    9  F6  UNL     1     -31.424   8.356   3.878  1.00 20.00    -0.185 F 
ENDBRANCH   6   7
ENDBRANCH   1   6
TORSDOF 3
ENDMDL
MODEL 6
REMARK VINA RESULT:      -5.0      1.567      3.882
REMARK  3 active torsions:
REMARK  status: ('A' for Active; 'I' for Inactive)
REMARK    1  A    between atoms: C1_1  and  C3_3 
REMARK    2  A    between atoms: C1_1  and  O4_4 
REMARK    3  A    between atoms: C2_2  and  O4_4 
ROOT
HETATM    1  C1  UNL     1     -33.686   5.987   3.301  1.00 20.00     0.291 C 
ENDROOT
BRANCH   1   2
HETATM    2  C3  UNL     1     -34.730   5.491   4.267  1.00 20.00     0.408 C 
HETATM    3  F7  UNL     1     -34.546   6.038   5.489  1.00 20.00    -0.169 F 
HETATM    4  F8  UNL     1     -34.672   4.149   4.405  1.00 20.00    -0.169 F 
HETATM    5  F9  UNL     1     -35.974   5.817   3.855  1.00 20.00    -0.169 F 
ENDBRANCH   1   2
BRANCH   1   6
HETATM    6  O4  UNL     1     -33.194   7.241   3.752  1.00 20.00    -0.324 OA
BRANCH   6   7
HETATM    7  C2  UNL     1     -32.175   7.762   2.911  1.00 20.00     0.500 C 
HETATM    8  F5  UNL     1     -32.697   8.721   2.109  1.00 20.00    -0.185 F 
HETATM    9  F6  UNL     1     -31.211   8.334   3.671  1.00 20.00    -0.185 F 
ENDBRANCH   6   7
ENDBRANCH   1   6
TORSDOF 3
ENDMDL
MODEL 7
REMARK VINA RESULT:      -4.8      0.984      1.392
REMARK  3 active torsions:
REMARK  status: ('A' for Active; 'I' for Inactive)
REMARK    1  A    between atoms: C1_1  and  C3_3 
REMARK    2  A    between atoms: C1_1  and  O4_4 
REMARK    3  A    between atoms: C2_2  and  O4_4 
ROOT
HETATM    1  C1  UNL     1     -33.900   7.333   3.858  1.00 20.00     0.291 C 
ENDROOT
BRANCH   1   2
HETATM    2  C3  UNL     1     -32.708   7.173   2.951  1.00 20.00     0.408 C 
HETATM    3  F7  UNL     1     -31.594   7.664   3.536  1.00 20.00    -0.169 F 
HETATM    4  F8  UNL     1     -32.886   7.834   1.787  1.00 20.00    -0.169 F 
HETATM    5  F9  UNL     1     -32.481   5.873   2.664  1.00 20.00    -0.169 F 
ENDBRANCH   1   2
BRANCH   1   6
HETATM    6  O4  UNL     1     -34.366   6.047   4.243  1.00 20.00    -0.324 OA
BRANCH   6   7
HETATM    7  C2  UNL     1     -34.188   5.794   5.628  1.00 20.00     0.500 C 
HETATM    8  F5  UNL     1     -34.357   6.945   6.324  1.00 20.00    -0.185 F 
HETATM    9  F6  UNL     1     -35.123   4.911   6.051  1.00 20.00    -0.185 F 
ENDBRANCH   6   7
ENDBRANCH   1   6
TORSDOF 3
ENDMDL
MODEL 8
REMARK VINA RESULT:      -4.7      2.740      4.860
REMARK  3 active torsions:
REMARK  status: ('A' for Active; 'I' for Inactive)
REMARK    1  A    between atoms: C1_1  and  C3_3 
REMARK    2  A    between atoms: C1_1  and  O4_4 
REMARK    3  A    between atoms: C2_2  and  O4_4 
ROOT
HETATM    1  C1  UNL     1     -31.897   8.440   2.332  1.00 20.00     0.291 C 
ENDROOT
BRANCH   1   2
HETATM    2  C3  UNL     1     -32.627   7.565   3.317  1.00 20.00     0.408 C 
HETATM    3  F7  UNL     1     -32.190   7.797   4.575  1.00 20.00    -0.169 F 
HETATM    4  F8  UNL     1     -32.431   6.257   3.049  1.00 20.00    -0.169 F 
HETATM    5  F9  UNL     1     -33.956   7.804   3.294  1.00 20.00    -0.169 F 
ENDBRANCH   1   2
BRANCH   1   6
HETATM    6  O4  UNL     1     -32.741   8.686   1.216  1.00 20.00    -0.324 OA
BRANCH   6   7
HETATM    7  C2  UNL     1     -32.498   9.950   0.616  1.00 20.00     0.500 C 
HETATM    8  F5  UNL     1     -33.130  10.012  -0.581  1.00 20.00    -0.185 F 
HETATM    9  F6  UNL     1     -33.000  10.930   1.405  1.00 20.00    -0.185 F 
ENDBRANCH   6   7
ENDBRANCH   1   6
TORSDOF 3
ENDMDL
MODEL 9
REMARK VINA RESULT:      -4.7      1.805      2.465
REMARK  3 active torsions:
REMARK  status: ('A' for Active; 'I' for Inactive)
REMARK    1  A    between atoms: C1_1  and  C3_3 
REMARK    2  A    between atoms: C1_1  and  O4_4 
REMARK    3  A    between atoms: C2_2  and  O4_4 
ROOT
HETATM    1  C1  UNL     1     -32.804   6.971   2.876  1.00 20.00     0.291 C 
ENDROOT
BRANCH   1   2
HETATM    2  C3  UNL     1     -32.133   8.247   2.440  1.00 20.00     0.408 C 
HETATM    3  F7  UNL     1     -33.053   9.186   2.127  1.00 20.00    -0.169 F 
HETATM    4  F8  UNL     1     -31.363   8.047   1.349  1.00 20.00    -0.169 F 
HETATM    5  F9  UNL     1     -31.351   8.749   3.419  1.00 20.00    -0.169 F 
ENDBRANCH   1   2
BRANCH   1   6
HETATM    6  O4  UNL     1     -33.947   7.291   3.657  1.00 20.00    -0.324 OA
BRANCH   6   7
HETATM    7  C2  UNL     1     -33.890   6.735   4.962  1.00 20.00     0.500 C 
HETATM    8  F5  UNL     1     -33.905   7.732   5.880  1.00 20.00    -0.185 F 
HETATM    9  F6  UNL     1     -34.980   5.959   5.171  1.00 20.00    -0.185 F 
ENDBRANCH   6   7
ENDBRANCH   1   6
TORSDOF 3
ENDMDL
