MODEL 1
REMARK VINA RESULT:      -4.3      0.000      0.000
REMARK  0 active torsions:
REMARK  status: ('A' for Active; 'I' for Inactive)
ROOT
HETATM    1  C1  UNL     1     -35.239   6.139   3.599  1.00 20.00     0.009 A 
HETATM    2  C2  UNL     1     -33.810   5.727   3.385  1.00 20.00     0.009 A 
HETATM    3  C3  UNL     1     -34.325   5.951   4.788  1.00 20.00    -0.048 A 
HETATM    4  C4  UNL     1     -33.862   7.177   5.523  1.00 20.00     0.015 C 
HETATM    5  C5  UNL     1     -34.543   4.744   5.659  1.00 20.00     0.015 C 
ENDROOT
TORSDOF 0
ENDMDL
MODEL 2
REMARK VINA RESULT:      -4.3      0.015      1.861
REMARK  0 active torsions:
REMARK  status: ('A' for Active; 'I' for Inactive)
ROOT
HETATM    1  C1  UNL     1     -33.815   5.746   3.388  1.00 20.00     0.009 A 
HETATM    2  C2  UNL     1     -35.246   6.145   3.608  1.00 20.00     0.009 A 
HETATM    3  C3  UNL     1     -34.330   5.951   4.794  1.00 20.00    -0.048 A 
HETATM    4  C4  UNL     1     -34.537   4.737   5.654  1.00 20.00     0.015 C 
HETATM    5  C5  UNL     1     -33.875   7.176   5.539  1.00 20.00     0.015 C 
ENDROOT
TORSDOF 0
ENDMDL
MODEL 3
REMARK VINA RESULT:      -4.3      0.880      1.929
REMARK  0 active torsions:
REMARK  status: ('A' for Active; 'I' for Inactive)
ROOT
HETATM    1  C1  UNL     1     -34.360   4.898   4.313  1.00 20.00     0.009 A 
HETATM    2  C2  UNL     1     -35.379   5.907   3.868  1.00 20.00     0.009 A 
HETATM    3  C3  UNL     1     -34.007   6.368   4.301  1.00 20.00    -0.048 A 
HETATM    4  C4  UNL     1     -33.884   7.074   5.622  1.00 20.00     0.015 C 
HETATM    5  C5  UNL     1     -33.060   6.856   3.239  1.00 20.00     0.015 C 
ENDROOT
TORSDOF 0
ENDMDL
MODEL 4
REMARK VINA RESULT:      -4.3      0.872      1.703
REMARK  0 active torsions:
REMARK  status: ('A' for Active; 'I' for Inactive)
ROOT
HETATM    1  C1  UNL     1     -35.386   5.908   3.876  1.00 20.00     0.009 A 
HETATM    2  C2  UNL     1     -34.372   4.899   4.333  1.00 20.00     0.009 A 
HETATM    3  C3  UNL     1     -34.009   6.366   4.301  1.00 20.00    -0.048 A 
HETATM    4  C4  UNL     1     -33.061   6.835   3.233  1.00 20.00     0.015 C 
HETATM    5  C5  UNL     1     -33.881   7.088   5.614  1.00 20.00     0.015 C 
ENDROOT
TORSDOF 0
ENDMDL
MODEL 5
REMARK VINA RESULT:      -4.0      0.995      2.377
REMARK  0 active torsions:
REMARK  status: ('A' for Active; 'I' for Inactive)
ROOT
HETATM    1  C1  UNL     1     -35.415   5.867   3.826  1.00 20.00     0.009 A 
HETATM    2  C2  UNL     1     -34.580   5.314   4.945  1.00 20.00     0.009 A 
HETATM    3  C3  UNL     1     -33.907   5.946   3.749  1.00 20.00    -0.048 A 
HETATM    4  C4  UNL     1     -33.202   5.042   2.777  1.00 20.00     0.015 C 
HETATM    5  C5  UNL     1     -33.263   7.293   3.933  1.00 20.00     0.015 C 
ENDROOT
TORSDOF 0
ENDMDL
MODEL 6
REMARK VINA RESULT:      -4.0      0.998      2.003
REMARK  0 active torsions:
REMARK  status: ('A' for Active; 'I' for Inactive)
ROOT
HETATM    1  C1  UNL     1     -34.580   5.321   4.947  1.00 20.00     0.009 A 
HETATM    2  C2  UNL     1     -35.413   5.867   3.823  1.00 20.00     0.009 A 
HETATM    3  C3  UNL     1     -33.906   5.947   3.748  1.00 20.00    -0.048 A 
HETATM    4  C4  UNL     1     -33.262   7.293   3.924  1.00 20.00     0.015 C 
HETATM    5  C5  UNL     1     -33.199   5.036   2.782  1.00 20.00     0.015 C 
ENDROOT
TORSDOF 0
ENDMDL
MODEL 7
REMARK VINA RESULT:      -3.7      1.173      1.513
REMARK  0 active torsions:
REMARK  status: ('A' for Active; 'I' for Inactive)
ROOT
HETATM    1  C1  UNL     1     -33.677   7.606   3.017  1.00 20.00     0.009 A 
HETATM    2  C2  UNL     1     -32.771   6.433   3.264  1.00 20.00     0.009 A 
HETATM    3  C3  UNL     1     -33.947   6.681   4.182  1.00 20.00    -0.048 A 
HETATM    4  C4  UNL     1     -33.665   7.190   5.567  1.00 20.00     0.015 C 
HETATM    5  C5  UNL     1     -35.125   5.751   4.084  1.00 20.00     0.015 C 
ENDROOT
TORSDOF 0
ENDMDL
MODEL 8
REMARK VINA RESULT:      -3.7      0.577      2.330
REMARK  0 active torsions:
REMARK  status: ('A' for Active; 'I' for Inactive)
ROOT
HETATM    1  C1  UNL     1     -34.078   6.481   5.470  1.00 20.00     0.009 A 
HETATM    2  C2  UNL     1     -34.534   5.051   5.525  1.00 20.00     0.009 A 
HETATM    3  C3  UNL     1     -34.464   5.767   4.195  1.00 20.00    -0.048 A 
HETATM    4  C4  UNL     1     -35.757   6.153   3.534  1.00 20.00     0.015 C 
HETATM    5  C5  UNL     1     -33.365   5.380   3.244  1.00 20.00     0.015 C 
ENDROOT
TORSDOF 0
ENDMDL
MODEL 9
REMARK VINA RESULT:      -3.7      1.032      2.034
REMARK  0 active torsions:
REMARK  status: ('A' for Active; 'I' for Inactive)
ROOT
HETATM    1  C1  UNL     1     -32.955   6.476   3.462  1.00 20.00     0.009 A 
HETATM    2  C2  UNL     1     -34.212   7.277   3.277  1.00 20.00     0.009 A 
HETATM    3  C3  UNL     1     -34.000   6.496   4.554  1.00 20.00    -0.048 A 
HETATM    4  C4  UNL     1     -34.821   5.255   4.766  1.00 20.00     0.015 C 
HETATM    5  C5  UNL     1     -33.693   7.267   5.808  1.00 20.00     0.015 C 
ENDROOT
TORSDOF 0
ENDMDL
