MODEL 1
REMARK VINA RESULT:      -4.2      0.000      0.000
REMARK  3 active torsions:
REMARK  status: ('A' for Active; 'I' for Inactive)
REMARK    1  A    between atoms: C2_2  and  C6_6 
REMARK    2  A    between atoms: C6_6  and  O9_9 
REMARK    3  A    between atoms: C7_7  and  O9_9 
ROOT
HETATM    1  O9  UNL     1     -33.388   6.954   4.036  1.00 20.00    -0.379 OA
ENDROOT
BRANCH   1   2
HETATM    2  C6  UNL     1     -32.921   7.028   2.699  1.00 20.00     0.202 C 
BRANCH   2   3
HETATM    3  C2  UNL     1     -32.111   8.295   2.529  1.00 20.00     0.169 A 
HETATM    4  C1  UNL     1     -32.495   9.334   1.512  1.00 20.00     0.202 A 
HETATM    5  O8  UNL     1     -31.428   8.401   1.274  1.00 20.00    -0.379 OA
ENDBRANCH   2   3
ENDBRANCH   1   2
BRANCH   1   6
HETATM    6  C7  UNL     1     -34.254   5.833   4.222  1.00 20.00     0.050 C 
HETATM    7  C3  UNL     1     -34.437   5.604   5.721  1.00 20.00     0.045 C 
HETATM    8  C4  UNL     1     -35.589   6.168   3.561  1.00 20.00     0.045 C 
HETATM    9  C5  UNL     1     -33.617   4.612   3.559  1.00 20.00     0.045 C 
ENDBRANCH   1   6
TORSDOF 3
ENDMDL
MODEL 2
REMARK VINA RESULT:      -4.2      0.019      1.448
REMARK  3 active torsions:
REMARK  status: ('A' for Active; 'I' for Inactive)
REMARK    1  A    between atoms: C2_2  and  C6_6 
REMARK    2  A    between atoms: C6_6  and  O9_9 
REMARK    3  A    between atoms: C7_7  and  O9_9 
ROOT
HETATM    1  O9  UNL     1     -33.375   6.956   4.029  1.00 20.00    -0.379 OA
ENDROOT
BRANCH   1   2
HETATM    2  C6  UNL     1     -32.910   7.034   2.691  1.00 20.00     0.202 C 
BRANCH   2   3
HETATM    3  C2  UNL     1     -32.109   8.307   2.520  1.00 20.00     0.169 A 
HETATM    4  C1  UNL     1     -32.494   9.337   1.496  1.00 20.00     0.202 A 
HETATM    5  O8  UNL     1     -31.419   8.412   1.270  1.00 20.00    -0.379 OA
ENDBRANCH   2   3
ENDBRANCH   1   2
BRANCH   1   6
HETATM    6  C7  UNL     1     -34.251   5.842   4.209  1.00 20.00     0.050 C 
HETATM    7  C3  UNL     1     -35.593   6.168   3.557  1.00 20.00     0.045 C 
HETATM    8  C4  UNL     1     -33.604   4.634   3.536  1.00 20.00     0.045 C 
HETATM    9  C5  UNL     1     -34.421   5.595   5.708  1.00 20.00     0.045 C 
ENDBRANCH   1   6
TORSDOF 3
ENDMDL
MODEL 3
REMARK VINA RESULT:      -4.2      0.027      1.447
REMARK  3 active torsions:
REMARK  status: ('A' for Active; 'I' for Inactive)
REMARK    1  A    between atoms: C2_2  and  C6_6 
REMARK    2  A    between atoms: C6_6  and  O9_9 
REMARK    3  A    between atoms: C7_7  and  O9_9 
ROOT
HETATM    1  O9  UNL     1     -33.363   6.960   4.032  1.00 20.00    -0.379 OA
ENDROOT
BRANCH   1   2
HETATM    2  C6  UNL     1     -32.922   7.045   2.687  1.00 20.00     0.202 C 
BRANCH   2   3
HETATM    3  C2  UNL     1     -32.111   8.312   2.513  1.00 20.00     0.169 A 
HETATM    4  C1  UNL     1     -32.488   9.343   1.486  1.00 20.00     0.202 A 
HETATM    5  O8  UNL     1     -31.420   8.408   1.262  1.00 20.00    -0.379 OA
ENDBRANCH   2   3
ENDBRANCH   1   2
BRANCH   1   6
HETATM    6  C7  UNL     1     -34.245   5.852   4.220  1.00 20.00     0.050 C 
HETATM    7  C3  UNL     1     -33.611   4.615   3.586  1.00 20.00     0.045 C 
HETATM    8  C4  UNL     1     -34.423   5.654   5.723  1.00 20.00     0.045 C 
HETATM    9  C5  UNL     1     -35.583   6.178   3.558  1.00 20.00     0.045 C 
ENDBRANCH   1   6
TORSDOF 3
ENDMDL
MODEL 4
REMARK VINA RESULT:      -3.9      1.752      4.638
REMARK  3 active torsions:
REMARK  status: ('A' for Active; 'I' for Inactive)
REMARK    1  A    between atoms: C2_2  and  C6_6 
REMARK    2  A    between atoms: C6_6  and  O9_9 
REMARK    3  A    between atoms: C7_7  and  O9_9 
ROOT
HETATM    1  O9  UNL     1     -33.259   8.536   1.791  1.00 20.00    -0.379 OA
ENDROOT
BRANCH   1   2
HETATM    2  C6  UNL     1     -32.382   7.723   2.553  1.00 20.00     0.202 C 
BRANCH   2   3
HETATM    3  C2  UNL     1     -33.189   6.657   3.264  1.00 20.00     0.169 A 
HETATM    4  C1  UNL     1     -33.104   5.213   2.853  1.00 20.00     0.202 A 
HETATM    5  O8  UNL     1     -34.206   6.048   2.460  1.00 20.00    -0.379 OA
ENDBRANCH   2   3
ENDBRANCH   1   2
BRANCH   1   6
HETATM    6  C7  UNL     1     -32.539   9.338   0.853  1.00 20.00     0.050 C 
HETATM    7  C3  UNL     1     -33.278   9.303  -0.484  1.00 20.00     0.045 C 
HETATM    8  C4  UNL     1     -32.492  10.761   1.405  1.00 20.00     0.045 C 
HETATM    9  C5  UNL     1     -31.128   8.770   0.710  1.00 20.00     0.045 C 
ENDBRANCH   1   6
TORSDOF 3
ENDMDL
MODEL 5
REMARK VINA RESULT:      -3.8      1.771      4.159
REMARK  3 active torsions:
REMARK  status: ('A' for Active; 'I' for Inactive)
REMARK    1  A    between atoms: C2_2  and  C6_6 
REMARK    2  A    between atoms: C6_6  and  O9_9 
REMARK    3  A    between atoms: C7_7  and  O9_9 
ROOT
HETATM    1  O9  UNL     1     -33.830   7.704   3.872  1.00 20.00    -0.379 OA
ENDROOT
BRANCH   1   2
HETATM    2  C6  UNL     1     -33.493   7.187   5.149  1.00 20.00     0.202 C 
BRANCH   2   3
HETATM    3  C2  UNL     1     -34.585   6.241   5.602  1.00 20.00     0.169 A 
HETATM    4  C1  UNL     1     -34.451   4.755   5.420  1.00 20.00     0.202 A 
HETATM    5  O8  UNL     1     -35.255   5.555   4.538  1.00 20.00    -0.379 OA
ENDBRANCH   2   3
ENDBRANCH   1   2
BRANCH   1   6
HETATM    6  C7  UNL     1     -32.720   7.635   2.975  1.00 20.00     0.050 C 
HETATM    7  C3  UNL     1     -31.466   8.093   3.718  1.00 20.00     0.045 C 
HETATM    8  C4  UNL     1     -32.580   6.182   2.527  1.00 20.00     0.045 C 
HETATM    9  C5  UNL     1     -33.005   8.542   1.778  1.00 20.00     0.045 C 
ENDBRANCH   1   6
TORSDOF 3
ENDMDL
MODEL 6
REMARK VINA RESULT:      -3.7      1.375      4.479
REMARK  3 active torsions:
REMARK  status: ('A' for Active; 'I' for Inactive)
REMARK    1  A    between atoms: C2_2  and  C6_6 
REMARK    2  A    between atoms: C6_6  and  O9_9 
REMARK    3  A    between atoms: C7_7  and  O9_9 
ROOT
HETATM    1  O9  UNL     1     -33.201   7.752   1.852  1.00 20.00    -0.379 OA
ENDROOT
BRANCH   1   2
HETATM    2  C6  UNL     1     -33.081   6.959   3.022  1.00 20.00     0.202 C 
BRANCH   2   3
HETATM    3  C2  UNL     1     -34.242   5.990   3.082  1.00 20.00     0.169 A 
HETATM    4  C1  UNL     1     -34.876   5.615   4.393  1.00 20.00     0.202 A 
HETATM    5  O8  UNL     1     -33.946   4.746   3.726  1.00 20.00    -0.379 OA
ENDBRANCH   2   3
ENDBRANCH   1   2
BRANCH   1   6
HETATM    6  C7  UNL     1     -32.185   8.755   1.799  1.00 20.00     0.050 C 
HETATM    7  C3  UNL     1     -32.857  10.122   1.682  1.00 20.00     0.045 C 
HETATM    8  C4  UNL     1     -31.376   8.661   3.090  1.00 20.00     0.045 C 
HETATM    9  C5  UNL     1     -31.295   8.481   0.587  1.00 20.00     0.045 C 
ENDBRANCH   1   6
TORSDOF 3
ENDMDL
MODEL 7
REMARK VINA RESULT:      -3.7      1.366      4.462
REMARK  3 active torsions:
REMARK  status: ('A' for Active; 'I' for Inactive)
REMARK    1  A    between atoms: C2_2  and  C6_6 
REMARK    2  A    between atoms: C6_6  and  O9_9 
REMARK    3  A    between atoms: C7_7  and  O9_9 
ROOT
HETATM    1  O9  UNL     1     -33.218   7.703   1.882  1.00 20.00    -0.379 OA
ENDROOT
BRANCH   1   2
HETATM    2  C6  UNL     1     -33.010   6.803   2.958  1.00 20.00     0.202 C 
BRANCH   2   3
HETATM    3  C2  UNL     1     -34.246   5.946   3.131  1.00 20.00     0.169 A 
HETATM    4  C1  UNL     1     -34.818   5.671   4.494  1.00 20.00     0.202 A 
HETATM    5  O8  UNL     1     -34.017   4.700   3.799  1.00 20.00    -0.379 OA
ENDBRANCH   2   3
ENDBRANCH   1   2
BRANCH   1   6
HETATM    6  C7  UNL     1     -32.205   8.709   1.844  1.00 20.00     0.050 C 
HETATM    7  C3  UNL     1     -31.383   8.620   3.129  1.00 20.00     0.045 C 
HETATM    8  C4  UNL     1     -31.328   8.434   0.625  1.00 20.00     0.045 C 
HETATM    9  C5  UNL     1     -32.879  10.075   1.723  1.00 20.00     0.045 C 
ENDBRANCH   1   6
TORSDOF 3
ENDMDL
MODEL 8
REMARK VINA RESULT:      -3.4     11.173     11.862
REMARK  3 active torsions:
REMARK  status: ('A' for Active; 'I' for Inactive)
REMARK    1  A    between atoms: C2_2  and  C6_6 
REMARK    2  A    between atoms: C6_6  and  O9_9 
REMARK    3  A    between atoms: C7_7  and  O9_9 
ROOT
HETATM    1  O9  UNL     1     -34.670  15.428  -3.235  1.00 20.00    -0.379 OA
ENDROOT
BRANCH   1   2
HETATM    2  C6  UNL     1     -35.633  15.100  -4.223  1.00 20.00     0.202 C 
BRANCH   2   3
HETATM    3  C2  UNL     1     -35.094  13.979  -5.086  1.00 20.00     0.169 A 
HETATM    4  C1  UNL     1     -35.790  13.569  -6.354  1.00 20.00     0.202 A 
HETATM    5  O8  UNL     1     -35.926  12.815  -5.138  1.00 20.00    -0.379 OA
ENDBRANCH   2   3
ENDBRANCH   1   2
BRANCH   1   6
HETATM    6  C7  UNL     1     -34.775  16.798  -2.843  1.00 20.00     0.050 C 
HETATM    7  C3  UNL     1     -35.601  17.541  -3.892  1.00 20.00     0.045 C 
HETATM    8  C4  UNL     1     -35.470  16.836  -1.484  1.00 20.00     0.045 C 
HETATM    9  C5  UNL     1     -33.367  17.384  -2.744  1.00 20.00     0.045 C 
ENDBRANCH   1   6
TORSDOF 3
ENDMDL
MODEL 9
REMARK VINA RESULT:      -3.4     10.862     11.793
REMARK  3 active torsions:
REMARK  status: ('A' for Active; 'I' for Inactive)
REMARK    1  A    between atoms: C2_2  and  C6_6 
REMARK    2  A    between atoms: C6_6  and  O9_9 
REMARK    3  A    between atoms: C7_7  and  O9_9 
ROOT
HETATM    1  O9  UNL     1     -33.578  16.266  -2.908  1.00 20.00    -0.379 OA
ENDROOT
BRANCH   1   2
HETATM    2  C6  UNL     1     -34.660  15.573  -3.508  1.00 20.00     0.202 C 
BRANCH   2   3
HETATM    3  C2  UNL     1     -34.116  14.411  -4.312  1.00 20.00     0.169 A 
HETATM    4  C1  UNL     1     -34.590  14.145  -5.714  1.00 20.00     0.202 A 
HETATM    5  O8  UNL     1     -35.074  13.384  -4.595  1.00 20.00    -0.379 OA
ENDBRANCH   2   3
ENDBRANCH   1   2
BRANCH   1   6
HETATM    6  C7  UNL     1     -34.033  17.408  -2.180  1.00 20.00     0.050 C 
HETATM    7  C3  UNL     1     -35.159  16.970  -1.245  1.00 20.00     0.045 C 
HETATM    8  C4  UNL     1     -32.849  17.947  -1.381  1.00 20.00     0.045 C 
HETATM    9  C5  UNL     1     -34.529  18.454  -3.178  1.00 20.00     0.045 C 
ENDBRANCH   1   6
TORSDOF 3
ENDMDL
