MODEL 1
REMARK VINA RESULT:      -4.3      0.000      0.000
REMARK  3 active torsions:
REMARK  status: ('A' for Active; 'I' for Inactive)
REMARK    1  A    between atoms: C1_1  and  C5_5 
REMARK    2  A    between atoms: C1_1  and  O8_8 
REMARK    3  A    between atoms: C6_6  and  O8_8 
ROOT
HETATM    1  O8  UNL     1     -33.206   8.583   1.911  1.00 20.00    -0.310 OA
ENDROOT
BRANCH   1   2
HETATM    2  C1  UNL     1     -32.417   7.889   2.789  1.00 20.00     0.273 C 
HETATM    3  O7  UNL     1     -31.499   8.361   3.443  1.00 20.00    -0.264 OA
BRANCH   2   4
HETATM    4  C5  UNL     1     -32.873   6.455   2.810  1.00 20.00     0.225 C 
HETATM    5 CL9  UNL     1     -34.413   6.316   3.676  1.00 20.00    -0.120 Cl
ENDBRANCH   2   4
ENDBRANCH   1   2
BRANCH   1   6
HETATM    6  C6  UNL     1     -32.511   9.344   0.923  1.00 20.00     0.060 C 
HETATM    7  C2  UNL     1     -31.134   8.717   0.706  1.00 20.00     0.045 C 
HETATM    8  C3  UNL     1     -33.334   9.291  -0.361  1.00 20.00     0.045 C 
HETATM    9  C4  UNL     1     -32.381  10.783   1.420  1.00 20.00     0.045 C 
ENDBRANCH   1   6
TORSDOF 3
ENDMDL
MODEL 2
REMARK VINA RESULT:      -4.3      2.203      3.945
REMARK  3 active torsions:
REMARK  status: ('A' for Active; 'I' for Inactive)
REMARK    1  A    between atoms: C1_1  and  C5_5 
REMARK    2  A    between atoms: C1_1  and  O8_8 
REMARK    3  A    between atoms: C6_6  and  O8_8 
ROOT
HETATM    1  O8  UNL     1     -33.662   7.869   3.095  1.00 20.00    -0.310 OA
ENDROOT
BRANCH   1   2
HETATM    2  C1  UNL     1     -32.365   8.218   2.829  1.00 20.00     0.273 C 
HETATM    3  O7  UNL     1     -31.449   8.214   3.639  1.00 20.00    -0.264 OA
BRANCH   2   4
HETATM    4  C5  UNL     1     -32.262   8.602   1.378  1.00 20.00     0.225 C 
HETATM    5 CL9  UNL     1     -32.700  10.306   1.164  1.00 20.00    -0.120 Cl
ENDBRANCH   2   4
ENDBRANCH   1   2
BRANCH   1   6
HETATM    6  C6  UNL     1     -33.845   6.600   3.726  1.00 20.00     0.060 C 
HETATM    7  C2  UNL     1     -33.555   6.754   5.218  1.00 20.00     0.045 C 
HETATM    8  C3  UNL     1     -35.294   6.180   3.500  1.00 20.00     0.045 C 
HETATM    9  C4  UNL     1     -32.887   5.597   3.085  1.00 20.00     0.045 C 
ENDBRANCH   1   6
TORSDOF 3
ENDMDL
MODEL 3
REMARK VINA RESULT:      -4.2      2.035      2.846
REMARK  3 active torsions:
REMARK  status: ('A' for Active; 'I' for Inactive)
REMARK    1  A    between atoms: C1_1  and  C5_5 
REMARK    2  A    between atoms: C1_1  and  O8_8 
REMARK    3  A    between atoms: C6_6  and  O8_8 
ROOT
HETATM    1  O8  UNL     1     -33.882   7.824   3.662  1.00 20.00    -0.310 OA
ENDROOT
BRANCH   1   2
HETATM    2  C1  UNL     1     -34.070   6.964   4.710  1.00 20.00     0.273 C 
HETATM    3  O7  UNL     1     -33.569   7.076   5.819  1.00 20.00    -0.264 OA
BRANCH   2   4
HETATM    4  C5  UNL     1     -34.994   5.863   4.264  1.00 20.00     0.225 C 
HETATM    5 CL9  UNL     1     -34.492   4.319   4.973  1.00 20.00    -0.120 Cl
ENDBRANCH   2   4
ENDBRANCH   1   2
BRANCH   1   6
HETATM    6  C6  UNL     1     -32.672   7.646   2.924  1.00 20.00     0.060 C 
HETATM    7  C2  UNL     1     -32.523   6.164   2.587  1.00 20.00     0.045 C 
HETATM    8  C3  UNL     1     -32.785   8.478   1.649  1.00 20.00     0.045 C 
HETATM    9  C4  UNL     1     -31.504   8.131   3.782  1.00 20.00     0.045 C 
ENDBRANCH   1   6
TORSDOF 3
ENDMDL
MODEL 4
REMARK VINA RESULT:      -4.2      2.028      3.168
REMARK  3 active torsions:
REMARK  status: ('A' for Active; 'I' for Inactive)
REMARK    1  A    between atoms: C1_1  and  C5_5 
REMARK    2  A    between atoms: C1_1  and  O8_8 
REMARK    3  A    between atoms: C6_6  and  O8_8 
ROOT
HETATM    1  O8  UNL     1     -33.869   7.847   3.679  1.00 20.00    -0.310 OA
ENDROOT
BRANCH   1   2
HETATM    2  C1  UNL     1     -34.055   6.970   4.714  1.00 20.00     0.273 C 
HETATM    3  O7  UNL     1     -33.555   7.067   5.825  1.00 20.00    -0.264 OA
BRANCH   2   4
HETATM    4  C5  UNL     1     -34.978   5.875   4.251  1.00 20.00     0.225 C 
HETATM    5 CL9  UNL     1     -34.503   4.329   4.975  1.00 20.00    -0.120 Cl
ENDBRANCH   2   4
ENDBRANCH   1   2
BRANCH   1   6
HETATM    6  C6  UNL     1     -32.675   7.660   2.918  1.00 20.00     0.060 C 
HETATM    7  C2  UNL     1     -32.777   8.495   1.642  1.00 20.00     0.045 C 
HETATM    8  C3  UNL     1     -31.504   8.133   3.776  1.00 20.00     0.045 C 
HETATM    9  C4  UNL     1     -32.535   6.175   2.588  1.00 20.00     0.045 C 
ENDBRANCH   1   6
TORSDOF 3
ENDMDL
MODEL 5
REMARK VINA RESULT:      -4.2      2.026      2.919
REMARK  3 active torsions:
REMARK  status: ('A' for Active; 'I' for Inactive)
REMARK    1  A    between atoms: C1_1  and  C5_5 
REMARK    2  A    between atoms: C1_1  and  O8_8 
REMARK    3  A    between atoms: C6_6  and  O8_8 
ROOT
HETATM    1  O8  UNL     1     -33.887   7.824   3.647  1.00 20.00    -0.310 OA
ENDROOT
BRANCH   1   2
HETATM    2  C1  UNL     1     -34.066   6.966   4.698  1.00 20.00     0.273 C 
HETATM    3  O7  UNL     1     -33.558   7.084   5.804  1.00 20.00    -0.264 OA
BRANCH   2   4
HETATM    4  C5  UNL     1     -34.991   5.862   4.262  1.00 20.00     0.225 C 
HETATM    5 CL9  UNL     1     -34.489   4.324   4.986  1.00 20.00    -0.120 Cl
ENDBRANCH   2   4
ENDBRANCH   1   2
BRANCH   1   6
HETATM    6  C6  UNL     1     -32.673   7.658   2.913  1.00 20.00     0.060 C 
HETATM    7  C2  UNL     1     -31.510   8.129   3.786  1.00 20.00     0.045 C 
HETATM    8  C3  UNL     1     -32.532   6.174   2.586  1.00 20.00     0.045 C 
HETATM    9  C4  UNL     1     -32.763   8.486   1.632  1.00 20.00     0.045 C 
ENDBRANCH   1   6
TORSDOF 3
ENDMDL
MODEL 6
REMARK VINA RESULT:      -4.2      2.203      3.957
REMARK  3 active torsions:
REMARK  status: ('A' for Active; 'I' for Inactive)
REMARK    1  A    between atoms: C1_1  and  C5_5 
REMARK    2  A    between atoms: C1_1  and  O8_8 
REMARK    3  A    between atoms: C6_6  and  O8_8 
ROOT
HETATM    1  O8  UNL     1     -33.666   7.857   3.066  1.00 20.00    -0.310 OA
ENDROOT
BRANCH   1   2
HETATM    2  C1  UNL     1     -32.369   8.214   2.820  1.00 20.00     0.273 C 
HETATM    3  O7  UNL     1     -31.463   8.210   3.642  1.00 20.00    -0.264 OA
BRANCH   2   4
HETATM    4  C5  UNL     1     -32.248   8.608   1.373  1.00 20.00     0.225 C 
HETATM    5 CL9  UNL     1     -32.678  10.314   1.166  1.00 20.00    -0.120 Cl
ENDBRANCH   2   4
ENDBRANCH   1   2
BRANCH   1   6
HETATM    6  C6  UNL     1     -33.849   6.599   3.718  1.00 20.00     0.060 C 
HETATM    7  C2  UNL     1     -35.297   6.154   3.518  1.00 20.00     0.045 C 
HETATM    8  C3  UNL     1     -32.888   5.603   3.075  1.00 20.00     0.045 C 
HETATM    9  C4  UNL     1     -33.533   6.771   5.204  1.00 20.00     0.045 C 
ENDBRANCH   1   6
TORSDOF 3
ENDMDL
MODEL 7
REMARK VINA RESULT:      -4.2      2.222      3.980
REMARK  3 active torsions:
REMARK  status: ('A' for Active; 'I' for Inactive)
REMARK    1  A    between atoms: C1_1  and  C5_5 
REMARK    2  A    between atoms: C1_1  and  O8_8 
REMARK    3  A    between atoms: C6_6  and  O8_8 
ROOT
HETATM    1  O8  UNL     1     -33.685   7.894   3.140  1.00 20.00    -0.310 OA
ENDROOT
BRANCH   1   2
HETATM    2  C1  UNL     1     -32.398   8.228   2.819  1.00 20.00     0.273 C 
HETATM    3  O7  UNL     1     -31.451   8.228   3.592  1.00 20.00    -0.264 OA
BRANCH   2   4
HETATM    4  C5  UNL     1     -32.349   8.592   1.359  1.00 20.00     0.225 C 
HETATM    5 CL9  UNL     1     -32.600  10.334   1.155  1.00 20.00    -0.120 Cl
ENDBRANCH   2   4
ENDBRANCH   1   2
BRANCH   1   6
HETATM    6  C6  UNL     1     -33.861   6.607   3.734  1.00 20.00     0.060 C 
HETATM    7  C2  UNL     1     -32.898   5.627   3.065  1.00 20.00     0.045 C 
HETATM    8  C3  UNL     1     -33.544   6.740   5.221  1.00 20.00     0.045 C 
HETATM    9  C4  UNL     1     -35.311   6.171   3.530  1.00 20.00     0.045 C 
ENDBRANCH   1   6
TORSDOF 3
ENDMDL
MODEL 8
REMARK VINA RESULT:      -4.2      2.593      4.479
REMARK  3 active torsions:
REMARK  status: ('A' for Active; 'I' for Inactive)
REMARK    1  A    between atoms: C1_1  and  C5_5 
REMARK    2  A    between atoms: C1_1  and  O8_8 
REMARK    3  A    between atoms: C6_6  and  O8_8 
ROOT
HETATM    1  O8  UNL     1     -33.105   5.997   3.471  1.00 20.00    -0.310 OA
ENDROOT
BRANCH   1   2
HETATM    2  C1  UNL     1     -32.671   7.292   3.383  1.00 20.00     0.273 C 
HETATM    3  O7  UNL     1     -32.147   7.927   4.286  1.00 20.00    -0.264 OA
BRANCH   2   4
HETATM    4  C5  UNL     1     -32.947   7.795   1.992  1.00 20.00     0.225 C 
HETATM    5 CL9  UNL     1     -32.144   9.353   1.735  1.00 20.00    -0.120 Cl
ENDBRANCH   2   4
ENDBRANCH   1   2
BRANCH   1   6
HETATM    6  C6  UNL     1     -34.249   5.782   4.298  1.00 20.00     0.060 C 
HETATM    7  C2  UNL     1     -35.496   6.208   3.524  1.00 20.00     0.045 C 
HETATM    8  C3  UNL     1     -34.305   4.293   4.629  1.00 20.00     0.045 C 
HETATM    9  C4  UNL     1     -34.090   6.611   5.572  1.00 20.00     0.045 C 
ENDBRANCH   1   6
TORSDOF 3
ENDMDL
MODEL 9
REMARK VINA RESULT:      -4.1      2.830      4.824
REMARK  3 active torsions:
REMARK  status: ('A' for Active; 'I' for Inactive)
REMARK    1  A    between atoms: C1_1  and  C5_5 
REMARK    2  A    between atoms: C1_1  and  O8_8 
REMARK    3  A    between atoms: C6_6  and  O8_8 
ROOT
HETATM    1  O8  UNL     1     -33.205   6.273   4.213  1.00 20.00    -0.310 OA
ENDROOT
BRANCH   1   2
HETATM    2  C1  UNL     1     -32.935   6.195   2.874  1.00 20.00     0.273 C 
HETATM    3  O7  UNL     1     -32.925   5.168   2.211  1.00 20.00    -0.264 OA
BRANCH   2   4
HETATM    4  C5  UNL     1     -32.657   7.582   2.361  1.00 20.00     0.225 C 
HETATM    5 CL9  UNL     1     -31.463   8.387   3.395  1.00 20.00    -0.120 Cl
ENDBRANCH   2   4
ENDBRANCH   1   2
BRANCH   1   6
HETATM    6  C6  UNL     1     -34.418   5.648   4.638  1.00 20.00     0.060 C 
HETATM    7  C2  UNL     1     -34.222   4.133   4.601  1.00 20.00     0.045 C 
HETATM    8  C3  UNL     1     -34.703   6.118   6.061  1.00 20.00     0.045 C 
HETATM    9  C4  UNL     1     -35.541   6.075   3.694  1.00 20.00     0.045 C 
ENDBRANCH   1   6
TORSDOF 3
ENDMDL
