MODEL 1
REMARK VINA RESULT:      -6.3      0.000      0.000
REMARK  2 active torsions:
REMARK  status: ('A' for Active; 'I' for Inactive)
REMARK    1  A    between atoms: C1_1  and  C4_4 
REMARK    2  A    between atoms: C5_5  and  C8_8 
ROOT
HETATM    1  C2  UNL     1     -33.698   5.790   2.644  1.00 20.00     0.020 C 
HETATM    2  C3  UNL     1     -33.787   7.137   4.293  1.00 20.00     0.020 C 
HETATM    3  C4  UNL     1     -34.618   5.896   3.885  1.00 20.00     0.087 C 
HETATM    4  C5  UNL     1     -33.441   7.311   2.792  1.00 20.00    -0.010 C 
ENDROOT
BRANCH   3   5
HETATM    5  C1  UNL     1     -34.560   4.748   4.826  1.00 20.00     0.177 C 
HETATM    6  O9  UNL     1     -34.331   3.626   4.294  1.00 20.00    -0.648 OA
HETATM    7  O10 UNL     1     -34.748   5.046   6.039  1.00 20.00    -0.648 OA
ENDBRANCH   3   5
BRANCH   4   8
HETATM    8  C8  UNL     1     -32.044   7.799   2.469  1.00 20.00    -0.019 C 
HETATM    9  C6  UNL     1     -32.071   8.836   1.342  1.00 20.00     0.010 C 
HETATM   10  C7  UNL     1     -31.368   8.387   3.711  1.00 20.00     0.010 C 
ENDBRANCH   4   8
TORSDOF 2
ENDMDL
MODEL 2
REMARK VINA RESULT:      -5.6      3.310      4.752
REMARK  2 active torsions:
REMARK  status: ('A' for Active; 'I' for Inactive)
REMARK    1  A    between atoms: C1_1  and  C4_4 
REMARK    2  A    between atoms: C5_5  and  C8_8 
ROOT
HETATM    1  C2  UNL     1     -33.308   7.094   2.158  1.00 20.00     0.020 C 
HETATM    2  C3  UNL     1     -32.163   8.188   3.584  1.00 20.00     0.020 C 
HETATM    3  C4  UNL     1     -32.021   7.950   2.061  1.00 20.00     0.087 C 
HETATM    4  C5  UNL     1     -32.952   6.856   3.648  1.00 20.00    -0.010 C 
ENDROOT
BRANCH   3   5
HETATM    5  C1  UNL     1     -32.121   9.164   1.209  1.00 20.00     0.177 C 
HETATM    6  O9  UNL     1     -32.462  10.219   1.813  1.00 20.00    -0.648 OA
HETATM    7  O10 UNL     1     -31.850   8.978  -0.010  1.00 20.00    -0.648 OA
ENDBRANCH   3   5
BRANCH   4   8
HETATM    8  C8  UNL     1     -34.111   6.799   4.622  1.00 20.00    -0.019 C 
HETATM    9  C6  UNL     1     -34.681   5.380   4.715  1.00 20.00     0.010 C 
HETATM   10  C7  UNL     1     -33.686   7.288   6.009  1.00 20.00     0.010 C 
ENDBRANCH   4   8
TORSDOF 2
ENDMDL
MODEL 3
REMARK VINA RESULT:      -5.2      2.908      4.578
REMARK  2 active torsions:
REMARK  status: ('A' for Active; 'I' for Inactive)
REMARK    1  A    between atoms: C1_1  and  C4_4 
REMARK    2  A    between atoms: C5_5  and  C8_8 
ROOT
HETATM    1  C2  UNL     1     -33.691   7.664   3.824  1.00 20.00     0.020 C 
HETATM    2  C3  UNL     1     -32.928   6.093   2.604  1.00 20.00     0.020 C 
HETATM    3  C4  UNL     1     -33.094   7.618   2.396  1.00 20.00     0.087 C 
HETATM    4  C5  UNL     1     -34.086   6.178   3.631  1.00 20.00    -0.010 C 
ENDROOT
BRANCH   3   5
HETATM    5  C1  UNL     1     -31.833   8.381   2.204  1.00 20.00     0.177 C 
HETATM    6  O9  UNL     1     -31.675   8.881   1.056  1.00 20.00    -0.648 OA
HETATM    7  O10 UNL     1     -31.083   8.429   3.219  1.00 20.00    -0.648 OA
ENDBRANCH   3   5
BRANCH   4   8
HETATM    8  C8  UNL     1     -33.980   5.283   4.849  1.00 20.00    -0.019 C 
HETATM    9  C6  UNL     1     -34.847   5.812   5.995  1.00 20.00     0.010 C 
HETATM   10  C7  UNL     1     -34.377   3.844   4.508  1.00 20.00     0.010 C 
ENDBRANCH   4   8
TORSDOF 2
ENDMDL
MODEL 4
REMARK VINA RESULT:      -5.0      1.246      1.902
REMARK  2 active torsions:
REMARK  status: ('A' for Active; 'I' for Inactive)
REMARK    1  A    between atoms: C1_1  and  C4_4 
REMARK    2  A    between atoms: C5_5  and  C8_8 
ROOT
HETATM    1  C2  UNL     1     -33.707   7.831   3.666  1.00 20.00     0.020 C 
HETATM    2  C3  UNL     1     -32.743   6.286   2.561  1.00 20.00     0.020 C 
HETATM    3  C4  UNL     1     -33.429   6.334   3.948  1.00 20.00     0.087 C 
HETATM    4  C5  UNL     1     -32.485   7.806   2.713  1.00 20.00    -0.010 C 
ENDROOT
BRANCH   3   5
HETATM    5  C1  UNL     1     -34.633   5.476   4.099  1.00 20.00     0.177 C 
HETATM    6  O9  UNL     1     -34.433   4.360   4.654  1.00 20.00    -0.648 OA
HETATM    7  O10 UNL     1     -35.701   5.979   3.651  1.00 20.00    -0.648 OA
ENDBRANCH   3   5
BRANCH   4   8
HETATM    8  C8  UNL     1     -32.588   8.642   1.454  1.00 20.00    -0.019 C 
HETATM    9  C6  UNL     1     -32.832  10.116   1.792  1.00 20.00     0.010 C 
HETATM   10  C7  UNL     1     -31.328   8.499   0.596  1.00 20.00     0.010 C 
ENDBRANCH   4   8
TORSDOF 2
ENDMDL
MODEL 5
REMARK VINA RESULT:      -5.0     11.560     12.018
REMARK  2 active torsions:
REMARK  status: ('A' for Active; 'I' for Inactive)
REMARK    1  A    between atoms: C1_1  and  C4_4 
REMARK    2  A    between atoms: C5_5  and  C8_8 
ROOT
HETATM    1  C2  UNL     1     -34.574  14.969  -3.987  1.00 20.00     0.020 C 
HETATM    2  C3  UNL     1     -36.432  15.993  -3.792  1.00 20.00     0.020 C 
HETATM    3  C4  UNL     1     -35.850  15.036  -4.860  1.00 20.00     0.087 C 
HETATM    4  C5  UNL     1     -34.971  16.357  -3.424  1.00 20.00    -0.010 C 
ENDROOT
BRANCH   3   5
HETATM    5  C1  UNL     1     -36.576  13.752  -5.035  1.00 20.00     0.177 C 
HETATM    6  O9  UNL     1     -35.844  12.740  -5.221  1.00 20.00    -0.648 OA
HETATM    7  O10 UNL     1     -37.834  13.842  -4.973  1.00 20.00    -0.648 OA
ENDBRANCH   3   5
BRANCH   4   8
HETATM    8  C8  UNL     1     -34.681  16.604  -1.958  1.00 20.00    -0.019 C 
HETATM    9  C6  UNL     1     -33.367  17.371  -1.779  1.00 20.00     0.010 C 
HETATM   10  C7  UNL     1     -35.831  17.365  -1.292  1.00 20.00     0.010 C 
ENDBRANCH   4   8
TORSDOF 2
ENDMDL
MODEL 6
REMARK VINA RESULT:      -4.9      1.556      2.822
REMARK  2 active torsions:
REMARK  status: ('A' for Active; 'I' for Inactive)
REMARK    1  A    between atoms: C1_1  and  C4_4 
REMARK    2  A    between atoms: C5_5  and  C8_8 
ROOT
HETATM    1  C2  UNL     1     -32.312   8.583   3.369  1.00 20.00     0.020 C 
HETATM    2  C3  UNL     1     -33.464   7.198   2.231  1.00 20.00     0.020 C 
HETATM    3  C4  UNL     1     -32.745   7.115   3.600  1.00 20.00     0.087 C 
HETATM    4  C5  UNL     1     -32.458   8.314   1.849  1.00 20.00    -0.010 C 
ENDROOT
BRANCH   3   5
HETATM    5  C1  UNL     1     -33.625   6.884   4.774  1.00 20.00     0.177 C 
HETATM    6  O9  UNL     1     -33.298   7.505   5.824  1.00 20.00    -0.648 OA
HETATM    7  O10 UNL     1     -34.588   6.093   4.567  1.00 20.00    -0.648 OA
ENDBRANCH   3   5
BRANCH   4   8
HETATM    8  C8  UNL     1     -32.994   9.452   1.006  1.00 20.00    -0.019 C 
HETATM    9  C6  UNL     1     -32.281  10.766   1.340  1.00 20.00     0.010 C 
HETATM   10  C7  UNL     1     -32.854   9.141  -0.487  1.00 20.00     0.010 C 
ENDBRANCH   4   8
TORSDOF 2
ENDMDL
MODEL 7
REMARK VINA RESULT:      -4.7     11.700     12.208
REMARK  2 active torsions:
REMARK  status: ('A' for Active; 'I' for Inactive)
REMARK    1  A    between atoms: C1_1  and  C4_4 
REMARK    2  A    between atoms: C5_5  and  C8_8 
ROOT
HETATM    1  C2  UNL     1     -33.841  15.385  -4.527  1.00 20.00     0.020 C 
HETATM    2  C3  UNL     1     -35.945  15.397  -4.190  1.00 20.00     0.020 C 
HETATM    3  C4  UNL     1     -35.061  14.981  -5.391  1.00 20.00     0.087 C 
HETATM    4  C5  UNL     1     -34.791  16.336  -3.755  1.00 20.00    -0.010 C 
ENDROOT
BRANCH   3   5
HETATM    5  C1  UNL     1     -35.130  13.547  -5.773  1.00 20.00     0.177 C 
HETATM    6  O9  UNL     1     -35.972  12.858  -5.133  1.00 20.00    -0.648 OA
HETATM    7  O10 UNL     1     -34.334  13.206  -6.692  1.00 20.00    -0.648 OA
ENDBRANCH   3   5
BRANCH   4   8
HETATM    8  C8  UNL     1     -34.552  16.474  -2.266  1.00 20.00    -0.019 C 
HETATM    9  C6  UNL     1     -33.297  17.307  -1.986  1.00 20.00     0.010 C 
HETATM   10  C7  UNL     1     -35.765  17.098  -1.571  1.00 20.00     0.010 C 
ENDBRANCH   4   8
TORSDOF 2
ENDMDL
MODEL 8
REMARK VINA RESULT:      -4.5     11.375     11.977
REMARK  2 active torsions:
REMARK  status: ('A' for Active; 'I' for Inactive)
REMARK    1  A    between atoms: C1_1  and  C4_4 
REMARK    2  A    between atoms: C5_5  and  C8_8 
ROOT
HETATM    1  C2  UNL     1     -33.633  16.088  -3.505  1.00 20.00     0.020 C 
HETATM    2  C3  UNL     1     -35.650  16.184  -2.824  1.00 20.00     0.020 C 
HETATM    3  C4  UNL     1     -34.990  15.689  -4.134  1.00 20.00     0.087 C 
HETATM    4  C5  UNL     1     -34.416  17.102  -2.632  1.00 20.00    -0.010 C 
ENDROOT
BRANCH   3   5
HETATM    5  C1  UNL     1     -35.158  14.242  -4.430  1.00 20.00     0.177 C 
HETATM    6  O9  UNL     1     -36.244  13.930  -4.994  1.00 20.00    -0.648 OA
HETATM    7  O10 UNL     1     -34.188  13.514  -4.079  1.00 20.00    -0.648 OA
ENDBRANCH   3   5
BRANCH   4   8
HETATM    8  C8  UNL     1     -33.927  17.296  -1.212  1.00 20.00    -0.019 C 
HETATM    9  C6  UNL     1     -32.726  18.245  -1.169  1.00 20.00     0.010 C 
HETATM   10  C7  UNL     1     -35.049  17.823  -0.313  1.00 20.00     0.010 C 
ENDBRANCH   4   8
TORSDOF 2
ENDMDL
MODEL 9
REMARK VINA RESULT:      -4.5     12.020     12.754
REMARK  2 active torsions:
REMARK  status: ('A' for Active; 'I' for Inactive)
REMARK    1  A    between atoms: C1_1  and  C4_4 
REMARK    2  A    between atoms: C5_5  and  C8_8 
ROOT
HETATM    1  C2  UNL     1     -33.845  18.445   0.536  1.00 20.00     0.020 C 
HETATM    2  C3  UNL     1     -32.152  18.279  -0.747  1.00 20.00     0.020 C 
HETATM    3  C4  UNL     1     -32.447  19.110   0.525  1.00 20.00     0.087 C 
HETATM    4  C5  UNL     1     -33.682  18.240  -0.992  1.00 20.00    -0.010 C 
ENDROOT
BRANCH   3   5
HETATM    5  C1  UNL     1     -31.587  18.813   1.699  1.00 20.00     0.177 C 
HETATM    6  O9  UNL     1     -30.350  18.995   1.522  1.00 20.00    -0.648 OA
HETATM    7  O10 UNL     1     -32.209  18.418   2.725  1.00 20.00    -0.648 OA
ENDBRANCH   3   5
BRANCH   4   8
HETATM    8  C8  UNL     1     -34.246  16.958  -1.570  1.00 20.00    -0.019 C 
HETATM    9  C6  UNL     1     -35.775  17.015  -1.643  1.00 20.00     0.010 C 
HETATM   10  C7  UNL     1     -33.662  16.679  -2.957  1.00 20.00     0.010 C 
ENDBRANCH   4   8
TORSDOF 2
ENDMDL
