MODEL 1
REMARK VINA RESULT:      -5.7      0.000      0.000
REMARK  2 active torsions:
REMARK  status: ('A' for Active; 'I' for Inactive)
REMARK    1  A    between atoms: C1_1  and  C2_2 
REMARK    2  A    between atoms: C1_1  and  C3_3 
ROOT
HETATM    1  C1  UNL     1     -33.715   6.378   4.184  1.00 20.00     0.234 C 
ENDROOT
BRANCH   1   2
HETATM    2  C2  UNL     1     -34.814   5.423   4.594  1.00 20.00     0.396 C 
HETATM    3  F4  UNL     1     -34.506   4.149   4.271  1.00 20.00    -0.171 F 
HETATM    4  F5  UNL     1     -35.007   5.470   5.931  1.00 20.00    -0.171 F 
HETATM    5  F6  UNL     1     -35.985   5.733   4.000  1.00 20.00    -0.171 F 
ENDBRANCH   1   2
BRANCH   1   6
HETATM    6  C3  UNL     1     -33.244   6.146   2.766  1.00 20.00     0.396 C 
HETATM    7  F7  UNL     1     -32.441   7.157   2.363  1.00 20.00    -0.171 F 
HETATM    8  F8  UNL     1     -34.282   6.080   1.906  1.00 20.00    -0.171 F 
HETATM    9  F9  UNL     1     -32.540   4.999   2.660  1.00 20.00    -0.171 F 
ENDBRANCH   1   6
TORSDOF 2
ENDMDL
MODEL 2
REMARK VINA RESULT:      -5.7      0.033      3.330
REMARK  2 active torsions:
REMARK  status: ('A' for Active; 'I' for Inactive)
REMARK    1  A    between atoms: C1_1  and  C2_2 
REMARK    2  A    between atoms: C1_1  and  C3_3 
ROOT
HETATM    1  C1  UNL     1     -33.720   6.363   4.182  1.00 20.00     0.234 C 
ENDROOT
BRANCH   1   2
HETATM    2  C2  UNL     1     -33.249   6.140   2.762  1.00 20.00     0.396 C 
HETATM    3  F4  UNL     1     -34.287   6.068   1.903  1.00 20.00    -0.171 F 
HETATM    4  F5  UNL     1     -32.457   7.160   2.361  1.00 20.00    -0.171 F 
HETATM    5  F6  UNL     1     -32.535   5.000   2.651  1.00 20.00    -0.171 F 
ENDBRANCH   1   2
BRANCH   1   6
HETATM    6  C3  UNL     1     -34.808   5.394   4.590  1.00 20.00     0.396 C 
HETATM    7  F7  UNL     1     -35.981   5.728   4.005  1.00 20.00    -0.171 F 
HETATM    8  F8  UNL     1     -35.000   5.402   5.926  1.00 20.00    -0.171 F 
HETATM    9  F9  UNL     1     -34.512   4.131   4.218  1.00 20.00    -0.171 F 
ENDBRANCH   1   6
TORSDOF 2
ENDMDL
MODEL 3
REMARK VINA RESULT:      -5.6      0.033      1.251
REMARK  2 active torsions:
REMARK  status: ('A' for Active; 'I' for Inactive)
REMARK    1  A    between atoms: C1_1  and  C2_2 
REMARK    2  A    between atoms: C1_1  and  C3_3 
ROOT
HETATM    1  C1  UNL     1     -33.721   6.362   4.182  1.00 20.00     0.234 C 
ENDROOT
BRANCH   1   2
HETATM    2  C2  UNL     1     -34.808   5.393   4.590  1.00 20.00     0.396 C 
HETATM    3  F4  UNL     1     -35.002   5.402   5.926  1.00 20.00    -0.171 F 
HETATM    4  F5  UNL     1     -35.981   5.725   4.005  1.00 20.00    -0.171 F 
HETATM    5  F6  UNL     1     -34.509   4.130   4.220  1.00 20.00    -0.171 F 
ENDBRANCH   1   2
BRANCH   1   6
HETATM    6  C3  UNL     1     -33.250   6.140   2.762  1.00 20.00     0.396 C 
HETATM    7  F7  UNL     1     -32.456   7.160   2.363  1.00 20.00    -0.171 F 
HETATM    8  F8  UNL     1     -34.288   6.069   1.903  1.00 20.00    -0.171 F 
HETATM    9  F9  UNL     1     -32.536   5.000   2.650  1.00 20.00    -0.171 F 
ENDBRANCH   1   6
TORSDOF 2
ENDMDL
MODEL 4
REMARK VINA RESULT:      -5.6      0.027      1.782
REMARK  2 active torsions:
REMARK  status: ('A' for Active; 'I' for Inactive)
REMARK    1  A    between atoms: C1_1  and  C2_2 
REMARK    2  A    between atoms: C1_1  and  C3_3 
ROOT
HETATM    1  C1  UNL     1     -33.725   6.403   4.184  1.00 20.00     0.234 C 
ENDROOT
BRANCH   1   2
HETATM    2  C2  UNL     1     -34.804   5.426   4.596  1.00 20.00     0.396 C 
HETATM    3  F4  UNL     1     -35.003   5.445   5.931  1.00 20.00    -0.171 F 
HETATM    4  F5  UNL     1     -35.977   5.740   4.003  1.00 20.00    -0.171 F 
HETATM    5  F6  UNL     1     -34.490   4.163   4.238  1.00 20.00    -0.171 F 
ENDBRANCH   1   2
BRANCH   1   6
HETATM    6  C3  UNL     1     -33.242   6.171   2.770  1.00 20.00     0.396 C 
HETATM    7  F7  UNL     1     -34.291   6.080   1.921  1.00 20.00    -0.171 F 
HETATM    8  F8  UNL     1     -32.535   5.026   2.671  1.00 20.00    -0.171 F 
HETATM    9  F9  UNL     1     -32.458   7.184   2.343  1.00 20.00    -0.171 F 
ENDBRANCH   1   6
TORSDOF 2
ENDMDL
MODEL 5
REMARK VINA RESULT:      -5.6      0.049      3.256
REMARK  2 active torsions:
REMARK  status: ('A' for Active; 'I' for Inactive)
REMARK    1  A    between atoms: C1_1  and  C2_2 
REMARK    2  A    between atoms: C1_1  and  C3_3 
ROOT
HETATM    1  C1  UNL     1     -33.729   6.402   4.183  1.00 20.00     0.234 C 
ENDROOT
BRANCH   1   2
HETATM    2  C2  UNL     1     -33.245   6.186   2.766  1.00 20.00     0.396 C 
HETATM    3  F4  UNL     1     -32.518   5.054   2.660  1.00 20.00    -0.171 F 
HETATM    4  F5  UNL     1     -34.293   6.079   1.920  1.00 20.00    -0.171 F 
HETATM    5  F6  UNL     1     -32.481   7.215   2.343  1.00 20.00    -0.171 F 
ENDBRANCH   1   2
BRANCH   1   6
HETATM    6  C3  UNL     1     -34.798   5.411   4.587  1.00 20.00     0.396 C 
HETATM    7  F7  UNL     1     -35.978   5.726   4.007  1.00 20.00    -0.171 F 
HETATM    8  F8  UNL     1     -34.987   5.407   5.923  1.00 20.00    -0.171 F 
HETATM    9  F9  UNL     1     -34.479   4.156   4.207  1.00 20.00    -0.171 F 
ENDBRANCH   1   6
TORSDOF 2
ENDMDL
MODEL 6
REMARK VINA RESULT:      -5.6      0.040      3.256
REMARK  2 active torsions:
REMARK  status: ('A' for Active; 'I' for Inactive)
REMARK    1  A    between atoms: C1_1  and  C2_2 
REMARK    2  A    between atoms: C1_1  and  C3_3 
ROOT
HETATM    1  C1  UNL     1     -33.721   6.400   4.187  1.00 20.00     0.234 C 
ENDROOT
BRANCH   1   2
HETATM    2  C2  UNL     1     -33.253   6.190   2.765  1.00 20.00     0.396 C 
HETATM    3  F4  UNL     1     -32.477   7.210   2.344  1.00 20.00    -0.171 F 
HETATM    4  F5  UNL     1     -32.524   5.056   2.670  1.00 20.00    -0.171 F 
HETATM    5  F6  UNL     1     -34.295   6.079   1.913  1.00 20.00    -0.171 F 
ENDBRANCH   1   2
BRANCH   1   6
HETATM    6  C3  UNL     1     -34.801   5.422   4.593  1.00 20.00     0.396 C 
HETATM    7  F7  UNL     1     -35.974   5.739   3.999  1.00 20.00    -0.171 F 
HETATM    8  F8  UNL     1     -35.003   5.435   5.928  1.00 20.00    -0.171 F 
HETATM    9  F9  UNL     1     -34.488   4.161   4.231  1.00 20.00    -0.171 F 
ENDBRANCH   1   6
TORSDOF 2
ENDMDL
MODEL 7
REMARK VINA RESULT:      -5.6      0.047      1.796
REMARK  2 active torsions:
REMARK  status: ('A' for Active; 'I' for Inactive)
REMARK    1  A    between atoms: C1_1  and  C2_2 
REMARK    2  A    between atoms: C1_1  and  C3_3 
ROOT
HETATM    1  C1  UNL     1     -33.723   6.388   4.187  1.00 20.00     0.234 C 
ENDROOT
BRANCH   1   2
HETATM    2  C2  UNL     1     -34.812   5.415   4.581  1.00 20.00     0.396 C 
HETATM    3  F4  UNL     1     -35.988   5.729   3.998  1.00 20.00    -0.171 F 
HETATM    4  F5  UNL     1     -34.487   4.161   4.196  1.00 20.00    -0.171 F 
HETATM    5  F6  UNL     1     -34.999   5.397   5.917  1.00 20.00    -0.171 F 
ENDBRANCH   1   2
BRANCH   1   6
HETATM    6  C3  UNL     1     -33.242   6.177   2.769  1.00 20.00     0.396 C 
HETATM    7  F7  UNL     1     -34.293   6.077   1.924  1.00 20.00    -0.171 F 
HETATM    8  F8  UNL     1     -32.517   5.045   2.656  1.00 20.00    -0.171 F 
HETATM    9  F9  UNL     1     -32.477   7.207   2.347  1.00 20.00    -0.171 F 
ENDBRANCH   1   6
TORSDOF 2
ENDMDL
MODEL 8
REMARK VINA RESULT:      -5.5      1.285      3.351
REMARK  2 active torsions:
REMARK  status: ('A' for Active; 'I' for Inactive)
REMARK    1  A    between atoms: C1_1  and  C2_2 
REMARK    2  A    between atoms: C1_1  and  C3_3 
ROOT
HETATM    1  C1  UNL     1     -33.580   5.750   3.400  1.00 20.00     0.234 C 
ENDROOT
BRANCH   1   2
HETATM    2  C2  UNL     1     -33.172   7.206   3.411  1.00 20.00     0.396 C 
HETATM    3  F4  UNL     1     -32.416   7.498   4.490  1.00 20.00    -0.171 F 
HETATM    4  F5  UNL     1     -32.446   7.502   2.311  1.00 20.00    -0.171 F 
HETATM    5  F6  UNL     1     -34.248   8.020   3.423  1.00 20.00    -0.171 F 
ENDBRANCH   1   2
BRANCH   1   6
HETATM    6  C3  UNL     1     -34.726   5.461   4.344  1.00 20.00     0.396 C 
HETATM    7  F7  UNL     1     -34.798   4.136   4.607  1.00 20.00    -0.171 F 
HETATM    8  F8  UNL     1     -35.908   5.838   3.815  1.00 20.00    -0.171 F 
HETATM    9  F9  UNL     1     -34.570   6.102   5.521  1.00 20.00    -0.171 F 
ENDBRANCH   1   6
TORSDOF 2
ENDMDL
MODEL 9
REMARK VINA RESULT:      -5.5      1.281      2.122
REMARK  2 active torsions:
REMARK  status: ('A' for Active; 'I' for Inactive)
REMARK    1  A    between atoms: C1_1  and  C2_2 
REMARK    2  A    between atoms: C1_1  and  C3_3 
ROOT
HETATM    1  C1  UNL     1     -33.569   5.738   3.355  1.00 20.00     0.234 C 
ENDROOT
BRANCH   1   2
HETATM    2  C2  UNL     1     -34.682   5.433   4.333  1.00 20.00     0.396 C 
HETATM    3  F4  UNL     1     -35.883   5.814   3.849  1.00 20.00    -0.171 F 
HETATM    4  F5  UNL     1     -34.743   4.106   4.580  1.00 20.00    -0.171 F 
HETATM    5  F6  UNL     1     -34.489   6.060   5.513  1.00 20.00    -0.171 F 
ENDBRANCH   1   2
BRANCH   1   6
HETATM    6  C3  UNL     1     -33.175   7.199   3.363  1.00 20.00     0.396 C 
HETATM    7  F7  UNL     1     -32.510   7.514   2.229  1.00 20.00    -0.171 F 
HETATM    8  F8  UNL     1     -32.367   7.486   4.405  1.00 20.00    -0.171 F 
HETATM    9  F9  UNL     1     -34.257   8.003   3.439  1.00 20.00    -0.171 F 
ENDBRANCH   1   6
TORSDOF 2
ENDMDL
