MODEL 1
REMARK VINA RESULT:      -4.6      0.000      0.000
REMARK  1 active torsions:
REMARK  status: ('A' for Active; 'I' for Inactive)
REMARK    1  A    between atoms: C4_4  and  C7_7 
ROOT
HETATM    1  C1  UNL     1     -34.728   5.287   5.380  1.00 20.00     0.135 A 
HETATM    2  C2  UNL     1     -34.417   4.812   4.126  1.00 20.00     0.136 A 
HETATM    3  C3  UNL     1     -33.525   7.186   4.959  1.00 20.00     0.143 A 
HETATM    4  C4  UNL     1     -33.212   6.709   3.704  1.00 20.00     0.055 A 
HETATM    5  N8  UNL     1     -34.287   6.483   5.818  1.00 20.00    -0.270 NA
HETATM    6  N9  UNL     1     -33.654   5.514   3.265  1.00 20.00    -0.262 NA
ENDROOT
BRANCH   4   7
HETATM    7  C7  UNL     1     -32.349   7.527   2.762  1.00 20.00     0.031 C 
HETATM    8  C5  UNL     1     -31.293   8.332   3.524  1.00 20.00     0.016 C 
HETATM    9  C6  UNL     1     -33.194   8.441   1.872  1.00 20.00     0.016 C 
ENDBRANCH   4   7
TORSDOF 1
ENDMDL
MODEL 2
REMARK VINA RESULT:      -4.6      0.962      1.601
REMARK  1 active torsions:
REMARK  status: ('A' for Active; 'I' for Inactive)
REMARK    1  A    between atoms: C4_4  and  C7_7 
ROOT
HETATM    1  C1  UNL     1     -34.785   5.665   5.370  1.00 20.00     0.135 A 
HETATM    2  C2  UNL     1     -34.032   6.745   5.774  1.00 20.00     0.136 A 
HETATM    3  C3  UNL     1     -33.933   5.862   3.256  1.00 20.00     0.143 A 
HETATM    4  C4  UNL     1     -33.181   6.944   3.661  1.00 20.00     0.055 A 
HETATM    5  N8  UNL     1     -34.748   5.204   4.103  1.00 20.00    -0.270 NA
HETATM    6  N9  UNL     1     -33.217   7.404   4.927  1.00 20.00    -0.262 NA
ENDROOT
BRANCH   4   7
HETATM    7  C7  UNL     1     -32.275   7.662   2.679  1.00 20.00     0.031 C 
HETATM    8  C5  UNL     1     -31.183   8.458   3.399  1.00 20.00     0.016 C 
HETATM    9  C6  UNL     1     -33.070   8.562   1.731  1.00 20.00     0.016 C 
ENDBRANCH   4   7
TORSDOF 1
ENDMDL
MODEL 3
REMARK VINA RESULT:      -4.4      1.392      3.542
REMARK  1 active torsions:
REMARK  status: ('A' for Active; 'I' for Inactive)
REMARK    1  A    between atoms: C4_4  and  C7_7 
ROOT
HETATM    1  C1  UNL     1     -31.787   8.324   2.892  1.00 20.00     0.135 A 
HETATM    2  C2  UNL     1     -32.515   7.479   2.085  1.00 20.00     0.136 A 
HETATM    3  C3  UNL     1     -32.862   7.493   4.732  1.00 20.00     0.143 A 
HETATM    4  C4  UNL     1     -33.591   6.648   3.923  1.00 20.00     0.055 A 
HETATM    5  N8  UNL     1     -31.948   8.346   4.231  1.00 20.00    -0.270 NA
HETATM    6  N9  UNL     1     -33.430   6.625   2.586  1.00 20.00    -0.262 NA
ENDROOT
BRANCH   4   7
HETATM    7  C7  UNL     1     -34.614   5.701   4.523  1.00 20.00     0.031 C 
HETATM    8  C5  UNL     1     -34.748   5.901   6.034  1.00 20.00     0.016 C 
HETATM    9  C6  UNL     1     -34.293   4.241   4.193  1.00 20.00     0.016 C 
ENDBRANCH   4   7
TORSDOF 1
ENDMDL
MODEL 4
REMARK VINA RESULT:      -4.4      1.414      3.854
REMARK  1 active torsions:
REMARK  status: ('A' for Active; 'I' for Inactive)
REMARK    1  A    between atoms: C4_4  and  C7_7 
ROOT
HETATM    1  C1  UNL     1     -31.765   8.325   2.892  1.00 20.00     0.135 A 
HETATM    2  C2  UNL     1     -32.016   8.312   4.246  1.00 20.00     0.136 A 
HETATM    3  C3  UNL     1     -33.317   6.673   2.589  1.00 20.00     0.143 A 
HETATM    4  C4  UNL     1     -33.567   6.660   3.944  1.00 20.00     0.055 A 
HETATM    5  N8  UNL     1     -32.412   7.505   2.039  1.00 20.00    -0.270 NA
HETATM    6  N9  UNL     1     -32.921   7.480   4.796  1.00 20.00    -0.262 NA
ENDROOT
BRANCH   4   7
HETATM    7  C7  UNL     1     -34.594   5.708   4.528  1.00 20.00     0.031 C 
HETATM    8  C5  UNL     1     -34.742   5.899   6.040  1.00 20.00     0.016 C 
HETATM    9  C6  UNL     1     -34.268   4.251   4.192  1.00 20.00     0.016 C 
ENDBRANCH   4   7
TORSDOF 1
ENDMDL
MODEL 5
REMARK VINA RESULT:      -3.9     11.549     12.483
REMARK  1 active torsions:
REMARK  status: ('A' for Active; 'I' for Inactive)
REMARK    1  A    between atoms: C4_4  and  C7_7 
ROOT
HETATM    1  C1  UNL     1     -35.421  12.978  -6.725  1.00 20.00     0.135 A 
HETATM    2  C2  UNL     1     -34.488  13.890  -7.168  1.00 20.00     0.136 A 
HETATM    3  C3  UNL     1     -35.310  13.884  -4.628  1.00 20.00     0.143 A 
HETATM    4  C4  UNL     1     -34.376  14.796  -5.071  1.00 20.00     0.055 A 
HETATM    5  N8  UNL     1     -35.848  12.960  -5.447  1.00 20.00    -0.270 NA
HETATM    6  N9  UNL     1     -33.949  14.815  -6.349  1.00 20.00    -0.262 NA
ENDROOT
BRANCH   4   7
HETATM    7  C7  UNL     1     -33.790  15.822  -4.120  1.00 20.00     0.031 C 
HETATM    8  C5  UNL     1     -34.716  16.077  -2.928  1.00 20.00     0.016 C 
HETATM    9  C6  UNL     1     -33.454  17.130  -4.839  1.00 20.00     0.016 C 
ENDBRANCH   4   7
TORSDOF 1
ENDMDL
MODEL 6
REMARK VINA RESULT:      -3.9     11.354     12.039
REMARK  1 active torsions:
REMARK  status: ('A' for Active; 'I' for Inactive)
REMARK    1  A    between atoms: C4_4  and  C7_7 
ROOT
HETATM    1  C1  UNL     1     -36.358  13.787  -5.201  1.00 20.00     0.135 A 
HETATM    2  C2  UNL     1     -36.943  14.913  -4.665  1.00 20.00     0.136 A 
HETATM    3  C3  UNL     1     -34.392  14.312  -4.158  1.00 20.00     0.143 A 
HETATM    4  C4  UNL     1     -34.977  15.439  -3.623  1.00 20.00     0.055 A 
HETATM    5  N8  UNL     1     -35.072  13.467  -4.956  1.00 20.00    -0.270 NA
HETATM    6  N9  UNL     1     -36.264  15.759  -3.867  1.00 20.00    -0.262 NA
ENDROOT
BRANCH   4   7
HETATM    7  C7  UNL     1     -34.180  16.370  -2.729  1.00 20.00     0.031 C 
HETATM    8  C5  UNL     1     -35.015  16.864  -1.544  1.00 20.00     0.016 C 
HETATM    9  C6  UNL     1     -33.599  17.548  -3.515  1.00 20.00     0.016 C 
ENDBRANCH   4   7
TORSDOF 1
ENDMDL
MODEL 7
REMARK VINA RESULT:      -3.8     11.515     12.598
REMARK  1 active torsions:
REMARK  status: ('A' for Active; 'I' for Inactive)
REMARK    1  A    between atoms: C4_4  and  C7_7 
ROOT
HETATM    1  C1  UNL     1     -33.964  14.601  -6.150  1.00 20.00     0.135 A 
HETATM    2  C2  UNL     1     -33.378  15.844  -6.057  1.00 20.00     0.136 A 
HETATM    3  C3  UNL     1     -34.472  14.673  -3.922  1.00 20.00     0.143 A 
HETATM    4  C4  UNL     1     -33.885  15.917  -3.829  1.00 20.00     0.055 A 
HETATM    5  N8  UNL     1     -34.521  13.994  -5.083  1.00 20.00    -0.270 NA
HETATM    6  N9  UNL     1     -33.328  16.524  -4.895  1.00 20.00    -0.262 NA
ENDROOT
BRANCH   4   7
HETATM    7  C7  UNL     1     -33.846  16.653  -2.502  1.00 20.00     0.031 C 
HETATM    8  C5  UNL     1     -35.228  16.705  -1.847  1.00 20.00     0.016 C 
HETATM    9  C6  UNL     1     -33.260  18.058  -2.654  1.00 20.00     0.016 C 
ENDBRANCH   4   7
TORSDOF 1
ENDMDL
MODEL 8
REMARK VINA RESULT:      -3.8     11.785     12.252
REMARK  1 active torsions:
REMARK  status: ('A' for Active; 'I' for Inactive)
REMARK    1  A    between atoms: C4_4  and  C7_7 
ROOT
HETATM    1  C1  UNL     1     -37.872  14.470  -5.016  1.00 20.00     0.135 A 
HETATM    2  C2  UNL     1     -37.569  15.608  -4.304  1.00 20.00     0.136 A 
HETATM    3  C3  UNL     1     -35.668  13.857  -4.972  1.00 20.00     0.143 A 
HETATM    4  C4  UNL     1     -35.366  14.998  -4.260  1.00 20.00     0.055 A 
HETATM    5  N8  UNL     1     -36.926  13.574  -5.363  1.00 20.00    -0.270 NA
HETATM    6  N9  UNL     1     -36.311  15.893  -3.912  1.00 20.00    -0.262 NA
ENDROOT
BRANCH   4   7
HETATM    7  C7  UNL     1     -33.937  15.285  -3.838  1.00 20.00     0.031 C 
HETATM    8  C5  UNL     1     -33.861  16.487  -2.893  1.00 20.00     0.016 C 
HETATM    9  C6  UNL     1     -33.021  15.483  -5.047  1.00 20.00     0.016 C 
ENDBRANCH   4   7
TORSDOF 1
ENDMDL
MODEL 9
REMARK VINA RESULT:      -3.6     11.988     12.511
REMARK  1 active torsions:
REMARK  status: ('A' for Active; 'I' for Inactive)
REMARK    1  A    between atoms: C4_4  and  C7_7 
ROOT
HETATM    1  C1  UNL     1     -31.294  18.915   2.269  1.00 20.00     0.135 A 
HETATM    2  C2  UNL     1     -32.638  18.817   2.553  1.00 20.00     0.136 A 
HETATM    3  C3  UNL     1     -31.733  18.529   0.058  1.00 20.00     0.143 A 
HETATM    4  C4  UNL     1     -33.078  18.431   0.342  1.00 20.00     0.055 A 
HETATM    5  N8  UNL     1     -30.818  18.772   1.015  1.00 20.00    -0.270 NA
HETATM    6  N9  UNL     1     -33.554  18.574   1.595  1.00 20.00    -0.262 NA
ENDROOT
BRANCH   4   7
HETATM    7  C7  UNL     1     -34.081  18.155  -0.762  1.00 20.00     0.031 C 
HETATM    8  C5  UNL     1     -35.352  17.499  -0.217  1.00 20.00     0.016 C 
HETATM    9  C6  UNL     1     -33.468  17.311  -1.882  1.00 20.00     0.016 C 
ENDBRANCH   4   7
TORSDOF 1
ENDMDL
