MODEL 1
REMARK VINA RESULT:      -4.3      0.000      0.000
REMARK  2 active torsions:
REMARK  status: ('A' for Active; 'I' for Inactive)
REMARK    1  A    between atoms: C1_1  and  C3_3 
REMARK    2  A    between atoms: C3_3  and  C4_4 
ROOT
HETATM    1  C1  UNL     1     -33.733   6.495   3.325  1.00 20.00    -0.088 C 
HETATM    2  C2  UNL     1     -32.954   7.233   2.785  1.00 20.00     0.004 C 
HETATM    3 CL5  UNL     1     -31.815   8.311   2.001  1.00 20.00    -0.023 Cl
ENDROOT
BRANCH   1   4
HETATM    4  C3  UNL     1     -34.685   5.590   3.984  1.00 20.00     0.110 C 
BRANCH   4   5
HETATM    5  C4  UNL     1     -34.548   5.613   5.501  1.00 20.00     0.126 C 
HETATM    6 CL6  UNL     1     -33.924   7.178   6.080  1.00 20.00    -0.130 Cl
ENDBRANCH   4   5
ENDBRANCH   1   4
TORSDOF 2
ENDMDL
MODEL 2
REMARK VINA RESULT:      -4.1      1.546      2.091
REMARK  2 active torsions:
REMARK  status: ('A' for Active; 'I' for Inactive)
REMARK    1  A    between atoms: C1_1  and  C3_3 
REMARK    2  A    between atoms: C3_3  and  C4_4 
ROOT
HETATM    1  C1  UNL     1     -32.612   8.051   2.371  1.00 20.00    -0.088 C 
HETATM    2  C2  UNL     1     -32.545   9.007   1.647  1.00 20.00     0.004 C 
HETATM    3 CL5  UNL     1     -32.446  10.400   0.587  1.00 20.00    -0.023 Cl
ENDROOT
BRANCH   1   4
HETATM    4  C3  UNL     1     -32.696   6.883   3.258  1.00 20.00     0.110 C 
BRANCH   4   5
HETATM    5  C4  UNL     1     -33.961   6.891   4.107  1.00 20.00     0.126 C 
HETATM    6 CL6  UNL     1     -33.610   7.314   5.803  1.00 20.00    -0.130 Cl
ENDBRANCH   4   5
ENDBRANCH   1   4
TORSDOF 2
ENDMDL
MODEL 3
REMARK VINA RESULT:      -4.1      1.881      4.321
REMARK  2 active torsions:
REMARK  status: ('A' for Active; 'I' for Inactive)
REMARK    1  A    between atoms: C1_1  and  C3_3 
REMARK    2  A    between atoms: C3_3  and  C4_4 
ROOT
HETATM    1  C1  UNL     1     -32.850   7.437   3.199  1.00 20.00    -0.088 C 
HETATM    2  C2  UNL     1     -33.741   6.737   3.594  1.00 20.00     0.004 C 
HETATM    3 CL5  UNL     1     -35.042   5.712   4.171  1.00 20.00    -0.023 Cl
ENDROOT
BRANCH   1   4
HETATM    4  C3  UNL     1     -31.758   8.294   2.716  1.00 20.00     0.110 C 
BRANCH   4   5
HETATM    5  C4  UNL     1     -31.982   8.765   1.285  1.00 20.00     0.126 C 
HETATM    6 CL6  UNL     1     -32.728  10.383   1.236  1.00 20.00    -0.130 Cl
ENDBRANCH   4   5
ENDBRANCH   1   4
TORSDOF 2
ENDMDL
MODEL 4
REMARK VINA RESULT:      -4.0      1.660      1.831
REMARK  2 active torsions:
REMARK  status: ('A' for Active; 'I' for Inactive)
REMARK    1  A    between atoms: C1_1  and  C3_3 
REMARK    2  A    between atoms: C3_3  and  C4_4 
ROOT
HETATM    1  C1  UNL     1     -33.068   7.508   3.223  1.00 20.00    -0.088 C 
HETATM    2  C2  UNL     1     -32.466   8.005   2.311  1.00 20.00     0.004 C 
HETATM    3 CL5  UNL     1     -31.589   8.732   0.978  1.00 20.00    -0.023 Cl
ENDROOT
BRANCH   1   4
HETATM    4  C3  UNL     1     -33.803   6.900   4.341  1.00 20.00     0.110 C 
BRANCH   4   5
HETATM    5  C4  UNL     1     -34.801   5.849   3.873  1.00 20.00     0.126 C 
HETATM    6 CL6  UNL     1     -34.489   4.266   4.630  1.00 20.00    -0.130 Cl
ENDBRANCH   4   5
ENDBRANCH   1   4
TORSDOF 2
ENDMDL
MODEL 5
REMARK VINA RESULT:      -4.0      1.999      4.638
REMARK  2 active torsions:
REMARK  status: ('A' for Active; 'I' for Inactive)
REMARK    1  A    between atoms: C1_1  and  C3_3 
REMARK    2  A    between atoms: C3_3  and  C4_4 
ROOT
HETATM    1  C1  UNL     1     -32.615   7.786   2.934  1.00 20.00    -0.088 C 
HETATM    2  C2  UNL     1     -33.216   7.319   3.863  1.00 20.00     0.004 C 
HETATM    3 CL5  UNL     1     -34.094   6.635   5.217  1.00 20.00    -0.023 Cl
ENDROOT
BRANCH   1   4
HETATM    4  C3  UNL     1     -31.877   8.358   1.799  1.00 20.00     0.110 C 
BRANCH   4   5
HETATM    5  C4  UNL     1     -32.535   9.621   1.259  1.00 20.00     0.126 C 
HETATM    6 CL6  UNL     1     -33.085   9.407  -0.423  1.00 20.00    -0.130 Cl
ENDBRANCH   4   5
ENDBRANCH   1   4
TORSDOF 2
ENDMDL
MODEL 6
REMARK VINA RESULT:      -3.7      1.493      4.212
REMARK  2 active torsions:
REMARK  status: ('A' for Active; 'I' for Inactive)
REMARK    1  A    between atoms: C1_1  and  C3_3 
REMARK    2  A    between atoms: C3_3  and  C4_4 
ROOT
HETATM    1  C1  UNL     1     -33.186   7.161   3.390  1.00 20.00    -0.088 C 
HETATM    2  C2  UNL     1     -33.760   6.784   4.374  1.00 20.00     0.004 C 
HETATM    3 CL5  UNL     1     -34.597   6.230   5.812  1.00 20.00    -0.023 Cl
ENDROOT
BRANCH   1   4
HETATM    4  C3  UNL     1     -32.482   7.625   2.186  1.00 20.00     0.110 C 
BRANCH   4   5
HETATM    5  C4  UNL     1     -32.041   9.079   2.298  1.00 20.00     0.126 C 
HETATM    6 CL6  UNL     1     -32.820  10.098   1.061  1.00 20.00    -0.130 Cl
ENDBRANCH   4   5
ENDBRANCH   1   4
TORSDOF 2
ENDMDL
MODEL 7
REMARK VINA RESULT:      -3.1      2.253      2.395
REMARK  2 active torsions:
REMARK  status: ('A' for Active; 'I' for Inactive)
REMARK    1  A    between atoms: C1_1  and  C3_3 
REMARK    2  A    between atoms: C3_3  and  C4_4 
ROOT
HETATM    1  C1  UNL     1     -33.461   6.226   3.479  1.00 20.00    -0.088 C 
HETATM    2  C2  UNL     1     -33.178   5.293   2.778  1.00 20.00     0.004 C 
HETATM    3 CL5  UNL     1     -32.761   3.931   1.756  1.00 20.00    -0.023 Cl
ENDROOT
BRANCH   1   4
HETATM    4  C3  UNL     1     -33.809   7.366   4.337  1.00 20.00     0.110 C 
BRANCH   4   5
HETATM    5  C4  UNL     1     -33.974   6.962   5.797  1.00 20.00     0.126 C 
HETATM    6 CL6  UNL     1     -34.616   5.306   5.951  1.00 20.00    -0.130 Cl
ENDBRANCH   4   5
ENDBRANCH   1   4
TORSDOF 2
ENDMDL
MODEL 8
REMARK VINA RESULT:      -2.8      2.376      3.164
REMARK  2 active torsions:
REMARK  status: ('A' for Active; 'I' for Inactive)
REMARK    1  A    between atoms: C1_1  and  C3_3 
REMARK    2  A    between atoms: C3_3  and  C4_4 
ROOT
HETATM    1  C1  UNL     1     -33.650   6.689   3.918  1.00 20.00    -0.088 C 
HETATM    2  C2  UNL     1     -33.700   7.199   5.003  1.00 20.00     0.004 C 
HETATM    3 CL5  UNL     1     -33.775   7.945   6.588  1.00 20.00    -0.023 Cl
ENDROOT
BRANCH   1   4
HETATM    4  C3  UNL     1     -33.589   6.062   2.590  1.00 20.00     0.110 C 
BRANCH   4   5
HETATM    5  C4  UNL     1     -33.307   4.567   2.669  1.00 20.00     0.126 C 
HETATM    6 CL6  UNL     1     -34.066   3.831   4.104  1.00 20.00    -0.130 Cl
ENDBRANCH   4   5
ENDBRANCH   1   4
TORSDOF 2
ENDMDL
MODEL 9
REMARK VINA RESULT:      -2.8     11.717     12.106
REMARK  2 active torsions:
REMARK  status: ('A' for Active; 'I' for Inactive)
REMARK    1  A    between atoms: C1_1  and  C3_3 
REMARK    2  A    between atoms: C3_3  and  C4_4 
ROOT
HETATM    1  C1  UNL     1     -33.854  17.083  -1.895  1.00 20.00    -0.088 C 
HETATM    2  C2  UNL     1     -33.121  17.742  -1.209  1.00 20.00     0.004 C 
HETATM    3 CL5  UNL     1     -32.050  18.705  -0.210  1.00 20.00    -0.023 Cl
ENDROOT
BRANCH   1   4
HETATM    4  C3  UNL     1     -34.752  16.278  -2.735  1.00 20.00     0.110 C 
BRANCH   4   5
HETATM    5  C4  UNL     1     -34.009  15.563  -3.856  1.00 20.00     0.126 C 
HETATM    6 CL6  UNL     1     -34.773  14.005  -4.261  1.00 20.00    -0.130 Cl
ENDBRANCH   4   5
ENDBRANCH   1   4
TORSDOF 2
ENDMDL
