MODEL 1
REMARK VINA RESULT:      -3.5      0.000      0.000
REMARK  0 active torsions:
REMARK  status: ('A' for Active; 'I' for Inactive)
ROOT
HETATM    1  C1  UNL     1     -33.712  17.044  -2.053  1.00 20.00     0.002 C 
HETATM    2  C2  UNL     1     -35.159  16.682  -1.714  1.00 20.00     0.002 C 
HETATM    3  C3  UNL     1     -33.653  17.179  -3.576  1.00 20.00     0.032 C 
HETATM    4  C4  UNL     1     -35.906  16.610  -3.048  1.00 20.00     0.032 C 
HETATM    5  C5  UNL     1     -35.597  15.204  -6.437  1.00 20.00     0.086 C 
HETATM    6  C6  UNL     1     -34.473  14.332  -5.923  1.00 20.00     0.086 C 
HETATM    7  C7  UNL     1     -34.821  16.336  -4.092  1.00 20.00     0.056 C 
HETATM    8  S8  UNL     1     -35.342  16.861  -5.758  1.00 20.00    -0.147 SA
HETATM    9  S9  UNL     1     -34.385  14.549  -4.128  1.00 20.00    -0.147 SA
ENDROOT
TORSDOF 0
ENDMDL
MODEL 2
REMARK VINA RESULT:      -3.5      1.396      2.482
REMARK  0 active torsions:
REMARK  status: ('A' for Active; 'I' for Inactive)
ROOT
HETATM    1  C1  UNL     1     -35.567  17.307  -1.293  1.00 20.00     0.002 C 
HETATM    2  C2  UNL     1     -34.124  17.786  -1.119  1.00 20.00     0.002 C 
HETATM    3  C3  UNL     1     -35.537  16.263  -2.411  1.00 20.00     0.032 C 
HETATM    4  C4  UNL     1     -33.291  17.013  -2.144  1.00 20.00     0.032 C 
HETATM    5  C5  UNL     1     -33.292  16.035  -5.695  1.00 20.00     0.086 C 
HETATM    6  C6  UNL     1     -34.390  17.050  -5.925  1.00 20.00     0.086 C 
HETATM    7  C7  UNL     1     -34.287  16.597  -3.229  1.00 20.00     0.056 C 
HETATM    8  S8  UNL     1     -33.695  15.151  -4.168  1.00 20.00    -0.147 SA
HETATM    9  S9  UNL     1     -34.606  17.986  -4.391  1.00 20.00    -0.147 SA
ENDROOT
TORSDOF 0
ENDMDL
MODEL 3
REMARK VINA RESULT:      -3.4      1.363      2.408
REMARK  0 active torsions:
REMARK  status: ('A' for Active; 'I' for Inactive)
ROOT
HETATM    1  C1  UNL     1     -35.532  16.686  -2.869  1.00 20.00     0.002 C 
HETATM    2  C2  UNL     1     -34.085  16.206  -2.998  1.00 20.00     0.002 C 
HETATM    3  C3  UNL     1     -36.377  15.724  -3.707  1.00 20.00     0.032 C 
HETATM    4  C4  UNL     1     -34.122  14.979  -3.913  1.00 20.00     0.032 C 
HETATM    5  C5  UNL     1     -35.543  13.822  -7.107  1.00 20.00     0.086 C 
HETATM    6  C6  UNL     1     -35.879  15.262  -7.425  1.00 20.00     0.086 C 
HETATM    7  C7  UNL     1     -35.404  15.138  -4.733  1.00 20.00     0.056 C 
HETATM    8  S8  UNL     1     -35.993  13.538  -5.378  1.00 20.00    -0.147 SA
HETATM    9  S9  UNL     1     -35.142  16.298  -6.136  1.00 20.00    -0.147 SA
ENDROOT
TORSDOF 0
ENDMDL
MODEL 4
REMARK VINA RESULT:      -3.4      1.699      2.372
REMARK  0 active torsions:
REMARK  status: ('A' for Active; 'I' for Inactive)
ROOT
HETATM    1  C1  UNL     1     -35.015  17.136  -3.860  1.00 20.00     0.002 C 
HETATM    2  C2  UNL     1     -34.094  16.110  -3.195  1.00 20.00     0.002 C 
HETATM    3  C3  UNL     1     -35.790  16.376  -4.938  1.00 20.00     0.032 C 
HETATM    4  C4  UNL     1     -34.352  14.780  -3.906  1.00 20.00     0.032 C 
HETATM    5  C5  UNL     1     -34.691  13.347  -7.282  1.00 20.00     0.086 C 
HETATM    6  C6  UNL     1     -34.103  14.627  -7.833  1.00 20.00     0.086 C 
HETATM    7  C7  UNL     1     -34.914  15.168  -5.276  1.00 20.00     0.056 C 
HETATM    8  S8  UNL     1     -35.891  13.815  -6.011  1.00 20.00    -0.147 SA
HETATM    9  S9  UNL     1     -33.559  15.632  -6.430  1.00 20.00    -0.147 SA
ENDROOT
TORSDOF 0
ENDMDL
MODEL 5
REMARK VINA RESULT:      -3.3      1.738      3.513
REMARK  0 active torsions:
REMARK  status: ('A' for Active; 'I' for Inactive)
ROOT
HETATM    1  C1  UNL     1     -35.940  13.442  -5.215  1.00 20.00     0.002 C 
HETATM    2  C2  UNL     1     -37.188  14.318  -5.082  1.00 20.00     0.002 C 
HETATM    3  C3  UNL     1     -34.861  14.104  -4.356  1.00 20.00     0.032 C 
HETATM    4  C4  UNL     1     -36.803  15.471  -4.152  1.00 20.00     0.032 C 
HETATM    5  C5  UNL     1     -34.134  17.949  -3.603  1.00 20.00     0.086 C 
HETATM    6  C6  UNL     1     -33.605  17.614  -4.981  1.00 20.00     0.086 C 
HETATM    7  C7  UNL     1     -35.280  15.573  -4.261  1.00 20.00     0.056 C 
HETATM    8  S8  UNL     1     -34.553  16.384  -2.798  1.00 20.00    -0.147 SA
HETATM    9  S9  UNL     1     -34.794  16.501  -5.772  1.00 20.00    -0.147 SA
ENDROOT
TORSDOF 0
ENDMDL
MODEL 6
REMARK VINA RESULT:      -3.3      2.021      2.830
REMARK  0 active torsions:
REMARK  status: ('A' for Active; 'I' for Inactive)
ROOT
HETATM    1  C1  UNL     1     -33.194  15.542  -5.673  1.00 20.00     0.002 C 
HETATM    2  C2  UNL     1     -33.174  15.034  -4.229  1.00 20.00     0.002 C 
HETATM    3  C3  UNL     1     -34.557  16.208  -5.871  1.00 20.00     0.032 C 
HETATM    4  C4  UNL     1     -34.528  15.412  -3.625  1.00 20.00     0.032 C 
HETATM    5  C5  UNL     1     -38.134  15.306  -4.366  1.00 20.00     0.086 C 
HETATM    6  C6  UNL     1     -37.825  14.347  -5.496  1.00 20.00     0.086 C 
HETATM    7  C7  UNL     1     -35.467  15.562  -4.824  1.00 20.00     0.056 C 
HETATM    8  S8  UNL     1     -36.896  16.624  -4.432  1.00 20.00    -0.147 SA
HETATM    9  S9  UNL     1     -36.070  13.920  -5.391  1.00 20.00    -0.147 SA
ENDROOT
TORSDOF 0
ENDMDL
MODEL 7
REMARK VINA RESULT:      -3.3      1.690      2.914
REMARK  0 active torsions:
REMARK  status: ('A' for Active; 'I' for Inactive)
ROOT
HETATM    1  C1  UNL     1     -34.523  17.876  -0.264  1.00 20.00     0.002 C 
HETATM    2  C2  UNL     1     -33.179  18.072  -0.968  1.00 20.00     0.002 C 
HETATM    3  C3  UNL     1     -35.350  16.962  -1.171  1.00 20.00     0.032 C 
HETATM    4  C4  UNL     1     -33.258  17.271  -2.270  1.00 20.00     0.032 C 
HETATM    5  C5  UNL     1     -35.484  16.673  -5.142  1.00 20.00     0.086 C 
HETATM    6  C6  UNL     1     -36.282  17.886  -4.715  1.00 20.00     0.086 C 
HETATM    7  C7  UNL     1     -34.754  17.150  -2.568  1.00 20.00     0.056 C 
HETATM    8  S8  UNL     1     -35.113  15.725  -3.646  1.00 20.00    -0.147 SA
HETATM    9  S9  UNL     1     -35.388  18.684  -3.359  1.00 20.00    -0.147 SA
ENDROOT
TORSDOF 0
ENDMDL
MODEL 8
REMARK VINA RESULT:      -3.3      1.898      3.529
REMARK  0 active torsions:
REMARK  status: ('A' for Active; 'I' for Inactive)
ROOT
HETATM    1  C1  UNL     1     -33.183  14.456  -4.552  1.00 20.00     0.002 C 
HETATM    2  C2  UNL     1     -32.983  15.759  -5.328  1.00 20.00     0.002 C 
HETATM    3  C3  UNL     1     -34.591  14.526  -3.957  1.00 20.00     0.032 C 
HETATM    4  C4  UNL     1     -34.278  16.558  -5.161  1.00 20.00     0.032 C 
HETATM    5  C5  UNL     1     -36.680  17.627  -2.582  1.00 20.00     0.086 C 
HETATM    6  C6  UNL     1     -35.665  17.222  -1.536  1.00 20.00     0.086 C 
HETATM    7  C7  UNL     1     -34.910  16.020  -3.876  1.00 20.00     0.056 C 
HETATM    8  S8  UNL     1     -36.708  16.320  -3.833  1.00 20.00    -0.147 SA
HETATM    9  S9  UNL     1     -34.132  16.786  -2.395  1.00 20.00    -0.147 SA
ENDROOT
TORSDOF 0
ENDMDL
MODEL 9
REMARK VINA RESULT:      -3.3      1.824      2.901
REMARK  0 active torsions:
REMARK  status: ('A' for Active; 'I' for Inactive)
ROOT
HETATM    1  C1  UNL     1     -33.914  15.756  -3.569  1.00 20.00     0.002 C 
HETATM    2  C2  UNL     1     -33.336  16.686  -4.638  1.00 20.00     0.002 C 
HETATM    3  C3  UNL     1     -34.425  14.520  -4.311  1.00 20.00     0.032 C 
HETATM    4  C4  UNL     1     -33.530  15.971  -5.977  1.00 20.00     0.032 C 
HETATM    5  C5  UNL     1     -36.078  14.154  -7.918  1.00 20.00     0.086 C 
HETATM    6  C6  UNL     1     -37.120  14.683  -6.956  1.00 20.00     0.086 C 
HETATM    7  C7  UNL     1     -34.690  15.000  -5.740  1.00 20.00     0.056 C 
HETATM    8  S8  UNL     1     -34.662  13.617  -6.928  1.00 20.00    -0.147 SA
HETATM    9  S9  UNL     1     -36.305  15.870  -5.860  1.00 20.00    -0.147 SA
ENDROOT
TORSDOF 0
ENDMDL
