MODEL 1
REMARK VINA RESULT:      -5.1      0.000      0.000
REMARK  3 active torsions:
REMARK  status: ('A' for Active; 'I' for Inactive)
REMARK    1  A    between atoms: C3_3  and  C5_5 
REMARK    2  A    between atoms: C4_4  and  C6_6 
REMARK    3  A    between atoms: C5_5  and  C6_6 
ROOT
HETATM    1  C6  UNL     1     -34.031   6.899   4.014  1.00 20.00     0.082 C 
HETATM    2 CL7  UNL     1     -33.441   7.439   5.619  1.00 20.00    -0.125 Cl
ENDROOT
BRANCH   1   3
HETATM    3  C4  UNL     1     -34.779   5.564   4.140  1.00 20.00     0.016 C 
HETATM    4  C2  UNL     1     -34.654   4.922   5.517  1.00 20.00     0.006 C 
ENDBRANCH   1   3
BRANCH   1   5
HETATM    5  C5  UNL     1     -32.856   6.771   3.031  1.00 20.00     0.020 C 
BRANCH   5   6
HETATM    6  C3  UNL     1     -31.941   7.999   3.013  1.00 20.00    -0.003 C 
HETATM    7  C1  UNL     1     -32.017   8.726   1.677  1.00 20.00     0.005 C 
ENDBRANCH   5   6
ENDBRANCH   1   5
TORSDOF 3
ENDMDL
MODEL 2
REMARK VINA RESULT:      -4.8      1.764      4.032
REMARK  3 active torsions:
REMARK  status: ('A' for Active; 'I' for Inactive)
REMARK    1  A    between atoms: C3_3  and  C5_5 
REMARK    2  A    between atoms: C4_4  and  C6_6 
REMARK    3  A    between atoms: C5_5  and  C6_6 
ROOT
HETATM    1  C6  UNL     1     -33.601   6.269   2.721  1.00 20.00     0.082 C 
HETATM    2 CL7  UNL     1     -32.876   4.640   2.537  1.00 20.00    -0.125 Cl
ENDROOT
BRANCH   1   3
HETATM    3  C4  UNL     1     -32.550   7.268   3.228  1.00 20.00     0.016 C 
HETATM    4  C2  UNL     1     -32.107   8.276   2.173  1.00 20.00     0.006 C 
ENDBRANCH   1   3
BRANCH   1   5
HETATM    5  C5  UNL     1     -34.801   6.212   3.679  1.00 20.00     0.020 C 
BRANCH   5   6
HETATM    6  C3  UNL     1     -34.403   6.263   5.158  1.00 20.00    -0.003 C 
HETATM    7  C1  UNL     1     -34.525   4.893   5.810  1.00 20.00     0.005 C 
ENDBRANCH   5   6
ENDBRANCH   1   5
TORSDOF 3
ENDMDL
MODEL 3
REMARK VINA RESULT:      -4.5      0.833      3.664
REMARK  3 active torsions:
REMARK  status: ('A' for Active; 'I' for Inactive)
REMARK    1  A    between atoms: C3_3  and  C5_5 
REMARK    2  A    between atoms: C4_4  and  C6_6 
REMARK    3  A    between atoms: C5_5  and  C6_6 
ROOT
HETATM    1  C6  UNL     1     -32.991   6.970   4.290  1.00 20.00     0.082 C 
HETATM    2 CL7  UNL     1     -33.550   7.535   5.898  1.00 20.00    -0.125 Cl
ENDROOT
BRANCH   1   3
HETATM    3  C4  UNL     1     -32.104   8.035   3.628  1.00 20.00     0.016 C 
HETATM    4  C2  UNL     1     -32.298   8.139   2.120  1.00 20.00     0.006 C 
ENDBRANCH   1   3
BRANCH   1   5
HETATM    5  C5  UNL     1     -34.196   6.637   3.396  1.00 20.00     0.020 C 
BRANCH   5   6
HETATM    6  C3  UNL     1     -35.175   5.648   4.036  1.00 20.00    -0.003 C 
HETATM    7  C1  UNL     1     -34.468   4.371   4.468  1.00 20.00     0.005 C 
ENDBRANCH   5   6
ENDBRANCH   1   5
TORSDOF 3
ENDMDL
MODEL 4
REMARK VINA RESULT:      -4.5      1.795      1.976
REMARK  3 active torsions:
REMARK  status: ('A' for Active; 'I' for Inactive)
REMARK    1  A    between atoms: C3_3  and  C5_5 
REMARK    2  A    between atoms: C4_4  and  C6_6 
REMARK    3  A    between atoms: C5_5  and  C6_6 
ROOT
HETATM    1  C6  UNL     1     -33.038   6.540   3.530  1.00 20.00     0.082 C 
HETATM    2 CL7  UNL     1     -33.074   4.982   2.642  1.00 20.00    -0.125 Cl
ENDROOT
BRANCH   1   3
HETATM    3  C4  UNL     1     -34.158   6.582   4.580  1.00 20.00     0.016 C 
HETATM    4  C2  UNL     1     -33.752   7.272   5.878  1.00 20.00     0.006 C 
ENDBRANCH   1   3
BRANCH   1   5
HETATM    5  C5  UNL     1     -33.171   7.715   2.548  1.00 20.00     0.020 C 
BRANCH   5   6
HETATM    6  C3  UNL     1     -31.831   8.362   2.187  1.00 20.00    -0.003 C 
HETATM    7  C1  UNL     1     -31.915   9.102   0.859  1.00 20.00     0.005 C 
ENDBRANCH   5   6
ENDBRANCH   1   5
TORSDOF 3
ENDMDL
MODEL 5
REMARK VINA RESULT:      -4.5      1.659      1.659
REMARK  3 active torsions:
REMARK  status: ('A' for Active; 'I' for Inactive)
REMARK    1  A    between atoms: C3_3  and  C5_5 
REMARK    2  A    between atoms: C4_4  and  C6_6 
REMARK    3  A    between atoms: C5_5  and  C6_6 
ROOT
HETATM    1  C6  UNL     1     -33.383   6.126   3.636  1.00 20.00     0.082 C 
HETATM    2 CL7  UNL     1     -32.973   4.809   2.490  1.00 20.00    -0.125 Cl
ENDROOT
BRANCH   1   3
HETATM    3  C4  UNL     1     -34.746   5.859   4.292  1.00 20.00     0.016 C 
HETATM    4  C2  UNL     1     -34.651   5.097   5.608  1.00 20.00     0.006 C 
ENDBRANCH   1   3
BRANCH   1   5
HETATM    5  C5  UNL     1     -33.388   7.481   2.909  1.00 20.00     0.020 C 
BRANCH   5   6
HETATM    6  C3  UNL     1     -31.987   8.067   2.704  1.00 20.00    -0.003 C 
HETATM    7  C1  UNL     1     -31.871   8.763   1.356  1.00 20.00     0.005 C 
ENDBRANCH   5   6
ENDBRANCH   1   5
TORSDOF 3
ENDMDL
MODEL 6
REMARK VINA RESULT:      -4.5      1.921      3.543
REMARK  3 active torsions:
REMARK  status: ('A' for Active; 'I' for Inactive)
REMARK    1  A    between atoms: C3_3  and  C5_5 
REMARK    2  A    between atoms: C4_4  and  C6_6 
REMARK    3  A    between atoms: C5_5  and  C6_6 
ROOT
HETATM    1  C6  UNL     1     -34.212   5.332   3.304  1.00 20.00     0.082 C 
HETATM    2 CL7  UNL     1     -34.021   3.777   4.177  1.00 20.00    -0.125 Cl
ENDROOT
BRANCH   1   3
HETATM    3  C4  UNL     1     -32.852   5.829   2.792  1.00 20.00     0.016 C 
HETATM    4  C2  UNL     1     -32.810   7.329   2.528  1.00 20.00     0.006 C 
ENDBRANCH   1   3
BRANCH   1   5
HETATM    5  C5  UNL     1     -34.861   6.381   4.223  1.00 20.00     0.020 C 
BRANCH   5   6
HETATM    6  C3  UNL     1     -34.417   6.269   5.684  1.00 20.00    -0.003 C 
HETATM    7  C1  UNL     1     -33.554   7.454   6.092  1.00 20.00     0.005 C 
ENDBRANCH   5   6
ENDBRANCH   1   5
TORSDOF 3
ENDMDL
MODEL 7
REMARK VINA RESULT:      -4.4      1.897      3.373
REMARK  3 active torsions:
REMARK  status: ('A' for Active; 'I' for Inactive)
REMARK    1  A    between atoms: C3_3  and  C5_5 
REMARK    2  A    between atoms: C4_4  and  C6_6 
REMARK    3  A    between atoms: C5_5  and  C6_6 
ROOT
HETATM    1  C6  UNL     1     -32.874   6.989   3.437  1.00 20.00     0.082 C 
HETATM    2 CL7  UNL     1     -32.104   8.323   2.518  1.00 20.00    -0.125 Cl
ENDROOT
BRANCH   1   3
HETATM    3  C4  UNL     1     -33.537   5.992   2.476  1.00 20.00     0.016 C 
HETATM    4  C2  UNL     1     -33.011   4.568   2.615  1.00 20.00     0.006 C 
ENDBRANCH   1   3
BRANCH   1   5
HETATM    5  C5  UNL     1     -33.904   7.552   4.430  1.00 20.00     0.020 C 
BRANCH   5   6
HETATM    6  C3  UNL     1     -33.851   6.884   5.807  1.00 20.00    -0.003 C 
HETATM    7  C1  UNL     1     -34.580   5.547   5.800  1.00 20.00     0.005 C 
ENDBRANCH   5   6
ENDBRANCH   1   5
TORSDOF 3
ENDMDL
MODEL 8
REMARK VINA RESULT:      -4.3      1.515      2.482
REMARK  3 active torsions:
REMARK  status: ('A' for Active; 'I' for Inactive)
REMARK    1  A    between atoms: C3_3  and  C5_5 
REMARK    2  A    between atoms: C4_4  and  C6_6 
REMARK    3  A    between atoms: C5_5  and  C6_6 
ROOT
HETATM    1  C6  UNL     1     -32.634   7.944   2.769  1.00 20.00     0.082 C 
HETATM    2 CL7  UNL     1     -31.670   8.340   4.229  1.00 20.00    -0.125 Cl
ENDROOT
BRANCH   1   3
HETATM    3  C4  UNL     1     -32.903   6.433   2.700  1.00 20.00     0.016 C 
HETATM    4  C2  UNL     1     -34.256   6.028   3.274  1.00 20.00     0.006 C 
ENDBRANCH   1   3
BRANCH   1   5
HETATM    5  C5  UNL     1     -31.904   8.423   1.504  1.00 20.00     0.020 C 
BRANCH   5   6
HETATM    6  C3  UNL     1     -32.492   9.706   0.910  1.00 20.00    -0.003 C 
HETATM    7  C1  UNL     1     -33.156   9.438  -0.434  1.00 20.00     0.005 C 
ENDBRANCH   5   6
ENDBRANCH   1   5
TORSDOF 3
ENDMDL
MODEL 9
REMARK VINA RESULT:      -4.3      1.442      4.087
REMARK  3 active torsions:
REMARK  status: ('A' for Active; 'I' for Inactive)
REMARK    1  A    between atoms: C3_3  and  C5_5 
REMARK    2  A    between atoms: C4_4  and  C6_6 
REMARK    3  A    between atoms: C5_5  and  C6_6 
ROOT
HETATM    1  C6  UNL     1     -32.418   7.566   2.703  1.00 20.00     0.082 C 
HETATM    2 CL7  UNL     1     -31.350   8.347   3.914  1.00 20.00    -0.125 Cl
ENDROOT
BRANCH   1   3
HETATM    3  C4  UNL     1     -32.858   8.586   1.642  1.00 20.00     0.016 C 
HETATM    4  C2  UNL     1     -31.729   9.036   0.723  1.00 20.00     0.006 C 
ENDBRANCH   1   3
BRANCH   1   5
HETATM    5  C5  UNL     1     -33.641   6.943   3.396  1.00 20.00     0.020 C 
BRANCH   5   6
HETATM    6  C3  UNL     1     -33.659   7.163   4.912  1.00 20.00    -0.003 C 
HETATM    7  C1  UNL     1     -34.404   6.042   5.624  1.00 20.00     0.005 C 
ENDBRANCH   5   6
ENDBRANCH   1   5
TORSDOF 3
ENDMDL
