MODEL 1
REMARK VINA RESULT:      -4.4      0.000      0.000
REMARK  2 active torsions:
REMARK  status: ('A' for Active; 'I' for Inactive)
REMARK    1  A    between atoms: C2_2  and  C3_3 
REMARK    2  A    between atoms: C2_2  and  C4_4 
ROOT
HETATM    1  C1  UNL     1     -33.655   7.310   5.579  1.00 20.00     0.016 C 
HETATM    2  C2  UNL     1     -33.923   6.780   4.375  1.00 20.00    -0.062 C 
ENDROOT
BRANCH   2   3
HETATM    3  C3  UNL     1     -34.989   5.731   4.211  1.00 20.00     0.149 C 
HETATM    4 CL5  UNL     1     -34.330   4.108   4.517  1.00 20.00    -0.126 Cl
ENDBRANCH   2   3
BRANCH   2   5
HETATM    5  C4  UNL     1     -33.163   7.215   3.152  1.00 20.00     0.149 C 
HETATM    6 CL6  UNL     1     -31.689   8.100   3.606  1.00 20.00    -0.126 Cl
ENDBRANCH   2   5
TORSDOF 2
ENDMDL
MODEL 2
REMARK VINA RESULT:      -4.4      0.042      3.185
REMARK  2 active torsions:
REMARK  status: ('A' for Active; 'I' for Inactive)
REMARK    1  A    between atoms: C2_2  and  C3_3 
REMARK    2  A    between atoms: C2_2  and  C4_4 
ROOT
HETATM    1  C1  UNL     1     -33.663   7.281   5.547  1.00 20.00     0.016 C 
HETATM    2  C2  UNL     1     -33.927   6.770   4.334  1.00 20.00    -0.062 C 
ENDROOT
BRANCH   2   3
HETATM    3  C3  UNL     1     -33.179   7.241   3.117  1.00 20.00     0.149 C 
HETATM    4 CL5  UNL     1     -31.689   8.093   3.582  1.00 20.00    -0.126 Cl
ENDBRANCH   2   3
BRANCH   2   5
HETATM    5  C4  UNL     1     -34.981   5.713   4.154  1.00 20.00     0.149 C 
HETATM    6 CL6  UNL     1     -34.331   4.103   4.537  1.00 20.00    -0.126 Cl
ENDBRANCH   2   5
TORSDOF 2
ENDMDL
MODEL 3
REMARK VINA RESULT:      -4.2      2.004      2.852
REMARK  2 active torsions:
REMARK  status: ('A' for Active; 'I' for Inactive)
REMARK    1  A    between atoms: C2_2  and  C3_3 
REMARK    2  A    between atoms: C2_2  and  C4_4 
ROOT
HETATM    1  C1  UNL     1     -34.214   4.001   4.355  1.00 20.00     0.016 C 
HETATM    2  C2  UNL     1     -34.413   5.322   4.487  1.00 20.00    -0.062 C 
ENDROOT
BRANCH   2   3
HETATM    3  C3  UNL     1     -34.484   6.218   3.281  1.00 20.00     0.149 C 
HETATM    4 CL5  UNL     1     -32.852   6.617   2.696  1.00 20.00    -0.126 Cl
ENDBRANCH   2   3
BRANCH   2   5
HETATM    5  C4  UNL     1     -34.570   5.948   5.845  1.00 20.00     0.149 C 
HETATM    6 CL6  UNL     1     -33.573   7.414   5.982  1.00 20.00    -0.126 Cl
ENDBRANCH   2   5
TORSDOF 2
ENDMDL
MODEL 4
REMARK VINA RESULT:      -4.2      1.968      2.516
REMARK  2 active torsions:
REMARK  status: ('A' for Active; 'I' for Inactive)
REMARK    1  A    between atoms: C2_2  and  C3_3 
REMARK    2  A    between atoms: C2_2  and  C4_4 
ROOT
HETATM    1  C1  UNL     1     -34.251   4.037   4.364  1.00 20.00     0.016 C 
HETATM    2  C2  UNL     1     -34.420   5.361   4.498  1.00 20.00    -0.062 C 
ENDROOT
BRANCH   2   3
HETATM    3  C3  UNL     1     -34.624   5.982   5.853  1.00 20.00     0.149 C 
HETATM    4 CL5  UNL     1     -33.644   7.456   6.025  1.00 20.00    -0.126 Cl
ENDBRANCH   2   3
BRANCH   2   5
HETATM    5  C4  UNL     1     -34.415   6.267   3.297  1.00 20.00     0.149 C 
HETATM    6 CL6  UNL     1     -32.750   6.655   2.807  1.00 20.00    -0.126 Cl
ENDBRANCH   2   5
TORSDOF 2
ENDMDL
MODEL 5
REMARK VINA RESULT:      -4.1      1.963      2.567
REMARK  2 active torsions:
REMARK  status: ('A' for Active; 'I' for Inactive)
REMARK    1  A    between atoms: C2_2  and  C3_3 
REMARK    2  A    between atoms: C2_2  and  C4_4 
ROOT
HETATM    1  C1  UNL     1     -32.280   7.768   3.273  1.00 20.00     0.016 C 
HETATM    2  C2  UNL     1     -33.276   7.056   3.824  1.00 20.00    -0.062 C 
ENDROOT
BRANCH   2   3
HETATM    3  C3  UNL     1     -34.042   6.044   3.016  1.00 20.00     0.149 C 
HETATM    4 CL5  UNL     1     -32.998   4.678   2.563  1.00 20.00    -0.126 Cl
ENDBRANCH   2   3
BRANCH   2   5
HETATM    5  C4  UNL     1     -33.660   7.250   5.265  1.00 20.00     0.149 C 
HETATM    6 CL6  UNL     1     -34.465   5.799   5.903  1.00 20.00    -0.126 Cl
ENDBRANCH   2   5
TORSDOF 2
ENDMDL
MODEL 6
REMARK VINA RESULT:      -4.1      1.961      2.389
REMARK  2 active torsions:
REMARK  status: ('A' for Active; 'I' for Inactive)
REMARK    1  A    between atoms: C2_2  and  C3_3 
REMARK    2  A    between atoms: C2_2  and  C4_4 
ROOT
HETATM    1  C1  UNL     1     -32.208   7.766   3.337  1.00 20.00     0.016 C 
HETATM    2  C2  UNL     1     -33.244   7.069   3.830  1.00 20.00    -0.062 C 
ENDROOT
BRANCH   2   3
HETATM    3  C3  UNL     1     -33.678   7.238   5.261  1.00 20.00     0.149 C 
HETATM    4 CL5  UNL     1     -34.465   5.760   5.859  1.00 20.00    -0.126 Cl
ENDBRANCH   2   3
BRANCH   2   5
HETATM    5  C4  UNL     1     -34.002   6.096   2.970  1.00 20.00     0.149 C 
HETATM    6 CL6  UNL     1     -32.997   4.680   2.584  1.00 20.00    -0.126 Cl
ENDBRANCH   2   5
TORSDOF 2
ENDMDL
MODEL 7
REMARK VINA RESULT:      -4.1      1.541      1.983
REMARK  2 active torsions:
REMARK  status: ('A' for Active; 'I' for Inactive)
REMARK    1  A    between atoms: C2_2  and  C3_3 
REMARK    2  A    between atoms: C2_2  and  C4_4 
ROOT
HETATM    1  C1  UNL     1     -33.141   5.161   2.576  1.00 20.00     0.016 C 
HETATM    2  C2  UNL     1     -33.736   5.982   3.456  1.00 20.00    -0.062 C 
ENDROOT
BRANCH   2   3
HETATM    3  C3  UNL     1     -35.013   5.582   4.144  1.00 20.00     0.149 C 
HETATM    4 CL5  UNL     1     -34.672   4.579   5.573  1.00 20.00    -0.126 Cl
ENDBRANCH   2   3
BRANCH   2   5
HETATM    5  C4  UNL     1     -33.147   7.327   3.779  1.00 20.00     0.149 C 
HETATM    6 CL6  UNL     1     -33.247   7.656   5.524  1.00 20.00    -0.126 Cl
ENDBRANCH   2   5
TORSDOF 2
ENDMDL
MODEL 8
REMARK VINA RESULT:      -4.1      1.354      3.550
REMARK  2 active torsions:
REMARK  status: ('A' for Active; 'I' for Inactive)
REMARK    1  A    between atoms: C2_2  and  C3_3 
REMARK    2  A    between atoms: C2_2  and  C4_4 
ROOT
HETATM    1  C1  UNL     1     -33.136   5.179   2.612  1.00 20.00     0.016 C 
HETATM    2  C2  UNL     1     -33.727   6.062   3.432  1.00 20.00    -0.062 C 
ENDROOT
BRANCH   2   3
HETATM    3  C3  UNL     1     -33.119   7.416   3.678  1.00 20.00     0.149 C 
HETATM    4 CL5  UNL     1     -32.229   7.977   2.245  1.00 20.00    -0.126 Cl
ENDBRANCH   2   3
BRANCH   2   5
HETATM    5  C4  UNL     1     -35.014   5.725   4.134  1.00 20.00     0.149 C 
HETATM    6 CL6  UNL     1     -34.696   5.083   5.761  1.00 20.00    -0.126 Cl
ENDBRANCH   2   5
TORSDOF 2
ENDMDL
MODEL 9
REMARK VINA RESULT:      -4.0      1.717      3.225
REMARK  2 active torsions:
REMARK  status: ('A' for Active; 'I' for Inactive)
REMARK    1  A    between atoms: C2_2  and  C3_3 
REMARK    2  A    between atoms: C2_2  and  C4_4 
ROOT
HETATM    1  C1  UNL     1     -33.185   5.121   2.777  1.00 20.00     0.016 C 
HETATM    2  C2  UNL     1     -33.617   6.207   3.437  1.00 20.00    -0.062 C 
ENDROOT
BRANCH   2   3
HETATM    3  C3  UNL     1     -33.298   7.591   2.940  1.00 20.00     0.149 C 
HETATM    4 CL5  UNL     1     -31.626   8.038   3.350  1.00 20.00    -0.126 Cl
ENDBRANCH   2   3
BRANCH   2   5
HETATM    5  C4  UNL     1     -34.430   6.075   4.695  1.00 20.00     0.149 C 
HETATM    6 CL6  UNL     1     -33.858   7.212   5.937  1.00 20.00    -0.126 Cl
ENDBRANCH   2   5
TORSDOF 2
ENDMDL
