MODEL 1
REMARK VINA RESULT:      -6.3      0.000      0.000
REMARK  0 active torsions:
REMARK  status: ('A' for Active; 'I' for Inactive)
ROOT
HETATM    1  C1  UNL     1     -32.764   7.458   3.096  1.00 20.00    -0.089 C 
HETATM    2  C2  UNL     1     -34.401   6.001   4.968  1.00 20.00    -0.089 C 
HETATM    3  C3  UNL     1     -32.493   8.408   2.189  1.00 20.00     0.014 C 
HETATM    4  C4  UNL     1     -34.671   5.052   5.874  1.00 20.00     0.014 C 
HETATM    5  C5  UNL     1     -32.573   7.672   4.578  1.00 20.00     0.037 C 
HETATM    6  C6  UNL     1     -33.305   6.101   2.713  1.00 20.00     0.037 C 
HETATM    7  C7  UNL     1     -33.859   7.357   5.349  1.00 20.00     0.037 C 
HETATM    8  C8  UNL     1     -34.592   5.787   3.485  1.00 20.00     0.037 C 
ENDROOT
TORSDOF 0
ENDMDL
MODEL 2
REMARK VINA RESULT:      -6.3      0.071      3.264
REMARK  0 active torsions:
REMARK  status: ('A' for Active; 'I' for Inactive)
ROOT
HETATM    1  C1  UNL     1     -34.380   5.959   4.929  1.00 20.00    -0.089 C 
HETATM    2  C2  UNL     1     -32.748   7.446   3.077  1.00 20.00    -0.089 C 
HETATM    3  C3  UNL     1     -34.639   5.018   5.849  1.00 20.00     0.014 C 
HETATM    4  C4  UNL     1     -32.489   8.387   2.159  1.00 20.00     0.014 C 
HETATM    5  C5  UNL     1     -33.909   7.345   5.297  1.00 20.00     0.037 C 
HETATM    6  C6  UNL     1     -34.516   5.705   3.447  1.00 20.00     0.037 C 
HETATM    7  C7  UNL     1     -32.613   7.698   4.559  1.00 20.00     0.037 C 
HETATM    8  C8  UNL     1     -33.219   6.059   2.709  1.00 20.00     0.037 C 
ENDROOT
TORSDOF 0
ENDMDL
MODEL 3
REMARK VINA RESULT:      -4.9      0.884      1.952
REMARK  0 active torsions:
REMARK  status: ('A' for Active; 'I' for Inactive)
ROOT
HETATM    1  C1  UNL     1     -32.801   7.567   3.283  1.00 20.00    -0.089 C 
HETATM    2  C2  UNL     1     -34.163   5.406   4.619  1.00 20.00    -0.089 C 
HETATM    3  C3  UNL     1     -31.740   8.288   2.893  1.00 20.00     0.014 C 
HETATM    4  C4  UNL     1     -35.223   4.685   5.008  1.00 20.00     0.014 C 
HETATM    5  C5  UNL     1     -33.338   6.411   2.475  1.00 20.00     0.037 C 
HETATM    6  C6  UNL     1     -33.534   7.834   4.576  1.00 20.00     0.037 C 
HETATM    7  C7  UNL     1     -33.430   5.140   3.327  1.00 20.00     0.037 C 
HETATM    8  C8  UNL     1     -33.626   6.563   5.428  1.00 20.00     0.037 C 
ENDROOT
TORSDOF 0
ENDMDL
MODEL 4
REMARK VINA RESULT:      -4.9      0.874      3.644
REMARK  0 active torsions:
REMARK  status: ('A' for Active; 'I' for Inactive)
ROOT
HETATM    1  C1  UNL     1     -34.152   5.395   4.603  1.00 20.00    -0.089 C 
HETATM    2  C2  UNL     1     -32.813   7.541   3.221  1.00 20.00    -0.089 C 
HETATM    3  C3  UNL     1     -35.205   4.671   5.009  1.00 20.00     0.014 C 
HETATM    4  C4  UNL     1     -31.760   8.264   2.814  1.00 20.00     0.014 C 
HETATM    5  C5  UNL     1     -33.419   5.109   3.314  1.00 20.00     0.037 C 
HETATM    6  C6  UNL     1     -33.624   6.572   5.388  1.00 20.00     0.037 C 
HETATM    7  C7  UNL     1     -33.341   6.363   2.437  1.00 20.00     0.037 C 
HETATM    8  C8  UNL     1     -33.547   7.826   4.510  1.00 20.00     0.037 C 
ENDROOT
TORSDOF 0
ENDMDL
MODEL 5
REMARK VINA RESULT:      -4.6      1.251      2.425
REMARK  0 active torsions:
REMARK  status: ('A' for Active; 'I' for Inactive)
ROOT
HETATM    1  C1  UNL     1     -33.285   4.915   2.941  1.00 20.00    -0.089 C 
HETATM    2  C2  UNL     1     -34.076   6.747   5.021  1.00 20.00    -0.089 C 
HETATM    3  C3  UNL     1     -33.414   4.245   1.787  1.00 20.00     0.014 C 
HETATM    4  C4  UNL     1     -33.946   7.417   6.175  1.00 20.00     0.014 C 
HETATM    5  C5  UNL     1     -32.639   6.277   3.021  1.00 20.00     0.037 C 
HETATM    6  C6  UNL     1     -33.794   4.374   4.256  1.00 20.00     0.037 C 
HETATM    7  C7  UNL     1     -33.566   7.286   3.707  1.00 20.00     0.037 C 
HETATM    8  C8  UNL     1     -34.723   5.384   4.941  1.00 20.00     0.037 C 
ENDROOT
TORSDOF 0
ENDMDL
MODEL 6
REMARK VINA RESULT:      -4.6      1.263      2.985
REMARK  0 active torsions:
REMARK  status: ('A' for Active; 'I' for Inactive)
ROOT
HETATM    1  C1  UNL     1     -34.087   6.739   5.028  1.00 20.00    -0.089 C 
HETATM    2  C2  UNL     1     -33.287   4.917   2.942  1.00 20.00    -0.089 C 
HETATM    3  C3  UNL     1     -33.955   7.415   6.178  1.00 20.00     0.014 C 
HETATM    4  C4  UNL     1     -33.419   4.242   1.792  1.00 20.00     0.014 C 
HETATM    5  C5  UNL     1     -33.603   7.284   3.706  1.00 20.00     0.037 C 
HETATM    6  C6  UNL     1     -34.709   5.364   4.960  1.00 20.00     0.037 C 
HETATM    7  C7  UNL     1     -32.666   6.291   3.011  1.00 20.00     0.037 C 
HETATM    8  C8  UNL     1     -33.770   4.371   4.265  1.00 20.00     0.037 C 
ENDROOT
TORSDOF 0
ENDMDL
MODEL 7
REMARK VINA RESULT:      -4.5      0.956      2.972
REMARK  0 active torsions:
REMARK  status: ('A' for Active; 'I' for Inactive)
ROOT
HETATM    1  C1  UNL     1     -33.658   7.023   5.580  1.00 20.00    -0.089 C 
HETATM    2  C2  UNL     1     -33.712   5.520   3.121  1.00 20.00    -0.089 C 
HETATM    3  C3  UNL     1     -34.095   7.922   6.473  1.00 20.00     0.014 C 
HETATM    4  C4  UNL     1     -33.276   4.620   2.228  1.00 20.00     0.014 C 
HETATM    5  C5  UNL     1     -34.103   5.580   5.597  1.00 20.00     0.037 C 
HETATM    6  C6  UNL     1     -32.703   7.381   4.466  1.00 20.00     0.037 C 
HETATM    7  C7  UNL     1     -34.666   5.163   4.234  1.00 20.00     0.037 C 
HETATM    8  C8  UNL     1     -33.267   6.963   3.104  1.00 20.00     0.037 C 
ENDROOT
TORSDOF 0
ENDMDL
MODEL 8
REMARK VINA RESULT:      -4.5      0.948      2.560
REMARK  0 active torsions:
REMARK  status: ('A' for Active; 'I' for Inactive)
ROOT
HETATM    1  C1  UNL     1     -33.711   5.537   3.124  1.00 20.00    -0.089 C 
HETATM    2  C2  UNL     1     -33.661   7.033   5.587  1.00 20.00    -0.089 C 
HETATM    3  C3  UNL     1     -33.275   4.637   2.230  1.00 20.00     0.014 C 
HETATM    4  C4  UNL     1     -34.097   7.932   6.480  1.00 20.00     0.014 C 
HETATM    5  C5  UNL     1     -34.670   5.179   4.234  1.00 20.00     0.037 C 
HETATM    6  C6  UNL     1     -33.263   6.979   3.111  1.00 20.00     0.037 C 
HETATM    7  C7  UNL     1     -34.109   5.592   5.599  1.00 20.00     0.037 C 
HETATM    8  C8  UNL     1     -32.702   7.391   4.477  1.00 20.00     0.037 C 
ENDROOT
TORSDOF 0
ENDMDL
MODEL 9
REMARK VINA RESULT:      -3.9     11.634     12.394
REMARK  0 active torsions:
REMARK  status: ('A' for Active; 'I' for Inactive)
ROOT
HETATM    1  C1  UNL     1     -33.244  18.507  -0.367  1.00 20.00    -0.089 C 
HETATM    2  C2  UNL     1     -35.049  16.859  -1.896  1.00 20.00    -0.089 C 
HETATM    3  C3  UNL     1     -32.285  18.758   0.535  1.00 20.00     0.014 C 
HETATM    4  C4  UNL     1     -36.007  16.608  -2.798  1.00 20.00     0.014 C 
HETATM    5  C5  UNL     1     -32.939  18.211  -1.815  1.00 20.00     0.037 C 
HETATM    6  C6  UNL     1     -34.710  18.475  -0.007  1.00 20.00     0.037 C 
HETATM    7  C7  UNL     1     -33.583  16.892  -2.255  1.00 20.00     0.037 C 
HETATM    8  C8  UNL     1     -35.354  17.155  -0.446  1.00 20.00     0.037 C 
ENDROOT
TORSDOF 0
ENDMDL
