MODEL 1
REMARK VINA RESULT:      -4.4      0.000      0.000
REMARK  2 active torsions:
REMARK  status: ('A' for Active; 'I' for Inactive)
REMARK    1  A    between atoms: C1_1  and  C2_2 
REMARK    2  A    between atoms: C1_1  and  C3_3 
ROOT
HETATM    1  C1  UNL     1     -33.430   6.258   3.234  1.00 20.00     0.173 C 
HETATM    2  O4  UNL     1     -32.901   5.269   2.728  1.00 20.00    -0.294 OA
ENDROOT
BRANCH   1   3
HETATM    3  C2  UNL     1     -33.110   7.673   2.798  1.00 20.00     0.195 C 
HETATM    4 CL5  UNL     1     -31.497   8.150   3.348  1.00 20.00    -0.122 Cl
ENDBRANCH   1   3
BRANCH   1   5
HETATM    5  C3  UNL     1     -34.421   6.134   4.370  1.00 20.00     0.248 C 
HETATM    6 CL6  UNL     1     -33.841   7.136   5.705  1.00 20.00    -0.100 Cl
HETATM    7 CL7  UNL     1     -34.554   4.435   4.843  1.00 20.00    -0.100 Cl
ENDBRANCH   1   5
TORSDOF 2
ENDMDL
MODEL 2
REMARK VINA RESULT:      -4.3      1.725      1.952
REMARK  2 active torsions:
REMARK  status: ('A' for Active; 'I' for Inactive)
REMARK    1  A    between atoms: C1_1  and  C2_2 
REMARK    2  A    between atoms: C1_1  and  C3_3 
ROOT
HETATM    1  C1  UNL     1     -33.686   6.918   4.175  1.00 20.00     0.173 C 
HETATM    2  O4  UNL     1     -33.739   7.382   5.313  1.00 20.00    -0.294 OA
ENDROOT
BRANCH   1   3
HETATM    3  C2  UNL     1     -33.030   7.647   3.020  1.00 20.00     0.195 C 
HETATM    4 CL5  UNL     1     -31.439   8.262   3.489  1.00 20.00    -0.122 Cl
ENDBRANCH   1   3
BRANCH   1   5
HETATM    5  C3  UNL     1     -34.315   5.585   3.832  1.00 20.00     0.248 C 
HETATM    6 CL6  UNL     1     -34.592   4.713   5.343  1.00 20.00    -0.100 Cl
HETATM    7 CL7  UNL     1     -33.232   4.691   2.755  1.00 20.00    -0.100 Cl
ENDBRANCH   1   5
TORSDOF 2
ENDMDL
MODEL 3
REMARK VINA RESULT:      -4.2      0.680      3.007
REMARK  2 active torsions:
REMARK  status: ('A' for Active; 'I' for Inactive)
REMARK    1  A    between atoms: C1_1  and  C2_2 
REMARK    2  A    between atoms: C1_1  and  C3_3 
ROOT
HETATM    1  C1  UNL     1     -33.738   6.177   3.471  1.00 20.00     0.173 C 
HETATM    2  O4  UNL     1     -33.057   5.608   2.617  1.00 20.00    -0.294 OA
ENDROOT
BRANCH   1   3
HETATM    3  C2  UNL     1     -34.996   5.569   4.056  1.00 20.00     0.195 C 
HETATM    4 CL5  UNL     1     -34.596   4.355   5.280  1.00 20.00    -0.122 Cl
ENDBRANCH   1   3
BRANCH   1   5
HETATM    5  C3  UNL     1     -33.384   7.558   3.975  1.00 20.00     0.248 C 
HETATM    6 CL6  UNL     1     -31.797   7.982   3.324  1.00 20.00    -0.100 Cl
HETATM    7 CL7  UNL     1     -33.380   7.548   5.744  1.00 20.00    -0.100 Cl
ENDBRANCH   1   5
TORSDOF 2
ENDMDL
MODEL 4
REMARK VINA RESULT:      -4.2      1.882      3.653
REMARK  2 active torsions:
REMARK  status: ('A' for Active; 'I' for Inactive)
REMARK    1  A    between atoms: C1_1  and  C2_2 
REMARK    2  A    between atoms: C1_1  and  C3_3 
ROOT
HETATM    1  C1  UNL     1     -33.877   6.882   4.492  1.00 20.00     0.173 C 
HETATM    2  O4  UNL     1     -33.522   7.517   5.485  1.00 20.00    -0.294 OA
ENDROOT
BRANCH   1   3
HETATM    3  C2  UNL     1     -34.986   5.851   4.531  1.00 20.00     0.195 C 
HETATM    4 CL5  UNL     1     -34.525   4.471   5.539  1.00 20.00    -0.122 Cl
ENDBRANCH   1   3
BRANCH   1   5
HETATM    5  C3  UNL     1     -33.196   7.057   3.153  1.00 20.00     0.248 C 
HETATM    6 CL6  UNL     1     -32.844   5.449   2.511  1.00 20.00    -0.100 Cl
HETATM    7 CL7  UNL     1     -31.719   8.007   3.371  1.00 20.00    -0.100 Cl
ENDBRANCH   1   5
TORSDOF 2
ENDMDL
MODEL 5
REMARK VINA RESULT:      -4.1      2.226      2.422
REMARK  2 active torsions:
REMARK  status: ('A' for Active; 'I' for Inactive)
REMARK    1  A    between atoms: C1_1  and  C2_2 
REMARK    2  A    between atoms: C1_1  and  C3_3 
ROOT
HETATM    1  C1  UNL     1     -32.216   8.033   2.931  1.00 20.00     0.173 C 
HETATM    2  O4  UNL     1     -31.325   8.332   3.726  1.00 20.00    -0.294 OA
ENDROOT
BRANCH   1   3
HETATM    3  C2  UNL     1     -32.202   8.469   1.481  1.00 20.00     0.195 C 
HETATM    4 CL5  UNL     1     -32.615  10.184   1.338  1.00 20.00    -0.122 Cl
ENDBRANCH   1   3
BRANCH   1   5
HETATM    5  C3  UNL     1     -33.425   7.231   3.360  1.00 20.00     0.248 C 
HETATM    6 CL6  UNL     1     -33.530   7.311   5.122  1.00 20.00    -0.100 Cl
HETATM    7 CL7  UNL     1     -33.247   5.564   2.795  1.00 20.00    -0.100 Cl
ENDBRANCH   1   5
TORSDOF 2
ENDMDL
MODEL 6
REMARK VINA RESULT:      -4.0      1.823      2.028
REMARK  2 active torsions:
REMARK  status: ('A' for Active; 'I' for Inactive)
REMARK    1  A    between atoms: C1_1  and  C2_2 
REMARK    2  A    between atoms: C1_1  and  C3_3 
ROOT
HETATM    1  C1  UNL     1     -33.522   6.720   3.741  1.00 20.00     0.173 C 
HETATM    2  O4  UNL     1     -32.573   7.500   3.650  1.00 20.00    -0.294 OA
ENDROOT
BRANCH   1   3
HETATM    3  C2  UNL     1     -33.946   5.809   2.608  1.00 20.00     0.195 C 
HETATM    4 CL5  UNL     1     -32.830   4.444   2.449  1.00 20.00    -0.122 Cl
ENDBRANCH   1   3
BRANCH   1   5
HETATM    5  C3  UNL     1     -34.369   6.644   4.991  1.00 20.00     0.248 C 
HETATM    6 CL6  UNL     1     -33.551   7.568   6.256  1.00 20.00    -0.100 Cl
HETATM    7 CL7  UNL     1     -34.572   4.949   5.453  1.00 20.00    -0.100 Cl
ENDBRANCH   1   5
TORSDOF 2
ENDMDL
MODEL 7
REMARK VINA RESULT:      -3.9      1.846      3.251
REMARK  2 active torsions:
REMARK  status: ('A' for Active; 'I' for Inactive)
REMARK    1  A    between atoms: C1_1  and  C2_2 
REMARK    2  A    between atoms: C1_1  and  C3_3 
ROOT
HETATM    1  C1  UNL     1     -34.703   5.944   3.873  1.00 20.00     0.173 C 
HETATM    2  O4  UNL     1     -35.909   6.041   3.645  1.00 20.00    -0.294 OA
ENDROOT
BRANCH   1   3
HETATM    3  C2  UNL     1     -34.145   5.727   5.265  1.00 20.00     0.195 C 
HETATM    4 CL5  UNL     1     -33.957   7.269   6.113  1.00 20.00    -0.122 Cl
ENDBRANCH   1   3
BRANCH   1   5
HETATM    5  C3  UNL     1     -33.675   6.076   2.772  1.00 20.00     0.248 C 
HETATM    6 CL6  UNL     1     -32.870   4.513   2.592  1.00 20.00    -0.100 Cl
HETATM    7 CL7  UNL     1     -32.526   7.352   3.199  1.00 20.00    -0.100 Cl
ENDBRANCH   1   5
TORSDOF 2
ENDMDL
MODEL 8
REMARK VINA RESULT:      -3.9      1.534      3.108
REMARK  2 active torsions:
REMARK  status: ('A' for Active; 'I' for Inactive)
REMARK    1  A    between atoms: C1_1  and  C2_2 
REMARK    2  A    between atoms: C1_1  and  C3_3 
ROOT
HETATM    1  C1  UNL     1     -34.526   6.127   3.655  1.00 20.00     0.173 C 
HETATM    2  O4  UNL     1     -35.755   6.066   3.643  1.00 20.00    -0.294 OA
ENDROOT
BRANCH   1   3
HETATM    3  C2  UNL     1     -33.642   4.954   3.285  1.00 20.00     0.195 C 
HETATM    4 CL5  UNL     1     -33.886   3.606   4.406  1.00 20.00    -0.122 Cl
ENDBRANCH   1   3
BRANCH   1   5
HETATM    5  C3  UNL     1     -33.798   7.382   4.085  1.00 20.00     0.248 C 
HETATM    6 CL6  UNL     1     -32.257   7.436   3.222  1.00 20.00    -0.100 Cl
HETATM    7 CL7  UNL     1     -33.560   7.344   5.837  1.00 20.00    -0.100 Cl
ENDBRANCH   1   5
TORSDOF 2
ENDMDL
MODEL 9
REMARK VINA RESULT:      -3.8      0.978      3.035
REMARK  2 active torsions:
REMARK  status: ('A' for Active; 'I' for Inactive)
REMARK    1  A    between atoms: C1_1  and  C2_2 
REMARK    2  A    between atoms: C1_1  and  C3_3 
ROOT
HETATM    1  C1  UNL     1     -33.540   5.816   3.307  1.00 20.00     0.173 C 
HETATM    2  O4  UNL     1     -33.204   4.964   2.485  1.00 20.00    -0.294 OA
ENDROOT
BRANCH   1   3
HETATM    3  C2  UNL     1     -34.851   5.754   4.063  1.00 20.00     0.195 C 
HETATM    4 CL5  UNL     1     -34.700   4.727   5.497  1.00 20.00    -0.122 Cl
ENDBRANCH   1   3
BRANCH   1   5
HETATM    5  C3  UNL     1     -32.677   7.025   3.595  1.00 20.00     0.248 C 
HETATM    6 CL6  UNL     1     -33.205   7.711   5.136  1.00 20.00    -0.100 Cl
HETATM    7 CL7  UNL     1     -32.846   8.189   2.274  1.00 20.00    -0.100 Cl
ENDBRANCH   1   5
TORSDOF 2
ENDMDL
