MODEL 1
REMARK VINA RESULT:      -6.0      0.000      0.000
REMARK  0 active torsions:
REMARK  status: ('A' for Active; 'I' for Inactive)
ROOT
HETATM    1  C1  UNL     1     -32.516   6.520   2.401  1.00 20.00     0.003 C 
HETATM    2  C2  UNL     1     -33.012   5.286   2.262  1.00 20.00    -0.025 C 
HETATM    3  C3  UNL     1     -32.621   7.253   3.654  1.00 20.00    -0.059 C 
HETATM    4  C4  UNL     1     -33.499   6.860   4.610  1.00 20.00    -0.070 C 
HETATM    5  C5  UNL     1     -33.720   4.607   3.392  1.00 20.00     0.040 C 
HETATM    6  C6  UNL     1     -34.370   5.597   4.408  1.00 20.00    -0.021 C 
HETATM    7  C7  UNL     1     -31.701   8.441   3.742  1.00 20.00     0.048 C 
HETATM    8  C8  UNL     1     -33.725   7.639   5.885  1.00 20.00     0.044 C 
HETATM    9  C9  UNL     1     -35.750   6.039   3.870  1.00 20.00     0.020 C 
HETATM   10  C10 UNL     1     -34.585   4.814   5.721  1.00 20.00     0.020 C 
ENDROOT
TORSDOF 0
ENDMDL
MODEL 2
REMARK VINA RESULT:      -5.1      1.212      2.835
REMARK  0 active torsions:
REMARK  status: ('A' for Active; 'I' for Inactive)
ROOT
HETATM    1  C1  UNL     1     -33.673   6.737   5.756  1.00 20.00     0.003 C 
HETATM    2  C2  UNL     1     -34.641   5.863   5.463  1.00 20.00    -0.025 C 
HETATM    3  C3  UNL     1     -33.010   7.523   4.726  1.00 20.00    -0.059 C 
HETATM    4  C4  UNL     1     -33.109   7.168   3.420  1.00 20.00    -0.070 C 
HETATM    5  C5  UNL     1     -35.074   5.637   4.049  1.00 20.00     0.040 C 
HETATM    6  C6  UNL     1     -33.967   5.953   2.997  1.00 20.00    -0.021 C 
HETATM    7  C7  UNL     1     -32.235   8.696   5.261  1.00 20.00     0.048 C 
HETATM    8  C8  UNL     1     -32.361   7.883   2.319  1.00 20.00     0.044 C 
HETATM    9  C9  UNL     1     -33.037   4.726   2.859  1.00 20.00     0.020 C 
HETATM   10  C10 UNL     1     -34.681   6.178   1.648  1.00 20.00     0.020 C 
ENDROOT
TORSDOF 0
ENDMDL
MODEL 3
REMARK VINA RESULT:      -5.1      1.121      3.807
REMARK  0 active torsions:
REMARK  status: ('A' for Active; 'I' for Inactive)
ROOT
HETATM    1  C1  UNL     1     -34.434   6.102   5.699  1.00 20.00     0.003 C 
HETATM    2  C2  UNL     1     -33.898   7.291   5.995  1.00 20.00    -0.025 C 
HETATM    3  C3  UNL     1     -34.036   5.354   4.516  1.00 20.00    -0.059 C 
HETATM    4  C4  UNL     1     -33.367   5.966   3.507  1.00 20.00    -0.070 C 
HETATM    5  C5  UNL     1     -32.873   7.919   5.104  1.00 20.00     0.040 C 
HETATM    6  C6  UNL     1     -32.970   7.457   3.617  1.00 20.00    -0.021 C 
HETATM    7  C7  UNL     1     -34.452   3.908   4.543  1.00 20.00     0.048 C 
HETATM    8  C8  UNL     1     -33.019   5.268   2.213  1.00 20.00     0.044 C 
HETATM    9  C9  UNL     1     -34.045   8.301   2.896  1.00 20.00     0.020 C 
HETATM   10  C10 UNL     1     -31.601   7.751   2.967  1.00 20.00     0.020 C 
ENDROOT
TORSDOF 0
ENDMDL
MODEL 4
REMARK VINA RESULT:      -4.7      0.973      2.698
REMARK  0 active torsions:
REMARK  status: ('A' for Active; 'I' for Inactive)
ROOT
HETATM    1  C1  UNL     1     -32.925   8.103   4.425  1.00 20.00     0.003 C 
HETATM    2  C2  UNL     1     -32.249   7.952   3.281  1.00 20.00    -0.025 C 
HETATM    3  C3  UNL     1     -33.650   7.000   5.039  1.00 20.00    -0.059 C 
HETATM    4  C4  UNL     1     -33.943   5.886   4.323  1.00 20.00    -0.070 C 
HETATM    5  C5  UNL     1     -32.225   6.639   2.566  1.00 20.00     0.040 C 
HETATM    6  C6  UNL     1     -33.471   5.746   2.857  1.00 20.00    -0.021 C 
HETATM    7  C7  UNL     1     -34.025   7.244   6.476  1.00 20.00     0.048 C 
HETATM    8  C8  UNL     1     -34.780   4.755   4.873  1.00 20.00     0.044 C 
HETATM    9  C9  UNL     1     -34.629   6.177   1.929  1.00 20.00     0.020 C 
HETATM   10  C10 UNL     1     -33.075   4.297   2.501  1.00 20.00     0.020 C 
ENDROOT
TORSDOF 0
ENDMDL
MODEL 5
REMARK VINA RESULT:      -4.3      1.045      2.687
REMARK  0 active torsions:
REMARK  status: ('A' for Active; 'I' for Inactive)
ROOT
HETATM    1  C1  UNL     1     -32.331   7.939   4.647  1.00 20.00     0.003 C 
HETATM    2  C2  UNL     1     -33.119   7.626   5.681  1.00 20.00    -0.025 C 
HETATM    3  C3  UNL     1     -32.654   7.534   3.287  1.00 20.00    -0.059 C 
HETATM    4  C4  UNL     1     -33.571   6.561   3.057  1.00 20.00    -0.070 C 
HETATM    5  C5  UNL     1     -34.367   6.824   5.486  1.00 20.00     0.040 C 
HETATM    6  C6  UNL     1     -34.325   5.897   4.233  1.00 20.00    -0.021 C 
HETATM    7  C7  UNL     1     -31.878   8.276   2.232  1.00 20.00     0.048 C 
HETATM    8  C8  UNL     1     -33.871   6.029   1.675  1.00 20.00     0.044 C 
HETATM    9  C9  UNL     1     -33.594   4.585   4.600  1.00 20.00     0.020 C 
HETATM   10  C10 UNL     1     -35.788   5.557   3.877  1.00 20.00     0.020 C 
ENDROOT
TORSDOF 0
ENDMDL
MODEL 6
REMARK VINA RESULT:      -4.0     11.817     12.586
REMARK  0 active torsions:
REMARK  status: ('A' for Active; 'I' for Inactive)
ROOT
HETATM    1  C1  UNL     1     -33.564  15.345  -3.672  1.00 20.00     0.003 C 
HETATM    2  C2  UNL     1     -33.998  14.346  -4.449  1.00 20.00    -0.025 C 
HETATM    3  C3  UNL     1     -34.483  16.273  -3.030  1.00 20.00    -0.059 C 
HETATM    4  C4  UNL     1     -35.770  16.369  -3.449  1.00 20.00    -0.070 C 
HETATM    5  C5  UNL     1     -35.458  14.150  -4.709  1.00 20.00     0.040 C 
HETATM    6  C6  UNL     1     -36.298  15.459  -4.583  1.00 20.00    -0.021 C 
HETATM    7  C7  UNL     1     -33.858  17.077  -1.921  1.00 20.00     0.048 C 
HETATM    8  C8  UNL     1     -36.739  17.384  -2.890  1.00 20.00     0.044 C 
HETATM    9  C9  UNL     1     -36.213  16.242  -5.913  1.00 20.00     0.020 C 
HETATM   10  C10 UNL     1     -37.764  15.032  -4.360  1.00 20.00     0.020 C 
ENDROOT
TORSDOF 0
ENDMDL
MODEL 7
REMARK VINA RESULT:      -4.0     11.729     12.840
REMARK  0 active torsions:
REMARK  status: ('A' for Active; 'I' for Inactive)
ROOT
HETATM    1  C1  UNL     1     -33.950  14.324  -4.376  1.00 20.00     0.003 C 
HETATM    2  C2  UNL     1     -33.121  15.331  -4.078  1.00 20.00    -0.025 C 
HETATM    3  C3  UNL     1     -35.380  14.534  -4.553  1.00 20.00    -0.059 C 
HETATM    4  C4  UNL     1     -35.969  15.671  -4.105  1.00 20.00    -0.070 C 
HETATM    5  C5  UNL     1     -33.634  16.724  -3.892  1.00 20.00     0.040 C 
HETATM    6  C6  UNL     1     -35.127  16.786  -3.443  1.00 20.00    -0.021 C 
HETATM    7  C7  UNL     1     -36.081  13.392  -5.239  1.00 20.00     0.048 C 
HETATM    8  C8  UNL     1     -37.461  15.899  -4.169  1.00 20.00     0.044 C 
HETATM    9  C9  UNL     1     -35.200  16.605  -1.910  1.00 20.00     0.020 C 
HETATM   10  C10 UNL     1     -35.641  18.199  -3.792  1.00 20.00     0.020 C 
ENDROOT
TORSDOF 0
ENDMDL
MODEL 8
REMARK VINA RESULT:      -4.0     11.808     12.998
REMARK  0 active torsions:
REMARK  status: ('A' for Active; 'I' for Inactive)
ROOT
HETATM    1  C1  UNL     1     -36.674  16.233  -3.533  1.00 20.00     0.003 C 
HETATM    2  C2  UNL     1     -35.609  16.639  -2.833  1.00 20.00    -0.025 C 
HETATM    3  C3  UNL     1     -36.586  15.161  -4.513  1.00 20.00    -0.059 C 
HETATM    4  C4  UNL     1     -35.381  14.761  -4.989  1.00 20.00    -0.070 C 
HETATM    5  C5  UNL     1     -34.266  16.016  -3.043  1.00 20.00     0.040 C 
HETATM    6  C6  UNL     1     -34.075  15.403  -4.465  1.00 20.00    -0.021 C 
HETATM    7  C7  UNL     1     -37.922  14.597  -4.918  1.00 20.00     0.048 C 
HETATM    8  C8  UNL     1     -35.234  13.725  -6.080  1.00 20.00     0.044 C 
HETATM    9  C9  UNL     1     -33.657  16.523  -5.445  1.00 20.00     0.020 C 
HETATM   10  C10 UNL     1     -32.918  14.386  -4.363  1.00 20.00     0.020 C 
ENDROOT
TORSDOF 0
ENDMDL
MODEL 9
REMARK VINA RESULT:      -4.0     11.846     12.953
REMARK  0 active torsions:
REMARK  status: ('A' for Active; 'I' for Inactive)
ROOT
HETATM    1  C1  UNL     1     -36.352  16.510  -3.377  1.00 20.00     0.003 C 
HETATM    2  C2  UNL     1     -37.126  16.387  -4.460  1.00 20.00    -0.025 C 
HETATM    3  C3  UNL     1     -34.955  16.103  -3.381  1.00 20.00    -0.059 C 
HETATM    4  C4  UNL     1     -34.477  15.292  -4.358  1.00 20.00    -0.070 C 
HETATM    5  C5  UNL     1     -36.590  15.803  -5.729  1.00 20.00     0.040 C 
HETATM    6  C6  UNL     1     -35.395  14.824  -5.511  1.00 20.00    -0.021 C 
HETATM    7  C7  UNL     1     -34.159  16.650  -2.226  1.00 20.00     0.048 C 
HETATM    8  C8  UNL     1     -33.065  14.756  -4.359  1.00 20.00     0.044 C 
HETATM    9  C9  UNL     1     -35.947  13.425  -5.155  1.00 20.00     0.020 C 
HETATM   10  C10 UNL     1     -34.646  14.725  -6.857  1.00 20.00     0.020 C 
ENDROOT
TORSDOF 0
ENDMDL
