MODEL 1
REMARK VINA RESULT:      -4.5      0.000      0.000
REMARK  1 active torsions:
REMARK  status: ('A' for Active; 'I' for Inactive)
REMARK    1  A    between atoms: C2_2  and  C3_3 
ROOT
HETATM    1  C1  UNL     1     -33.757   7.340   5.897  1.00 20.00     0.023 C 
HETATM    2  C2  UNL     1     -34.007   6.404   4.971  1.00 20.00    -0.009 C 
HETATM    3  C4  UNL     1     -34.710   5.124   5.316  1.00 20.00     0.052 C 
ENDROOT
BRANCH   2   4
HETATM    4  C3  UNL     1     -33.595   6.580   3.530  1.00 20.00     0.247 C 
HETATM    5  O5  UNL     1     -34.189   5.918   2.678  1.00 20.00    -0.274 OA
HETATM    6 CL6  UNL     1     -32.309   7.699   3.116  1.00 20.00    -0.039 Cl
ENDBRANCH   2   4
TORSDOF 1
ENDMDL
MODEL 2
REMARK VINA RESULT:      -4.5      2.064      2.484
REMARK  1 active torsions:
REMARK  status: ('A' for Active; 'I' for Inactive)
REMARK    1  A    between atoms: C2_2  and  C3_3 
ROOT
HETATM    1  C1  UNL     1     -33.733   7.306   5.827  1.00 20.00     0.023 C 
HETATM    2  C2  UNL     1     -33.777   6.824   4.577  1.00 20.00    -0.009 C 
HETATM    3  C4  UNL     1     -32.920   7.392   3.484  1.00 20.00     0.052 C 
ENDROOT
BRANCH   2   4
HETATM    4  C3  UNL     1     -34.690   5.686   4.195  1.00 20.00     0.247 C 
HETATM    5  O5  UNL     1     -35.766   5.965   3.663  1.00 20.00    -0.274 OA
HETATM    6 CL6  UNL     1     -34.207   4.029   4.511  1.00 20.00    -0.039 Cl
ENDBRANCH   2   4
TORSDOF 1
ENDMDL
MODEL 3
REMARK VINA RESULT:      -4.5      0.098      1.436
REMARK  1 active torsions:
REMARK  status: ('A' for Active; 'I' for Inactive)
REMARK    1  A    between atoms: C2_2  and  C3_3 
ROOT
HETATM    1  C1  UNL     1     -34.725   5.165   5.236  1.00 20.00     0.023 C 
HETATM    2  C2  UNL     1     -34.056   6.278   4.899  1.00 20.00    -0.009 C 
HETATM    3  C4  UNL     1     -33.747   7.345   5.907  1.00 20.00     0.052 C 
ENDROOT
BRANCH   2   4
HETATM    4  C3  UNL     1     -33.579   6.523   3.489  1.00 20.00     0.247 C 
HETATM    5  O5  UNL     1     -34.124   5.895   2.580  1.00 20.00    -0.274 OA
HETATM    6 CL6  UNL     1     -32.287   7.671   3.187  1.00 20.00    -0.039 Cl
ENDBRANCH   2   4
TORSDOF 1
ENDMDL
MODEL 4
REMARK VINA RESULT:      -4.5      2.077      2.529
REMARK  1 active torsions:
REMARK  status: ('A' for Active; 'I' for Inactive)
REMARK    1  A    between atoms: C2_2  and  C3_3 
ROOT
HETATM    1  C1  UNL     1     -32.941   7.300   3.428  1.00 20.00     0.023 C 
HETATM    2  C2  UNL     1     -33.730   6.793   4.387  1.00 20.00    -0.009 C 
HETATM    3  C4  UNL     1     -33.696   7.317   5.792  1.00 20.00     0.052 C 
ENDROOT
BRANCH   2   4
HETATM    4  C3  UNL     1     -34.694   5.666   4.111  1.00 20.00     0.247 C 
HETATM    5  O5  UNL     1     -35.800   5.956   3.652  1.00 20.00    -0.274 OA
HETATM    6 CL6  UNL     1     -34.226   4.008   4.444  1.00 20.00    -0.039 Cl
ENDBRANCH   2   4
TORSDOF 1
ENDMDL
MODEL 5
REMARK VINA RESULT:      -4.4      1.868      2.932
REMARK  1 active torsions:
REMARK  status: ('A' for Active; 'I' for Inactive)
REMARK    1  A    between atoms: C2_2  and  C3_3 
ROOT
HETATM    1  C1  UNL     1     -33.048   4.991   2.594  1.00 20.00     0.023 C 
HETATM    2  C2  UNL     1     -33.303   6.159   3.202  1.00 20.00    -0.009 C 
HETATM    3  C4  UNL     1     -32.606   7.425   2.797  1.00 20.00     0.052 C 
ENDROOT
BRANCH   2   4
HETATM    4  C3  UNL     1     -34.302   6.269   4.327  1.00 20.00     0.247 C 
HETATM    5  O5  UNL     1     -35.398   5.727   4.177  1.00 20.00    -0.274 OA
HETATM    6 CL6  UNL     1     -33.886   7.148   5.787  1.00 20.00    -0.039 Cl
ENDBRANCH   2   4
TORSDOF 1
ENDMDL
MODEL 6
REMARK VINA RESULT:      -4.3      2.452      3.277
REMARK  1 active torsions:
REMARK  status: ('A' for Active; 'I' for Inactive)
REMARK    1  A    between atoms: C2_2  and  C3_3 
ROOT
HETATM    1  C1  UNL     1     -33.963   5.874   2.728  1.00 20.00     0.023 C 
HETATM    2  C2  UNL     1     -33.471   6.668   3.689  1.00 20.00    -0.009 C 
HETATM    3  C4  UNL     1     -32.415   7.693   3.399  1.00 20.00     0.052 C 
ENDROOT
BRANCH   2   4
HETATM    4  C3  UNL     1     -33.948   6.577   5.118  1.00 20.00     0.247 C 
HETATM    5  O5  UNL     1     -33.787   7.561   5.841  1.00 20.00    -0.274 OA
HETATM    6 CL6  UNL     1     -34.702   5.104   5.699  1.00 20.00    -0.039 Cl
ENDBRANCH   2   4
TORSDOF 1
ENDMDL
MODEL 7
REMARK VINA RESULT:      -4.3      1.859      2.454
REMARK  1 active torsions:
REMARK  status: ('A' for Active; 'I' for Inactive)
REMARK    1  A    between atoms: C2_2  and  C3_3 
ROOT
HETATM    1  C1  UNL     1     -34.704   4.627   4.623  1.00 20.00     0.023 C 
HETATM    2  C2  UNL     1     -33.915   5.432   3.896  1.00 20.00    -0.009 C 
HETATM    3  C4  UNL     1     -33.197   4.936   2.675  1.00 20.00     0.052 C 
ENDROOT
BRANCH   2   4
HETATM    4  C3  UNL     1     -33.703   6.880   4.262  1.00 20.00     0.247 C 
HETATM    5  O5  UNL     1     -33.494   7.679   3.348  1.00 20.00    -0.274 OA
HETATM    6 CL6  UNL     1     -33.756   7.377   5.943  1.00 20.00    -0.039 Cl
ENDBRANCH   2   4
TORSDOF 1
ENDMDL
MODEL 8
REMARK VINA RESULT:      -4.2      1.799      2.135
REMARK  1 active torsions:
REMARK  status: ('A' for Active; 'I' for Inactive)
REMARK    1  A    between atoms: C2_2  and  C3_3 
ROOT
HETATM    1  C1  UNL     1     -35.273   5.945   3.554  1.00 20.00     0.023 C 
HETATM    2  C2  UNL     1     -34.500   5.974   4.649  1.00 20.00    -0.009 C 
HETATM    3  C4  UNL     1     -34.574   4.899   5.693  1.00 20.00     0.052 C 
ENDROOT
BRANCH   2   4
HETATM    4  C3  UNL     1     -33.513   7.088   4.896  1.00 20.00     0.247 C 
HETATM    5  O5  UNL     1     -33.488   7.594   6.019  1.00 20.00    -0.274 OA
HETATM    6 CL6  UNL     1     -32.450   7.621   3.607  1.00 20.00    -0.039 Cl
ENDBRANCH   2   4
TORSDOF 1
ENDMDL
MODEL 9
REMARK VINA RESULT:      -4.2      1.832      2.187
REMARK  1 active torsions:
REMARK  status: ('A' for Active; 'I' for Inactive)
REMARK    1  A    between atoms: C2_2  and  C3_3 
ROOT
HETATM    1  C1  UNL     1     -34.611   5.005   5.757  1.00 20.00     0.023 C 
HETATM    2  C2  UNL     1     -34.466   5.955   4.821  1.00 20.00    -0.009 C 
HETATM    3  C4  UNL     1     -35.257   5.929   3.546  1.00 20.00     0.052 C 
ENDROOT
BRANCH   2   4
HETATM    4  C3  UNL     1     -33.501   7.101   4.993  1.00 20.00     0.247 C 
HETATM    5  O5  UNL     1     -33.450   7.649   6.096  1.00 20.00    -0.274 OA
HETATM    6 CL6  UNL     1     -32.498   7.613   3.648  1.00 20.00    -0.039 Cl
ENDBRANCH   2   4
TORSDOF 1
ENDMDL
