MODEL 1
REMARK VINA RESULT:      -4.7      0.000      0.000
REMARK  3 active torsions:
REMARK  status: ('A' for Active; 'I' for Inactive)
REMARK    1  A    between atoms: C1_1  and  C2_2 
REMARK    2  A    between atoms: C4_4  and  C6_6 
REMARK    3  A    between atoms: C6_6  and  O7_7 
ROOT
HETATM    1  C2  UNL     1     -33.218   7.192   3.611  1.00 20.00    -0.002 C 
HETATM    2  C4  UNL     1     -33.946   6.066   3.568  1.00 20.00    -0.001 C 
ENDROOT
BRANCH   1   3
HETATM    3  C1  UNL     1     -32.350   7.613   2.536  1.00 20.00    -0.005 C 
HETATM    4  C3  UNL     1     -32.597   8.688   1.771  1.00 20.00    -0.031 C 
HETATM    5  C5  UNL     1     -31.708   9.134   0.658  1.00 20.00     0.036 C 
ENDBRANCH   1   3
BRANCH   2   6
HETATM    6  C6  UNL     1     -34.850   5.625   4.674  1.00 20.00     0.191 C 
BRANCH   6   7
HETATM    7  O7  UNL     1     -35.001   4.211   4.636  1.00 20.00    -0.397 OA
HETATM    8  H17 UNL     1     -34.648   3.871   5.474  1.00 20.00     0.209 HD
ENDBRANCH   6   7
ENDBRANCH   2   6
TORSDOF 3
ENDMDL
MODEL 2
REMARK VINA RESULT:      -4.5      2.912      4.867
REMARK  3 active torsions:
REMARK  status: ('A' for Active; 'I' for Inactive)
REMARK    1  A    between atoms: C1_1  and  C2_2 
REMARK    2  A    between atoms: C4_4  and  C6_6 
REMARK    3  A    between atoms: C6_6  and  O7_7 
ROOT
HETATM    1  C2  UNL     1     -33.017   7.404   2.574  1.00 20.00    -0.002 C 
HETATM    2  C4  UNL     1     -32.121   8.382   2.373  1.00 20.00    -0.001 C 
ENDROOT
BRANCH   1   3
HETATM    3  C1  UNL     1     -33.317   6.864   3.880  1.00 20.00    -0.005 C 
HETATM    4  C3  UNL     1     -34.324   6.006   4.106  1.00 20.00    -0.031 C 
HETATM    5  C5  UNL     1     -34.644   5.440   5.450  1.00 20.00     0.036 C 
ENDBRANCH   1   3
BRANCH   2   6
HETATM    6  C6  UNL     1     -31.808   8.950   1.026  1.00 20.00     0.191 C 
BRANCH   6   7
HETATM    7  O7  UNL     1     -32.439  10.215   0.880  1.00 20.00    -0.397 OA
HETATM    8  H17 UNL     1     -31.753  10.838   0.591  1.00 20.00     0.209 HD
ENDBRANCH   6   7
ENDBRANCH   2   6
TORSDOF 3
ENDMDL
MODEL 3
REMARK VINA RESULT:      -3.8     10.976     11.199
REMARK  3 active torsions:
REMARK  status: ('A' for Active; 'I' for Inactive)
REMARK    1  A    between atoms: C1_1  and  C2_2 
REMARK    2  A    between atoms: C4_4  and  C6_6 
REMARK    3  A    between atoms: C6_6  and  O7_7 
ROOT
HETATM    1  C2  UNL     1     -35.021  15.778  -3.518  1.00 20.00    -0.002 C 
HETATM    2  C4  UNL     1     -34.931  14.732  -4.353  1.00 20.00    -0.001 C 
ENDROOT
BRANCH   1   3
HETATM    3  C1  UNL     1     -33.869  16.427  -2.937  1.00 20.00    -0.005 C 
HETATM    4  C3  UNL     1     -33.944  17.239  -1.871  1.00 20.00    -0.031 C 
HETATM    5  C5  UNL     1     -32.761  17.915  -1.260  1.00 20.00     0.036 C 
ENDBRANCH   1   3
BRANCH   2   6
HETATM    6  C6  UNL     1     -36.118  14.057  -4.962  1.00 20.00     0.191 C 
BRANCH   6   7
HETATM    7  O7  UNL     1     -35.887  12.656  -5.037  1.00 20.00    -0.397 OA
HETATM    8  H17 UNL     1     -35.755  12.445  -5.975  1.00 20.00     0.209 HD
ENDBRANCH   6   7
ENDBRANCH   2   6
TORSDOF 3
ENDMDL
MODEL 4
REMARK VINA RESULT:      -3.6     11.139     11.463
REMARK  3 active torsions:
REMARK  status: ('A' for Active; 'I' for Inactive)
REMARK    1  A    between atoms: C1_1  and  C2_2 
REMARK    2  A    between atoms: C4_4  and  C6_6 
REMARK    3  A    between atoms: C6_6  and  O7_7 
ROOT
HETATM    1  C2  UNL     1     -34.780  15.924  -3.124  1.00 20.00    -0.002 C 
HETATM    2  C4  UNL     1     -33.535  15.851  -3.619  1.00 20.00    -0.001 C 
ENDROOT
BRANCH   1   3
HETATM    3  C1  UNL     1     -35.113  16.667  -1.931  1.00 20.00    -0.005 C 
HETATM    4  C3  UNL     1     -34.198  17.309  -1.187  1.00 20.00    -0.031 C 
HETATM    5  C5  UNL     1     -34.529  18.081   0.048  1.00 20.00     0.036 C 
ENDBRANCH   1   3
BRANCH   2   6
HETATM    6  C6  UNL     1     -33.182  15.088  -4.856  1.00 20.00     0.191 C 
BRANCH   6   7
HETATM    7  O7  UNL     1     -32.640  13.823  -4.500  1.00 20.00    -0.397 OA
HETATM    8  H17 UNL     1     -33.392  13.249  -4.279  1.00 20.00     0.209 HD
ENDBRANCH   6   7
ENDBRANCH   2   6
TORSDOF 3
ENDMDL
MODEL 5
REMARK VINA RESULT:      -3.6     11.451     11.888
REMARK  3 active torsions:
REMARK  status: ('A' for Active; 'I' for Inactive)
REMARK    1  A    between atoms: C1_1  and  C2_2 
REMARK    2  A    between atoms: C4_4  and  C6_6 
REMARK    3  A    between atoms: C6_6  and  O7_7 
ROOT
HETATM    1  C2  UNL     1     -34.194  17.280  -1.274  1.00 20.00    -0.002 C 
HETATM    2  C4  UNL     1     -33.010  17.887  -1.448  1.00 20.00    -0.001 C 
ENDROOT
BRANCH   1   3
HETATM    3  C1  UNL     1     -34.861  16.535  -2.316  1.00 20.00    -0.005 C 
HETATM    4  C3  UNL     1     -34.203  15.826  -3.247  1.00 20.00    -0.031 C 
HETATM    5  C5  UNL     1     -34.880  15.051  -4.329  1.00 20.00     0.036 C 
ENDBRANCH   1   3
BRANCH   2   6
HETATM    6  C6  UNL     1     -32.311  18.657  -0.373  1.00 20.00     0.191 C 
BRANCH   6   7
HETATM    7  O7  UNL     1     -30.957  18.232  -0.283  1.00 20.00    -0.397 OA
HETATM    8  H17 UNL     1     -30.715  17.886  -1.157  1.00 20.00     0.209 HD
ENDBRANCH   6   7
ENDBRANCH   2   6
TORSDOF 3
ENDMDL
MODEL 6
REMARK VINA RESULT:      -3.4     11.210     11.457
REMARK  3 active torsions:
REMARK  status: ('A' for Active; 'I' for Inactive)
REMARK    1  A    between atoms: C1_1  and  C2_2 
REMARK    2  A    between atoms: C4_4  and  C6_6 
REMARK    3  A    between atoms: C6_6  and  O7_7 
ROOT
HETATM    1  C2  UNL     1     -34.651  15.178  -4.417  1.00 20.00    -0.002 C 
HETATM    2  C4  UNL     1     -35.446  14.149  -4.748  1.00 20.00    -0.001 C 
ENDROOT
BRANCH   1   3
HETATM    3  C1  UNL     1     -34.694  15.826  -3.127  1.00 20.00    -0.005 C 
HETATM    4  C3  UNL     1     -33.772  16.712  -2.720  1.00 20.00    -0.031 C 
HETATM    5  C5  UNL     1     -33.805  17.389  -1.389  1.00 20.00     0.036 C 
ENDBRANCH   1   3
BRANCH   2   6
HETATM    6  C6  UNL     1     -35.405  13.470  -6.080  1.00 20.00     0.191 C 
BRANCH   6   7
HETATM    7  O7  UNL     1     -34.054  13.278  -6.479  1.00 20.00    -0.397 OA
HETATM    8  H17 UNL     1     -33.643  14.157  -6.504  1.00 20.00     0.209 HD
ENDBRANCH   6   7
ENDBRANCH   2   6
TORSDOF 3
ENDMDL
MODEL 7
REMARK VINA RESULT:      -3.3     10.819     11.247
REMARK  3 active torsions:
REMARK  status: ('A' for Active; 'I' for Inactive)
REMARK    1  A    between atoms: C1_1  and  C2_2 
REMARK    2  A    between atoms: C4_4  and  C6_6 
REMARK    3  A    between atoms: C6_6  and  O7_7 
ROOT
HETATM    1  C2  UNL     1     -34.987  15.377  -4.362  1.00 20.00    -0.002 C 
HETATM    2  C4  UNL     1     -35.111  14.042  -4.395  1.00 20.00    -0.001 C 
ENDROOT
BRANCH   1   3
HETATM    3  C1  UNL     1     -34.201  16.073  -3.369  1.00 20.00    -0.005 C 
HETATM    4  C3  UNL     1     -34.730  16.612  -2.260  1.00 20.00    -0.031 C 
HETATM    5  C5  UNL     1     -33.929  17.332  -1.226  1.00 20.00     0.036 C 
ENDBRANCH   1   3
BRANCH   2   6
HETATM    6  C6  UNL     1     -35.919  13.313  -5.421  1.00 20.00     0.191 C 
BRANCH   6   7
HETATM    7  O7  UNL     1     -37.295  13.634  -5.264  1.00 20.00    -0.397 OA
HETATM    8  H17 UNL     1     -37.798  12.856  -5.554  1.00 20.00     0.209 HD
ENDBRANCH   6   7
ENDBRANCH   2   6
TORSDOF 3
ENDMDL
MODEL 8
REMARK VINA RESULT:      -3.2     11.057     11.163
REMARK  3 active torsions:
REMARK  status: ('A' for Active; 'I' for Inactive)
REMARK    1  A    between atoms: C1_1  and  C2_2 
REMARK    2  A    between atoms: C4_4  and  C6_6 
REMARK    3  A    between atoms: C6_6  and  O7_7 
ROOT
HETATM    1  C2  UNL     1     -35.174  16.806  -1.748  1.00 20.00    -0.002 C 
HETATM    2  C4  UNL     1     -34.955  17.435  -0.584  1.00 20.00    -0.001 C 
ENDROOT
BRANCH   1   3
HETATM    3  C1  UNL     1     -34.112  16.420  -2.649  1.00 20.00    -0.005 C 
HETATM    4  C3  UNL     1     -34.264  15.495  -3.609  1.00 20.00    -0.031 C 
HETATM    5  C5  UNL     1     -33.175  15.087  -4.546  1.00 20.00     0.036 C 
ENDBRANCH   1   3
BRANCH   2   6
HETATM    6  C6  UNL     1     -36.048  17.835   0.356  1.00 20.00     0.191 C 
BRANCH   6   7
HETATM    7  O7  UNL     1     -35.802  17.280   1.641  1.00 20.00    -0.397 OA
HETATM    8  H17 UNL     1     -35.283  16.471   1.501  1.00 20.00     0.209 HD
ENDBRANCH   6   7
ENDBRANCH   2   6
TORSDOF 3
ENDMDL
MODEL 9
REMARK VINA RESULT:      -3.2     11.307     11.623
REMARK  3 active torsions:
REMARK  status: ('A' for Active; 'I' for Inactive)
REMARK    1  A    between atoms: C1_1  and  C2_2 
REMARK    2  A    between atoms: C4_4  and  C6_6 
REMARK    3  A    between atoms: C6_6  and  O7_7 
ROOT
HETATM    1  C2  UNL     1     -34.767  16.180  -2.806  1.00 20.00    -0.002 C 
HETATM    2  C4  UNL     1     -36.046  16.359  -3.171  1.00 20.00    -0.001 C 
ENDROOT
BRANCH   1   3
HETATM    3  C1  UNL     1     -34.109  16.995  -1.811  1.00 20.00    -0.005 C 
HETATM    4  C3  UNL     1     -34.721  17.434  -0.700  1.00 20.00    -0.031 C 
HETATM    5  C5  UNL     1     -34.052  18.276   0.336  1.00 20.00     0.036 C 
ENDBRANCH   1   3
BRANCH   2   6
HETATM    6  C6  UNL     1     -36.736  15.518  -4.196  1.00 20.00     0.191 C 
BRANCH   6   7
HETATM    7  O7  UNL     1     -38.031  15.160  -3.731  1.00 20.00    -0.397 OA
HETATM    8  H17 UNL     1     -38.605  15.929  -3.884  1.00 20.00     0.209 HD
ENDBRANCH   6   7
ENDBRANCH   2   6
TORSDOF 3
ENDMDL
