MODEL 1
REMARK VINA RESULT:      -6.6      0.000      0.000
REMARK  0 active torsions:
REMARK  status: ('A' for Active; 'I' for Inactive)
ROOT
HETATM    1  C1  UNL     1     -32.674   7.899   4.669  1.00 20.00     0.053 A 
HETATM    2  C2  UNL     1     -33.639   6.978   4.637  1.00 20.00    -0.072 A 
HETATM    3  C3  UNL     1     -32.159   7.972   3.295  1.00 20.00     0.150 A 
HETATM    4  C4  UNL     1     -34.434   6.469   5.795  1.00 20.00     0.034 C 
HETATM    5  C5  UNL     1     -32.850   7.000   2.379  1.00 20.00     0.092 A 
HETATM    6  C6  UNL     1     -34.350   4.941   5.858  1.00 20.00     0.004 C 
HETATM    7  C7  UNL     1     -34.664   4.283   4.509  1.00 20.00     0.001 C 
HETATM    8  C8  UNL     1     -33.774   4.835   3.388  1.00 20.00     0.009 C 
HETATM    9  C9  UNL     1     -33.893   6.358   3.293  1.00 20.00     0.022 A 
HETATM   10  O10 UNL     1     -31.264   8.734   2.958  1.00 20.00    -0.293 OA
ENDROOT
TORSDOF 0
ENDMDL
MODEL 2
REMARK VINA RESULT:      -6.1      1.017      2.262
REMARK  0 active torsions:
REMARK  status: ('A' for Active; 'I' for Inactive)
ROOT
HETATM    1  C1  UNL     1     -33.007   7.189   1.911  1.00 20.00     0.053 A 
HETATM    2  C2  UNL     1     -33.167   6.589   3.092  1.00 20.00    -0.072 A 
HETATM    3  C3  UNL     1     -32.189   8.377   2.184  1.00 20.00     0.150 A 
HETATM    4  C4  UNL     1     -33.986   5.373   3.379  1.00 20.00     0.034 C 
HETATM    5  C5  UNL     1     -31.859   8.514   3.645  1.00 20.00     0.092 A 
HETATM    6  C6  UNL     1     -34.975   5.662   4.512  1.00 20.00     0.004 C 
HETATM    7  C7  UNL     1     -34.296   6.296   5.732  1.00 20.00     0.001 C 
HETATM    8  C8  UNL     1     -33.513   7.560   5.352  1.00 20.00     0.009 C 
HETATM    9  C9  UNL     1     -32.491   7.262   4.252  1.00 20.00     0.022 A 
HETATM   10  O10 UNL     1     -31.836   9.158   1.312  1.00 20.00    -0.293 OA
ENDROOT
TORSDOF 0
ENDMDL
MODEL 3
REMARK VINA RESULT:      -5.9      2.117      4.039
REMARK  0 active torsions:
REMARK  status: ('A' for Active; 'I' for Inactive)
ROOT
HETATM    1  C1  UNL     1     -33.443   5.208   2.986  1.00 20.00     0.053 A 
HETATM    2  C2  UNL     1     -33.300   6.512   3.227  1.00 20.00    -0.072 A 
HETATM    3  C3  UNL     1     -34.233   4.688   4.109  1.00 20.00     0.150 A 
HETATM    4  C4  UNL     1     -32.510   7.495   2.424  1.00 20.00     0.034 C 
HETATM    5  C5  UNL     1     -34.564   5.758   5.112  1.00 20.00     0.092 A 
HETATM    6  C6  UNL     1     -31.518   8.233   3.327  1.00 20.00     0.004 C 
HETATM    7  C7  UNL     1     -32.186   8.803   4.584  1.00 20.00     0.001 C 
HETATM    8  C8  UNL     1     -32.938   7.720   5.368  1.00 20.00     0.009 C 
HETATM    9  C9  UNL     1     -33.963   7.011   4.479  1.00 20.00     0.022 A 
HETATM   10  O10 UNL     1     -34.565   3.515   4.203  1.00 20.00    -0.293 OA
ENDROOT
TORSDOF 0
ENDMDL
MODEL 4
REMARK VINA RESULT:      -4.8      2.036      3.766
REMARK  0 active torsions:
REMARK  status: ('A' for Active; 'I' for Inactive)
ROOT
HETATM    1  C1  UNL     1     -33.312   7.262   5.213  1.00 20.00     0.053 A 
HETATM    2  C2  UNL     1     -32.634   7.420   4.075  1.00 20.00    -0.072 A 
HETATM    3  C3  UNL     1     -34.260   6.171   4.955  1.00 20.00     0.150 A 
HETATM    4  C4  UNL     1     -31.597   8.455   3.781  1.00 20.00     0.034 C 
HETATM    5  C5  UNL     1     -34.162   5.656   3.546  1.00 20.00     0.092 A 
HETATM    6  C6  UNL     1     -31.965   9.218   2.505  1.00 20.00     0.004 C 
HETATM    7  C7  UNL     1     -32.301   8.279   1.340  1.00 20.00     0.001 C 
HETATM    8  C8  UNL     1     -33.402   7.279   1.716  1.00 20.00     0.009 C 
HETATM    9  C9  UNL     1     -33.015   6.482   2.964  1.00 20.00     0.022 A 
HETATM   10  O10 UNL     1     -35.039   5.752   5.800  1.00 20.00    -0.293 OA
ENDROOT
TORSDOF 0
ENDMDL
MODEL 5
REMARK VINA RESULT:      -4.8     11.520     12.482
REMARK  0 active torsions:
REMARK  status: ('A' for Active; 'I' for Inactive)
ROOT
HETATM    1  C1  UNL     1     -34.413  14.175  -4.147  1.00 20.00     0.053 A 
HETATM    2  C2  UNL     1     -34.569  15.458  -3.816  1.00 20.00    -0.072 A 
HETATM    3  C3  UNL     1     -35.661  13.791  -4.820  1.00 20.00     0.150 A 
HETATM    4  C4  UNL     1     -33.614  16.309  -3.043  1.00 20.00     0.034 C 
HETATM    5  C5  UNL     1     -36.649  14.924  -4.869  1.00 20.00     0.092 A 
HETATM    6  C6  UNL     1     -34.330  16.945  -1.847  1.00 20.00     0.004 C 
HETATM    7  C7  UNL     1     -35.641  17.632  -2.249  1.00 20.00     0.001 C 
HETATM    8  C8  UNL     1     -36.575  16.675  -3.000  1.00 20.00     0.009 C 
HETATM    9  C9  UNL     1     -35.877  16.074  -4.223  1.00 20.00     0.022 A 
HETATM   10  O10 UNL     1     -35.858  12.673  -5.271  1.00 20.00    -0.293 OA
ENDROOT
TORSDOF 0
ENDMDL
MODEL 6
REMARK VINA RESULT:      -4.5      1.937      3.065
REMARK  0 active torsions:
REMARK  status: ('A' for Active; 'I' for Inactive)
ROOT
HETATM    1  C1  UNL     1     -32.883   5.905   2.657  1.00 20.00     0.053 A 
HETATM    2  C2  UNL     1     -33.673   6.327   3.646  1.00 20.00    -0.072 A 
HETATM    3  C3  UNL     1     -33.139   4.464   2.540  1.00 20.00     0.150 A 
HETATM    4  C4  UNL     1     -33.742   7.706   4.217  1.00 20.00     0.034 C 
HETATM    5  C5  UNL     1     -34.139   3.983   3.555  1.00 20.00     0.092 A 
HETATM    6  C6  UNL     1     -33.545   7.655   5.735  1.00 20.00     0.004 C 
HETATM    7  C7  UNL     1     -34.458   6.623   6.407  1.00 20.00     0.001 C 
HETATM    8  C8  UNL     1     -34.293   5.230   5.787  1.00 20.00     0.009 C 
HETATM    9  C9  UNL     1     -34.535   5.270   4.276  1.00 20.00     0.022 A 
HETATM   10  O10 UNL     1     -32.586   3.754   1.713  1.00 20.00    -0.293 OA
ENDROOT
TORSDOF 0
ENDMDL
MODEL 7
REMARK VINA RESULT:      -4.5     11.852     12.425
REMARK  0 active torsions:
REMARK  status: ('A' for Active; 'I' for Inactive)
ROOT
HETATM    1  C1  UNL     1     -32.739  18.844   1.807  1.00 20.00     0.053 A 
HETATM    2  C2  UNL     1     -33.788  18.736   0.990  1.00 20.00    -0.072 A 
HETATM    3  C3  UNL     1     -31.558  18.779   0.936  1.00 20.00     0.150 A 
HETATM    4  C4  UNL     1     -35.229  18.670   1.381  1.00 20.00     0.034 C 
HETATM    5  C5  UNL     1     -31.930  18.589  -0.509  1.00 20.00     0.092 A 
HETATM    6  C6  UNL     1     -35.883  17.430   0.764  1.00 20.00     0.004 C 
HETATM    7  C7  UNL     1     -35.607  17.311  -0.740  1.00 20.00     0.001 C 
HETATM    8  C8  UNL     1     -34.105  17.347  -1.045  1.00 20.00     0.009 C 
HETATM    9  C9  UNL     1     -33.457  18.609  -0.470  1.00 20.00     0.022 A 
HETATM   10  O10 UNL     1     -30.413  18.861   1.358  1.00 20.00    -0.293 OA
ENDROOT
TORSDOF 0
ENDMDL
MODEL 8
REMARK VINA RESULT:      -4.5     12.049     12.737
REMARK  0 active torsions:
REMARK  status: ('A' for Active; 'I' for Inactive)
ROOT
HETATM    1  C1  UNL     1     -36.950  15.441  -4.092  1.00 20.00     0.053 A 
HETATM    2  C2  UNL     1     -35.634  15.278  -3.950  1.00 20.00    -0.072 A 
HETATM    3  C3  UNL     1     -37.390  14.335  -4.952  1.00 20.00     0.150 A 
HETATM    4  C4  UNL     1     -34.689  16.181  -3.226  1.00 20.00     0.034 C 
HETATM    5  C5  UNL     1     -36.245  13.460  -5.381  1.00 20.00     0.092 A 
HETATM    6  C6  UNL     1     -33.534  16.580  -4.150  1.00 20.00     0.004 C 
HETATM    7  C7  UNL     1     -32.888  15.369  -4.834  1.00 20.00     0.001 C 
HETATM    8  C8  UNL     1     -33.923  14.523  -5.585  1.00 20.00     0.009 C 
HETATM    9  C9  UNL     1     -35.054  14.083  -4.653  1.00 20.00     0.022 A 
HETATM   10  O10 UNL     1     -38.557  14.169  -5.280  1.00 20.00    -0.293 OA
ENDROOT
TORSDOF 0
ENDMDL
MODEL 9
REMARK VINA RESULT:      -4.4     11.850     12.540
REMARK  0 active torsions:
REMARK  status: ('A' for Active; 'I' for Inactive)
ROOT
HETATM    1  C1  UNL     1     -35.432  17.694   1.156  1.00 20.00     0.053 A 
HETATM    2  C2  UNL     1     -35.085  17.862  -0.121  1.00 20.00    -0.072 A 
HETATM    3  C3  UNL     1     -34.408  18.401   1.935  1.00 20.00     0.150 A 
HETATM    4  C4  UNL     1     -35.758  17.277  -1.321  1.00 20.00     0.034 C 
HETATM    5  C5  UNL     1     -33.352  19.015   1.058  1.00 20.00     0.092 A 
HETATM    6  C6  UNL     1     -34.736  16.524  -2.179  1.00 20.00     0.004 C 
HETATM    7  C7  UNL     1     -33.489  17.366  -2.473  1.00 20.00     0.001 C 
HETATM    8  C8  UNL     1     -32.841  17.890  -1.186  1.00 20.00     0.009 C 
HETATM    9  C9  UNL     1     -33.848  18.683  -0.349  1.00 20.00     0.022 A 
HETATM   10  O10 UNL     1     -34.424  18.463   3.156  1.00 20.00    -0.293 OA
ENDROOT
TORSDOF 0
ENDMDL
