MODEL 1
REMARK VINA RESULT:      -4.0      0.000      0.000
REMARK  4 active torsions:
REMARK  status: ('A' for Active; 'I' for Inactive)
REMARK    1  A    between atoms: C2_2  and  C5_5 
REMARK    2  A    between atoms: C2_2  and  C6_6 
REMARK    3  A    between atoms: C5_5  and  O7_7 
REMARK    4  A    between atoms: C6_6  and  S8_8 
ROOT
HETATM    1  C1  UNL     1     -33.941   6.453   5.547  1.00 20.00    -0.025 C 
HETATM    2  C2  UNL     1     -33.966   6.260   4.212  1.00 20.00    -0.051 C 
HETATM    3  C3  UNL     1     -33.764   7.741   6.281  1.00 20.00     0.036 C 
ENDROOT
BRANCH   2   4
HETATM    4  C5  UNL     1     -34.178   4.869   3.661  1.00 20.00     0.198 C 
BRANCH   4   5
HETATM    5  O7  UNL     1     -34.943   4.102   4.582  1.00 20.00    -0.397 OA
HETATM    6  H20 UNL     1     -34.385   3.356   4.856  1.00 20.00     0.209 HD
ENDBRANCH   4   5
ENDBRANCH   2   4
BRANCH   2   7
HETATM    7  C6  UNL     1     -33.767   7.354   3.195  1.00 20.00     0.109 C 
BRANCH   7   8
HETATM    8  S8  UNL     1     -32.008   7.774   3.033  1.00 20.00    -0.169 SA
HETATM    9  C4  UNL     1     -32.123   8.833   1.573  1.00 20.00     0.090 C 
ENDBRANCH   7   8
ENDBRANCH   2   7
TORSDOF 4
ENDMDL
MODEL 2
REMARK VINA RESULT:      -3.9      2.614      3.620
REMARK  4 active torsions:
REMARK  status: ('A' for Active; 'I' for Inactive)
REMARK    1  A    between atoms: C2_2  and  C5_5 
REMARK    2  A    between atoms: C2_2  and  C6_6 
REMARK    3  A    between atoms: C5_5  and  O7_7 
REMARK    4  A    between atoms: C6_6  and  S8_8 
ROOT
HETATM    1  C1  UNL     1     -32.953   7.749   4.900  1.00 20.00    -0.025 C 
HETATM    2  C2  UNL     1     -32.935   7.434   3.588  1.00 20.00    -0.051 C 
HETATM    3  C3  UNL     1     -33.856   7.206   5.959  1.00 20.00     0.036 C 
ENDROOT
BRANCH   2   4
HETATM    4  C5  UNL     1     -31.922   8.085   2.676  1.00 20.00     0.198 C 
BRANCH   4   5
HETATM    5  O7  UNL     1     -32.591   8.911   1.733  1.00 20.00    -0.397 OA
HETATM    6  H20 UNL     1     -31.991   9.017   0.977  1.00 20.00     0.209 HD
ENDBRANCH   4   5
ENDBRANCH   2   4
BRANCH   2   7
HETATM    7  C6  UNL     1     -33.895   6.471   2.937  1.00 20.00     0.109 C 
BRANCH   7   8
HETATM    8  S8  UNL     1     -33.222   4.786   2.940  1.00 20.00    -0.169 SA
HETATM    9  C4  UNL     1     -34.223   4.106   4.283  1.00 20.00     0.090 C 
ENDBRANCH   7   8
ENDBRANCH   2   7
TORSDOF 4
ENDMDL
MODEL 3
REMARK VINA RESULT:      -3.8      1.539      1.633
REMARK  4 active torsions:
REMARK  status: ('A' for Active; 'I' for Inactive)
REMARK    1  A    between atoms: C2_2  and  C5_5 
REMARK    2  A    between atoms: C2_2  and  C6_6 
REMARK    3  A    between atoms: C5_5  and  O7_7 
REMARK    4  A    between atoms: C6_6  and  S8_8 
ROOT
HETATM    1  C1  UNL     1     -33.817   6.774   4.732  1.00 20.00    -0.025 C 
HETATM    2  C2  UNL     1     -33.183   6.966   3.558  1.00 20.00    -0.051 C 
HETATM    3  C3  UNL     1     -33.644   7.542   6.002  1.00 20.00     0.036 C 
ENDROOT
BRANCH   2   4
HETATM    4  C5  UNL     1     -33.516   6.086   2.375  1.00 20.00     0.198 C 
BRANCH   4   5
HETATM    5  O7  UNL     1     -33.025   4.772   2.605  1.00 20.00    -0.397 OA
HETATM    6  H20 UNL     1     -33.324   4.227   1.859  1.00 20.00     0.209 HD
ENDBRANCH   4   5
ENDBRANCH   2   4
BRANCH   2   7
HETATM    7  C6  UNL     1     -32.116   8.006   3.333  1.00 20.00     0.109 C 
BRANCH   7   8
HETATM    8  S8  UNL     1     -31.898   8.336   1.561  1.00 20.00    -0.169 SA
HETATM    9  C4  UNL     1     -32.682   9.964   1.499  1.00 20.00     0.090 C 
ENDBRANCH   7   8
ENDBRANCH   2   7
TORSDOF 4
ENDMDL
MODEL 4
REMARK VINA RESULT:      -3.7      1.735      2.536
REMARK  4 active torsions:
REMARK  status: ('A' for Active; 'I' for Inactive)
REMARK    1  A    between atoms: C2_2  and  C5_5 
REMARK    2  A    between atoms: C2_2  and  C6_6 
REMARK    3  A    between atoms: C5_5  and  O7_7 
REMARK    4  A    between atoms: C6_6  and  S8_8 
ROOT
HETATM    1  C1  UNL     1     -34.347   5.399   4.845  1.00 20.00    -0.025 C 
HETATM    2  C2  UNL     1     -33.782   6.520   4.352  1.00 20.00    -0.051 C 
HETATM    3  C3  UNL     1     -34.414   4.051   4.205  1.00 20.00     0.036 C 
ENDROOT
BRANCH   2   4
HETATM    4  C5  UNL     1     -33.802   7.790   5.170  1.00 20.00     0.198 C 
BRANCH   4   5
HETATM    5  O7  UNL     1     -33.037   7.608   6.353  1.00 20.00    -0.397 OA
HETATM    6  H20 UNL     1     -32.433   6.866   6.185  1.00 20.00     0.209 HD
ENDBRANCH   4   5
ENDBRANCH   2   4
BRANCH   2   7
HETATM    7  C6  UNL     1     -33.134   6.614   2.994  1.00 20.00     0.109 C 
BRANCH   7   8
HETATM    8  S8  UNL     1     -31.905   7.949   2.955  1.00 20.00    -0.169 SA
HETATM    9  C4  UNL     1     -32.501   8.813   1.484  1.00 20.00     0.090 C 
ENDBRANCH   7   8
ENDBRANCH   2   7
TORSDOF 4
ENDMDL
MODEL 5
REMARK VINA RESULT:      -3.7      1.841      3.529
REMARK  4 active torsions:
REMARK  status: ('A' for Active; 'I' for Inactive)
REMARK    1  A    between atoms: C2_2  and  C5_5 
REMARK    2  A    between atoms: C2_2  and  C6_6 
REMARK    3  A    between atoms: C5_5  and  O7_7 
REMARK    4  A    between atoms: C6_6  and  S8_8 
ROOT
HETATM    1  C1  UNL     1     -32.142   8.115   3.589  1.00 20.00    -0.025 C 
HETATM    2  C2  UNL     1     -33.135   7.424   4.184  1.00 20.00    -0.051 C 
HETATM    3  C3  UNL     1     -31.853   8.228   2.127  1.00 20.00     0.036 C 
ENDROOT
BRANCH   2   4
HETATM    4  C5  UNL     1     -33.270   7.452   5.688  1.00 20.00     0.198 C 
BRANCH   4   5
HETATM    5  O7  UNL     1     -34.394   6.676   6.081  1.00 20.00    -0.397 OA
HETATM    6  H20 UNL     1     -35.080   6.817   5.409  1.00 20.00     0.209 HD
ENDBRANCH   4   5
ENDBRANCH   2   4
BRANCH   2   7
HETATM    7  C6  UNL     1     -34.138   6.577   3.442  1.00 20.00     0.109 C 
BRANCH   7   8
HETATM    8  S8  UNL     1     -33.420   4.974   2.987  1.00 20.00    -0.169 SA
HETATM    9  C4  UNL     1     -34.168   3.970   4.290  1.00 20.00     0.090 C 
ENDBRANCH   7   8
ENDBRANCH   2   7
TORSDOF 4
ENDMDL
MODEL 6
REMARK VINA RESULT:      -3.6     11.987     12.281
REMARK  4 active torsions:
REMARK  status: ('A' for Active; 'I' for Inactive)
REMARK    1  A    between atoms: C2_2  and  C5_5 
REMARK    2  A    between atoms: C2_2  and  C6_6 
REMARK    3  A    between atoms: C5_5  and  O7_7 
REMARK    4  A    between atoms: C6_6  and  S8_8 
ROOT
HETATM    1  C1  UNL     1     -35.088  15.642  -3.360  1.00 20.00    -0.025 C 
HETATM    2  C2  UNL     1     -35.010  14.818  -4.425  1.00 20.00    -0.051 C 
HETATM    3  C3  UNL     1     -34.002  16.483  -2.773  1.00 20.00     0.036 C 
ENDROOT
BRANCH   2   4
HETATM    4  C5  UNL     1     -36.238  14.062  -4.877  1.00 20.00     0.198 C 
BRANCH   4   5
HETATM    5  O7  UNL     1     -35.915  12.688  -5.049  1.00 20.00    -0.397 OA
HETATM    6  H20 UNL     1     -35.295  12.455  -4.340  1.00 20.00     0.209 HD
ENDBRANCH   4   5
ENDBRANCH   2   4
BRANCH   2   7
HETATM    7  C6  UNL     1     -33.748  14.565  -5.209  1.00 20.00     0.109 C 
BRANCH   7   8
HETATM    8  S8  UNL     1     -33.703  15.585  -6.709  1.00 20.00    -0.169 SA
HETATM    9  C4  UNL     1     -34.068  14.292  -7.918  1.00 20.00     0.090 C 
ENDBRANCH   7   8
ENDBRANCH   2   7
TORSDOF 4
ENDMDL
MODEL 7
REMARK VINA RESULT:      -3.6      0.928      2.265
REMARK  4 active torsions:
REMARK  status: ('A' for Active; 'I' for Inactive)
REMARK    1  A    between atoms: C2_2  and  C5_5 
REMARK    2  A    between atoms: C2_2  and  C6_6 
REMARK    3  A    between atoms: C5_5  and  O7_7 
REMARK    4  A    between atoms: C6_6  and  S8_8 
ROOT
HETATM    1  C1  UNL     1     -33.624   4.905   3.537  1.00 20.00    -0.025 C 
HETATM    2  C2  UNL     1     -33.910   6.093   4.109  1.00 20.00    -0.051 C 
HETATM    3  C3  UNL     1     -33.062   4.658   2.175  1.00 20.00     0.036 C 
ENDROOT
BRANCH   2   4
HETATM    4  C5  UNL     1     -34.460   6.132   5.516  1.00 20.00     0.198 C 
BRANCH   4   5
HETATM    5  O7  UNL     1     -35.000   4.861   5.853  1.00 20.00    -0.397 OA
HETATM    6  H20 UNL     1     -34.248   4.260   5.971  1.00 20.00     0.209 HD
ENDBRANCH   4   5
ENDBRANCH   2   4
BRANCH   2   7
HETATM    7  C6  UNL     1     -33.744   7.424   3.423  1.00 20.00     0.109 C 
BRANCH   7   8
HETATM    8  S8  UNL     1     -31.997   7.915   3.379  1.00 20.00    -0.169 SA
HETATM    9  C4  UNL     1     -31.960   8.608   1.711  1.00 20.00     0.090 C 
ENDBRANCH   7   8
ENDBRANCH   2   7
TORSDOF 4
ENDMDL
MODEL 8
REMARK VINA RESULT:      -3.6      2.802      4.180
REMARK  4 active torsions:
REMARK  status: ('A' for Active; 'I' for Inactive)
REMARK    1  A    between atoms: C2_2  and  C5_5 
REMARK    2  A    between atoms: C2_2  and  C6_6 
REMARK    3  A    between atoms: C5_5  and  O7_7 
REMARK    4  A    between atoms: C6_6  and  S8_8 
ROOT
HETATM    1  C1  UNL     1     -32.556   5.917   2.625  1.00 20.00    -0.025 C 
HETATM    2  C2  UNL     1     -32.809   7.132   3.155  1.00 20.00    -0.051 C 
HETATM    3  C3  UNL     1     -33.409   4.692   2.699  1.00 20.00     0.036 C 
ENDROOT
BRANCH   2   4
HETATM    4  C5  UNL     1     -31.821   8.256   2.951  1.00 20.00     0.198 C 
BRANCH   4   5
HETATM    5  O7  UNL     1     -31.699   8.539   1.564  1.00 20.00    -0.397 OA
HETATM    6  H20 UNL     1     -30.751   8.517   1.355  1.00 20.00     0.209 HD
ENDBRANCH   4   5
ENDBRANCH   2   4
BRANCH   2   7
HETATM    7  C6  UNL     1     -34.026   7.457   3.982  1.00 20.00     0.109 C 
BRANCH   7   8
HETATM    8  S8  UNL     1     -33.715   7.139   5.742  1.00 20.00    -0.169 SA
HETATM    9  C4  UNL     1     -34.598   5.568   5.885  1.00 20.00     0.090 C 
ENDBRANCH   7   8
ENDBRANCH   2   7
TORSDOF 4
ENDMDL
MODEL 9
REMARK VINA RESULT:      -3.5      2.510      4.424
REMARK  4 active torsions:
REMARK  status: ('A' for Active; 'I' for Inactive)
REMARK    1  A    between atoms: C2_2  and  C5_5 
REMARK    2  A    between atoms: C2_2  and  C6_6 
REMARK    3  A    between atoms: C5_5  and  O7_7 
REMARK    4  A    between atoms: C6_6  and  S8_8 
ROOT
HETATM    1  C1  UNL     1     -31.968   9.027   1.312  1.00 20.00    -0.025 C 
HETATM    2  C2  UNL     1     -32.300   8.304   2.401  1.00 20.00    -0.051 C 
HETATM    3  C3  UNL     1     -32.827   9.354   0.134  1.00 20.00     0.036 C 
ENDROOT
BRANCH   2   4
HETATM    4  C5  UNL     1     -31.285   8.101   3.502  1.00 20.00     0.198 C 
BRANCH   4   5
HETATM    5  O7  UNL     1     -31.875   8.411   4.757  1.00 20.00    -0.397 OA
HETATM    6  H20 UNL     1     -31.533   7.763   5.395  1.00 20.00     0.209 HD
ENDBRANCH   4   5
ENDBRANCH   2   4
BRANCH   2   7
HETATM    7  C6  UNL     1     -33.639   7.641   2.600  1.00 20.00     0.109 C 
BRANCH   7   8
HETATM    8  S8  UNL     1     -33.441   5.857   2.875  1.00 20.00    -0.169 SA
HETATM    9  C4  UNL     1     -34.774   5.627   4.074  1.00 20.00     0.090 C 
ENDBRANCH   7   8
ENDBRANCH   2   7
TORSDOF 4
ENDMDL
