MODEL 1
REMARK VINA RESULT:      -5.1      0.000      0.000
REMARK  3 active torsions:
REMARK  status: ('A' for Active; 'I' for Inactive)
REMARK    1  A    between atoms: C2_2  and  C7_7 
REMARK    2  A    between atoms: C5_5  and  C6_6 
REMARK    3  A    between atoms: C6_6  and  C7_7 
ROOT
HETATM    1  C4  UNL     1     -33.459   7.423   5.518  1.00 20.00     0.012 C 
HETATM    2  C7  UNL     1     -33.796   7.375   4.027  1.00 20.00     0.012 C 
ENDROOT
BRANCH   2   3
HETATM    3  C2  UNL     1     -32.506   7.275   3.209  1.00 20.00     0.149 A 
HETATM    4  C1  UNL     1     -32.123   8.345   2.226  1.00 20.00     0.200 A 
HETATM    5  O8  UNL     1     -31.522   8.264   3.528  1.00 20.00    -0.381 OA
ENDBRANCH   2   3
BRANCH   2   6
HETATM    6  C6  UNL     1     -34.731   6.203   3.673  1.00 20.00     0.006 C 
BRANCH   6   7
HETATM    7  C5  UNL     1     -34.851   5.160   4.786  1.00 20.00    -0.004 C 
HETATM    8  C3  UNL     1     -34.099   3.885   4.435  1.00 20.00     0.005 C 
ENDBRANCH   6   7
ENDBRANCH   2   6
TORSDOF 3
ENDMDL
MODEL 2
REMARK VINA RESULT:      -4.8      1.961      3.915
REMARK  3 active torsions:
REMARK  status: ('A' for Active; 'I' for Inactive)
REMARK    1  A    between atoms: C2_2  and  C7_7 
REMARK    2  A    between atoms: C5_5  and  C6_6 
REMARK    3  A    between atoms: C6_6  and  C7_7 
ROOT
HETATM    1  C4  UNL     1     -33.676   7.461   5.874  1.00 20.00     0.012 C 
HETATM    2  C7  UNL     1     -33.496   6.633   4.601  1.00 20.00     0.012 C 
ENDROOT
BRANCH   2   3
HETATM    3  C2  UNL     1     -34.623   5.602   4.493  1.00 20.00     0.149 A 
HETATM    4  C1  UNL     1     -34.326   4.132   4.387  1.00 20.00     0.200 A 
HETATM    5  O8  UNL     1     -34.743   4.731   5.624  1.00 20.00    -0.381 OA
ENDBRANCH   2   3
BRANCH   2   6
HETATM    6  C6  UNL     1     -33.463   7.504   3.332  1.00 20.00     0.006 C 
BRANCH   6   7
HETATM    7  C5  UNL     1     -32.053   7.946   2.932  1.00 20.00    -0.004 C 
HETATM    8  C3  UNL     1     -32.069   8.750   1.640  1.00 20.00     0.005 C 
ENDBRANCH   6   7
ENDBRANCH   2   6
TORSDOF 3
ENDMDL
MODEL 3
REMARK VINA RESULT:      -4.3      1.350      2.180
REMARK  3 active torsions:
REMARK  status: ('A' for Active; 'I' for Inactive)
REMARK    1  A    between atoms: C2_2  and  C7_7 
REMARK    2  A    between atoms: C5_5  and  C6_6 
REMARK    3  A    between atoms: C6_6  and  C7_7 
ROOT
HETATM    1  C4  UNL     1     -32.986   5.024   2.295  1.00 20.00     0.012 C 
HETATM    2  C7  UNL     1     -33.219   6.091   3.366  1.00 20.00     0.012 C 
ENDROOT
BRANCH   2   3
HETATM    3  C2  UNL     1     -33.005   7.482   2.764  1.00 20.00     0.149 A 
HETATM    4  C1  UNL     1     -31.836   8.335   3.170  1.00 20.00     0.200 A 
HETATM    5  O8  UNL     1     -31.842   7.600   1.937  1.00 20.00    -0.381 OA
ENDBRANCH   2   3
BRANCH   2   6
HETATM    6  C6  UNL     1     -34.624   6.003   3.989  1.00 20.00     0.006 C 
BRANCH   6   7
HETATM    7  C5  UNL     1     -34.610   5.927   5.517  1.00 20.00    -0.004 C 
HETATM    8  C3  UNL     1     -33.889   7.121   6.126  1.00 20.00     0.005 C 
ENDBRANCH   6   7
ENDBRANCH   2   6
TORSDOF 3
ENDMDL
MODEL 4
REMARK VINA RESULT:      -4.2      1.610      4.160
REMARK  3 active torsions:
REMARK  status: ('A' for Active; 'I' for Inactive)
REMARK    1  A    between atoms: C2_2  and  C7_7 
REMARK    2  A    between atoms: C5_5  and  C6_6 
REMARK    3  A    between atoms: C6_6  and  C7_7 
ROOT
HETATM    1  C4  UNL     1     -31.476   8.232   3.812  1.00 20.00     0.012 C 
HETATM    2  C7  UNL     1     -32.530   7.374   3.110  1.00 20.00     0.012 C 
ENDROOT
BRANCH   2   3
HETATM    3  C2  UNL     1     -33.813   7.347   3.945  1.00 20.00     0.149 A 
HETATM    4  C1  UNL     1     -34.287   6.082   4.604  1.00 20.00     0.200 A 
HETATM    5  O8  UNL     1     -33.609   7.111   5.342  1.00 20.00    -0.381 OA
ENDBRANCH   2   3
BRANCH   2   6
HETATM    6  C6  UNL     1     -32.843   7.874   1.688  1.00 20.00     0.006 C 
BRANCH   6   7
HETATM    7  C5  UNL     1     -31.893   8.971   1.204  1.00 20.00    -0.004 C 
HETATM    8  C3  UNL     1     -32.650  10.239   0.835  1.00 20.00     0.005 C 
ENDBRANCH   6   7
ENDBRANCH   2   6
TORSDOF 3
ENDMDL
MODEL 5
REMARK VINA RESULT:      -4.2      1.998      3.939
REMARK  3 active torsions:
REMARK  status: ('A' for Active; 'I' for Inactive)
REMARK    1  A    between atoms: C2_2  and  C7_7 
REMARK    2  A    between atoms: C5_5  and  C6_6 
REMARK    3  A    between atoms: C6_6  and  C7_7 
ROOT
HETATM    1  C4  UNL     1     -33.285   7.667   5.007  1.00 20.00     0.012 C 
HETATM    2  C7  UNL     1     -32.473   7.262   3.776  1.00 20.00     0.012 C 
ENDROOT
BRANCH   2   3
HETATM    3  C2  UNL     1     -33.358   6.467   2.813  1.00 20.00     0.149 A 
HETATM    4  C1  UNL     1     -33.239   4.973   2.698  1.00 20.00     0.200 A 
HETATM    5  O8  UNL     1     -34.294   5.591   3.450  1.00 20.00    -0.381 OA
ENDBRANCH   2   3
BRANCH   2   6
HETATM    6  C6  UNL     1     -31.865   8.474   3.047  1.00 20.00     0.006 C 
BRANCH   6   7
HETATM    7  C5  UNL     1     -32.272   8.567   1.574  1.00 20.00    -0.004 C 
HETATM    8  C3  UNL     1     -32.577  10.003   1.173  1.00 20.00     0.005 C 
ENDBRANCH   6   7
ENDBRANCH   2   6
TORSDOF 3
ENDMDL
MODEL 6
REMARK VINA RESULT:      -4.2      2.104      4.148
REMARK  3 active torsions:
REMARK  status: ('A' for Active; 'I' for Inactive)
REMARK    1  A    between atoms: C2_2  and  C7_7 
REMARK    2  A    between atoms: C5_5  and  C6_6 
REMARK    3  A    between atoms: C6_6  and  C7_7 
ROOT
HETATM    1  C4  UNL     1     -33.671   6.177   2.456  1.00 20.00     0.012 C 
HETATM    2  C7  UNL     1     -33.322   7.315   3.416  1.00 20.00     0.012 C 
ENDROOT
BRANCH   2   3
HETATM    3  C2  UNL     1     -33.198   6.768   4.841  1.00 20.00     0.149 A 
HETATM    4  C1  UNL     1     -33.933   7.407   5.986  1.00 20.00     0.200 A 
HETATM    5  O8  UNL     1     -34.402   6.199   5.366  1.00 20.00    -0.381 OA
ENDBRANCH   2   3
BRANCH   2   6
HETATM    6  C6  UNL     1     -32.023   8.041   3.021  1.00 20.00     0.006 C 
BRANCH   6   7
HETATM    7  C5  UNL     1     -31.965   8.427   1.541  1.00 20.00    -0.004 C 
HETATM    8  C3  UNL     1     -32.491   9.836   1.314  1.00 20.00     0.005 C 
ENDBRANCH   6   7
ENDBRANCH   2   6
TORSDOF 3
ENDMDL
MODEL 7
REMARK VINA RESULT:      -4.1      1.561      2.089
REMARK  3 active torsions:
REMARK  status: ('A' for Active; 'I' for Inactive)
REMARK    1  A    between atoms: C2_2  and  C7_7 
REMARK    2  A    between atoms: C5_5  and  C6_6 
REMARK    3  A    between atoms: C6_6  and  C7_7 
ROOT
HETATM    1  C4  UNL     1     -31.541   8.141   3.652  1.00 20.00     0.012 C 
HETATM    2  C7  UNL     1     -32.826   7.849   2.876  1.00 20.00     0.012 C 
ENDROOT
BRANCH   2   3
HETATM    3  C2  UNL     1     -32.663   8.292   1.420  1.00 20.00     0.149 A 
HETATM    4  C1  UNL     1     -32.694   9.746   1.040  1.00 20.00     0.200 A 
HETATM    5  O8  UNL     1     -31.460   9.021   1.152  1.00 20.00    -0.381 OA
ENDBRANCH   2   3
BRANCH   2   6
HETATM    6  C6  UNL     1     -33.220   6.361   2.928  1.00 20.00     0.006 C 
BRANCH   6   7
HETATM    7  C5  UNL     1     -34.564   6.108   3.615  1.00 20.00    -0.004 C 
HETATM    8  C3  UNL     1     -34.415   6.072   5.129  1.00 20.00     0.005 C 
ENDBRANCH   6   7
ENDBRANCH   2   6
TORSDOF 3
ENDMDL
MODEL 8
REMARK VINA RESULT:      -3.8      1.295      2.468
REMARK  3 active torsions:
REMARK  status: ('A' for Active; 'I' for Inactive)
REMARK    1  A    between atoms: C2_2  and  C7_7 
REMARK    2  A    between atoms: C5_5  and  C6_6 
REMARK    3  A    between atoms: C6_6  and  C7_7 
ROOT
HETATM    1  C4  UNL     1     -32.307   8.050   2.488  1.00 20.00     0.012 C 
HETATM    2  C7  UNL     1     -32.871   6.981   3.425  1.00 20.00     0.012 C 
ENDROOT
BRANCH   2   3
HETATM    3  C2  UNL     1     -33.653   7.649   4.558  1.00 20.00     0.149 A 
HETATM    4  C1  UNL     1     -33.967   6.910   5.829  1.00 20.00     0.200 A 
HETATM    5  O8  UNL     1     -32.898   7.866   5.755  1.00 20.00    -0.381 OA
ENDBRANCH   2   3
BRANCH   2   6
HETATM    6  C6  UNL     1     -33.773   5.971   2.692  1.00 20.00     0.006 C 
BRANCH   6   7
HETATM    7  C5  UNL     1     -33.421   4.511   2.986  1.00 20.00    -0.004 C 
HETATM    8  C3  UNL     1     -34.179   3.991   4.198  1.00 20.00     0.005 C 
ENDBRANCH   6   7
ENDBRANCH   2   6
TORSDOF 3
ENDMDL
MODEL 9
REMARK VINA RESULT:      -3.6     11.462     12.077
REMARK  3 active torsions:
REMARK  status: ('A' for Active; 'I' for Inactive)
REMARK    1  A    between atoms: C2_2  and  C7_7 
REMARK    2  A    between atoms: C5_5  and  C6_6 
REMARK    3  A    between atoms: C6_6  and  C7_7 
ROOT
HETATM    1  C4  UNL     1     -33.120  14.449  -4.410  1.00 20.00     0.012 C 
HETATM    2  C7  UNL     1     -34.549  14.990  -4.485  1.00 20.00     0.012 C 
ENDROOT
BRANCH   2   3
HETATM    3  C2  UNL     1     -35.534  13.827  -4.625  1.00 20.00     0.149 A 
HETATM    4  C1  UNL     1     -36.425  13.702  -5.829  1.00 20.00     0.200 A 
HETATM    5  O8  UNL     1     -35.232  12.916  -5.687  1.00 20.00    -0.381 OA
ENDBRANCH   2   3
BRANCH   2   6
HETATM    6  C6  UNL     1     -34.920  15.844  -3.259  1.00 20.00     0.006 C 
BRANCH   6   7
HETATM    7  C5  UNL     1     -33.741  16.633  -2.685  1.00 20.00    -0.004 C 
HETATM    8  C3  UNL     1     -34.091  17.258  -1.343  1.00 20.00     0.005 C 
ENDBRANCH   6   7
ENDBRANCH   2   6
TORSDOF 3
ENDMDL
