MODEL 1
REMARK VINA RESULT:      -4.5      0.000      0.000
REMARK  1 active torsions:
REMARK  status: ('A' for Active; 'I' for Inactive)
REMARK    1  A    between atoms: C5_5  and  O10_10 
ROOT
HETATM    1  C1  UNL     1     -33.299  18.760   0.515  1.00 20.00     0.007 C 
HETATM    2  C2  UNL     1     -34.512  18.228   0.739  1.00 20.00    -0.084 C 
HETATM    3  C3  UNL     1     -35.231  17.399  -0.301  1.00 20.00     0.042 C 
HETATM    4  C4  UNL     1     -33.124  17.493  -1.677  1.00 20.00     0.045 C 
HETATM    5  C5  UNL     1     -32.536  18.578  -0.766  1.00 20.00     0.142 C 
HETATM    6  C6  UNL     1     -34.665  17.535  -1.738  1.00 20.00    -0.042 C 
HETATM    7  C7  UNL     1     -35.227  18.413   2.045  1.00 20.00     0.043 C 
HETATM    8  C8  UNL     1     -35.152  18.846  -2.387  1.00 20.00     0.015 C 
HETATM    9  C9  UNL     1     -35.172  16.362  -2.596  1.00 20.00     0.015 C 
ENDROOT
BRANCH   5  10
HETATM   10  O10 UNL     1     -31.180  18.248  -0.470  1.00 20.00    -0.392 OA
HETATM   11  H26 UNL     1     -31.199  17.692   0.324  1.00 20.00     0.210 HD
ENDBRANCH   5  10
TORSDOF 1
ENDMDL
MODEL 2
REMARK VINA RESULT:      -4.5      3.138      4.680
REMARK  1 active torsions:
REMARK  status: ('A' for Active; 'I' for Inactive)
REMARK    1  A    between atoms: C5_5  and  O10_10 
ROOT
HETATM    1  C1  UNL     1     -33.523  15.680  -3.504  1.00 20.00     0.007 C 
HETATM    2  C2  UNL     1     -34.635  16.157  -2.919  1.00 20.00    -0.084 C 
HETATM    3  C3  UNL     1     -36.018  15.789  -3.404  1.00 20.00     0.042 C 
HETATM    4  C4  UNL     1     -34.920  14.130  -4.948  1.00 20.00     0.045 C 
HETATM    5  C5  UNL     1     -33.538  14.735  -4.671  1.00 20.00     0.142 C 
HETATM    6  C6  UNL     1     -36.061  15.162  -4.821  1.00 20.00    -0.042 C 
HETATM    7  C7  UNL     1     -34.573  17.078  -1.737  1.00 20.00     0.043 C 
HETATM    8  C8  UNL     1     -35.930  16.257  -5.899  1.00 20.00     0.015 C 
HETATM    9  C9  UNL     1     -37.413  14.454  -5.023  1.00 20.00     0.015 C 
ENDROOT
BRANCH   5  10
HETATM   10  O10 UNL     1     -32.609  13.678  -4.441  1.00 20.00    -0.392 OA
HETATM   11  H26 UNL     1     -32.940  12.909  -4.931  1.00 20.00     0.210 HD
ENDBRANCH   5  10
TORSDOF 1
ENDMDL
MODEL 3
REMARK VINA RESULT:      -4.3      4.197      5.921
REMARK  1 active torsions:
REMARK  status: ('A' for Active; 'I' for Inactive)
REMARK    1  A    between atoms: C5_5  and  O10_10 
ROOT
HETATM    1  C1  UNL     1     -34.747  14.501  -4.001  1.00 20.00     0.007 C 
HETATM    2  C2  UNL     1     -34.793  15.832  -3.821  1.00 20.00    -0.084 C 
HETATM    3  C3  UNL     1     -35.205  16.778  -4.925  1.00 20.00     0.042 C 
HETATM    4  C4  UNL     1     -35.816  14.751  -6.288  1.00 20.00     0.045 C 
HETATM    5  C5  UNL     1     -35.109  13.825  -5.291  1.00 20.00     0.142 C 
HETATM    6  C6  UNL     1     -35.187  16.158  -6.347  1.00 20.00    -0.042 C 
HETATM    7  C7  UNL     1     -34.450  16.465  -2.505  1.00 20.00     0.043 C 
HETATM    8  C8  UNL     1     -33.744  16.091  -6.886  1.00 20.00     0.015 C 
HETATM    9  C9  UNL     1     -36.011  17.045  -7.298  1.00 20.00     0.015 C 
ENDROOT
BRANCH   5  10
HETATM   10  O10 UNL     1     -35.951  12.705  -5.023  1.00 20.00    -0.392 OA
HETATM   11  H26 UNL     1     -35.451  12.120  -4.433  1.00 20.00     0.210 HD
ENDBRANCH   5  10
TORSDOF 1
ENDMDL
MODEL 4
REMARK VINA RESULT:      -4.3      4.100      5.737
REMARK  1 active torsions:
REMARK  status: ('A' for Active; 'I' for Inactive)
REMARK    1  A    between atoms: C5_5  and  O10_10 
ROOT
HETATM    1  C1  UNL     1     -34.893  14.659  -4.309  1.00 20.00     0.007 C 
HETATM    2  C2  UNL     1     -35.135  15.754  -3.569  1.00 20.00    -0.084 C 
HETATM    3  C3  UNL     1     -36.489  16.426  -3.547  1.00 20.00     0.042 C 
HETATM    4  C4  UNL     1     -37.355  14.483  -4.896  1.00 20.00     0.045 C 
HETATM    5  C5  UNL     1     -35.928  13.990  -5.166  1.00 20.00     0.142 C 
HETATM    6  C6  UNL     1     -37.433  16.012  -4.706  1.00 20.00    -0.042 C 
HETATM    7  C7  UNL     1     -34.077  16.374  -2.705  1.00 20.00     0.043 C 
HETATM    8  C8  UNL     1     -37.044  16.746  -6.005  1.00 20.00     0.015 C 
HETATM    9  C9  UNL     1     -38.877  16.409  -4.349  1.00 20.00     0.015 C 
ENDROOT
BRANCH   5  10
HETATM   10  O10 UNL     1     -35.880  12.580  -4.960  1.00 20.00    -0.392 OA
HETATM   11  H26 UNL     1     -36.244  12.172  -5.760  1.00 20.00     0.210 HD
ENDBRANCH   5  10
TORSDOF 1
ENDMDL
MODEL 5
REMARK VINA RESULT:      -4.3      4.159      6.489
REMARK  1 active torsions:
REMARK  status: ('A' for Active; 'I' for Inactive)
REMARK    1  A    between atoms: C5_5  and  O10_10 
ROOT
HETATM    1  C1  UNL     1     -35.431  14.609  -6.396  1.00 20.00     0.007 C 
HETATM    2  C2  UNL     1     -34.538  15.600  -6.558  1.00 20.00    -0.084 C 
HETATM    3  C3  UNL     1     -33.904  16.309  -5.383  1.00 20.00     0.042 C 
HETATM    4  C4  UNL     1     -35.006  14.602  -3.895  1.00 20.00     0.045 C 
HETATM    5  C5  UNL     1     -35.875  14.101  -5.055  1.00 20.00     0.142 C 
HETATM    6  C6  UNL     1     -34.630  16.092  -4.030  1.00 20.00    -0.042 C 
HETATM    7  C7  UNL     1     -34.101  16.057  -7.918  1.00 20.00     0.043 C 
HETATM    8  C8  UNL     1     -35.886  16.983  -3.944  1.00 20.00     0.015 C 
HETATM    9  C9  UNL     1     -33.687  16.486  -2.879  1.00 20.00     0.015 C 
ENDROOT
BRANCH   5  10
HETATM   10  O10 UNL     1     -35.864  12.675  -5.058  1.00 20.00    -0.392 OA
HETATM   11  H26 UNL     1     -35.575  12.403  -5.943  1.00 20.00     0.210 HD
ENDBRANCH   5  10
TORSDOF 1
ENDMDL
MODEL 6
REMARK VINA RESULT:      -4.2     10.772     11.483
REMARK  1 active torsions:
REMARK  status: ('A' for Active; 'I' for Inactive)
REMARK    1  A    between atoms: C5_5  and  O10_10 
ROOT
HETATM    1  C1  UNL     1     -31.717   8.579   2.747  1.00 20.00     0.007 C 
HETATM    2  C2  UNL     1     -32.628   8.381   1.779  1.00 20.00    -0.084 C 
HETATM    3  C3  UNL     1     -33.829   7.485   1.978  1.00 20.00     0.042 C 
HETATM    4  C4  UNL     1     -33.165   7.313   4.401  1.00 20.00     0.045 C 
HETATM    5  C5  UNL     1     -31.803   7.955   4.109  1.00 20.00     0.142 C 
HETATM    6  C6  UNL     1     -33.728   6.531   3.196  1.00 20.00    -0.042 C 
HETATM    7  C7  UNL     1     -32.517   9.048   0.440  1.00 20.00     0.043 C 
HETATM    8  C8  UNL     1     -32.830   5.323   2.861  1.00 20.00     0.015 C 
HETATM    9  C9  UNL     1     -35.131   6.001   3.543  1.00 20.00     0.015 C 
ENDROOT
BRANCH   5  10
HETATM   10  O10 UNL     1     -31.535   8.941   5.104  1.00 20.00    -0.392 OA
HETATM   11  H26 UNL     1     -31.528   9.797   4.648  1.00 20.00     0.210 HD
ENDBRANCH   5  10
TORSDOF 1
ENDMDL
MODEL 7
REMARK VINA RESULT:      -4.2     12.391     13.108
REMARK  1 active torsions:
REMARK  status: ('A' for Active; 'I' for Inactive)
REMARK    1  A    between atoms: C5_5  and  O10_10 
ROOT
HETATM    1  C1  UNL     1     -32.628   6.223   2.307  1.00 20.00     0.007 C 
HETATM    2  C2  UNL     1     -32.648   7.167   3.263  1.00 20.00    -0.084 C 
HETATM    3  C3  UNL     1     -33.391   6.975   4.566  1.00 20.00     0.042 C 
HETATM    4  C4  UNL     1     -33.791   4.590   3.862  1.00 20.00     0.045 C 
HETATM    5  C5  UNL     1     -33.316   4.895   2.436  1.00 20.00     0.142 C 
HETATM    6  C6  UNL     1     -34.421   5.816   4.556  1.00 20.00    -0.042 C 
HETATM    7  C7  UNL     1     -31.923   8.470   3.104  1.00 20.00     0.043 C 
HETATM    8  C8  UNL     1     -35.713   6.249   3.836  1.00 20.00     0.015 C 
HETATM    9  C9  UNL     1     -34.784   5.448   6.007  1.00 20.00     0.015 C 
ENDROOT
BRANCH   5  10
HETATM   10  O10 UNL     1     -32.434   3.858   2.012  1.00 20.00    -0.392 OA
HETATM   11  H26 UNL     1     -32.306   3.978   1.058  1.00 20.00     0.210 HD
ENDBRANCH   5  10
TORSDOF 1
ENDMDL
MODEL 8
REMARK VINA RESULT:      -4.1      3.108      4.591
REMARK  1 active torsions:
REMARK  status: ('A' for Active; 'I' for Inactive)
REMARK    1  A    between atoms: C5_5  and  O10_10 
ROOT
HETATM    1  C1  UNL     1     -35.591  16.553  -2.304  1.00 20.00     0.007 C 
HETATM    2  C2  UNL     1     -34.306  16.942  -2.371  1.00 20.00    -0.084 C 
HETATM    3  C3  UNL     1     -33.485  16.784  -3.630  1.00 20.00     0.042 C 
HETATM    4  C4  UNL     1     -35.602  16.077  -4.796  1.00 20.00     0.045 C 
HETATM    5  C5  UNL     1     -36.336  15.944  -3.456  1.00 20.00     0.142 C 
HETATM    6  C6  UNL     1     -34.087  15.811  -4.676  1.00 20.00    -0.042 C 
HETATM    7  C7  UNL     1     -33.608  17.572  -1.203  1.00 20.00     0.043 C 
HETATM    8  C8  UNL     1     -33.819  14.348  -4.268  1.00 20.00     0.015 C 
HETATM    9  C9  UNL     1     -33.418  16.055  -6.041  1.00 20.00     0.015 C 
ENDROOT
BRANCH   5  10
HETATM   10  O10 UNL     1     -37.620  16.555  -3.570  1.00 20.00    -0.392 OA
HETATM   11  H26 UNL     1     -37.598  17.092  -4.377  1.00 20.00     0.210 HD
ENDBRANCH   5  10
TORSDOF 1
ENDMDL
MODEL 9
REMARK VINA RESULT:      -4.1      3.371      5.285
REMARK  1 active torsions:
REMARK  status: ('A' for Active; 'I' for Inactive)
REMARK    1  A    between atoms: C5_5  and  O10_10 
ROOT
HETATM    1  C1  UNL     1     -35.191  14.040  -4.466  1.00 20.00     0.007 C 
HETATM    2  C2  UNL     1     -36.210  14.897  -4.641  1.00 20.00    -0.084 C 
HETATM    3  C3  UNL     1     -36.055  16.384  -4.419  1.00 20.00     0.042 C 
HETATM    4  C4  UNL     1     -33.586  15.977  -4.137  1.00 20.00     0.045 C 
HETATM    5  C5  UNL     1     -33.811  14.462  -4.054  1.00 20.00     0.142 C 
HETATM    6  C6  UNL     1     -34.791  16.789  -3.618  1.00 20.00    -0.042 C 
HETATM    7  C7  UNL     1     -37.567  14.434  -5.081  1.00 20.00     0.043 C 
HETATM    8  C8  UNL     1     -35.006  16.544  -2.111  1.00 20.00     0.015 C 
HETATM    9  C9  UNL     1     -34.519  18.291  -3.822  1.00 20.00     0.015 C 
ENDROOT
BRANCH   5  10
HETATM   10  O10 UNL     1     -32.846  13.807  -4.874  1.00 20.00    -0.392 OA
HETATM   11  H26 UNL     1     -31.979  13.990  -4.480  1.00 20.00     0.210 HD
ENDBRANCH   5  10
TORSDOF 1
ENDMDL
