MODEL 1
REMARK VINA RESULT:      -5.3      0.000      0.000
REMARK  0 active torsions:
REMARK  status: ('A' for Active; 'I' for Inactive)
ROOT
HETATM    1  C1  UNL     1     -34.200   4.343   4.738  1.00 20.00     0.000 C 
HETATM    2  C2  UNL     1     -34.770   5.485   5.573  1.00 20.00     0.000 C 
HETATM    3  C3  UNL     1     -33.916   4.678   3.274  1.00 20.00     0.004 C 
HETATM    4  C4  UNL     1     -33.949   6.775   5.568  1.00 20.00     0.004 C 
HETATM    5  C5  UNL     1     -32.697   5.591   3.105  1.00 20.00     0.049 C 
HETATM    6  C6  UNL     1     -34.038   7.517   4.234  1.00 20.00     0.049 C 
HETATM    7  C7  UNL     1     -33.066   8.779   1.540  1.00 20.00     0.180 C 
HETATM    8  C8  UNL     1     -31.576   8.822   1.811  1.00 20.00     0.103 C 
HETATM    9  C9  UNL     1     -33.014   7.092   3.167  1.00 20.00     0.108 C 
HETATM   10  O10 UNL     1     -33.545   7.473   1.877  1.00 20.00    -0.369 OA
HETATM   11  S11 UNL     1     -31.438   8.005   3.407  1.00 20.00    -0.129 SA
ENDROOT
TORSDOF 0
ENDMDL
MODEL 2
REMARK VINA RESULT:      -4.9      1.216      2.284
REMARK  0 active torsions:
REMARK  status: ('A' for Active; 'I' for Inactive)
ROOT
HETATM    1  C1  UNL     1     -34.802   5.187   5.502  1.00 20.00     0.000 C 
HETATM    2  C2  UNL     1     -34.171   4.204   4.521  1.00 20.00     0.000 C 
HETATM    3  C3  UNL     1     -34.039   6.496   5.702  1.00 20.00     0.004 C 
HETATM    4  C4  UNL     1     -33.882   4.762   3.128  1.00 20.00     0.004 C 
HETATM    5  C5  UNL     1     -34.143   7.428   4.490  1.00 20.00     0.049 C 
HETATM    6  C6  UNL     1     -32.706   5.739   3.124  1.00 20.00     0.049 C 
HETATM    7  C7  UNL     1     -31.182   8.451   2.775  1.00 20.00     0.180 C 
HETATM    8  C8  UNL     1     -32.205   9.204   1.948  1.00 20.00     0.103 C 
HETATM    9  C9  UNL     1     -33.060   7.206   3.424  1.00 20.00     0.108 C 
HETATM   10  O10 UNL     1     -31.857   7.859   3.891  1.00 20.00    -0.369 OA
HETATM   11  S11 UNL     1     -33.587   8.056   1.882  1.00 20.00    -0.129 SA
ENDROOT
TORSDOF 0
ENDMDL
MODEL 3
REMARK VINA RESULT:      -4.3     11.776     12.438
REMARK  0 active torsions:
REMARK  status: ('A' for Active; 'I' for Inactive)
ROOT
HETATM    1  C1  UNL     1     -33.959  18.253  -0.558  1.00 20.00     0.000 C 
HETATM    2  C2  UNL     1     -35.212  17.388  -0.472  1.00 20.00     0.000 C 
HETATM    3  C3  UNL     1     -32.889  17.763  -1.534  1.00 20.00     0.004 C 
HETATM    4  C4  UNL     1     -35.917  17.120  -1.801  1.00 20.00     0.004 C 
HETATM    5  C5  UNL     1     -33.292  17.963  -2.998  1.00 20.00     0.049 C 
HETATM    6  C6  UNL     1     -35.138  16.151  -2.691  1.00 20.00     0.049 C 
HETATM    7  C7  UNL     1     -33.527  15.143  -5.178  1.00 20.00     0.180 C 
HETATM    8  C8  UNL     1     -33.890  16.235  -6.165  1.00 20.00     0.103 C 
HETATM    9  C9  UNL     1     -34.080  16.792  -3.605  1.00 20.00     0.108 C 
HETATM   10  O10 UNL     1     -33.123  15.765  -3.953  1.00 20.00    -0.369 OA
HETATM   11  S11 UNL     1     -34.861  17.370  -5.165  1.00 20.00    -0.129 SA
ENDROOT
TORSDOF 0
ENDMDL
MODEL 4
REMARK VINA RESULT:      -4.1     11.833     12.433
REMARK  0 active torsions:
REMARK  status: ('A' for Active; 'I' for Inactive)
ROOT
HETATM    1  C1  UNL     1     -34.043  16.712  -2.659  1.00 20.00     0.000 C 
HETATM    2  C2  UNL     1     -35.523  16.415  -2.444  1.00 20.00     0.000 C 
HETATM    3  C3  UNL     1     -33.299  15.726  -3.559  1.00 20.00     0.004 C 
HETATM    4  C4  UNL     1     -36.355  16.267  -3.718  1.00 20.00     0.004 C 
HETATM    5  C5  UNL     1     -33.683  15.871  -5.035  1.00 20.00     0.049 C 
HETATM    6  C6  UNL     1     -36.056  14.966  -4.462  1.00 20.00     0.049 C 
HETATM    7  C7  UNL     1     -35.100  13.100  -6.786  1.00 20.00     0.180 C 
HETATM    8  C8  UNL     1     -35.079  14.107  -7.918  1.00 20.00     0.103 C 
HETATM    9  C9  UNL     1     -34.890  15.025  -5.464  1.00 20.00     0.108 C 
HETATM   10  O10 UNL     1     -34.418  13.673  -5.665  1.00 20.00    -0.369 OA
HETATM   11  S11 UNL     1     -35.485  15.649  -7.087  1.00 20.00    -0.129 SA
ENDROOT
TORSDOF 0
ENDMDL
MODEL 5
REMARK VINA RESULT:      -4.1     11.764     12.460
REMARK  0 active torsions:
REMARK  status: ('A' for Active; 'I' for Inactive)
ROOT
HETATM    1  C1  UNL     1     -33.325  18.781   0.003  1.00 20.00     0.000 C 
HETATM    2  C2  UNL     1     -34.584  18.026   0.417  1.00 20.00     0.000 C 
HETATM    3  C3  UNL     1     -32.541  18.165  -1.155  1.00 20.00     0.004 C 
HETATM    4  C4  UNL     1     -35.588  17.761  -0.703  1.00 20.00     0.004 C 
HETATM    5  C5  UNL     1     -33.251  18.334  -2.502  1.00 20.00     0.049 C 
HETATM    6  C6  UNL     1     -35.100  16.694  -1.684  1.00 20.00     0.049 C 
HETATM    7  C7  UNL     1     -34.170  15.454  -4.403  1.00 20.00     0.180 C 
HETATM    8  C8  UNL     1     -34.670  16.528  -5.347  1.00 20.00     0.103 C 
HETATM    9  C9  UNL     1     -34.235  17.207  -2.848  1.00 20.00     0.108 C 
HETATM   10  O10 UNL     1     -33.456  16.091  -3.338  1.00 20.00    -0.369 OA
HETATM   11  S11 UNL     1     -35.307  17.780  -4.226  1.00 20.00    -0.129 SA
ENDROOT
TORSDOF 0
ENDMDL
MODEL 6
REMARK VINA RESULT:      -4.1     11.810     12.580
REMARK  0 active torsions:
REMARK  status: ('A' for Active; 'I' for Inactive)
ROOT
HETATM    1  C1  UNL     1     -35.175  17.394  -0.412  1.00 20.00     0.000 C 
HETATM    2  C2  UNL     1     -33.893  18.210  -0.544  1.00 20.00     0.000 C 
HETATM    3  C3  UNL     1     -35.980  17.223  -1.700  1.00 20.00     0.004 C 
HETATM    4  C4  UNL     1     -32.914  17.726  -1.614  1.00 20.00     0.004 C 
HETATM    5  C5  UNL     1     -35.310  16.263  -2.688  1.00 20.00     0.049 C 
HETATM    6  C6  UNL     1     -33.411  18.012  -3.031  1.00 20.00     0.049 C 
HETATM    7  C7  UNL     1     -34.394  17.415  -5.942  1.00 20.00     0.180 C 
HETATM    8  C8  UNL     1     -33.938  15.976  -6.066  1.00 20.00     0.103 C 
HETATM    9  C9  UNL     1     -34.316  16.932  -3.650  1.00 20.00     0.108 C 
HETATM   10  O10 UNL     1     -35.089  17.560  -4.699  1.00 20.00    -0.369 OA
HETATM   11  S11 UNL     1     -33.292  15.619  -4.426  1.00 20.00    -0.129 SA
ENDROOT
TORSDOF 0
ENDMDL
MODEL 7
REMARK VINA RESULT:      -4.0     11.462     12.202
REMARK  0 active torsions:
REMARK  status: ('A' for Active; 'I' for Inactive)
ROOT
HETATM    1  C1  UNL     1     -37.171  14.245  -5.312  1.00 20.00     0.000 C 
HETATM    2  C2  UNL     1     -35.920  13.372  -5.322  1.00 20.00     0.000 C 
HETATM    3  C3  UNL     1     -37.244  15.275  -4.185  1.00 20.00     0.004 C 
HETATM    4  C4  UNL     1     -34.592  14.128  -5.329  1.00 20.00     0.004 C 
HETATM    5  C5  UNL     1     -36.268  16.438  -4.387  1.00 20.00     0.049 C 
HETATM    6  C6  UNL     1     -34.291  14.791  -3.985  1.00 20.00     0.049 C 
HETATM    7  C7  UNL     1     -33.754  17.096  -1.936  1.00 20.00     0.180 C 
HETATM    8  C8  UNL     1     -33.438  18.217  -2.905  1.00 20.00     0.103 C 
HETATM    9  C9  UNL     1     -34.870  16.204  -3.796  1.00 20.00     0.108 C 
HETATM   10  O10 UNL     1     -34.957  16.453  -2.374  1.00 20.00    -0.369 OA
HETATM   11  S11 UNL     1     -33.727  17.454  -4.507  1.00 20.00    -0.129 SA
ENDROOT
TORSDOF 0
ENDMDL
MODEL 8
REMARK VINA RESULT:      -4.0     11.878     12.762
REMARK  0 active torsions:
REMARK  status: ('A' for Active; 'I' for Inactive)
ROOT
HETATM    1  C1  UNL     1     -35.107  16.682  -2.034  1.00 20.00     0.000 C 
HETATM    2  C2  UNL     1     -33.717  16.673  -2.662  1.00 20.00     0.000 C 
HETATM    3  C3  UNL     1     -36.268  16.854  -3.014  1.00 20.00     0.004 C 
HETATM    4  C4  UNL     1     -33.507  15.651  -3.778  1.00 20.00     0.004 C 
HETATM    5  C5  UNL     1     -36.511  15.603  -3.864  1.00 20.00     0.049 C 
HETATM    6  C6  UNL     1     -34.240  16.033  -5.064  1.00 20.00     0.049 C 
HETATM    7  C7  UNL     1     -36.285  15.801  -7.423  1.00 20.00     0.180 C 
HETATM    8  C8  UNL     1     -36.648  14.335  -7.291  1.00 20.00     0.103 C 
HETATM    9  C9  UNL     1     -35.699  15.553  -5.166  1.00 20.00     0.108 C 
HETATM   10  O10 UNL     1     -36.371  16.401  -6.126  1.00 20.00    -0.369 OA
HETATM   11  S11 UNL     1     -35.753  13.834  -5.814  1.00 20.00    -0.129 SA
ENDROOT
TORSDOF 0
ENDMDL
MODEL 9
REMARK VINA RESULT:      -4.0     11.747     12.674
REMARK  0 active torsions:
REMARK  status: ('A' for Active; 'I' for Inactive)
ROOT
HETATM    1  C1  UNL     1     -35.612  13.279  -6.793  1.00 20.00     0.000 C 
HETATM    2  C2  UNL     1     -34.276  13.737  -7.371  1.00 20.00     0.000 C 
HETATM    3  C3  UNL     1     -35.799  13.528  -5.297  1.00 20.00     0.004 C 
HETATM    4  C4  UNL     1     -33.919  15.201  -7.120  1.00 20.00     0.004 C 
HETATM    5  C5  UNL     1     -36.010  15.010  -4.969  1.00 20.00     0.049 C 
HETATM    6  C6  UNL     1     -33.542  15.468  -5.662  1.00 20.00     0.049 C 
HETATM    7  C7  UNL     1     -33.735  16.688  -2.787  1.00 20.00     0.180 C 
HETATM    8  C8  UNL     1     -34.681  17.838  -3.070  1.00 20.00     0.103 C 
HETATM    9  C9  UNL     1     -34.714  15.796  -4.721  1.00 20.00     0.108 C 
HETATM   10  O10 UNL     1     -34.285  15.503  -3.371  1.00 20.00    -0.369 OA
HETATM   11  S11 UNL     1     -35.103  17.590  -4.800  1.00 20.00    -0.129 SA
ENDROOT
TORSDOF 0
ENDMDL
