MODEL 1
REMARK VINA RESULT:      -4.8      0.000      0.000
REMARK  3 active torsions:
REMARK  status: ('A' for Active; 'I' for Inactive)
REMARK    1  A    between atoms: C2_2  and  C3_3 
REMARK    2  A    between atoms: C3_3  and  C5_5 
REMARK    3  A    between atoms: C4_4  and  C5_5 
ROOT
HETATM    1  C5  UNL     1     -34.085   6.936   3.957  1.00 20.00     0.096 C 
HETATM    2 CL7  UNL     1     -33.524   7.401   5.601  1.00 20.00    -0.124 Cl
ENDROOT
BRANCH   1   3
HETATM    3  C3  UNL     1     -32.880   6.782   3.012  1.00 20.00     0.021 C 
BRANCH   3   4
HETATM    4  C2  UNL     1     -31.967   8.012   2.985  1.00 20.00    -0.003 C 
HETATM    5  C1  UNL     1     -32.049   8.735   1.649  1.00 20.00     0.005 C 
ENDBRANCH   3   4
ENDBRANCH   1   3
BRANCH   1   6
HETATM    6  C4  UNL     1     -34.909   5.654   4.089  1.00 20.00     0.134 C 
HETATM    7 CL6  UNL     1     -34.613   4.829   5.640  1.00 20.00    -0.129 Cl
ENDBRANCH   1   6
TORSDOF 3
ENDMDL
MODEL 2
REMARK VINA RESULT:      -4.5      2.311      4.116
REMARK  3 active torsions:
REMARK  status: ('A' for Active; 'I' for Inactive)
REMARK    1  A    between atoms: C2_2  and  C3_3 
REMARK    2  A    between atoms: C3_3  and  C5_5 
REMARK    3  A    between atoms: C4_4  and  C5_5 
ROOT
HETATM    1  C5  UNL     1     -33.605   6.273   2.701  1.00 20.00     0.096 C 
HETATM    2 CL7  UNL     1     -32.855   4.648   2.538  1.00 20.00    -0.124 Cl
ENDROOT
BRANCH   1   3
HETATM    3  C3  UNL     1     -34.801   6.210   3.668  1.00 20.00     0.021 C 
BRANCH   3   4
HETATM    4  C2  UNL     1     -34.391   6.237   5.144  1.00 20.00    -0.003 C 
HETATM    5  C1  UNL     1     -34.539   4.865   5.785  1.00 20.00     0.005 C 
ENDBRANCH   3   4
ENDBRANCH   1   3
BRANCH   1   6
HETATM    6  C4  UNL     1     -32.517   7.246   3.161  1.00 20.00     0.134 C 
HETATM    7 CL6  UNL     1     -32.062   8.393   1.875  1.00 20.00    -0.129 Cl
ENDBRANCH   1   6
TORSDOF 3
ENDMDL
MODEL 3
REMARK VINA RESULT:      -4.4      1.042      1.291
REMARK  3 active torsions:
REMARK  status: ('A' for Active; 'I' for Inactive)
REMARK    1  A    between atoms: C2_2  and  C3_3 
REMARK    2  A    between atoms: C3_3  and  C5_5 
REMARK    3  A    between atoms: C4_4  and  C5_5 
ROOT
HETATM    1  C5  UNL     1     -33.392   7.286   3.476  1.00 20.00     0.096 C 
HETATM    2 CL7  UNL     1     -33.688   7.291   5.249  1.00 20.00    -0.124 Cl
ENDROOT
BRANCH   1   3
HETATM    3  C3  UNL     1     -32.036   7.943   3.164  1.00 20.00     0.021 C 
BRANCH   3   4
HETATM    4  C2  UNL     1     -31.873   8.329   1.690  1.00 20.00    -0.003 C 
HETATM    5  C1  UNL     1     -32.516   9.676   1.396  1.00 20.00     0.005 C 
ENDBRANCH   3   4
ENDBRANCH   1   3
BRANCH   1   6
HETATM    6  C4  UNL     1     -33.479   5.837   2.992  1.00 20.00     0.134 C 
HETATM    7 CL6  UNL     1     -34.399   4.811   4.122  1.00 20.00    -0.129 Cl
ENDBRANCH   1   6
TORSDOF 3
ENDMDL
MODEL 4
REMARK VINA RESULT:      -4.3      2.092      3.967
REMARK  3 active torsions:
REMARK  status: ('A' for Active; 'I' for Inactive)
REMARK    1  A    between atoms: C2_2  and  C3_3 
REMARK    2  A    between atoms: C3_3  and  C5_5 
REMARK    3  A    between atoms: C4_4  and  C5_5 
ROOT
HETATM    1  C5  UNL     1     -32.716   7.105   3.183  1.00 20.00     0.096 C 
HETATM    2 CL7  UNL     1     -32.979   7.629   4.883  1.00 20.00    -0.124 Cl
ENDROOT
BRANCH   1   3
HETATM    3  C3  UNL     1     -33.708   5.988   2.815  1.00 20.00     0.021 C 
BRANCH   3   4
HETATM    4  C2  UNL     1     -34.774   5.743   3.889  1.00 20.00    -0.003 C 
HETATM    5  C1  UNL     1     -34.539   4.423   4.610  1.00 20.00     0.005 C 
ENDBRANCH   3   4
ENDBRANCH   1   3
BRANCH   1   6
HETATM    6  C4  UNL     1     -32.847   8.339   2.288  1.00 20.00     0.134 C 
HETATM    7 CL6  UNL     1     -31.470   8.498   1.169  1.00 20.00    -0.129 Cl
ENDBRANCH   1   6
TORSDOF 3
ENDMDL
MODEL 5
REMARK VINA RESULT:      -4.2      1.472      2.030
REMARK  3 active torsions:
REMARK  status: ('A' for Active; 'I' for Inactive)
REMARK    1  A    between atoms: C2_2  and  C3_3 
REMARK    2  A    between atoms: C3_3  and  C5_5 
REMARK    3  A    between atoms: C4_4  and  C5_5 
ROOT
HETATM    1  C5  UNL     1     -33.030   6.564   3.414  1.00 20.00     0.096 C 
HETATM    2 CL7  UNL     1     -32.986   4.952   2.621  1.00 20.00    -0.124 Cl
ENDROOT
BRANCH   1   3
HETATM    3  C3  UNL     1     -33.198   7.670   2.357  1.00 20.00     0.021 C 
BRANCH   3   4
HETATM    4  C2  UNL     1     -31.896   8.417   2.047  1.00 20.00    -0.003 C 
HETATM    5  C1  UNL     1     -32.085   9.412   0.912  1.00 20.00     0.005 C 
ENDBRANCH   3   4
ENDBRANCH   1   3
BRANCH   1   6
HETATM    6  C4  UNL     1     -34.161   6.548   4.445  1.00 20.00     0.134 C 
HETATM    7 CL6  UNL     1     -33.685   7.342   5.968  1.00 20.00    -0.129 Cl
ENDBRANCH   1   6
TORSDOF 3
ENDMDL
MODEL 6
REMARK VINA RESULT:      -4.2      2.287      3.425
REMARK  3 active torsions:
REMARK  status: ('A' for Active; 'I' for Inactive)
REMARK    1  A    between atoms: C2_2  and  C3_3 
REMARK    2  A    between atoms: C3_3  and  C5_5 
REMARK    3  A    between atoms: C4_4  and  C5_5 
ROOT
HETATM    1  C5  UNL     1     -32.753   7.045   3.638  1.00 20.00     0.096 C 
HETATM    2 CL7  UNL     1     -31.734   8.387   3.012  1.00 20.00    -0.124 Cl
ENDROOT
BRANCH   1   3
HETATM    3  C3  UNL     1     -33.849   7.600   4.564  1.00 20.00     0.021 C 
BRANCH   3   4
HETATM    4  C2  UNL     1     -33.953   6.852   5.898  1.00 20.00    -0.003 C 
HETATM    5  C1  UNL     1     -34.587   5.481   5.715  1.00 20.00     0.005 C 
ENDBRANCH   3   4
ENDBRANCH   1   3
BRANCH   1   6
HETATM    6  C4  UNL     1     -33.315   6.285   2.436  1.00 20.00     0.134 C 
HETATM    7 CL6  UNL     1     -32.989   4.536   2.541  1.00 20.00    -0.129 Cl
ENDBRANCH   1   6
TORSDOF 3
ENDMDL
MODEL 7
REMARK VINA RESULT:      -4.2      1.615      1.978
REMARK  3 active torsions:
REMARK  status: ('A' for Active; 'I' for Inactive)
REMARK    1  A    between atoms: C2_2  and  C3_3 
REMARK    2  A    between atoms: C3_3  and  C5_5 
REMARK    3  A    between atoms: C4_4  and  C5_5 
ROOT
HETATM    1  C5  UNL     1     -34.720   5.649   4.306  1.00 20.00     0.096 C 
HETATM    2 CL7  UNL     1     -34.476   5.964   6.059  1.00 20.00    -0.124 Cl
ENDROOT
BRANCH   1   3
HETATM    3  C3  UNL     1     -34.152   6.813   3.476  1.00 20.00     0.021 C 
BRANCH   3   4
HETATM    4  C2  UNL     1     -32.974   7.524   4.152  1.00 20.00    -0.003 C 
HETATM    5  C1  UNL     1     -31.939   7.974   3.131  1.00 20.00     0.005 C 
ENDBRANCH   3   4
ENDBRANCH   1   3
BRANCH   1   6
HETATM    6  C4  UNL     1     -34.065   4.306   3.977  1.00 20.00     0.134 C 
HETATM    7 CL6  UNL     1     -32.969   4.425   2.577  1.00 20.00    -0.129 Cl
ENDBRANCH   1   6
TORSDOF 3
ENDMDL
MODEL 8
REMARK VINA RESULT:      -4.1      1.811      3.496
REMARK  3 active torsions:
REMARK  status: ('A' for Active; 'I' for Inactive)
REMARK    1  A    between atoms: C2_2  and  C3_3 
REMARK    2  A    between atoms: C3_3  and  C5_5 
REMARK    3  A    between atoms: C4_4  and  C5_5 
ROOT
HETATM    1  C5  UNL     1     -33.312   7.533   3.258  1.00 20.00     0.096 C 
HETATM    2 CL7  UNL     1     -32.304   8.219   1.937  1.00 20.00    -0.124 Cl
ENDROOT
BRANCH   1   3
HETATM    3  C3  UNL     1     -33.644   6.061   2.961  1.00 20.00     0.021 C 
BRANCH   3   4
HETATM    4  C2  UNL     1     -34.848   5.538   3.753  1.00 20.00    -0.003 C 
HETATM    5  C1  UNL     1     -34.476   4.315   4.580  1.00 20.00     0.005 C 
ENDBRANCH   3   4
ENDBRANCH   1   3
BRANCH   1   6
HETATM    6  C4  UNL     1     -32.550   7.720   4.572  1.00 20.00     0.134 C 
HETATM    7 CL6  UNL     1     -33.610   7.516   5.990  1.00 20.00    -0.129 Cl
ENDBRANCH   1   6
TORSDOF 3
ENDMDL
MODEL 9
REMARK VINA RESULT:      -4.1      2.533      4.150
REMARK  3 active torsions:
REMARK  status: ('A' for Active; 'I' for Inactive)
REMARK    1  A    between atoms: C2_2  and  C3_3 
REMARK    2  A    between atoms: C3_3  and  C5_5 
REMARK    3  A    between atoms: C4_4  and  C5_5 
ROOT
HETATM    1  C5  UNL     1     -32.514   7.535   2.818  1.00 20.00     0.096 C 
HETATM    2 CL7  UNL     1     -31.397   8.310   3.993  1.00 20.00    -0.124 Cl
ENDROOT
BRANCH   1   3
HETATM    3  C3  UNL     1     -33.777   7.033   3.540  1.00 20.00     0.021 C 
BRANCH   3   4
HETATM    4  C2  UNL     1     -33.684   7.135   5.067  1.00 20.00    -0.003 C 
HETATM    5  C1  UNL     1     -34.411   5.982   5.744  1.00 20.00     0.005 C 
ENDBRANCH   3   4
ENDBRANCH   1   3
BRANCH   1   6
HETATM    6  C4  UNL     1     -32.819   8.555   1.720  1.00 20.00     0.134 C 
HETATM    7 CL6  UNL     1     -31.424   8.809   0.640  1.00 20.00    -0.129 Cl
ENDBRANCH   1   6
TORSDOF 3
ENDMDL
