MODEL 1
REMARK VINA RESULT:      -4.1      0.000      0.000
REMARK  1 active torsions:
REMARK  status: ('A' for Active; 'I' for Inactive)
REMARK    1  A    between atoms: C4_4  and  C5_5 
ROOT
HETATM    1  C1  UNL     1     -35.619   6.148   3.585  1.00 20.00     0.015 C 
HETATM    2  C2  UNL     1     -34.368   4.354   4.793  1.00 20.00     0.015 C 
HETATM    3  C3  UNL     1     -33.963   6.769   5.350  1.00 20.00     0.015 C 
HETATM    4  C5  UNL     1     -34.263   5.776   4.214  1.00 20.00    -0.039 C 
ENDROOT
BRANCH   4   5
HETATM    5  C4  UNL     1     -33.187   5.850   3.107  1.00 20.00     0.122 C 
HETATM    6 CL6  UNL     1     -32.360   7.426   3.000  1.00 20.00    -0.130 Cl
ENDBRANCH   4   5
TORSDOF 1
ENDMDL
MODEL 2
REMARK VINA RESULT:      -4.1      1.533      2.003
REMARK  1 active torsions:
REMARK  status: ('A' for Active; 'I' for Inactive)
REMARK    1  A    between atoms: C4_4  and  C5_5 
ROOT
HETATM    1  C1  UNL     1     -35.606   6.120   3.427  1.00 20.00     0.015 C 
HETATM    2  C2  UNL     1     -33.429   5.013   2.902  1.00 20.00     0.015 C 
HETATM    3  C3  UNL     1     -34.430   4.805   5.196  1.00 20.00     0.015 C 
HETATM    4  C5  UNL     1     -34.225   5.746   3.997  1.00 20.00    -0.039 C 
ENDROOT
BRANCH   4   5
HETATM    5  C4  UNL     1     -33.515   7.051   4.424  1.00 20.00     0.122 C 
HETATM    6 CL6  UNL     1     -33.691   7.443   6.154  1.00 20.00    -0.130 Cl
ENDBRANCH   4   5
TORSDOF 1
ENDMDL
MODEL 3
REMARK VINA RESULT:      -4.1      1.544      2.465
REMARK  1 active torsions:
REMARK  status: ('A' for Active; 'I' for Inactive)
REMARK    1  A    between atoms: C4_4  and  C5_5 
ROOT
HETATM    1  C1  UNL     1     -34.436   4.893   5.276  1.00 20.00     0.015 C 
HETATM    2  C2  UNL     1     -35.641   6.091   3.445  1.00 20.00     0.015 C 
HETATM    3  C3  UNL     1     -33.450   4.956   2.981  1.00 20.00     0.015 C 
HETATM    4  C5  UNL     1     -34.251   5.762   4.017  1.00 20.00    -0.039 C 
ENDROOT
BRANCH   4   5
HETATM    5  C4  UNL     1     -33.499   7.047   4.432  1.00 20.00     0.122 C 
HETATM    6 CL6  UNL     1     -33.684   7.478   6.151  1.00 20.00    -0.130 Cl
ENDBRANCH   4   5
TORSDOF 1
ENDMDL
MODEL 4
REMARK VINA RESULT:      -4.1      1.525      2.183
REMARK  1 active torsions:
REMARK  status: ('A' for Active; 'I' for Inactive)
REMARK    1  A    between atoms: C4_4  and  C5_5 
ROOT
HETATM    1  C1  UNL     1     -33.440   5.035   2.942  1.00 20.00     0.015 C 
HETATM    2  C2  UNL     1     -34.430   4.814   5.225  1.00 20.00     0.015 C 
HETATM    3  C3  UNL     1     -35.642   6.103   3.443  1.00 20.00     0.015 C 
HETATM    4  C5  UNL     1     -34.260   5.762   4.025  1.00 20.00    -0.039 C 
ENDROOT
BRANCH   4   5
HETATM    5  C4  UNL     1     -33.491   7.041   4.428  1.00 20.00     0.122 C 
HETATM    6 CL6  UNL     1     -33.659   7.482   6.147  1.00 20.00    -0.130 Cl
ENDBRANCH   4   5
TORSDOF 1
ENDMDL
MODEL 5
REMARK VINA RESULT:      -4.0      0.080      1.766
REMARK  1 active torsions:
REMARK  status: ('A' for Active; 'I' for Inactive)
REMARK    1  A    between atoms: C4_4  and  C5_5 
ROOT
HETATM    1  C1  UNL     1     -34.341   4.347   4.712  1.00 20.00     0.015 C 
HETATM    2  C2  UNL     1     -33.975   6.736   5.343  1.00 20.00     0.015 C 
HETATM    3  C3  UNL     1     -35.656   6.142   3.575  1.00 20.00     0.015 C 
HETATM    4  C5  UNL     1     -34.283   5.788   4.171  1.00 20.00    -0.039 C 
ENDROOT
BRANCH   4   5
HETATM    5  C4  UNL     1     -33.174   5.849   3.096  1.00 20.00     0.122 C 
HETATM    6 CL6  UNL     1     -32.457   7.467   2.880  1.00 20.00    -0.130 Cl
ENDBRANCH   4   5
TORSDOF 1
ENDMDL
MODEL 6
REMARK VINA RESULT:      -4.0      0.160      1.792
REMARK  1 active torsions:
REMARK  status: ('A' for Active; 'I' for Inactive)
REMARK    1  A    between atoms: C4_4  and  C5_5 
ROOT
HETATM    1  C1  UNL     1     -34.019   6.655   5.402  1.00 20.00     0.015 C 
HETATM    2  C2  UNL     1     -35.674   6.135   3.605  1.00 20.00     0.015 C 
HETATM    3  C3  UNL     1     -34.336   4.291   4.660  1.00 20.00     0.015 C 
HETATM    4  C5  UNL     1     -34.301   5.754   4.185  1.00 20.00    -0.039 C 
ENDROOT
BRANCH   4   5
HETATM    5  C4  UNL     1     -33.174   5.981   3.152  1.00 20.00     0.122 C 
HETATM    6 CL6  UNL     1     -32.482   7.623   3.179  1.00 20.00    -0.130 Cl
ENDBRANCH   4   5
TORSDOF 1
ENDMDL
MODEL 7
REMARK VINA RESULT:      -3.9      1.356      2.352
REMARK  1 active torsions:
REMARK  status: ('A' for Active; 'I' for Inactive)
REMARK    1  A    between atoms: C4_4  and  C5_5 
ROOT
HETATM    1  C1  UNL     1     -35.691   5.987   3.632  1.00 20.00     0.015 C 
HETATM    2  C2  UNL     1     -33.214   6.248   3.436  1.00 20.00     0.015 C 
HETATM    3  C3  UNL     1     -34.194   4.086   4.255  1.00 20.00     0.015 C 
HETATM    4  C5  UNL     1     -34.340   5.617   4.274  1.00 20.00    -0.039 C 
ENDROOT
BRANCH   4   5
HETATM    5  C4  UNL     1     -34.334   6.162   5.720  1.00 20.00     0.122 C 
HETATM    6 CL6  UNL     1     -33.353   7.634   5.939  1.00 20.00    -0.130 Cl
ENDBRANCH   4   5
TORSDOF 1
ENDMDL
MODEL 8
REMARK VINA RESULT:      -3.9      1.246      1.246
REMARK  1 active torsions:
REMARK  status: ('A' for Active; 'I' for Inactive)
REMARK    1  A    between atoms: C4_4  and  C5_5 
ROOT
HETATM    1  C1  UNL     1     -35.662   6.150   3.685  1.00 20.00     0.015 C 
HETATM    2  C2  UNL     1     -34.358   4.359   4.841  1.00 20.00     0.015 C 
HETATM    3  C3  UNL     1     -34.080   6.760   5.521  1.00 20.00     0.015 C 
HETATM    4  C5  UNL     1     -34.305   5.810   4.332  1.00 20.00    -0.039 C 
ENDROOT
BRANCH   4   5
HETATM    5  C4  UNL     1     -33.207   5.987   3.259  1.00 20.00     0.122 C 
HETATM    6 CL6  UNL     1     -32.816   4.495   2.364  1.00 20.00    -0.130 Cl
ENDBRANCH   4   5
TORSDOF 1
ENDMDL
MODEL 9
REMARK VINA RESULT:      -3.9      1.344      2.255
REMARK  1 active torsions:
REMARK  status: ('A' for Active; 'I' for Inactive)
REMARK    1  A    between atoms: C4_4  and  C5_5 
ROOT
HETATM    1  C1  UNL     1     -33.251   6.285   3.477  1.00 20.00     0.015 C 
HETATM    2  C2  UNL     1     -34.195   4.108   4.259  1.00 20.00     0.015 C 
HETATM    3  C3  UNL     1     -35.729   5.987   3.610  1.00 20.00     0.015 C 
HETATM    4  C5  UNL     1     -34.392   5.634   4.283  1.00 20.00    -0.039 C 
ENDROOT
BRANCH   4   5
HETATM    5  C4  UNL     1     -34.329   6.183   5.727  1.00 20.00     0.122 C 
HETATM    6 CL6  UNL     1     -33.311   7.634   5.911  1.00 20.00    -0.130 Cl
ENDBRANCH   4   5
TORSDOF 1
ENDMDL
