MODEL 1
REMARK VINA RESULT:      -6.0      0.000      0.000
REMARK  0 active torsions:
REMARK  status: ('A' for Active; 'I' for Inactive)
ROOT
HETATM    1  C1  UNL     1     -33.457   7.169   4.801  1.00 20.00    -0.013 A 
HETATM    2  C2  UNL     1     -34.069   6.289   3.998  1.00 20.00    -0.070 A 
HETATM    3  C3  UNL     1     -32.377   7.771   3.996  1.00 20.00     0.160 A 
HETATM    4  C4  UNL     1     -33.481   6.185   2.607  1.00 20.00     0.022 A 
HETATM    5  C5  UNL     1     -32.345   7.224   2.593  1.00 20.00     0.064 A 
HETATM    6  C6  UNL     1     -33.703   7.571   6.207  1.00 20.00     0.052 C 
HETATM    7  C7  UNL     1     -35.262   5.456   4.342  1.00 20.00     0.044 C 
HETATM    8  C8  UNL     1     -32.949   4.785   2.304  1.00 20.00     0.015 C 
HETATM    9  C9  UNL     1     -32.578   8.335   1.580  1.00 20.00     0.019 C 
HETATM   10  O10 UNL     1     -31.614   8.625   4.427  1.00 20.00    -0.292 OA
ENDROOT
TORSDOF 0
ENDMDL
MODEL 2
REMARK VINA RESULT:      -5.4      1.565      2.974
REMARK  0 active torsions:
REMARK  status: ('A' for Active; 'I' for Inactive)
ROOT
HETATM    1  C1  UNL     1     -33.525   7.163   4.790  1.00 20.00    -0.013 A 
HETATM    2  C2  UNL     1     -32.565   7.680   4.011  1.00 20.00    -0.070 A 
HETATM    3  C3  UNL     1     -34.216   6.151   3.966  1.00 20.00     0.160 A 
HETATM    4  C4  UNL     1     -32.510   7.109   2.611  1.00 20.00     0.022 A 
HETATM    5  C5  UNL     1     -33.616   6.038   2.589  1.00 20.00     0.064 A 
HETATM    6  C6  UNL     1     -33.921   7.432   6.192  1.00 20.00     0.052 C 
HETATM    7  C7  UNL     1     -31.562   8.713   4.411  1.00 20.00     0.044 C 
HETATM    8  C8  UNL     1     -32.752   8.172   1.540  1.00 20.00     0.015 C 
HETATM    9  C9  UNL     1     -33.072   4.636   2.355  1.00 20.00     0.019 C 
HETATM   10  O10 UNL     1     -35.154   5.481   4.372  1.00 20.00    -0.292 OA
ENDROOT
TORSDOF 0
ENDMDL
MODEL 3
REMARK VINA RESULT:      -4.9      1.883      3.146
REMARK  0 active torsions:
REMARK  status: ('A' for Active; 'I' for Inactive)
ROOT
HETATM    1  C1  UNL     1     -33.542   7.077   5.012  1.00 20.00    -0.013 A 
HETATM    2  C2  UNL     1     -33.070   7.013   3.760  1.00 20.00    -0.070 A 
HETATM    3  C3  UNL     1     -34.416   5.899   5.177  1.00 20.00     0.160 A 
HETATM    4  C4  UNL     1     -33.568   5.833   2.955  1.00 20.00     0.022 A 
HETATM    5  C5  UNL     1     -34.463   5.050   3.934  1.00 20.00     0.064 A 
HETATM    6  C6  UNL     1     -33.318   8.045   6.112  1.00 20.00     0.052 C 
HETATM    7  C7  UNL     1     -32.101   7.961   3.130  1.00 20.00     0.044 C 
HETATM    8  C8  UNL     1     -34.355   6.264   1.717  1.00 20.00     0.015 C 
HETATM    9  C9  UNL     1     -33.936   3.652   4.220  1.00 20.00     0.019 C 
HETATM   10  O10 UNL     1     -35.015   5.647   6.213  1.00 20.00    -0.292 OA
ENDROOT
TORSDOF 0
ENDMDL
MODEL 4
REMARK VINA RESULT:      -4.2     11.732     12.982
REMARK  0 active torsions:
REMARK  status: ('A' for Active; 'I' for Inactive)
ROOT
HETATM    1  C1  UNL     1     -34.737  14.447  -6.429  1.00 20.00    -0.013 A 
HETATM    2  C2  UNL     1     -34.471  15.732  -6.157  1.00 20.00    -0.070 A 
HETATM    3  C3  UNL     1     -35.551  13.953  -5.302  1.00 20.00     0.160 A 
HETATM    4  C4  UNL     1     -35.041  16.232  -4.847  1.00 20.00     0.022 A 
HETATM    5  C5  UNL     1     -35.810  15.026  -4.277  1.00 20.00     0.064 A 
HETATM    6  C6  UNL     1     -34.376  13.578  -7.574  1.00 20.00     0.052 C 
HETATM    7  C7  UNL     1     -33.713  16.682  -7.025  1.00 20.00     0.044 C 
HETATM    8  C8  UNL     1     -33.953  16.698  -3.879  1.00 20.00     0.015 C 
HETATM    9  C9  UNL     1     -37.303  15.290  -4.144  1.00 20.00     0.019 C 
HETATM   10  O10 UNL     1     -35.972  12.806  -5.229  1.00 20.00    -0.292 OA
ENDROOT
TORSDOF 0
ENDMDL
MODEL 5
REMARK VINA RESULT:      -4.2      1.326      2.102
REMARK  0 active torsions:
REMARK  status: ('A' for Active; 'I' for Inactive)
ROOT
HETATM    1  C1  UNL     1     -32.994   7.406   4.362  1.00 20.00    -0.013 A 
HETATM    2  C2  UNL     1     -33.909   6.599   4.915  1.00 20.00    -0.070 A 
HETATM    3  C3  UNL     1     -32.868   6.976   2.956  1.00 20.00     0.160 A 
HETATM    4  C4  UNL     1     -34.476   5.552   3.980  1.00 20.00     0.022 A 
HETATM    5  C5  UNL     1     -33.791   5.830   2.630  1.00 20.00     0.064 A 
HETATM    6  C6  UNL     1     -32.206   8.536   4.908  1.00 20.00     0.052 C 
HETATM    7  C7  UNL     1     -34.420   6.668   6.318  1.00 20.00     0.044 C 
HETATM    8  C8  UNL     1     -34.190   4.129   4.459  1.00 20.00     0.015 C 
HETATM    9  C9  UNL     1     -34.777   6.230   1.542  1.00 20.00     0.019 C 
HETATM   10  O10 UNL     1     -32.110   7.507   2.156  1.00 20.00    -0.292 OA
ENDROOT
TORSDOF 0
ENDMDL
MODEL 6
REMARK VINA RESULT:      -4.1     11.096     12.171
REMARK  0 active torsions:
REMARK  status: ('A' for Active; 'I' for Inactive)
ROOT
HETATM    1  C1  UNL     1     -35.269  15.548  -3.955  1.00 20.00    -0.013 A 
HETATM    2  C2  UNL     1     -36.365  15.959  -4.607  1.00 20.00    -0.070 A 
HETATM    3  C3  UNL     1     -35.026  14.163  -4.403  1.00 20.00     0.160 A 
HETATM    4  C4  UNL     1     -36.979  14.925  -5.526  1.00 20.00     0.022 A 
HETATM    5  C5  UNL     1     -36.044  13.708  -5.415  1.00 20.00     0.064 A 
HETATM    6  C6  UNL     1     -34.380  16.222  -2.980  1.00 20.00     0.052 C 
HETATM    7  C7  UNL     1     -36.987  17.315  -4.525  1.00 20.00     0.044 C 
HETATM    8  C8  UNL     1     -38.407  14.561  -5.121  1.00 20.00     0.015 C 
HETATM    9  C9  UNL     1     -35.370  13.362  -6.735  1.00 20.00     0.019 C 
HETATM   10  O10 UNL     1     -34.093  13.481  -4.001  1.00 20.00    -0.292 OA
ENDROOT
TORSDOF 0
ENDMDL
MODEL 7
REMARK VINA RESULT:      -4.1     11.422     12.396
REMARK  0 active torsions:
REMARK  status: ('A' for Active; 'I' for Inactive)
ROOT
HETATM    1  C1  UNL     1     -35.768  14.610  -4.516  1.00 20.00    -0.013 A 
HETATM    2  C2  UNL     1     -34.739  15.364  -4.106  1.00 20.00    -0.070 A 
HETATM    3  C3  UNL     1     -36.989  15.331  -4.106  1.00 20.00     0.160 A 
HETATM    4  C4  UNL     1     -35.134  16.632  -3.379  1.00 20.00     0.022 A 
HETATM    5  C5  UNL     1     -36.673  16.628  -3.408  1.00 20.00     0.064 A 
HETATM    6  C6  UNL     1     -35.828  13.321  -5.244  1.00 20.00     0.052 C 
HETATM    7  C7  UNL     1     -33.289  15.080  -4.330  1.00 20.00     0.044 C 
HETATM    8  C8  UNL     1     -34.611  16.664  -1.943  1.00 20.00     0.015 C 
HETATM    9  C9  UNL     1     -37.249  17.806  -4.181  1.00 20.00     0.019 C 
HETATM   10  O10 UNL     1     -38.119  14.918  -4.326  1.00 20.00    -0.292 OA
ENDROOT
TORSDOF 0
ENDMDL
MODEL 8
REMARK VINA RESULT:      -4.0     11.188     12.951
REMARK  0 active torsions:
REMARK  status: ('A' for Active; 'I' for Inactive)
ROOT
HETATM    1  C1  UNL     1     -36.684  14.872  -5.519  1.00 20.00    -0.013 A 
HETATM    2  C2  UNL     1     -36.076  16.028  -5.818  1.00 20.00    -0.070 A 
HETATM    3  C3  UNL     1     -35.610  13.864  -5.411  1.00 20.00     0.160 A 
HETATM    4  C4  UNL     1     -34.572  15.934  -5.960  1.00 20.00     0.022 A 
HETATM    5  C5  UNL     1     -34.248  14.462  -5.648  1.00 20.00     0.064 A 
HETATM    6  C6  UNL     1     -38.107  14.524  -5.299  1.00 20.00     0.052 C 
HETATM    7  C7  UNL     1     -36.737  17.358  -5.983  1.00 20.00     0.044 C 
HETATM    8  C8  UNL     1     -34.096  16.317  -7.361  1.00 20.00     0.015 C 
HETATM    9  C9  UNL     1     -33.372  14.302  -4.415  1.00 20.00     0.019 C 
HETATM   10  O10 UNL     1     -35.817  12.688  -5.146  1.00 20.00    -0.292 OA
ENDROOT
TORSDOF 0
ENDMDL
MODEL 9
REMARK VINA RESULT:      -4.0     11.452     12.700
REMARK  0 active torsions:
REMARK  status: ('A' for Active; 'I' for Inactive)
ROOT
HETATM    1  C1  UNL     1     -33.625  17.143  -4.133  1.00 20.00    -0.013 A 
HETATM    2  C2  UNL     1     -34.250  16.329  -3.272  1.00 20.00    -0.070 A 
HETATM    3  C3  UNL     1     -33.172  18.303  -3.341  1.00 20.00     0.160 A 
HETATM    4  C4  UNL     1     -34.305  16.838  -1.847  1.00 20.00     0.022 A 
HETATM    5  C5  UNL     1     -33.538  18.172  -1.885  1.00 20.00     0.064 A 
HETATM    6  C6  UNL     1     -33.356  17.035  -5.586  1.00 20.00     0.052 C 
HETATM    7  C7  UNL     1     -34.846  14.995  -3.587  1.00 20.00     0.044 C 
HETATM    8  C8  UNL     1     -35.739  17.042  -1.358  1.00 20.00     0.015 C 
HETATM    9  C9  UNL     1     -32.287  18.155  -1.019  1.00 20.00     0.019 C 
HETATM   10  O10 UNL     1     -32.559  19.246  -3.821  1.00 20.00    -0.292 OA
ENDROOT
TORSDOF 0
ENDMDL
