MODEL 1
REMARK VINA RESULT:      -4.3      0.000      0.000
REMARK  0 active torsions:
REMARK  status: ('A' for Active; 'I' for Inactive)
ROOT
HETATM    1  C1  UNL     1     -34.164   6.620   5.296  1.00 20.00     0.051 C 
HETATM    2  C2  UNL     1     -34.388   4.238   4.526  1.00 20.00     0.051 C 
HETATM    3  C3  UNL     1     -33.683   6.022   2.902  1.00 20.00     0.051 C 
HETATM    4  C4  UNL     1     -34.521   5.703   4.133  1.00 20.00     0.092 C 
HETATM    5  F5  UNL     1     -35.829   5.930   3.813  1.00 20.00    -0.244 F 
ENDROOT
TORSDOF 0
ENDMDL
MODEL 2
REMARK VINA RESULT:      -4.3      0.029      1.945
REMARK  0 active torsions:
REMARK  status: ('A' for Active; 'I' for Inactive)
ROOT
HETATM    1  C1  UNL     1     -34.385   4.232   4.538  1.00 20.00     0.051 C 
HETATM    2  C2  UNL     1     -33.641   6.004   2.918  1.00 20.00     0.051 C 
HETATM    3  C3  UNL     1     -34.155   6.617   5.301  1.00 20.00     0.051 C 
HETATM    4  C4  UNL     1     -34.500   5.697   4.137  1.00 20.00     0.092 C 
HETATM    5  F5  UNL     1     -35.802   5.931   3.796  1.00 20.00    -0.244 F 
ENDROOT
TORSDOF 0
ENDMDL
MODEL 3
REMARK VINA RESULT:      -4.2      0.070      1.951
REMARK  0 active torsions:
REMARK  status: ('A' for Active; 'I' for Inactive)
ROOT
HETATM    1  C1  UNL     1     -33.589   5.992   2.967  1.00 20.00     0.051 C 
HETATM    2  C2  UNL     1     -34.162   6.622   5.332  1.00 20.00     0.051 C 
HETATM    3  C3  UNL     1     -34.411   4.239   4.571  1.00 20.00     0.051 C 
HETATM    4  C4  UNL     1     -34.489   5.704   4.162  1.00 20.00     0.092 C 
HETATM    5  F5  UNL     1     -35.776   5.960   3.782  1.00 20.00    -0.244 F 
ENDROOT
TORSDOF 0
ENDMDL
MODEL 4
REMARK VINA RESULT:      -3.5      1.417      1.971
REMARK  0 active torsions:
REMARK  status: ('A' for Active; 'I' for Inactive)
ROOT
HETATM    1  C1  UNL     1     -35.548   6.133   3.621  1.00 20.00     0.051 C 
HETATM    2  C2  UNL     1     -34.407   4.415   5.058  1.00 20.00     0.051 C 
HETATM    3  C3  UNL     1     -33.975   6.862   5.442  1.00 20.00     0.051 C 
HETATM    4  C4  UNL     1     -34.292   5.788   4.409  1.00 20.00     0.092 C 
HETATM    5  F5  UNL     1     -33.250   5.743   3.527  1.00 20.00    -0.244 F 
ENDROOT
TORSDOF 0
ENDMDL
MODEL 5
REMARK VINA RESULT:      -3.5      1.418      2.024
REMARK  0 active torsions:
REMARK  status: ('A' for Active; 'I' for Inactive)
ROOT
HETATM    1  C1  UNL     1     -33.996   6.827   5.486  1.00 20.00     0.051 C 
HETATM    2  C2  UNL     1     -35.544   6.138   3.630  1.00 20.00     0.051 C 
HETATM    3  C3  UNL     1     -34.400   4.388   5.026  1.00 20.00     0.051 C 
HETATM    4  C4  UNL     1     -34.291   5.781   4.419  1.00 20.00     0.092 C 
HETATM    5  F5  UNL     1     -33.240   5.772   3.547  1.00 20.00    -0.244 F 
ENDROOT
TORSDOF 0
ENDMDL
MODEL 6
REMARK VINA RESULT:      -3.5      1.466      1.828
REMARK  0 active torsions:
REMARK  status: ('A' for Active; 'I' for Inactive)
ROOT
HETATM    1  C1  UNL     1     -34.877   5.728   4.149  1.00 20.00     0.051 C 
HETATM    2  C2  UNL     1     -33.000   4.726   2.811  1.00 20.00     0.051 C 
HETATM    3  C3  UNL     1     -33.041   7.198   3.262  1.00 20.00     0.051 C 
HETATM    4  C4  UNL     1     -33.880   5.951   3.019  1.00 20.00     0.092 C 
HETATM    5  F5  UNL     1     -34.593   6.150   1.871  1.00 20.00    -0.244 F 
ENDROOT
TORSDOF 0
ENDMDL
MODEL 7
REMARK VINA RESULT:      -3.5      1.394      2.177
REMARK  0 active torsions:
REMARK  status: ('A' for Active; 'I' for Inactive)
ROOT
HETATM    1  C1  UNL     1     -34.369   4.285   4.806  1.00 20.00     0.051 C 
HETATM    2  C2  UNL     1     -34.062   6.664   5.557  1.00 20.00     0.051 C 
HETATM    3  C3  UNL     1     -35.545   6.148   3.595  1.00 20.00     0.051 C 
HETATM    4  C4  UNL     1     -34.297   5.742   4.368  1.00 20.00     0.092 C 
HETATM    5  F5  UNL     1     -33.230   5.870   3.526  1.00 20.00    -0.244 F 
ENDROOT
TORSDOF 0
ENDMDL
MODEL 8
REMARK VINA RESULT:      -3.3      1.422      2.217
REMARK  0 active torsions:
REMARK  status: ('A' for Active; 'I' for Inactive)
ROOT
HETATM    1  C1  UNL     1     -33.132   6.506   3.222  1.00 20.00     0.051 C 
HETATM    2  C2  UNL     1     -35.558   6.040   3.685  1.00 20.00     0.051 C 
HETATM    3  C3  UNL     1     -34.029   6.716   5.562  1.00 20.00     0.051 C 
HETATM    4  C4  UNL     1     -34.140   5.977   4.234  1.00 20.00     0.092 C 
HETATM    5  F5  UNL     1     -33.843   4.664   4.466  1.00 20.00    -0.244 F 
ENDROOT
TORSDOF 0
ENDMDL
MODEL 9
REMARK VINA RESULT:      -3.3      1.412      1.943
REMARK  0 active torsions:
REMARK  status: ('A' for Active; 'I' for Inactive)
ROOT
HETATM    1  C1  UNL     1     -34.017   6.741   5.545  1.00 20.00     0.051 C 
HETATM    2  C2  UNL     1     -33.178   6.479   3.190  1.00 20.00     0.051 C 
HETATM    3  C3  UNL     1     -35.590   6.016   3.723  1.00 20.00     0.051 C 
HETATM    4  C4  UNL     1     -34.158   5.971   4.239  1.00 20.00     0.092 C 
HETATM    5  F5  UNL     1     -33.851   4.664   4.494  1.00 20.00    -0.244 F 
ENDROOT
TORSDOF 0
ENDMDL
