MODEL 1
REMARK VINA RESULT:      -5.0      0.000      0.000
REMARK  3 active torsions:
REMARK  status: ('A' for Active; 'I' for Inactive)
REMARK    1  A    between atoms: C6_6  and  C9_9 
REMARK    2  A    between atoms: C7_7  and  C8_8 
REMARK    3  A    between atoms: C7_7  and  C9_9 
ROOT
HETATM    1  C4  UNL     1     -35.692   5.985   3.445  1.00 20.00     0.015 C 
HETATM    2  C5  UNL     1     -33.374   5.180   3.046  1.00 20.00     0.015 C 
HETATM    3  C9  UNL     1     -34.213   6.244   3.790  1.00 20.00    -0.048 C 
ENDROOT
BRANCH   3   4
HETATM    4  C6  UNL     1     -34.044   6.060   5.325  1.00 20.00     0.004 C 
HETATM    5  C1  UNL     1     -33.719   7.322   6.115  1.00 20.00     0.006 C 
ENDBRANCH   3   4
BRANCH   3   6
HETATM    6  C7  UNL     1     -33.753   7.645   3.286  1.00 20.00     0.012 C 
BRANCH   6   7
HETATM    7  C8  UNL     1     -32.357   7.732   2.625  1.00 20.00    -0.022 C 
HETATM    8  C2  UNL     1     -32.414   8.657   1.403  1.00 20.00     0.009 C 
HETATM    9  C3  UNL     1     -31.297   8.269   3.594  1.00 20.00     0.009 C 
ENDBRANCH   6   7
ENDBRANCH   3   6
TORSDOF 3
ENDMDL
MODEL 2
REMARK VINA RESULT:      -4.7      1.135      2.273
REMARK  3 active torsions:
REMARK  status: ('A' for Active; 'I' for Inactive)
REMARK    1  A    between atoms: C6_6  and  C9_9 
REMARK    2  A    between atoms: C7_7  and  C8_8 
REMARK    3  A    between atoms: C7_7  and  C9_9 
ROOT
HETATM    1  C4  UNL     1     -32.727   5.850   2.830  1.00 20.00     0.015 C 
HETATM    2  C5  UNL     1     -31.695   7.843   3.898  1.00 20.00     0.015 C 
HETATM    3  C9  UNL     1     -32.989   7.310   3.243  1.00 20.00    -0.048 C 
ENDROOT
BRANCH   3   4
HETATM    4  C6  UNL     1     -34.140   7.310   4.288  1.00 20.00     0.004 C 
HETATM    5  C1  UNL     1     -33.713   7.291   5.751  1.00 20.00     0.006 C 
ENDBRANCH   3   4
BRANCH   3   6
HETATM    6  C7  UNL     1     -33.291   8.202   2.000  1.00 20.00     0.012 C 
BRANCH   6   7
HETATM    7  C8  UNL     1     -32.206   9.224   1.586  1.00 20.00    -0.022 C 
HETATM    8  C2  UNL     1     -31.394   8.677   0.406  1.00 20.00     0.009 C 
HETATM    9  C3  UNL     1     -32.813  10.570   1.177  1.00 20.00     0.009 C 
ENDBRANCH   6   7
ENDBRANCH   3   6
TORSDOF 3
ENDMDL
MODEL 3
REMARK VINA RESULT:      -4.6      0.816      1.517
REMARK  3 active torsions:
REMARK  status: ('A' for Active; 'I' for Inactive)
REMARK    1  A    between atoms: C6_6  and  C9_9 
REMARK    2  A    between atoms: C7_7  and  C8_8 
REMARK    3  A    between atoms: C7_7  and  C9_9 
ROOT
HETATM    1  C4  UNL     1     -35.347   6.296   2.921  1.00 20.00     0.015 C 
HETATM    2  C5  UNL     1     -33.842   4.448   3.625  1.00 20.00     0.015 C 
HETATM    3  C9  UNL     1     -33.988   5.985   3.576  1.00 20.00    -0.048 C 
ENDROOT
BRANCH   3   4
HETATM    4  C6  UNL     1     -34.018   6.552   5.024  1.00 20.00     0.004 C 
HETATM    5  C1  UNL     1     -34.620   5.640   6.086  1.00 20.00     0.006 C 
ENDBRANCH   3   4
BRANCH   3   6
HETATM    6  C7  UNL     1     -32.810   6.545   2.724  1.00 20.00     0.012 C 
BRANCH   6   7
HETATM    7  C8  UNL     1     -32.558   8.070   2.785  1.00 20.00    -0.022 C 
HETATM    8  C2  UNL     1     -31.298   8.360   3.609  1.00 20.00     0.009 C 
HETATM    9  C3  UNL     1     -32.378   8.677   1.389  1.00 20.00     0.009 C 
ENDBRANCH   6   7
ENDBRANCH   3   6
TORSDOF 3
ENDMDL
MODEL 4
REMARK VINA RESULT:      -4.5      0.920      4.071
REMARK  3 active torsions:
REMARK  status: ('A' for Active; 'I' for Inactive)
REMARK    1  A    between atoms: C6_6  and  C9_9 
REMARK    2  A    between atoms: C7_7  and  C8_8 
REMARK    3  A    between atoms: C7_7  and  C9_9 
ROOT
HETATM    1  C4  UNL     1     -31.455   8.225   3.513  1.00 20.00     0.015 C 
HETATM    2  C5  UNL     1     -32.396   6.359   2.168  1.00 20.00     0.015 C 
HETATM    3  C9  UNL     1     -32.704   7.761   2.741  1.00 20.00    -0.048 C 
ENDROOT
BRANCH   3   4
HETATM    4  C6  UNL     1     -32.939   8.761   1.573  1.00 20.00     0.004 C 
HETATM    5  C1  UNL     1     -31.731   9.054   0.692  1.00 20.00     0.006 C 
ENDBRANCH   3   4
BRANCH   3   6
HETATM    6  C7  UNL     1     -33.934   7.625   3.688  1.00 20.00     0.012 C 
BRANCH   6   7
HETATM    7  C8  UNL     1     -33.874   6.517   4.765  1.00 20.00    -0.022 C 
HETATM    8  C2  UNL     1     -33.938   7.143   6.164  1.00 20.00     0.009 C 
HETATM    9  C3  UNL     1     -35.029   5.519   4.625  1.00 20.00     0.009 C 
ENDBRANCH   6   7
ENDBRANCH   3   6
TORSDOF 3
ENDMDL
MODEL 5
REMARK VINA RESULT:      -4.4      0.969      2.112
REMARK  3 active torsions:
REMARK  status: ('A' for Active; 'I' for Inactive)
REMARK    1  A    between atoms: C6_6  and  C9_9 
REMARK    2  A    between atoms: C7_7  and  C8_8 
REMARK    3  A    between atoms: C7_7  and  C9_9 
ROOT
HETATM    1  C4  UNL     1     -34.039   6.989   5.063  1.00 20.00     0.015 C 
HETATM    2  C5  UNL     1     -35.410   6.490   3.051  1.00 20.00     0.015 C 
HETATM    3  C9  UNL     1     -34.072   6.174   3.757  1.00 20.00    -0.048 C 
ENDROOT
BRANCH   3   4
HETATM    4  C6  UNL     1     -34.026   4.666   4.136  1.00 20.00     0.004 C 
HETATM    5  C1  UNL     1     -34.486   4.319   5.546  1.00 20.00     0.006 C 
ENDBRANCH   3   4
BRANCH   3   6
HETATM    6  C7  UNL     1     -32.921   6.599   2.797  1.00 20.00     0.012 C 
BRANCH   6   7
HETATM    7  C8  UNL     1     -32.564   8.103   2.747  1.00 20.00    -0.022 C 
HETATM    8  C2  UNL     1     -31.255   8.356   3.505  1.00 20.00     0.009 C 
HETATM    9  C3  UNL     1     -32.399   8.607   1.309  1.00 20.00     0.009 C 
ENDBRANCH   6   7
ENDBRANCH   3   6
TORSDOF 3
ENDMDL
MODEL 6
REMARK VINA RESULT:      -4.3      1.039      3.623
REMARK  3 active torsions:
REMARK  status: ('A' for Active; 'I' for Inactive)
REMARK    1  A    between atoms: C6_6  and  C9_9 
REMARK    2  A    between atoms: C7_7  and  C8_8 
REMARK    3  A    between atoms: C7_7  and  C9_9 
ROOT
HETATM    1  C4  UNL     1     -32.911   4.806   2.632  1.00 20.00     0.015 C 
HETATM    2  C5  UNL     1     -34.303   6.453   1.396  1.00 20.00     0.015 C 
HETATM    3  C9  UNL     1     -33.493   6.231   2.693  1.00 20.00    -0.048 C 
ENDROOT
BRANCH   3   4
HETATM    4  C6  UNL     1     -32.302   7.229   2.742  1.00 20.00     0.004 C 
HETATM    5  C1  UNL     1     -32.444   8.479   1.882  1.00 20.00     0.006 C 
ENDBRANCH   3   4
BRANCH   3   6
HETATM    6  C7  UNL     1     -34.474   6.388   3.894  1.00 20.00     0.012 C 
BRANCH   6   7
HETATM    7  C8  UNL     1     -33.913   6.090   5.305  1.00 20.00    -0.022 C 
HETATM    8  C2  UNL     1     -33.903   7.372   6.146  1.00 20.00     0.009 C 
HETATM    9  C3  UNL     1     -34.743   5.031   6.039  1.00 20.00     0.009 C 
ENDBRANCH   6   7
ENDBRANCH   3   6
TORSDOF 3
ENDMDL
MODEL 7
REMARK VINA RESULT:      -4.3      1.328      2.996
REMARK  3 active torsions:
REMARK  status: ('A' for Active; 'I' for Inactive)
REMARK    1  A    between atoms: C6_6  and  C9_9 
REMARK    2  A    between atoms: C7_7  and  C8_8 
REMARK    3  A    between atoms: C7_7  and  C9_9 
ROOT
HETATM    1  C4  UNL     1     -31.402   8.029   3.414  1.00 20.00     0.015 C 
HETATM    2  C5  UNL     1     -33.677   7.604   4.322  1.00 20.00     0.015 C 
HETATM    3  C9  UNL     1     -32.810   7.525   3.045  1.00 20.00    -0.048 C 
ENDROOT
BRANCH   3   4
HETATM    4  C6  UNL     1     -32.682   6.043   2.593  1.00 20.00     0.004 C 
HETATM    5  C1  UNL     1     -33.690   5.072   3.195  1.00 20.00     0.006 C 
ENDBRANCH   3   4
BRANCH   3   6
HETATM    6  C7  UNL     1     -33.471   8.438   1.969  1.00 20.00     0.012 C 
BRANCH   6   7
HETATM    7  C8  UNL     1     -32.527   9.304   1.103  1.00 20.00    -0.022 C 
HETATM    8  C2  UNL     1     -32.882   9.145  -0.380  1.00 20.00     0.009 C 
HETATM    9  C3  UNL     1     -32.616  10.791   1.469  1.00 20.00     0.009 C 
ENDBRANCH   6   7
ENDBRANCH   3   6
TORSDOF 3
ENDMDL
MODEL 8
REMARK VINA RESULT:      -4.1      1.277      4.176
REMARK  3 active torsions:
REMARK  status: ('A' for Active; 'I' for Inactive)
REMARK    1  A    between atoms: C6_6  and  C9_9 
REMARK    2  A    between atoms: C7_7  and  C8_8 
REMARK    3  A    between atoms: C7_7  and  C9_9 
ROOT
HETATM    1  C4  UNL     1     -31.487   8.294   3.469  1.00 20.00     0.015 C 
HETATM    2  C5  UNL     1     -31.323   8.103   0.997  1.00 20.00     0.015 C 
HETATM    3  C9  UNL     1     -32.299   8.373   2.164  1.00 20.00    -0.048 C 
ENDROOT
BRANCH   3   4
HETATM    4  C6  UNL     1     -32.868   9.816   2.044  1.00 20.00     0.004 C 
HETATM    5  C1  UNL     1     -32.621  10.522   0.717  1.00 20.00     0.006 C 
ENDBRANCH   3   4
BRANCH   3   6
HETATM    6  C7  UNL     1     -33.404   7.274   2.119  1.00 20.00     0.012 C 
BRANCH   6   7
HETATM    7  C8  UNL     1     -33.366   6.193   3.225  1.00 20.00    -0.022 C 
HETATM    8  C2  UNL     1     -34.733   6.101   3.914  1.00 20.00     0.009 C 
HETATM    9  C3  UNL     1     -33.010   4.812   2.663  1.00 20.00     0.009 C 
ENDBRANCH   6   7
ENDBRANCH   3   6
TORSDOF 3
ENDMDL
MODEL 9
REMARK VINA RESULT:      -3.9      1.293      4.463
REMARK  3 active torsions:
REMARK  status: ('A' for Active; 'I' for Inactive)
REMARK    1  A    between atoms: C6_6  and  C9_9 
REMARK    2  A    between atoms: C7_7  and  C8_8 
REMARK    3  A    between atoms: C7_7  and  C9_9 
ROOT
HETATM    1  C4  UNL     1     -32.830  10.391   1.951  1.00 20.00     0.015 C 
HETATM    2  C5  UNL     1     -31.162   8.727   2.742  1.00 20.00     0.015 C 
HETATM    3  C9  UNL     1     -32.389   8.921   1.823  1.00 20.00    -0.048 C 
ENDROOT
BRANCH   3   4
HETATM    4  C6  UNL     1     -31.976   8.676   0.343  1.00 20.00     0.004 C 
HETATM    5  C1  UNL     1     -32.961   9.161  -0.713  1.00 20.00     0.006 C 
ENDBRANCH   3   4
BRANCH   3   6
HETATM    6  C7  UNL     1     -33.506   7.953   2.315  1.00 20.00     0.012 C 
BRANCH   6   7
HETATM    7  C8  UNL     1     -33.094   6.862   3.332  1.00 20.00    -0.022 C 
HETATM    8  C2  UNL     1     -33.840   7.071   4.655  1.00 20.00     0.009 C 
HETATM    9  C3  UNL     1     -33.403   5.452   2.816  1.00 20.00     0.009 C 
ENDBRANCH   6   7
ENDBRANCH   3   6
TORSDOF 3
ENDMDL
