MODEL 1
REMARK VINA RESULT:      -4.3      0.000      0.000
REMARK  2 active torsions:
REMARK  status: ('A' for Active; 'I' for Inactive)
REMARK    1  A    between atoms: C1_1  and  C3_3 
REMARK    2  A    between atoms: C2_2  and  C3_3 
ROOT
HETATM    1  C3  UNL     1     -34.420   6.055   4.182  1.00 20.00     0.187 C 
HETATM    2 BR7  UNL     1     -33.754   7.176   5.643  1.00 20.00    -0.077 Br
ENDROOT
BRANCH   1   3
HETATM    3  C1  UNL     1     -33.380   6.179   3.067  1.00 20.00     0.190 C 
HETATM    4  O4  UNL     1     -32.937   5.078   2.630  1.00 20.00    -0.647 OA
HETATM    5  O5  UNL     1     -33.070   7.354   2.720  1.00 20.00    -0.647 OA
ENDBRANCH   1   3
BRANCH   1   6
HETATM    6  C2  UNL     1     -34.692   4.661   4.712  1.00 20.00     0.248 C 
HETATM    7  F6  UNL     1     -34.290   4.559   6.007  1.00 20.00    -0.254 F 
ENDBRANCH   1   6
TORSDOF 2
ENDMDL
MODEL 2
REMARK VINA RESULT:      -4.3      2.020      2.430
REMARK  2 active torsions:
REMARK  status: ('A' for Active; 'I' for Inactive)
REMARK    1  A    between atoms: C1_1  and  C3_3 
REMARK    2  A    between atoms: C2_2  and  C3_3 
ROOT
HETATM    1  C3  UNL     1     -34.190   6.352   4.189  1.00 20.00     0.187 C 
HETATM    2 BR7  UNL     1     -32.808   7.389   3.267  1.00 20.00    -0.077 Br
ENDROOT
BRANCH   1   3
HETATM    3  C1  UNL     1     -33.966   4.900   3.758  1.00 20.00     0.190 C 
HETATM    4  O4  UNL     1     -33.187   4.755   2.772  1.00 20.00    -0.647 OA
HETATM    5  O5  UNL     1     -34.587   4.020   4.417  1.00 20.00    -0.647 OA
ENDBRANCH   1   3
BRANCH   1   6
HETATM    6  C2  UNL     1     -34.120   6.644   5.675  1.00 20.00     0.248 C 
HETATM    7  F6  UNL     1     -33.187   7.600   5.926  1.00 20.00    -0.254 F 
ENDBRANCH   1   6
TORSDOF 2
ENDMDL
MODEL 3
REMARK VINA RESULT:      -4.1      2.307      2.736
REMARK  2 active torsions:
REMARK  status: ('A' for Active; 'I' for Inactive)
REMARK    1  A    between atoms: C1_1  and  C3_3 
REMARK    2  A    between atoms: C2_2  and  C3_3 
ROOT
HETATM    1  C3  UNL     1     -34.304   6.321   3.993  1.00 20.00     0.187 C 
HETATM    2 BR7  UNL     1     -34.619   4.716   5.071  1.00 20.00    -0.077 Br
ENDROOT
BRANCH   1   3
HETATM    3  C1  UNL     1     -33.452   7.240   4.871  1.00 20.00     0.190 C 
HETATM    4  O4  UNL     1     -32.460   7.762   4.284  1.00 20.00    -0.647 OA
HETATM    5  O5  UNL     1     -33.819   7.363   6.073  1.00 20.00    -0.647 OA
ENDBRANCH   1   3
BRANCH   1   6
HETATM    6  C2  UNL     1     -33.717   5.913   2.657  1.00 20.00     0.248 C 
HETATM    7  F6  UNL     1     -33.021   4.751   2.780  1.00 20.00    -0.254 F 
ENDBRANCH   1   6
TORSDOF 2
ENDMDL
MODEL 4
REMARK VINA RESULT:      -4.0      2.111      2.261
REMARK  2 active torsions:
REMARK  status: ('A' for Active; 'I' for Inactive)
REMARK    1  A    between atoms: C1_1  and  C3_3 
REMARK    2  A    between atoms: C2_2  and  C3_3 
ROOT
HETATM    1  C3  UNL     1     -33.777   6.976   3.643  1.00 20.00     0.187 C 
HETATM    2 BR7  UNL     1     -33.684   7.190   5.588  1.00 20.00    -0.077 Br
ENDROOT
BRANCH   1   3
HETATM    3  C1  UNL     1     -32.599   7.779   3.088  1.00 20.00     0.190 C 
HETATM    4  O4  UNL     1     -31.682   8.021   3.925  1.00 20.00    -0.647 OA
HETATM    5  O5  UNL     1     -32.678   8.121   1.875  1.00 20.00    -0.647 OA
ENDBRANCH   1   3
BRANCH   1   6
HETATM    6  C2  UNL     1     -33.815   5.497   3.309  1.00 20.00     0.248 C 
HETATM    7  F6  UNL     1     -32.691   5.134   2.637  1.00 20.00    -0.254 F 
ENDBRANCH   1   6
TORSDOF 2
ENDMDL
MODEL 5
REMARK VINA RESULT:      -3.9      2.466      3.033
REMARK  2 active torsions:
REMARK  status: ('A' for Active; 'I' for Inactive)
REMARK    1  A    between atoms: C1_1  and  C3_3 
REMARK    2  A    between atoms: C2_2  and  C3_3 
ROOT
HETATM    1  C3  UNL     1     -33.461   6.145   4.199  1.00 20.00     0.187 C 
HETATM    2 BR7  UNL     1     -33.714   7.278   5.776  1.00 20.00    -0.077 Br
ENDROOT
BRANCH   1   3
HETATM    3  C1  UNL     1     -34.728   5.291   4.104  1.00 20.00     0.190 C 
HETATM    4  O4  UNL     1     -35.755   5.911   3.704  1.00 20.00    -0.647 OA
HETATM    5  O5  UNL     1     -34.613   4.080   4.446  1.00 20.00    -0.647 OA
ENDBRANCH   1   3
BRANCH   1   6
HETATM    6  C2  UNL     1     -33.135   7.021   3.006  1.00 20.00     0.248 C 
HETATM    7  F6  UNL     1     -31.908   7.586   3.155  1.00 20.00    -0.254 F 
ENDBRANCH   1   6
TORSDOF 2
ENDMDL
MODEL 6
REMARK VINA RESULT:      -3.8      3.172      3.678
REMARK  2 active torsions:
REMARK  status: ('A' for Active; 'I' for Inactive)
REMARK    1  A    between atoms: C1_1  and  C3_3 
REMARK    2  A    between atoms: C2_2  and  C3_3 
ROOT
HETATM    1  C3  UNL     1     -33.648   6.905   3.725  1.00 20.00     0.187 C 
HETATM    2 BR7  UNL     1     -33.453   5.143   2.892  1.00 20.00    -0.077 Br
ENDROOT
BRANCH   1   3
HETATM    3  C1  UNL     1     -34.056   6.627   5.174  1.00 20.00     0.190 C 
HETATM    4  O4  UNL     1     -33.656   7.488   6.011  1.00 20.00    -0.647 OA
HETATM    5  O5  UNL     1     -34.726   5.575   5.374  1.00 20.00    -0.647 OA
ENDBRANCH   1   3
BRANCH   1   6
HETATM    6  C2  UNL     1     -32.373   7.697   3.513  1.00 20.00     0.248 C 
HETATM    7  F6  UNL     1     -32.035   7.708   2.196  1.00 20.00    -0.254 F 
ENDBRANCH   1   6
TORSDOF 2
ENDMDL
MODEL 7
REMARK VINA RESULT:      -3.7      2.038      2.300
REMARK  2 active torsions:
REMARK  status: ('A' for Active; 'I' for Inactive)
REMARK    1  A    between atoms: C1_1  and  C3_3 
REMARK    2  A    between atoms: C2_2  and  C3_3 
ROOT
HETATM    1  C3  UNL     1     -33.177   6.756   4.437  1.00 20.00     0.187 C 
HETATM    2 BR7  UNL     1     -34.738   5.958   3.565  1.00 20.00    -0.077 Br
ENDROOT
BRANCH   1   3
HETATM    3  C1  UNL     1     -32.505   7.615   3.364  1.00 20.00     0.190 C 
HETATM    4  O4  UNL     1     -33.034   7.539   2.217  1.00 20.00    -0.647 OA
HETATM    5  O5  UNL     1     -31.499   8.284   3.732  1.00 20.00    -0.647 OA
ENDBRANCH   1   3
BRANCH   1   6
HETATM    6  C2  UNL     1     -33.624   7.466   5.700  1.00 20.00     0.248 C 
HETATM    7  F6  UNL     1     -34.462   6.671   6.418  1.00 20.00    -0.254 F 
ENDBRANCH   1   6
TORSDOF 2
ENDMDL
MODEL 8
REMARK VINA RESULT:      -3.6      2.400      2.922
REMARK  2 active torsions:
REMARK  status: ('A' for Active; 'I' for Inactive)
REMARK    1  A    between atoms: C1_1  and  C3_3 
REMARK    2  A    between atoms: C2_2  and  C3_3 
ROOT
HETATM    1  C3  UNL     1     -33.842   5.883   4.227  1.00 20.00     0.187 C 
HETATM    2 BR7  UNL     1     -33.708   7.258   5.615  1.00 20.00    -0.077 Br
ENDROOT
BRANCH   1   3
HETATM    3  C1  UNL     1     -34.359   4.632   4.941  1.00 20.00     0.190 C 
HETATM    4  O4  UNL     1     -34.767   4.828   6.123  1.00 20.00    -0.647 OA
HETATM    5  O5  UNL     1     -34.307   3.554   4.286  1.00 20.00    -0.647 OA
ENDBRANCH   1   3
BRANCH   1   6
HETATM    6  C2  UNL     1     -34.684   6.415   3.083  1.00 20.00     0.248 C 
HETATM    7  F6  UNL     1     -35.999   6.148   3.299  1.00 20.00    -0.254 F 
ENDBRANCH   1   6
TORSDOF 2
ENDMDL
MODEL 9
REMARK VINA RESULT:      -3.4     12.261     12.578
REMARK  2 active torsions:
REMARK  status: ('A' for Active; 'I' for Inactive)
REMARK    1  A    between atoms: C1_1  and  C3_3 
REMARK    2  A    between atoms: C2_2  and  C3_3 
ROOT
HETATM    1  C3  UNL     1     -35.762  15.030  -4.766  1.00 20.00     0.187 C 
HETATM    2 BR7  UNL     1     -33.935  14.429  -4.399  1.00 20.00    -0.077 Br
ENDROOT
BRANCH   1   3
HETATM    3  C1  UNL     1     -36.566  13.755  -5.029  1.00 20.00     0.190 C 
HETATM    4  O4  UNL     1     -35.867  12.728  -5.269  1.00 20.00    -0.647 OA
HETATM    5  O5  UNL     1     -37.823  13.869  -4.992  1.00 20.00    -0.647 OA
ENDBRANCH   1   3
BRANCH   1   6
HETATM    6  C2  UNL     1     -36.231  15.913  -3.626  1.00 20.00     0.248 C 
HETATM    7  F6  UNL     1     -35.288  15.964  -2.648  1.00 20.00    -0.254 F 
ENDBRANCH   1   6
TORSDOF 2
ENDMDL
