MODEL 1
REMARK VINA RESULT:      -5.3      0.000      0.000
REMARK  3 active torsions:
REMARK  status: ('A' for Active; 'I' for Inactive)
REMARK    1  A    between atoms: C1_1  and  C3_3 
REMARK    2  A    between atoms: C3_3  and  C6_6 
REMARK    3  A    between atoms: C6_6  and  C7_7 
ROOT
HETATM    1  C3  UNL     1     -33.792   5.641   3.163  1.00 20.00     0.149 C 
HETATM    2  O8  UNL     1     -33.164   4.605   2.960  1.00 20.00    -0.293 OA
ENDROOT
BRANCH   1   3
HETATM    3  C1  UNL     1     -33.466   6.909   2.450  1.00 20.00     0.045 C 
HETATM    4  C2  UNL     1     -32.319   7.556   2.690  1.00 20.00    -0.027 C 
HETATM    5  C4  UNL     1     -31.937   8.830   2.008  1.00 20.00     0.036 C 
ENDBRANCH   1   3
BRANCH   1   6
HETATM    6  C6  UNL     1     -34.948   5.724   4.145  1.00 20.00     0.082 C 
BRANCH   6   7
HETATM    7  C7  UNL     1     -34.479   5.728   5.598  1.00 20.00     0.003 C 
HETATM    8  C5  UNL     1     -33.905   7.078   5.995  1.00 20.00     0.005 C 
ENDBRANCH   6   7
ENDBRANCH   1   6
TORSDOF 3
ENDMDL
MODEL 2
REMARK VINA RESULT:      -5.2      1.967      4.583
REMARK  3 active torsions:
REMARK  status: ('A' for Active; 'I' for Inactive)
REMARK    1  A    between atoms: C1_1  and  C3_3 
REMARK    2  A    between atoms: C3_3  and  C6_6 
REMARK    3  A    between atoms: C6_6  and  C7_7 
ROOT
HETATM    1  C3  UNL     1     -32.011   8.020   2.780  1.00 20.00     0.149 C 
HETATM    2  O8  UNL     1     -31.446   8.389   3.807  1.00 20.00    -0.293 OA
ENDROOT
BRANCH   1   3
HETATM    3  C1  UNL     1     -33.096   6.997   2.806  1.00 20.00     0.045 C 
HETATM    4  C2  UNL     1     -33.822   6.794   3.912  1.00 20.00    -0.027 C 
HETATM    5  C4  UNL     1     -34.921   5.785   3.999  1.00 20.00     0.036 C 
ENDBRANCH   1   3
BRANCH   1   6
HETATM    6  C6  UNL     1     -31.664   8.567   1.406  1.00 20.00     0.082 C 
BRANCH   6   7
HETATM    7  C7  UNL     1     -32.582   9.713   0.987  1.00 20.00     0.003 C 
HETATM    8  C5  UNL     1     -33.165   9.482  -0.398  1.00 20.00     0.005 C 
ENDBRANCH   6   7
ENDBRANCH   1   6
TORSDOF 3
ENDMDL
MODEL 3
REMARK VINA RESULT:      -5.1      1.695      2.140
REMARK  3 active torsions:
REMARK  status: ('A' for Active; 'I' for Inactive)
REMARK    1  A    between atoms: C1_1  and  C3_3 
REMARK    2  A    between atoms: C3_3  and  C6_6 
REMARK    3  A    between atoms: C6_6  and  C7_7 
ROOT
HETATM    1  C3  UNL     1     -33.037   7.256   3.749  1.00 20.00     0.149 C 
HETATM    2  O8  UNL     1     -32.997   7.528   4.946  1.00 20.00    -0.293 OA
ENDROOT
BRANCH   1   3
HETATM    3  C1  UNL     1     -32.128   7.910   2.765  1.00 20.00     0.045 C 
HETATM    4  C2  UNL     1     -32.619   8.532   1.685  1.00 20.00    -0.027 C 
HETATM    5  C4  UNL     1     -31.760   9.205   0.664  1.00 20.00     0.036 C 
ENDBRANCH   1   3
BRANCH   1   6
HETATM    6  C6  UNL     1     -34.001   6.236   3.167  1.00 20.00     0.082 C 
BRANCH   6   7
HETATM    7  C7  UNL     1     -34.961   5.678   4.216  1.00 20.00     0.003 C 
HETATM    8  C5  UNL     1     -34.486   4.335   4.747  1.00 20.00     0.005 C 
ENDBRANCH   6   7
ENDBRANCH   1   6
TORSDOF 3
ENDMDL
MODEL 4
REMARK VINA RESULT:      -4.6      1.362      4.239
REMARK  3 active torsions:
REMARK  status: ('A' for Active; 'I' for Inactive)
REMARK    1  A    between atoms: C1_1  and  C3_3 
REMARK    2  A    between atoms: C3_3  and  C6_6 
REMARK    3  A    between atoms: C6_6  and  C7_7 
ROOT
HETATM    1  C3  UNL     1     -32.950   7.331   2.843  1.00 20.00     0.149 C 
HETATM    2  O8  UNL     1     -33.412   6.656   1.926  1.00 20.00    -0.293 OA
ENDROOT
BRANCH   1   3
HETATM    3  C1  UNL     1     -33.400   7.149   4.253  1.00 20.00     0.045 C 
HETATM    4  C2  UNL     1     -34.213   6.141   4.589  1.00 20.00    -0.027 C 
HETATM    5  C4  UNL     1     -34.698   5.907   5.983  1.00 20.00     0.036 C 
ENDBRANCH   1   3
BRANCH   1   6
HETATM    6  C6  UNL     1     -31.889   8.396   2.630  1.00 20.00     0.082 C 
BRANCH   6   7
HETATM    7  C7  UNL     1     -31.888   8.940   1.203  1.00 20.00     0.003 C 
HETATM    8  C5  UNL     1     -32.750  10.186   1.080  1.00 20.00     0.005 C 
ENDBRANCH   6   7
ENDBRANCH   1   6
TORSDOF 3
ENDMDL
MODEL 5
REMARK VINA RESULT:      -4.1      1.828      4.444
REMARK  3 active torsions:
REMARK  status: ('A' for Active; 'I' for Inactive)
REMARK    1  A    between atoms: C1_1  and  C3_3 
REMARK    2  A    between atoms: C3_3  and  C6_6 
REMARK    3  A    between atoms: C6_6  and  C7_7 
ROOT
HETATM    1  C3  UNL     1     -33.121   7.518   2.935  1.00 20.00     0.149 C 
HETATM    2  O8  UNL     1     -33.784   8.316   3.593  1.00 20.00    -0.293 OA
ENDROOT
BRANCH   1   3
HETATM    3  C1  UNL     1     -33.291   6.045   3.086  1.00 20.00     0.045 C 
HETATM    4  C2  UNL     1     -34.061   5.539   4.058  1.00 20.00    -0.027 C 
HETATM    5  C4  UNL     1     -34.270   4.073   4.260  1.00 20.00     0.036 C 
ENDBRANCH   1   3
BRANCH   1   6
HETATM    6  C6  UNL     1     -32.082   7.953   1.916  1.00 20.00     0.082 C 
BRANCH   6   7
HETATM    7  C7  UNL     1     -32.295   9.389   1.444  1.00 20.00     0.003 C 
HETATM    8  C5  UNL     1     -32.812   9.436   0.016  1.00 20.00     0.005 C 
ENDBRANCH   6   7
ENDBRANCH   1   6
TORSDOF 3
ENDMDL
MODEL 6
REMARK VINA RESULT:      -3.8      1.780      3.190
REMARK  3 active torsions:
REMARK  status: ('A' for Active; 'I' for Inactive)
REMARK    1  A    between atoms: C1_1  and  C3_3 
REMARK    2  A    between atoms: C3_3  and  C6_6 
REMARK    3  A    between atoms: C6_6  and  C7_7 
ROOT
HETATM    1  C3  UNL     1     -32.817   7.211   2.764  1.00 20.00     0.149 C 
HETATM    2  O8  UNL     1     -32.131   7.790   1.925  1.00 20.00    -0.293 OA
ENDROOT
BRANCH   1   3
HETATM    3  C1  UNL     1     -32.787   7.597   4.203  1.00 20.00     0.045 C 
HETATM    4  C2  UNL     1     -33.769   7.225   5.034  1.00 20.00    -0.027 C 
HETATM    5  C4  UNL     1     -33.796   7.580   6.485  1.00 20.00     0.036 C 
ENDBRANCH   1   3
BRANCH   1   6
HETATM    6  C6  UNL     1     -33.750   6.064   2.415  1.00 20.00     0.082 C 
BRANCH   6   7
HETATM    7  C7  UNL     1     -33.170   4.704   2.798  1.00 20.00     0.003 C 
HETATM    8  C5  UNL     1     -33.978   4.044   3.902  1.00 20.00     0.005 C 
ENDBRANCH   6   7
ENDBRANCH   1   6
TORSDOF 3
ENDMDL
MODEL 7
REMARK VINA RESULT:      -3.7      1.825      2.729
REMARK  3 active torsions:
REMARK  status: ('A' for Active; 'I' for Inactive)
REMARK    1  A    between atoms: C1_1  and  C3_3 
REMARK    2  A    between atoms: C3_3  and  C6_6 
REMARK    3  A    between atoms: C6_6  and  C7_7 
ROOT
HETATM    1  C3  UNL     1     -32.892   7.329   3.654  1.00 20.00     0.149 C 
HETATM    2  O8  UNL     1     -31.897   8.027   3.835  1.00 20.00    -0.293 OA
ENDROOT
BRANCH   1   3
HETATM    3  C1  UNL     1     -32.939   6.294   2.582  1.00 20.00     0.045 C 
HETATM    4  C2  UNL     1     -32.948   4.990   2.887  1.00 20.00    -0.027 C 
HETATM    5  C4  UNL     1     -32.994   3.907   1.859  1.00 20.00     0.036 C 
ENDBRANCH   1   3
BRANCH   1   6
HETATM    6  C6  UNL     1     -34.150   7.452   4.497  1.00 20.00     0.082 C 
BRANCH   6   7
HETATM    7  C7  UNL     1     -34.005   6.779   5.860  1.00 20.00     0.003 C 
HETATM    8  C5  UNL     1     -34.606   5.383   5.859  1.00 20.00     0.005 C 
ENDBRANCH   6   7
ENDBRANCH   1   6
TORSDOF 3
ENDMDL
MODEL 8
REMARK VINA RESULT:      -3.7     11.915     12.397
REMARK  3 active torsions:
REMARK  status: ('A' for Active; 'I' for Inactive)
REMARK    1  A    between atoms: C1_1  and  C3_3 
REMARK    2  A    between atoms: C3_3  and  C6_6 
REMARK    3  A    between atoms: C6_6  and  C7_7 
ROOT
HETATM    1  C3  UNL     1     -32.276  18.396  -0.335  1.00 20.00     0.149 C 
HETATM    2  O8  UNL     1     -31.056  18.297  -0.444  1.00 20.00    -0.293 OA
ENDROOT
BRANCH   1   3
HETATM    3  C1  UNL     1     -33.204  17.816  -1.348  1.00 20.00     0.045 C 
HETATM    4  C2  UNL     1     -34.407  17.351  -0.990  1.00 20.00    -0.027 C 
HETATM    5  C4  UNL     1     -35.379  16.759  -1.958  1.00 20.00     0.036 C 
ENDBRANCH   1   3
BRANCH   1   6
HETATM    6  C6  UNL     1     -32.944  19.107   0.829  1.00 20.00     0.082 C 
BRANCH   6   7
HETATM    7  C7  UNL     1     -32.405  18.644   2.181  1.00 20.00     0.003 C 
HETATM    8  C5  UNL     1     -33.531  18.296   3.141  1.00 20.00     0.005 C 
ENDBRANCH   6   7
ENDBRANCH   1   6
TORSDOF 3
ENDMDL
MODEL 9
REMARK VINA RESULT:      -3.6     11.283     12.582
REMARK  3 active torsions:
REMARK  status: ('A' for Active; 'I' for Inactive)
REMARK    1  A    between atoms: C1_1  and  C3_3 
REMARK    2  A    between atoms: C3_3  and  C6_6 
REMARK    3  A    between atoms: C6_6  and  C7_7 
ROOT
HETATM    1  C3  UNL     1     -35.539  13.823  -5.207  1.00 20.00     0.149 C 
HETATM    2  O8  UNL     1     -35.878  12.642  -5.180  1.00 20.00    -0.293 OA
ENDROOT
BRANCH   1   3
HETATM    3  C1  UNL     1     -34.681  14.416  -4.141  1.00 20.00     0.045 C 
HETATM    4  C2  UNL     1     -34.688  15.735  -3.910  1.00 20.00    -0.027 C 
HETATM    5  C4  UNL     1     -33.851  16.388  -2.858  1.00 20.00     0.036 C 
ENDBRANCH   1   3
BRANCH   1   6
HETATM    6  C6  UNL     1     -35.954  14.775  -6.315  1.00 20.00     0.082 C 
BRANCH   6   7
HETATM    7  C7  UNL     1     -35.620  14.234  -7.703  1.00 20.00     0.003 C 
HETATM    8  C5  UNL     1     -34.118  14.139  -7.918  1.00 20.00     0.005 C 
ENDBRANCH   6   7
ENDBRANCH   1   6
TORSDOF 3
ENDMDL
