MODEL 1
REMARK VINA RESULT:      -4.9      0.000      0.000
REMARK  2 active torsions:
REMARK  status: ('A' for Active; 'I' for Inactive)
REMARK    1  A    between atoms: C1_1  and  C2_2 
REMARK    2  A    between atoms: C1_1  and  C3_3 
ROOT
HETATM    1  C1  UNL     1     -33.779   7.151   3.780  1.00 20.00     0.148 C 
HETATM    2 CL4  UNL     1     -33.549   7.417   5.555  1.00 20.00    -0.119 Cl
ENDROOT
BRANCH   1   3
HETATM    3  C2  UNL     1     -34.279   5.710   3.541  1.00 20.00     0.199 C 
HETATM    4 CL5  UNL     1     -33.072   4.734   2.643  1.00 20.00    -0.106 Cl
HETATM    5 CL6  UNL     1     -34.619   4.856   5.076  1.00 20.00    -0.106 Cl
ENDBRANCH   1   3
BRANCH   1   6
HETATM    6  C3  UNL     1     -32.488   7.517   3.013  1.00 20.00     0.199 C 
HETATM    7 CL7  UNL     1     -31.296   8.381   4.020  1.00 20.00    -0.106 Cl
HETATM    8 CL8  UNL     1     -32.840   8.484   1.548  1.00 20.00    -0.106 Cl
ENDBRANCH   1   6
TORSDOF 2
ENDMDL
MODEL 2
REMARK VINA RESULT:      -4.1      0.689      3.731
REMARK  2 active torsions:
REMARK  status: ('A' for Active; 'I' for Inactive)
REMARK    1  A    between atoms: C1_1  and  C2_2 
REMARK    2  A    between atoms: C1_1  and  C3_3 
ROOT
HETATM    1  C1  UNL     1     -33.808   6.676   3.126  1.00 20.00     0.148 C 
HETATM    2 CL4  UNL     1     -32.707   5.298   2.724  1.00 20.00    -0.119 Cl
ENDROOT
BRANCH   1   3
HETATM    3  C2  UNL     1     -33.025   8.002   3.018  1.00 20.00     0.199 C 
HETATM    4 CL5  UNL     1     -31.350   7.830   3.636  1.00 20.00    -0.106 Cl
HETATM    5 CL6  UNL     1     -32.913   8.579   1.328  1.00 20.00    -0.106 Cl
ENDBRANCH   1   3
BRANCH   1   6
HETATM    6  C3  UNL     1     -34.482   6.440   4.497  1.00 20.00     0.199 C 
HETATM    7 CL7  UNL     1     -33.688   7.320   5.830  1.00 20.00    -0.106 Cl
HETATM    8 CL8  UNL     1     -34.567   4.698   4.901  1.00 20.00    -0.106 Cl
ENDBRANCH   1   6
TORSDOF 2
ENDMDL
MODEL 3
REMARK VINA RESULT:      -4.1      0.827      2.550
REMARK  2 active torsions:
REMARK  status: ('A' for Active; 'I' for Inactive)
REMARK    1  A    between atoms: C1_1  and  C2_2 
REMARK    2  A    between atoms: C1_1  and  C3_3 
ROOT
HETATM    1  C1  UNL     1     -33.305   6.511   3.445  1.00 20.00     0.148 C 
HETATM    2 CL4  UNL     1     -34.038   5.741   1.981  1.00 20.00    -0.119 Cl
ENDROOT
BRANCH   1   3
HETATM    3  C2  UNL     1     -34.304   6.428   4.618  1.00 20.00     0.199 C 
HETATM    4 CL5  UNL     1     -34.575   4.732   5.134  1.00 20.00    -0.106 Cl
HETATM    5 CL6  UNL     1     -33.733   7.336   6.051  1.00 20.00    -0.106 Cl
ENDBRANCH   1   3
BRANCH   1   6
HETATM    6  C3  UNL     1     -32.823   7.942   3.113  1.00 20.00     0.199 C 
HETATM    7 CL7  UNL     1     -32.754   8.268   1.360  1.00 20.00    -0.106 Cl
HETATM    8 CL8  UNL     1     -31.228   8.291   3.846  1.00 20.00    -0.106 Cl
ENDBRANCH   1   6
TORSDOF 2
ENDMDL
MODEL 4
REMARK VINA RESULT:      -4.0      0.900      3.801
REMARK  2 active torsions:
REMARK  status: ('A' for Active; 'I' for Inactive)
REMARK    1  A    between atoms: C1_1  and  C2_2 
REMARK    2  A    between atoms: C1_1  and  C3_3 
ROOT
HETATM    1  C1  UNL     1     -33.682   7.029   3.387  1.00 20.00     0.148 C 
HETATM    2 CL4  UNL     1     -34.487   5.913   2.212  1.00 20.00    -0.119 Cl
ENDROOT
BRANCH   1   3
HETATM    3  C2  UNL     1     -32.348   7.524   2.788  1.00 20.00     0.199 C 
HETATM    4 CL5  UNL     1     -32.619   8.637   1.408  1.00 20.00    -0.106 Cl
HETATM    5 CL6  UNL     1     -31.356   8.399   3.992  1.00 20.00    -0.106 Cl
ENDBRANCH   1   3
BRANCH   1   6
HETATM    6  C3  UNL     1     -33.551   6.348   4.768  1.00 20.00     0.199 C 
HETATM    7 CL7  UNL     1     -34.601   4.917   4.946  1.00 20.00    -0.106 Cl
HETATM    8 CL8  UNL     1     -33.876   7.493   6.105  1.00 20.00    -0.106 Cl
ENDBRANCH   1   6
TORSDOF 2
ENDMDL
MODEL 5
REMARK VINA RESULT:      -4.0      1.158      2.583
REMARK  2 active torsions:
REMARK  status: ('A' for Active; 'I' for Inactive)
REMARK    1  A    between atoms: C1_1  and  C2_2 
REMARK    2  A    between atoms: C1_1  and  C3_3 
ROOT
HETATM    1  C1  UNL     1     -34.013   6.304   3.202  1.00 20.00     0.148 C 
HETATM    2 CL4  UNL     1     -35.743   6.046   3.664  1.00 20.00    -0.119 Cl
ENDROOT
BRANCH   1   3
HETATM    3  C2  UNL     1     -33.219   5.005   3.455  1.00 20.00     0.199 C 
HETATM    4 CL5  UNL     1     -34.142   3.857   4.480  1.00 20.00    -0.106 Cl
HETATM    5 CL6  UNL     1     -32.819   4.156   1.932  1.00 20.00    -0.106 Cl
ENDBRANCH   1   3
BRANCH   1   6
HETATM    6  C3  UNL     1     -33.448   7.551   3.919  1.00 20.00     0.199 C 
HETATM    7 CL7  UNL     1     -31.788   7.961   3.409  1.00 20.00    -0.106 Cl
HETATM    8 CL8  UNL     1     -33.495   7.370   5.699  1.00 20.00    -0.106 Cl
ENDBRANCH   1   6
TORSDOF 2
ENDMDL
MODEL 6
REMARK VINA RESULT:      -3.9      0.815      2.103
REMARK  2 active torsions:
REMARK  status: ('A' for Active; 'I' for Inactive)
REMARK    1  A    between atoms: C1_1  and  C2_2 
REMARK    2  A    between atoms: C1_1  and  C3_3 
ROOT
HETATM    1  C1  UNL     1     -32.790   6.435   3.497  1.00 20.00     0.148 C 
HETATM    2 CL4  UNL     1     -33.179   5.088   2.354  1.00 20.00    -0.119 Cl
ENDROOT
BRANCH   1   3
HETATM    3  C2  UNL     1     -34.089   6.918   4.177  1.00 20.00     0.199 C 
HETATM    4 CL5  UNL     1     -35.378   5.673   4.094  1.00 20.00    -0.106 Cl
HETATM    5 CL6  UNL     1     -33.836   7.309   5.904  1.00 20.00    -0.106 Cl
ENDBRANCH   1   3
BRANCH   1   6
HETATM    6  C3  UNL     1     -31.997   7.543   2.768  1.00 20.00     0.199 C 
HETATM    7 CL7  UNL     1     -31.207   8.690   3.885  1.00 20.00    -0.106 Cl
HETATM    8 CL8  UNL     1     -33.028   8.448   1.618  1.00 20.00    -0.106 Cl
ENDBRANCH   1   6
TORSDOF 2
ENDMDL
MODEL 7
REMARK VINA RESULT:      -3.9      1.308      3.435
REMARK  2 active torsions:
REMARK  status: ('A' for Active; 'I' for Inactive)
REMARK    1  A    between atoms: C1_1  and  C2_2 
REMARK    2  A    between atoms: C1_1  and  C3_3 
ROOT
HETATM    1  C1  UNL     1     -33.459   6.508   4.911  1.00 20.00     0.148 C 
HETATM    2 CL4  UNL     1     -33.715   7.739   6.213  1.00 20.00    -0.119 Cl
ENDROOT
BRANCH   1   3
HETATM    3  C2  UNL     1     -33.125   7.229   3.588  1.00 20.00     0.199 C 
HETATM    4 CL5  UNL     1     -31.659   8.250   3.745  1.00 20.00    -0.106 Cl
HETATM    5 CL6  UNL     1     -32.830   6.075   2.253  1.00 20.00    -0.106 Cl
ENDBRANCH   1   3
BRANCH   1   6
HETATM    6  C3  UNL     1     -34.671   5.552   4.833  1.00 20.00     0.199 C 
HETATM    7 CL7  UNL     1     -34.207   3.856   4.532  1.00 20.00    -0.106 Cl
HETATM    8 CL8  UNL     1     -35.848   6.076   3.591  1.00 20.00    -0.106 Cl
ENDBRANCH   1   6
TORSDOF 2
ENDMDL
MODEL 8
REMARK VINA RESULT:      -3.9      1.313      4.052
REMARK  2 active torsions:
REMARK  status: ('A' for Active; 'I' for Inactive)
REMARK    1  A    between atoms: C1_1  and  C2_2 
REMARK    2  A    between atoms: C1_1  and  C3_3 
ROOT
HETATM    1  C1  UNL     1     -32.220   7.706   2.659  1.00 20.00     0.148 C 
HETATM    2 CL4  UNL     1     -31.386   8.677   3.939  1.00 20.00    -0.119 Cl
ENDROOT
BRANCH   1   3
HETATM    3  C2  UNL     1     -32.489   8.604   1.433  1.00 20.00     0.199 C 
HETATM    4 CL5  UNL     1     -32.719  10.318   1.909  1.00 20.00    -0.106 Cl
HETATM    5 CL6  UNL     1     -31.142   8.553   0.257  1.00 20.00    -0.106 Cl
ENDBRANCH   1   3
BRANCH   1   6
HETATM    6  C3  UNL     1     -33.478   7.022   3.242  1.00 20.00     0.199 C 
HETATM    7 CL7  UNL     1     -33.657   7.265   5.000  1.00 20.00    -0.106 Cl
HETATM    8 CL8  UNL     1     -33.507   5.269   2.878  1.00 20.00    -0.106 Cl
ENDBRANCH   1   6
TORSDOF 2
ENDMDL
MODEL 9
REMARK VINA RESULT:      -3.8      1.243      1.513
REMARK  2 active torsions:
REMARK  status: ('A' for Active; 'I' for Inactive)
REMARK    1  A    between atoms: C1_1  and  C2_2 
REMARK    2  A    between atoms: C1_1  and  C3_3 
ROOT
HETATM    1  C1  UNL     1     -33.713   7.233   4.180  1.00 20.00     0.148 C 
HETATM    2 CL4  UNL     1     -33.291   7.524   5.915  1.00 20.00    -0.119 Cl
ENDROOT
BRANCH   1   3
HETATM    3  C2  UNL     1     -34.400   5.857   4.047  1.00 20.00     0.199 C 
HETATM    4 CL5  UNL     1     -34.525   5.027   5.632  1.00 20.00    -0.106 Cl
HETATM    5 CL6  UNL     1     -36.057   5.996   3.386  1.00 20.00    -0.106 Cl
ENDBRANCH   1   3
BRANCH   1   6
HETATM    6  C3  UNL     1     -32.464   7.415   3.288  1.00 20.00     0.199 C 
HETATM    7 CL7  UNL     1     -31.213   8.444   4.036  1.00 20.00    -0.106 Cl
HETATM    8 CL8  UNL     1     -32.890   8.072   1.678  1.00 20.00    -0.106 Cl
ENDBRANCH   1   6
TORSDOF 2
ENDMDL
