MODEL 1
REMARK VINA RESULT:      -5.0      0.000      0.000
REMARK  3 active torsions:
REMARK  status: ('A' for Active; 'I' for Inactive)
REMARK    1  A    between atoms: C1_1  and  C5_5 
REMARK    2  A    between atoms: C2_2  and  C6_6 
REMARK    3  A    between atoms: C6_6  and  C7_7 
ROOT
HETATM    1  C1  UNL     1     -31.849   8.273   2.067  1.00 20.00     0.150 A 
HETATM    2  C2  UNL     1     -32.359   7.262   3.064  1.00 20.00     0.151 A 
HETATM    3  O8  UNL     1     -31.491   8.334   3.454  1.00 20.00    -0.376 OA
ENDROOT
BRANCH   2   4
HETATM    4  C6  UNL     1     -33.753   7.318   3.668  1.00 20.00     0.034 C 
BRANCH   4   5
HETATM    5  C7  UNL     1     -33.709   7.184   5.189  1.00 20.00    -0.002 C 
HETATM    6  C4  UNL     1     -34.458   5.949   5.661  1.00 20.00     0.005 C 
ENDBRANCH   4   5
ENDBRANCH   2   4
BRANCH   1   7
HETATM    7  C5  UNL     1     -32.662   9.419   1.581  1.00 20.00     0.030 C 
HETATM    8  C3  UNL     1     -32.804   9.451   0.079  1.00 20.00     0.007 C 
ENDBRANCH   1   7
TORSDOF 3
ENDMDL
MODEL 2
REMARK VINA RESULT:      -4.9      1.141      1.526
REMARK  3 active torsions:
REMARK  status: ('A' for Active; 'I' for Inactive)
REMARK    1  A    between atoms: C1_1  and  C5_5 
REMARK    2  A    between atoms: C2_2  and  C6_6 
REMARK    3  A    between atoms: C6_6  and  C7_7 
ROOT
HETATM    1  C1  UNL     1     -33.002   7.356   2.301  1.00 20.00     0.150 A 
HETATM    2  C2  UNL     1     -33.724   6.781   3.494  1.00 20.00     0.151 A 
HETATM    3  O8  UNL     1     -32.575   6.139   2.926  1.00 20.00    -0.376 OA
ENDROOT
BRANCH   2   4
HETATM    4  C6  UNL     1     -33.532   7.295   4.912  1.00 20.00     0.034 C 
BRANCH   4   5
HETATM    5  C7  UNL     1     -34.258   6.417   5.928  1.00 20.00    -0.002 C 
HETATM    6  C4  UNL     1     -34.684   5.092   5.315  1.00 20.00     0.005 C 
ENDBRANCH   4   5
ENDBRANCH   2   4
BRANCH   1   7
HETATM    7  C5  UNL     1     -32.034   8.481   2.399  1.00 20.00     0.030 C 
HETATM    8  C3  UNL     1     -32.271   9.558   1.370  1.00 20.00     0.007 C 
ENDBRANCH   1   7
TORSDOF 3
ENDMDL
MODEL 3
REMARK VINA RESULT:      -4.7      1.677      4.474
REMARK  3 active torsions:
REMARK  status: ('A' for Active; 'I' for Inactive)
REMARK    1  A    between atoms: C1_1  and  C5_5 
REMARK    2  A    between atoms: C2_2  and  C6_6 
REMARK    3  A    between atoms: C6_6  and  C7_7 
ROOT
HETATM    1  C1  UNL     1     -33.963   5.336   3.410  1.00 20.00     0.150 A 
HETATM    2  C2  UNL     1     -32.882   6.227   2.850  1.00 20.00     0.151 A 
HETATM    3  O8  UNL     1     -34.137   6.050   2.179  1.00 20.00    -0.376 OA
ENDROOT
BRANCH   2   4
HETATM    4  C6  UNL     1     -32.621   7.637   3.354  1.00 20.00     0.034 C 
BRANCH   4   5
HETATM    5  C7  UNL     1     -31.688   8.401   2.417  1.00 20.00    -0.002 C 
HETATM    6  C4  UNL     1     -32.464   9.133   1.334  1.00 20.00     0.005 C 
ENDBRANCH   4   5
ENDBRANCH   2   4
BRANCH   1   7
HETATM    7  C5  UNL     1     -34.875   5.753   4.508  1.00 20.00     0.030 C 
HETATM    8  C3  UNL     1     -34.604   5.038   5.808  1.00 20.00     0.007 C 
ENDBRANCH   1   7
TORSDOF 3
ENDMDL
MODEL 4
REMARK VINA RESULT:      -4.5      1.286      4.198
REMARK  3 active torsions:
REMARK  status: ('A' for Active; 'I' for Inactive)
REMARK    1  A    between atoms: C1_1  and  C5_5 
REMARK    2  A    between atoms: C2_2  and  C6_6 
REMARK    3  A    between atoms: C6_6  and  C7_7 
ROOT
HETATM    1  C1  UNL     1     -32.788   7.591   3.502  1.00 20.00     0.150 A 
HETATM    2  C2  UNL     1     -32.127   8.732   2.768  1.00 20.00     0.151 A 
HETATM    3  O8  UNL     1     -31.382   7.847   3.614  1.00 20.00    -0.376 OA
ENDROOT
BRANCH   2   4
HETATM    4  C6  UNL     1     -31.755   8.670   1.295  1.00 20.00     0.034 C 
BRANCH   4   5
HETATM    5  C7  UNL     1     -32.326   9.859   0.525  1.00 20.00    -0.002 C 
HETATM    6  C4  UNL     1     -33.262   9.406  -0.585  1.00 20.00     0.005 C 
ENDBRANCH   4   5
ENDBRANCH   2   4
BRANCH   1   7
HETATM    7  C5  UNL     1     -33.137   6.299   2.854  1.00 20.00     0.030 C 
HETATM    8  C3  UNL     1     -34.312   5.610   3.502  1.00 20.00     0.007 C 
ENDBRANCH   1   7
TORSDOF 3
ENDMDL
MODEL 5
REMARK VINA RESULT:      -4.4      2.136      4.359
REMARK  3 active torsions:
REMARK  status: ('A' for Active; 'I' for Inactive)
REMARK    1  A    between atoms: C1_1  and  C5_5 
REMARK    2  A    between atoms: C2_2  and  C6_6 
REMARK    3  A    between atoms: C6_6  and  C7_7 
ROOT
HETATM    1  C1  UNL     1     -34.849   5.337   4.457  1.00 20.00     0.150 A 
HETATM    2  C2  UNL     1     -34.222   5.497   3.094  1.00 20.00     0.151 A 
HETATM    3  O8  UNL     1     -35.125   6.474   3.628  1.00 20.00    -0.376 OA
ENDROOT
BRANCH   2   4
HETATM    4  C6  UNL     1     -32.799   5.989   2.884  1.00 20.00     0.034 C 
BRANCH   4   5
HETATM    5  C7  UNL     1     -32.768   7.475   2.532  1.00 20.00    -0.002 C 
HETATM    6  C4  UNL     1     -31.648   8.197   3.265  1.00 20.00     0.005 C 
ENDBRANCH   4   5
ENDBRANCH   2   4
BRANCH   1   7
HETATM    7  C5  UNL     1     -34.135   5.646   5.724  1.00 20.00     0.030 C 
HETATM    8  C3  UNL     1     -34.011   7.125   5.989  1.00 20.00     0.007 C 
ENDBRANCH   1   7
TORSDOF 3
ENDMDL
MODEL 6
REMARK VINA RESULT:      -4.4      1.619      2.166
REMARK  3 active torsions:
REMARK  status: ('A' for Active; 'I' for Inactive)
REMARK    1  A    between atoms: C1_1  and  C5_5 
REMARK    2  A    between atoms: C2_2  and  C6_6 
REMARK    3  A    between atoms: C6_6  and  C7_7 
ROOT
HETATM    1  C1  UNL     1     -32.952   6.414   2.313  1.00 20.00     0.150 A 
HETATM    2  C2  UNL     1     -34.167   5.675   2.816  1.00 20.00     0.151 A 
HETATM    3  O8  UNL     1     -32.840   5.291   3.197  1.00 20.00    -0.376 OA
ENDROOT
BRANCH   2   4
HETATM    4  C6  UNL     1     -35.038   6.181   3.955  1.00 20.00     0.034 C 
BRANCH   4   5
HETATM    5  C7  UNL     1     -34.460   5.794   5.314  1.00 20.00    -0.002 C 
HETATM    6  C4  UNL     1     -33.939   7.011   6.063  1.00 20.00     0.005 C 
ENDBRANCH   4   5
ENDBRANCH   2   4
BRANCH   1   7
HETATM    7  C5  UNL     1     -32.491   7.707   2.884  1.00 20.00     0.030 C 
HETATM    8  C3  UNL     1     -32.121   8.722   1.832  1.00 20.00     0.007 C 
ENDBRANCH   1   7
TORSDOF 3
ENDMDL
MODEL 7
REMARK VINA RESULT:      -4.4      1.370      4.477
REMARK  3 active torsions:
REMARK  status: ('A' for Active; 'I' for Inactive)
REMARK    1  A    between atoms: C1_1  and  C5_5 
REMARK    2  A    between atoms: C2_2  and  C6_6 
REMARK    3  A    between atoms: C6_6  and  C7_7 
ROOT
HETATM    1  C1  UNL     1     -34.468   6.700   4.312  1.00 20.00     0.150 A 
HETATM    2  C2  UNL     1     -33.554   7.702   3.650  1.00 20.00     0.151 A 
HETATM    3  O8  UNL     1     -33.322   7.235   4.985  1.00 20.00    -0.376 OA
ENDROOT
BRANCH   2   4
HETATM    4  C6  UNL     1     -32.483   7.314   2.642  1.00 20.00     0.034 C 
BRANCH   4   5
HETATM    5  C7  UNL     1     -31.718   8.537   2.142  1.00 20.00    -0.002 C 
HETATM    6  C4  UNL     1     -32.357   9.120   0.892  1.00 20.00     0.005 C 
ENDBRANCH   4   5
ENDBRANCH   2   4
BRANCH   1   7
HETATM    7  C5  UNL     1     -34.409   5.240   4.041  1.00 20.00     0.030 C 
HETATM    8  C3  UNL     1     -34.522   4.400   5.289  1.00 20.00     0.007 C 
ENDBRANCH   1   7
TORSDOF 3
ENDMDL
MODEL 8
REMARK VINA RESULT:      -4.0      1.970      2.643
REMARK  3 active torsions:
REMARK  status: ('A' for Active; 'I' for Inactive)
REMARK    1  A    between atoms: C1_1  and  C5_5 
REMARK    2  A    between atoms: C2_2  and  C6_6 
REMARK    3  A    between atoms: C6_6  and  C7_7 
ROOT
HETATM    1  C1  UNL     1     -32.512   6.826   2.838  1.00 20.00     0.150 A 
HETATM    2  C2  UNL     1     -32.821   7.650   4.063  1.00 20.00     0.151 A 
HETATM    3  O8  UNL     1     -32.946   8.189   2.740  1.00 20.00    -0.376 OA
ENDROOT
BRANCH   2   4
HETATM    4  C6  UNL     1     -34.127   7.540   4.834  1.00 20.00     0.034 C 
BRANCH   4   5
HETATM    5  C7  UNL     1     -33.996   6.589   6.022  1.00 20.00    -0.002 C 
HETATM    6  C4  UNL     1     -34.616   5.234   5.720  1.00 20.00     0.005 C 
ENDBRANCH   4   5
ENDBRANCH   2   4
BRANCH   1   7
HETATM    7  C5  UNL     1     -33.456   5.828   2.268  1.00 20.00     0.030 C 
HETATM    8  C3  UNL     1     -33.037   4.402   2.525  1.00 20.00     0.007 C 
ENDBRANCH   1   7
TORSDOF 3
ENDMDL
MODEL 9
REMARK VINA RESULT:      -3.9      2.293      3.323
REMARK  3 active torsions:
REMARK  status: ('A' for Active; 'I' for Inactive)
REMARK    1  A    between atoms: C1_1  and  C5_5 
REMARK    2  A    between atoms: C2_2  and  C6_6 
REMARK    3  A    between atoms: C6_6  and  C7_7 
ROOT
HETATM    1  C1  UNL     1     -33.711   7.450   3.535  1.00 20.00     0.150 A 
HETATM    2  C2  UNL     1     -33.908   6.121   2.848  1.00 20.00     0.151 A 
HETATM    3  O8  UNL     1     -33.025   7.119   2.320  1.00 20.00    -0.376 OA
ENDROOT
BRANCH   2   4
HETATM    4  C6  UNL     1     -33.226   4.840   3.302  1.00 20.00     0.034 C 
BRANCH   4   5
HETATM    5  C7  UNL     1     -34.194   3.929   4.054  1.00 20.00    -0.002 C 
HETATM    6  C4  UNL     1     -34.617   4.540   5.380  1.00 20.00     0.005 C 
ENDBRANCH   4   5
ENDBRANCH   2   4
BRANCH   1   7
HETATM    7  C5  UNL     1     -32.831   7.632   4.719  1.00 20.00     0.030 C 
HETATM    8  C3  UNL     1     -33.584   7.608   6.026  1.00 20.00     0.007 C 
ENDBRANCH   1   7
TORSDOF 3
ENDMDL
