MODEL 1
REMARK VINA RESULT:      -5.6      0.000      0.000
REMARK  4 active torsions:
REMARK  status: ('A' for Active; 'I' for Inactive)
REMARK    1  A    between atoms: C5_5  and  C6_6 
REMARK    2  A    between atoms: C6_6  and  C9_9 
REMARK    3  A    between atoms: C7_7  and  C8_8 
REMARK    4  A    between atoms: C7_7  and  C9_9 
ROOT
HETATM    1  C4  UNL     1     -32.997   4.781   2.547  1.00 20.00     0.010 C 
HETATM    2  C9  UNL     1     -33.376   6.078   3.272  1.00 20.00    -0.018 C 
ENDROOT
BRANCH   2   3
HETATM    3  C6  UNL     1     -34.713   5.859   4.017  1.00 20.00     0.004 C 
BRANCH   3   4
HETATM    4  C5  UNL     1     -34.584   5.893   5.542  1.00 20.00    -0.004 C 
HETATM    5  C1  UNL     1     -33.852   7.143   6.008  1.00 20.00     0.005 C 
ENDBRANCH   3   4
ENDBRANCH   2   3
BRANCH   2   6
HETATM    6  C7  UNL     1     -33.456   7.277   2.301  1.00 20.00     0.008 C 
BRANCH   6   7
HETATM    7  C8  UNL     1     -32.153   8.079   2.101  1.00 20.00    -0.022 C 
HETATM    8  C2  UNL     1     -31.475   8.306   3.456  1.00 20.00     0.009 C 
HETATM    9  C3  UNL     1     -32.396   9.424   1.416  1.00 20.00     0.009 C 
ENDBRANCH   6   7
ENDBRANCH   2   6
TORSDOF 4
ENDMDL
MODEL 2
REMARK VINA RESULT:      -5.5      0.863      3.972
REMARK  4 active torsions:
REMARK  status: ('A' for Active; 'I' for Inactive)
REMARK    1  A    between atoms: C5_5  and  C6_6 
REMARK    2  A    between atoms: C6_6  and  C9_9 
REMARK    3  A    between atoms: C7_7  and  C8_8 
REMARK    4  A    between atoms: C7_7  and  C9_9 
ROOT
HETATM    1  C4  UNL     1     -32.954   4.825   2.505  1.00 20.00     0.010 C 
HETATM    2  C9  UNL     1     -33.467   6.268   2.584  1.00 20.00    -0.018 C 
ENDROOT
BRANCH   2   3
HETATM    3  C6  UNL     1     -32.255   7.222   2.682  1.00 20.00     0.004 C 
BRANCH   3   4
HETATM    4  C5  UNL     1     -32.532   8.630   2.150  1.00 20.00    -0.004 C 
HETATM    5  C1  UNL     1     -31.774   8.894   0.858  1.00 20.00     0.005 C 
ENDBRANCH   3   4
ENDBRANCH   2   3
BRANCH   2   6
HETATM    6  C7  UNL     1     -34.444   6.466   3.765  1.00 20.00     0.008 C 
BRANCH   6   7
HETATM    7  C8  UNL     1     -33.884   6.154   5.169  1.00 20.00    -0.022 C 
HETATM    8  C2  UNL     1     -34.718   5.045   5.821  1.00 20.00     0.009 C 
HETATM    9  C3  UNL     1     -33.869   7.385   6.077  1.00 20.00     0.009 C 
ENDBRANCH   6   7
ENDBRANCH   2   6
TORSDOF 4
ENDMDL
MODEL 3
REMARK VINA RESULT:      -5.5      0.988      4.361
REMARK  4 active torsions:
REMARK  status: ('A' for Active; 'I' for Inactive)
REMARK    1  A    between atoms: C5_5  and  C6_6 
REMARK    2  A    between atoms: C6_6  and  C9_9 
REMARK    3  A    between atoms: C7_7  and  C8_8 
REMARK    4  A    between atoms: C7_7  and  C9_9 
ROOT
HETATM    1  C4  UNL     1     -31.405   8.266   3.778  1.00 20.00     0.010 C 
HETATM    2  C9  UNL     1     -32.509   7.385   3.180  1.00 20.00    -0.018 C 
ENDROOT
BRANCH   2   3
HETATM    3  C6  UNL     1     -33.018   8.042   1.877  1.00 20.00     0.004 C 
BRANCH   3   4
HETATM    4  C5  UNL     1     -32.003   8.979   1.219  1.00 20.00    -0.004 C 
HETATM    5  C1  UNL     1     -32.616  10.338   0.919  1.00 20.00     0.005 C 
ENDBRANCH   3   4
ENDBRANCH   2   3
BRANCH   2   6
HETATM    6  C7  UNL     1     -33.659   7.146   4.184  1.00 20.00     0.008 C 
BRANCH   6   7
HETATM    7  C8  UNL     1     -34.389   5.791   4.073  1.00 20.00    -0.022 C 
HETATM    8  C2  UNL     1     -34.645   5.227   5.475  1.00 20.00     0.009 C 
HETATM    9  C3  UNL     1     -33.602   4.772   3.246  1.00 20.00     0.009 C 
ENDBRANCH   6   7
ENDBRANCH   2   6
TORSDOF 4
ENDMDL
MODEL 4
REMARK VINA RESULT:      -5.4      1.230      2.645
REMARK  4 active torsions:
REMARK  status: ('A' for Active; 'I' for Inactive)
REMARK    1  A    between atoms: C5_5  and  C6_6 
REMARK    2  A    between atoms: C6_6  and  C9_9 
REMARK    3  A    between atoms: C7_7  and  C8_8 
REMARK    4  A    between atoms: C7_7  and  C9_9 
ROOT
HETATM    1  C4  UNL     1     -31.393   8.260   3.797  1.00 20.00     0.010 C 
HETATM    2  C9  UNL     1     -32.439   8.184   2.678  1.00 20.00    -0.018 C 
ENDROOT
BRANCH   2   3
HETATM    3  C6  UNL     1     -33.205   6.847   2.803  1.00 20.00     0.004 C 
BRANCH   3   4
HETATM    4  C5  UNL     1     -34.033   6.726   4.084  1.00 20.00    -0.004 C 
HETATM    5  C1  UNL     1     -34.812   5.419   4.120  1.00 20.00     0.005 C 
ENDBRANCH   3   4
ENDBRANCH   2   3
BRANCH   2   6
HETATM    6  C7  UNL     1     -31.798   8.344   1.281  1.00 20.00     0.008 C 
BRANCH   6   7
HETATM    7  C8  UNL     1     -32.187   9.615   0.496  1.00 20.00    -0.022 C 
HETATM    8  C2  UNL     1     -32.741  10.668   1.462  1.00 20.00     0.009 C 
HETATM    9  C3  UNL     1     -33.217   9.331  -0.599  1.00 20.00     0.009 C 
ENDBRANCH   6   7
ENDBRANCH   2   6
TORSDOF 4
ENDMDL
MODEL 5
REMARK VINA RESULT:      -5.2      1.080      1.728
REMARK  4 active torsions:
REMARK  status: ('A' for Active; 'I' for Inactive)
REMARK    1  A    between atoms: C5_5  and  C6_6 
REMARK    2  A    between atoms: C6_6  and  C9_9 
REMARK    3  A    between atoms: C7_7  and  C8_8 
REMARK    4  A    between atoms: C7_7  and  C9_9 
ROOT
HETATM    1  C4  UNL     1     -33.090   6.126   2.424  1.00 20.00     0.010 C 
HETATM    2  C9  UNL     1     -32.629   7.129   3.488  1.00 20.00    -0.018 C 
ENDROOT
BRANCH   2   3
HETATM    3  C6  UNL     1     -33.854   7.566   4.323  1.00 20.00     0.004 C 
BRANCH   3   4
HETATM    4  C5  UNL     1     -33.895   6.958   5.727  1.00 20.00    -0.004 C 
HETATM    5  C1  UNL     1     -34.557   5.588   5.719  1.00 20.00     0.005 C 
ENDBRANCH   3   4
ENDBRANCH   2   3
BRANCH   2   6
HETATM    6  C7  UNL     1     -31.907   8.342   2.859  1.00 20.00     0.008 C 
BRANCH   6   7
HETATM    7  C8  UNL     1     -32.406   8.783   1.467  1.00 20.00    -0.022 C 
HETATM    8  C2  UNL     1     -31.287   8.596   0.436  1.00 20.00     0.009 C 
HETATM    9  C3  UNL     1     -32.879  10.237   1.452  1.00 20.00     0.009 C 
ENDBRANCH   6   7
ENDBRANCH   2   6
TORSDOF 4
ENDMDL
MODEL 6
REMARK VINA RESULT:      -5.2      1.136      2.255
REMARK  4 active torsions:
REMARK  status: ('A' for Active; 'I' for Inactive)
REMARK    1  A    between atoms: C5_5  and  C6_6 
REMARK    2  A    between atoms: C6_6  and  C9_9 
REMARK    3  A    between atoms: C7_7  and  C8_8 
REMARK    4  A    between atoms: C7_7  and  C9_9 
ROOT
HETATM    1  C4  UNL     1     -33.176   7.589   5.083  1.00 20.00     0.010 C 
HETATM    2  C9  UNL     1     -33.421   7.599   3.569  1.00 20.00    -0.018 C 
ENDROOT
BRANCH   2   3
HETATM    3  C6  UNL     1     -33.825   6.175   3.122  1.00 20.00     0.004 C 
BRANCH   3   4
HETATM    4  C5  UNL     1     -34.829   5.496   4.056  1.00 20.00    -0.004 C 
HETATM    5  C1  UNL     1     -34.336   4.126   4.498  1.00 20.00     0.005 C 
ENDBRANCH   3   4
ENDBRANCH   2   3
BRANCH   2   6
HETATM    6  C7  UNL     1     -32.187   8.110   2.792  1.00 20.00     0.008 C 
BRANCH   6   7
HETATM    7  C8  UNL     1     -32.469   8.762   1.422  1.00 20.00    -0.022 C 
HETATM    8  C2  UNL     1     -31.257   8.574   0.503  1.00 20.00     0.009 C 
HETATM    9  C3  UNL     1     -32.795  10.252   1.542  1.00 20.00     0.009 C 
ENDBRANCH   6   7
ENDBRANCH   2   6
TORSDOF 4
ENDMDL
MODEL 7
REMARK VINA RESULT:      -5.2      1.197      4.435
REMARK  4 active torsions:
REMARK  status: ('A' for Active; 'I' for Inactive)
REMARK    1  A    between atoms: C5_5  and  C6_6 
REMARK    2  A    between atoms: C6_6  and  C9_9 
REMARK    3  A    between atoms: C7_7  and  C8_8 
REMARK    4  A    between atoms: C7_7  and  C9_9 
ROOT
HETATM    1  C4  UNL     1     -31.529   8.217   3.588  1.00 20.00     0.010 C 
HETATM    2  C9  UNL     1     -32.515   7.333   2.815  1.00 20.00    -0.018 C 
ENDROOT
BRANCH   2   3
HETATM    3  C6  UNL     1     -32.746   7.951   1.417  1.00 20.00     0.004 C 
BRANCH   3   4
HETATM    4  C5  UNL     1     -31.827   9.135   1.105  1.00 20.00    -0.004 C 
HETATM    5  C1  UNL     1     -32.626  10.395   0.811  1.00 20.00     0.005 C 
ENDBRANCH   3   4
ENDBRANCH   2   3
BRANCH   2   6
HETATM    6  C7  UNL     1     -33.845   7.150   3.582  1.00 20.00     0.008 C 
BRANCH   6   7
HETATM    7  C8  UNL     1     -33.769   6.332   4.888  1.00 20.00    -0.022 C 
HETATM    8  C2  UNL     1     -34.851   5.247   4.879  1.00 20.00     0.009 C 
HETATM    9  C3  UNL     1     -33.929   7.206   6.133  1.00 20.00     0.009 C 
ENDBRANCH   6   7
ENDBRANCH   2   6
TORSDOF 4
ENDMDL
MODEL 8
REMARK VINA RESULT:      -4.0      1.282      2.491
REMARK  4 active torsions:
REMARK  status: ('A' for Active; 'I' for Inactive)
REMARK    1  A    between atoms: C5_5  and  C6_6 
REMARK    2  A    between atoms: C6_6  and  C9_9 
REMARK    3  A    between atoms: C7_7  and  C8_8 
REMARK    4  A    between atoms: C7_7  and  C9_9 
ROOT
HETATM    1  C4  UNL     1     -33.484   7.143   5.884  1.00 20.00     0.010 C 
HETATM    2  C9  UNL     1     -34.508   7.263   4.749  1.00 20.00    -0.018 C 
ENDROOT
BRANCH   2   3
HETATM    3  C6  UNL     1     -35.136   5.873   4.496  1.00 20.00     0.004 C 
BRANCH   3   4
HETATM    4  C5  UNL     1     -34.534   4.758   5.354  1.00 20.00    -0.004 C 
HETATM    5  C1  UNL     1     -33.910   3.671   4.491  1.00 20.00     0.005 C 
ENDBRANCH   3   4
ENDBRANCH   2   3
BRANCH   2   6
HETATM    6  C7  UNL     1     -33.875   7.843   3.464  1.00 20.00     0.008 C 
BRANCH   6   7
HETATM    7  C8  UNL     1     -32.486   7.291   3.081  1.00 20.00    -0.022 C 
HETATM    8  C2  UNL     1     -31.738   8.323   2.230  1.00 20.00     0.009 C 
HETATM    9  C3  UNL     1     -32.575   5.967   2.320  1.00 20.00     0.009 C 
ENDBRANCH   6   7
ENDBRANCH   2   6
TORSDOF 4
ENDMDL
MODEL 9
REMARK VINA RESULT:      -3.9      1.102      3.437
REMARK  4 active torsions:
REMARK  status: ('A' for Active; 'I' for Inactive)
REMARK    1  A    between atoms: C5_5  and  C6_6 
REMARK    2  A    between atoms: C6_6  and  C9_9 
REMARK    3  A    between atoms: C7_7  and  C8_8 
REMARK    4  A    between atoms: C7_7  and  C9_9 
ROOT
HETATM    1  C4  UNL     1     -32.332   8.265   1.973  1.00 20.00     0.010 C 
HETATM    2  C9  UNL     1     -33.021   7.454   3.078  1.00 20.00    -0.018 C 
ENDROOT
BRANCH   2   3
HETATM    3  C6  UNL     1     -32.379   7.819   4.436  1.00 20.00     0.004 C 
BRANCH   3   4
HETATM    4  C5  UNL     1     -33.396   8.176   5.523  1.00 20.00    -0.004 C 
HETATM    5  C1  UNL     1     -33.840   6.942   6.294  1.00 20.00     0.005 C 
ENDBRANCH   3   4
ENDBRANCH   2   3
BRANCH   2   6
HETATM    6  C7  UNL     1     -32.948   5.935   2.805  1.00 20.00     0.008 C 
BRANCH   6   7
HETATM    7  C8  UNL     1     -34.236   5.131   3.081  1.00 20.00    -0.022 C 
HETATM    8  C2  UNL     1     -35.386   6.094   3.394  1.00 20.00     0.009 C 
HETATM    9  C3  UNL     1     -34.068   4.140   4.233  1.00 20.00     0.009 C 
ENDBRANCH   6   7
ENDBRANCH   2   6
TORSDOF 4
ENDMDL
