MODEL 1
REMARK VINA RESULT:      -5.7      0.000      0.000
REMARK  0 active torsions:
REMARK  status: ('A' for Active; 'I' for Inactive)
ROOT
HETATM    1  C1  UNL     1     -33.314   6.898   3.778  1.00 20.00    -0.011 C 
HETATM    2  C2  UNL     1     -33.801   6.817   5.187  1.00 20.00     0.155 C 
HETATM    3  C3  UNL     1     -32.387   7.819   3.481  1.00 20.00    -0.078 C 
HETATM    4  C4  UNL     1     -33.874   5.921   2.790  1.00 20.00     0.042 C 
HETATM    5  C5  UNL     1     -34.114   5.437   5.724  1.00 20.00     0.083 C 
HETATM    6  C6  UNL     1     -33.982   4.517   3.380  1.00 20.00     0.005 C 
HETATM    7  C7  UNL     1     -34.773   4.538   4.685  1.00 20.00     0.008 C 
HETATM    8  C8  UNL     1     -31.838   7.975   2.094  1.00 20.00     0.043 C 
HETATM    9  C9  UNL     1     -31.837   8.755   4.518  1.00 20.00     0.043 C 
HETATM   10  O10 UNL     1     -33.873   7.815   5.902  1.00 20.00    -0.293 OA
ENDROOT
TORSDOF 0
ENDMDL
MODEL 2
REMARK VINA RESULT:      -5.2      1.685      2.609
REMARK  0 active torsions:
REMARK  status: ('A' for Active; 'I' for Inactive)
ROOT
HETATM    1  C1  UNL     1     -32.980   7.156   3.699  1.00 20.00    -0.011 C 
HETATM    2  C2  UNL     1     -33.671   5.874   3.371  1.00 20.00     0.155 C 
HETATM    3  C3  UNL     1     -32.555   7.921   2.686  1.00 20.00    -0.078 C 
HETATM    4  C4  UNL     1     -32.834   7.518   5.145  1.00 20.00     0.042 C 
HETATM    5  C5  UNL     1     -34.811   5.460   4.278  1.00 20.00     0.083 C 
HETATM    6  C6  UNL     1     -34.107   7.224   5.935  1.00 20.00     0.005 C 
HETATM    7  C7  UNL     1     -34.539   5.773   5.744  1.00 20.00     0.008 C 
HETATM    8  C8  UNL     1     -31.851   9.227   2.917  1.00 20.00     0.043 C 
HETATM    9  C9  UNL     1     -32.754   7.525   1.252  1.00 20.00     0.043 C 
HETATM   10  O10 UNL     1     -33.379   5.223   2.370  1.00 20.00    -0.293 OA
ENDROOT
TORSDOF 0
ENDMDL
MODEL 3
REMARK VINA RESULT:      -4.6     12.113     12.837
REMARK  0 active torsions:
REMARK  status: ('A' for Active; 'I' for Inactive)
ROOT
HETATM    1  C1  UNL     1     -33.626  18.432   0.470  1.00 20.00    -0.011 C 
HETATM    2  C2  UNL     1     -32.272  18.632  -0.126  1.00 20.00     0.155 C 
HETATM    3  C3  UNL     1     -34.535  17.752  -0.240  1.00 20.00    -0.078 C 
HETATM    4  C4  UNL     1     -33.871  18.982   1.842  1.00 20.00     0.042 C 
HETATM    5  C5  UNL     1     -31.094  18.594   0.823  1.00 20.00     0.083 C 
HETATM    6  C6  UNL     1     -32.687  18.731   2.773  1.00 20.00     0.005 C 
HETATM    7  C7  UNL     1     -31.395  19.262   2.159  1.00 20.00     0.008 C 
HETATM    8  C8  UNL     1     -35.922  17.501   0.277  1.00 20.00     0.043 C 
HETATM    9  C9  UNL     1     -34.228  17.196  -1.600  1.00 20.00     0.043 C 
HETATM   10  O10 UNL     1     -32.114  18.747  -1.340  1.00 20.00    -0.293 OA
ENDROOT
TORSDOF 0
ENDMDL
MODEL 4
REMARK VINA RESULT:      -4.5     11.885     12.333
REMARK  0 active torsions:
REMARK  status: ('A' for Active; 'I' for Inactive)
ROOT
HETATM    1  C1  UNL     1     -33.308  18.512   0.632  1.00 20.00    -0.011 C 
HETATM    2  C2  UNL     1     -34.758  18.332   0.940  1.00 20.00     0.155 C 
HETATM    3  C3  UNL     1     -32.461  18.681   1.655  1.00 20.00    -0.078 C 
HETATM    4  C4  UNL     1     -32.891  18.462  -0.805  1.00 20.00     0.042 C 
HETATM    5  C5  UNL     1     -35.531  17.376   0.057  1.00 20.00     0.083 C 
HETATM    6  C6  UNL     1     -33.601  17.345  -1.564  1.00 20.00     0.005 C 
HETATM    7  C7  UNL     1     -35.115  17.460  -1.406  1.00 20.00     0.008 C 
HETATM    8  C8  UNL     1     -30.987  18.868   1.444  1.00 20.00     0.043 C 
HETATM    9  C9  UNL     1     -32.930  18.692   3.081  1.00 20.00     0.043 C 
HETATM   10  O10 UNL     1     -35.283  18.875   1.910  1.00 20.00    -0.293 OA
ENDROOT
TORSDOF 0
ENDMDL
MODEL 5
REMARK VINA RESULT:      -4.5      1.595      4.134
REMARK  0 active torsions:
REMARK  status: ('A' for Active; 'I' for Inactive)
ROOT
HETATM    1  C1  UNL     1     -33.794   6.409   4.336  1.00 20.00    -0.011 C 
HETATM    2  C2  UNL     1     -33.402   6.421   2.896  1.00 20.00     0.155 C 
HETATM    3  C3  UNL     1     -34.294   5.277   4.846  1.00 20.00    -0.078 C 
HETATM    4  C4  UNL     1     -33.574   7.662   5.128  1.00 20.00     0.042 C 
HETATM    5  C5  UNL     1     -32.179   7.234   2.526  1.00 20.00     0.083 C 
HETATM    6  C6  UNL     1     -32.228   8.307   4.807  1.00 20.00     0.005 C 
HETATM    7  C7  UNL     1     -32.084   8.539   3.305  1.00 20.00     0.008 C 
HETATM    8  C8  UNL     1     -34.715   5.169   6.282  1.00 20.00     0.043 C 
HETATM    9  C9  UNL     1     -34.466   4.039   4.014  1.00 20.00     0.043 C 
HETATM   10  O10 UNL     1     -33.998   5.744   2.060  1.00 20.00    -0.293 OA
ENDROOT
TORSDOF 0
ENDMDL
MODEL 6
REMARK VINA RESULT:      -4.4     11.905     12.350
REMARK  0 active torsions:
REMARK  status: ('A' for Active; 'I' for Inactive)
ROOT
HETATM    1  C1  UNL     1     -34.374  16.297  -3.360  1.00 20.00    -0.011 C 
HETATM    2  C2  UNL     1     -35.641  15.615  -3.758  1.00 20.00     0.155 C 
HETATM    3  C3  UNL     1     -34.334  16.914  -2.172  1.00 20.00    -0.078 C 
HETATM    4  C4  UNL     1     -33.215  16.221  -4.306  1.00 20.00     0.042 C 
HETATM    5  C5  UNL     1     -35.507  14.326  -4.541  1.00 20.00     0.083 C 
HETATM    6  C6  UNL     1     -33.063  14.825  -4.906  1.00 20.00     0.005 C 
HETATM    7  C7  UNL     1     -34.369  14.368  -5.551  1.00 20.00     0.008 C 
HETATM    8  C8  UNL     1     -33.105  17.625  -1.686  1.00 20.00     0.043 C 
HETATM    9  C9  UNL     1     -35.517  16.935  -1.247  1.00 20.00     0.043 C 
HETATM   10  O10 UNL     1     -36.739  16.038  -3.402  1.00 20.00    -0.293 OA
ENDROOT
TORSDOF 0
ENDMDL
MODEL 7
REMARK VINA RESULT:      -4.4     11.727     12.597
REMARK  0 active torsions:
REMARK  status: ('A' for Active; 'I' for Inactive)
ROOT
HETATM    1  C1  UNL     1     -35.600  15.143  -4.120  1.00 20.00    -0.011 C 
HETATM    2  C2  UNL     1     -36.020  13.991  -4.972  1.00 20.00     0.155 C 
HETATM    3  C3  UNL     1     -34.293  15.307  -3.879  1.00 20.00    -0.078 C 
HETATM    4  C4  UNL     1     -36.671  16.060  -3.612  1.00 20.00     0.042 C 
HETATM    5  C5  UNL     1     -37.194  14.220  -5.901  1.00 20.00     0.083 C 
HETATM    6  C6  UNL     1     -37.710  16.368  -4.687  1.00 20.00     0.005 C 
HETATM    7  C7  UNL     1     -38.282  15.080  -5.272  1.00 20.00     0.008 C 
HETATM    8  C8  UNL     1     -33.776  16.435  -3.034  1.00 20.00     0.043 C 
HETATM    9  C9  UNL     1     -33.259  14.374  -4.438  1.00 20.00     0.043 C 
HETATM   10  O10 UNL     1     -35.397  12.932  -4.976  1.00 20.00    -0.293 OA
ENDROOT
TORSDOF 0
ENDMDL
MODEL 8
REMARK VINA RESULT:      -4.2     11.898     12.737
REMARK  0 active torsions:
REMARK  status: ('A' for Active; 'I' for Inactive)
ROOT
HETATM    1  C1  UNL     1     -35.341  14.787  -4.798  1.00 20.00    -0.011 C 
HETATM    2  C2  UNL     1     -36.493  15.347  -4.032  1.00 20.00     0.155 C 
HETATM    3  C3  UNL     1     -35.567  14.332  -6.037  1.00 20.00    -0.078 C 
HETATM    4  C4  UNL     1     -33.996  14.798  -4.139  1.00 20.00     0.042 C 
HETATM    5  C5  UNL     1     -36.205  16.529  -3.130  1.00 20.00     0.083 C 
HETATM    6  C6  UNL     1     -33.734  16.110  -3.404  1.00 20.00     0.005 C 
HETATM    7  C7  UNL     1     -34.862  16.413  -2.421  1.00 20.00     0.008 C 
HETATM    8  C8  UNL     1     -34.471  13.752  -6.883  1.00 20.00     0.043 C 
HETATM    9  C9  UNL     1     -36.931  14.372  -6.662  1.00 20.00     0.043 C 
HETATM   10  O10 UNL     1     -37.636  14.919  -4.182  1.00 20.00    -0.293 OA
ENDROOT
TORSDOF 0
ENDMDL
MODEL 9
REMARK VINA RESULT:      -4.2     11.915     12.816
REMARK  0 active torsions:
REMARK  status: ('A' for Active; 'I' for Inactive)
ROOT
HETATM    1  C1  UNL     1     -34.237  17.624  -0.897  1.00 20.00    -0.011 C 
HETATM    2  C2  UNL     1     -33.007  18.082  -1.608  1.00 20.00     0.155 C 
HETATM    3  C3  UNL     1     -34.455  18.076   0.344  1.00 20.00    -0.078 C 
HETATM    4  C4  UNL     1     -35.166  16.708  -1.634  1.00 20.00     0.042 C 
HETATM    5  C5  UNL     1     -33.125  18.315  -3.099  1.00 20.00     0.083 C 
HETATM    6  C6  UNL     1     -35.355  17.139  -3.086  1.00 20.00     0.005 C 
HETATM    7  C7  UNL     1     -34.007  17.280  -3.787  1.00 20.00     0.008 C 
HETATM    8  C8  UNL     1     -35.664  17.672   1.136  1.00 20.00     0.043 C 
HETATM    9  C9  UNL     1     -33.505  19.018   1.025  1.00 20.00     0.043 C 
HETATM   10  O10 UNL     1     -31.967  18.330  -1.001  1.00 20.00    -0.293 OA
ENDROOT
TORSDOF 0
ENDMDL
