MODEL 1
REMARK VINA RESULT:      -5.2      0.000      0.000
REMARK  2 active torsions:
REMARK  status: ('A' for Active; 'I' for Inactive)
REMARK    1  A    between atoms: C1_1  and  C2_2 
REMARK    2  A    between atoms: C1_1  and  C3_3 
ROOT
HETATM    1  C1  UNL     1     -33.467   5.733   3.723  1.00 20.00     0.153 C 
ENDROOT
BRANCH   1   2
HETATM    2  C2  UNL     1     -33.390   7.242   3.953  1.00 20.00     0.186 C 
HETATM    3 CL7  UNL     1     -31.940   7.965   3.211  1.00 20.00    -0.108 Cl
HETATM    4 CL8  UNL     1     -33.371   7.586   5.705  1.00 20.00    -0.108 Cl
ENDBRANCH   1   2
BRANCH   1   5
HETATM    5  C3  UNL     1     -34.625   5.056   4.433  1.00 20.00     0.390 C 
HETATM    6  F4  UNL     1     -34.686   3.742   4.125  1.00 20.00    -0.171 F 
HETATM    7  F5  UNL     1     -34.538   5.168   5.773  1.00 20.00    -0.171 F 
HETATM    8  F6  UNL     1     -35.796   5.616   4.056  1.00 20.00    -0.171 F 
ENDBRANCH   1   5
TORSDOF 2
ENDMDL
MODEL 2
REMARK VINA RESULT:      -5.2      1.577      2.200
REMARK  2 active torsions:
REMARK  status: ('A' for Active; 'I' for Inactive)
REMARK    1  A    between atoms: C1_1  and  C2_2 
REMARK    2  A    between atoms: C1_1  and  C3_3 
ROOT
HETATM    1  C1  UNL     1     -33.514   6.802   4.612  1.00 20.00     0.153 C 
ENDROOT
BRANCH   1   2
HETATM    2  C2  UNL     1     -33.411   6.666   3.093  1.00 20.00     0.186 C 
HETATM    3 CL7  UNL     1     -32.973   5.014   2.590  1.00 20.00    -0.108 Cl
HETATM    4 CL8  UNL     1     -32.185   7.802   2.465  1.00 20.00    -0.108 Cl
ENDBRANCH   1   2
BRANCH   1   5
HETATM    5  C3  UNL     1     -34.523   5.866   5.251  1.00 20.00     0.390 C 
HETATM    6  F4  UNL     1     -35.601   5.694   4.457  1.00 20.00    -0.171 F 
HETATM    7  F5  UNL     1     -33.998   4.651   5.513  1.00 20.00    -0.171 F 
HETATM    8  F6  UNL     1     -34.958   6.378   6.424  1.00 20.00    -0.171 F 
ENDBRANCH   1   5
TORSDOF 2
ENDMDL
MODEL 3
REMARK VINA RESULT:      -5.2      0.145      1.372
REMARK  2 active torsions:
REMARK  status: ('A' for Active; 'I' for Inactive)
REMARK    1  A    between atoms: C1_1  and  C2_2 
REMARK    2  A    between atoms: C1_1  and  C3_3 
ROOT
HETATM    1  C1  UNL     1     -33.528   5.788   3.710  1.00 20.00     0.153 C 
ENDROOT
BRANCH   1   2
HETATM    2  C2  UNL     1     -33.397   7.295   3.931  1.00 20.00     0.186 C 
HETATM    3 CL7  UNL     1     -31.966   7.975   3.117  1.00 20.00    -0.108 Cl
HETATM    4 CL8  UNL     1     -33.283   7.642   5.679  1.00 20.00    -0.108 Cl
ENDBRANCH   1   2
BRANCH   1   5
HETATM    5  C3  UNL     1     -34.733   5.164   4.387  1.00 20.00     0.390 C 
HETATM    6  F4  UNL     1     -34.700   5.361   5.723  1.00 20.00    -0.171 F 
HETATM    7  F5  UNL     1     -35.896   5.661   3.920  1.00 20.00    -0.171 F 
HETATM    8  F6  UNL     1     -34.751   3.829   4.173  1.00 20.00    -0.171 F 
ENDBRANCH   1   5
TORSDOF 2
ENDMDL
MODEL 4
REMARK VINA RESULT:      -5.2      3.556      4.113
REMARK  2 active torsions:
REMARK  status: ('A' for Active; 'I' for Inactive)
REMARK    1  A    between atoms: C1_1  and  C2_2 
REMARK    2  A    between atoms: C1_1  and  C3_3 
ROOT
HETATM    1  C1  UNL     1     -32.808   6.884   3.015  1.00 20.00     0.153 C 
ENDROOT
BRANCH   1   2
HETATM    2  C2  UNL     1     -33.973   7.108   3.978  1.00 20.00     0.186 C 
HETATM    3 CL7  UNL     1     -33.424   7.389   5.650  1.00 20.00    -0.108 Cl
HETATM    4 CL8  UNL     1     -35.055   5.688   3.959  1.00 20.00    -0.108 Cl
ENDBRANCH   1   2
BRANCH   1   5
HETATM    5  C3  UNL     1     -32.155   8.163   2.524  1.00 20.00     0.390 C 
HETATM    6  F4  UNL     1     -31.366   8.706   3.476  1.00 20.00    -0.171 F 
HETATM    7  F5  UNL     1     -31.404   7.963   1.422  1.00 20.00    -0.171 F 
HETATM    8  F6  UNL     1     -33.099   9.078   2.207  1.00 20.00    -0.171 F 
ENDBRANCH   1   5
TORSDOF 2
ENDMDL
MODEL 5
REMARK VINA RESULT:      -5.2      3.576      4.128
REMARK  2 active torsions:
REMARK  status: ('A' for Active; 'I' for Inactive)
REMARK    1  A    between atoms: C1_1  and  C2_2 
REMARK    2  A    between atoms: C1_1  and  C3_3 
ROOT
HETATM    1  C1  UNL     1     -32.798   6.900   3.000  1.00 20.00     0.153 C 
ENDROOT
BRANCH   1   2
HETATM    2  C2  UNL     1     -33.960   7.115   3.969  1.00 20.00     0.186 C 
HETATM    3 CL7  UNL     1     -33.405   7.387   5.640  1.00 20.00    -0.108 Cl
HETATM    4 CL8  UNL     1     -35.039   5.693   3.946  1.00 20.00    -0.108 Cl
ENDBRANCH   1   2
BRANCH   1   5
HETATM    5  C3  UNL     1     -32.159   8.183   2.502  1.00 20.00     0.390 C 
HETATM    6  F4  UNL     1     -31.381   7.955   1.422  1.00 20.00    -0.171 F 
HETATM    7  F5  UNL     1     -33.076   9.114   2.168  1.00 20.00    -0.171 F 
HETATM    8  F6  UNL     1     -31.374   8.718   3.464  1.00 20.00    -0.171 F 
ENDBRANCH   1   5
TORSDOF 2
ENDMDL
MODEL 6
REMARK VINA RESULT:      -5.0      3.926      4.667
REMARK  2 active torsions:
REMARK  status: ('A' for Active; 'I' for Inactive)
REMARK    1  A    between atoms: C1_1  and  C2_2 
REMARK    2  A    between atoms: C1_1  and  C3_3 
ROOT
HETATM    1  C1  UNL     1     -32.014   7.994   2.997  1.00 20.00     0.153 C 
ENDROOT
BRANCH   1   2
HETATM    2  C2  UNL     1     -33.303   7.276   3.397  1.00 20.00     0.186 C 
HETATM    3 CL7  UNL     1     -33.555   7.271   5.161  1.00 20.00    -0.108 Cl
HETATM    4 CL8  UNL     1     -33.259   5.587   2.819  1.00 20.00    -0.108 Cl
ENDBRANCH   1   2
BRANCH   1   5
HETATM    5  C3  UNL     1     -32.099   8.728   1.672  1.00 20.00     0.390 C 
HETATM    6  F4  UNL     1     -33.218   8.389   0.996  1.00 20.00    -0.171 F 
HETATM    7  F5  UNL     1     -32.095  10.068   1.829  1.00 20.00    -0.171 F 
HETATM    8  F6  UNL     1     -31.041   8.410   0.893  1.00 20.00    -0.171 F 
ENDBRANCH   1   5
TORSDOF 2
ENDMDL
MODEL 7
REMARK VINA RESULT:      -5.0      2.678      3.356
REMARK  2 active torsions:
REMARK  status: ('A' for Active; 'I' for Inactive)
REMARK    1  A    between atoms: C1_1  and  C2_2 
REMARK    2  A    between atoms: C1_1  and  C3_3 
ROOT
HETATM    1  C1  UNL     1     -34.649   6.340   3.254  1.00 20.00     0.153 C 
ENDROOT
BRANCH   1   2
HETATM    2  C2  UNL     1     -34.902   5.595   4.565  1.00 20.00     0.186 C 
HETATM    3 CL7  UNL     1     -34.237   6.461   5.973  1.00 20.00    -0.108 Cl
HETATM    4 CL8  UNL     1     -34.166   3.970   4.490  1.00 20.00    -0.108 Cl
ENDBRANCH   1   2
BRANCH   1   5
HETATM    5  C3  UNL     1     -33.185   6.618   2.972  1.00 20.00     0.390 C 
HETATM    6  F4  UNL     1     -32.579   7.180   4.040  1.00 20.00    -0.171 F 
HETATM    7  F5  UNL     1     -32.506   5.500   2.646  1.00 20.00    -0.171 F 
HETATM    8  F6  UNL     1     -33.064   7.479   1.936  1.00 20.00    -0.171 F 
ENDBRANCH   1   5
TORSDOF 2
ENDMDL
MODEL 8
REMARK VINA RESULT:      -4.9      1.440      2.166
REMARK  2 active torsions:
REMARK  status: ('A' for Active; 'I' for Inactive)
REMARK    1  A    between atoms: C1_1  and  C2_2 
REMARK    2  A    between atoms: C1_1  and  C3_3 
ROOT
HETATM    1  C1  UNL     1     -33.278   6.387   2.838  1.00 20.00     0.153 C 
ENDROOT
BRANCH   1   2
HETATM    2  C2  UNL     1     -32.921   7.873   2.874  1.00 20.00     0.186 C 
HETATM    3 CL7  UNL     1     -32.646   8.542   1.246  1.00 20.00    -0.108 Cl
HETATM    4 CL8  UNL     1     -31.448   8.118   3.853  1.00 20.00    -0.108 Cl
ENDBRANCH   1   2
BRANCH   1   5
HETATM    5  C3  UNL     1     -34.307   5.971   3.872  1.00 20.00     0.390 C 
HETATM    6  F4  UNL     1     -34.222   6.736   4.982  1.00 20.00    -0.171 F 
HETATM    7  F5  UNL     1     -35.568   6.055   3.401  1.00 20.00    -0.171 F 
HETATM    8  F6  UNL     1     -34.101   4.688   4.246  1.00 20.00    -0.171 F 
ENDBRANCH   1   5
TORSDOF 2
ENDMDL
MODEL 9
REMARK VINA RESULT:      -4.9      3.099      3.646
REMARK  2 active torsions:
REMARK  status: ('A' for Active; 'I' for Inactive)
REMARK    1  A    between atoms: C1_1  and  C2_2 
REMARK    2  A    between atoms: C1_1  and  C3_3 
ROOT
HETATM    1  C1  UNL     1     -33.442   7.199   4.479  1.00 20.00     0.153 C 
ENDROOT
BRANCH   1   2
HETATM    2  C2  UNL     1     -34.201   5.876   4.374  1.00 20.00     0.186 C 
HETATM    3 CL7  UNL     1     -35.737   6.046   3.487  1.00 20.00    -0.108 Cl
HETATM    4 CL8  UNL     1     -34.548   5.246   6.009  1.00 20.00    -0.108 Cl
ENDBRANCH   1   2
BRANCH   1   5
HETATM    5  C3  UNL     1     -32.572   7.511   3.275  1.00 20.00     0.390 C 
HETATM    6  F4  UNL     1     -33.170   8.406   2.459  1.00 20.00    -0.171 F 
HETATM    7  F5  UNL     1     -31.369   8.007   3.629  1.00 20.00    -0.171 F 
HETATM    8  F6  UNL     1     -32.350   6.389   2.555  1.00 20.00    -0.171 F 
ENDBRANCH   1   5
TORSDOF 2
ENDMDL
