MODEL 1
REMARK VINA RESULT:      -5.5      0.000      0.000
REMARK  2 active torsions:
REMARK  status: ('A' for Active; 'I' for Inactive)
REMARK    1  A    between atoms: C1_1  and  C3_3 
REMARK    2  A    between atoms: C2_2  and  C5_5 
ROOT
HETATM    1  C1  UNL     1     -32.553   7.561   3.561  1.00 20.00     0.003 C 
HETATM    2  C2  UNL     1     -33.711   6.956   3.860  1.00 20.00     0.049 C 
ENDROOT
BRANCH   1   3
HETATM    3  C3  UNL     1     -32.210   7.965   2.214  1.00 20.00    -0.004 C 
HETATM    4  C4  UNL     1     -32.560   9.150   1.692  1.00 20.00    -0.031 C 
HETATM    5  C6  UNL     1     -32.211   9.577   0.304  1.00 20.00     0.036 C 
ENDBRANCH   1   3
BRANCH   2   6
HETATM    6  C5  UNL     1     -34.088   6.530   5.237  1.00 20.00     0.145 C 
HETATM    7  C7  UNL     1     -34.663   5.157   5.466  1.00 20.00     0.096 C 
HETATM    8  O8  UNL     1     -33.921   7.315   6.171  1.00 20.00    -0.294 OA
ENDBRANCH   2   6
TORSDOF 2
ENDMDL
MODEL 2
REMARK VINA RESULT:      -5.3      2.418      5.039
REMARK  2 active torsions:
REMARK  status: ('A' for Active; 'I' for Inactive)
REMARK    1  A    between atoms: C1_1  and  C3_3 
REMARK    2  A    between atoms: C2_2  and  C5_5 
ROOT
HETATM    1  C1  UNL     1     -33.227   7.354   2.723  1.00 20.00     0.003 C 
HETATM    2  C2  UNL     1     -32.208   8.208   2.557  1.00 20.00     0.049 C 
ENDROOT
BRANCH   1   3
HETATM    3  C3  UNL     1     -33.419   6.599   3.943  1.00 20.00    -0.004 C 
HETATM    4  C4  UNL     1     -34.504   5.846   4.178  1.00 20.00    -0.031 C 
HETATM    5  C6  UNL     1     -34.711   5.063   5.433  1.00 20.00     0.036 C 
ENDBRANCH   1   3
BRANCH   2   6
HETATM    6  C5  UNL     1     -31.989   8.997   1.312  1.00 20.00     0.145 C 
HETATM    7  C7  UNL     1     -32.775  10.260   1.078  1.00 20.00     0.096 C 
HETATM    8  O8  UNL     1     -31.162   8.600   0.491  1.00 20.00    -0.294 OA
ENDBRANCH   2   6
TORSDOF 2
ENDMDL
MODEL 3
REMARK VINA RESULT:      -4.2     11.009     11.341
REMARK  2 active torsions:
REMARK  status: ('A' for Active; 'I' for Inactive)
REMARK    1  A    between atoms: C1_1  and  C3_3 
REMARK    2  A    between atoms: C2_2  and  C5_5 
ROOT
HETATM    1  C1  UNL     1     -35.026  15.634  -3.556  1.00 20.00     0.003 C 
HETATM    2  C2  UNL     1     -34.876  14.574  -4.363  1.00 20.00     0.049 C 
ENDROOT
BRANCH   1   3
HETATM    3  C3  UNL     1     -33.901  16.370  -3.019  1.00 20.00    -0.004 C 
HETATM    4  C4  UNL     1     -33.985  17.150  -1.932  1.00 20.00    -0.031 C 
HETATM    5  C6  UNL     1     -32.831  17.914  -1.370  1.00 20.00     0.036 C 
ENDBRANCH   1   3
BRANCH   2   6
HETATM    6  C5  UNL     1     -36.016  13.800  -4.928  1.00 20.00     0.145 C 
HETATM    7  C7  UNL     1     -37.379  14.434  -5.020  1.00 20.00     0.096 C 
HETATM    8  O8  UNL     1     -35.822  12.647  -5.312  1.00 20.00    -0.294 OA
ENDBRANCH   2   6
TORSDOF 2
ENDMDL
MODEL 4
REMARK VINA RESULT:      -4.1     10.981     11.428
REMARK  2 active torsions:
REMARK  status: ('A' for Active; 'I' for Inactive)
REMARK    1  A    between atoms: C1_1  and  C3_3 
REMARK    2  A    between atoms: C2_2  and  C5_5 
ROOT
HETATM    1  C1  UNL     1     -34.065  15.501  -3.904  1.00 20.00     0.003 C 
HETATM    2  C2  UNL     1     -35.130  14.722  -4.141  1.00 20.00     0.049 C 
ENDROOT
BRANCH   1   3
HETATM    3  C3  UNL     1     -33.994  16.398  -2.771  1.00 20.00    -0.004 C 
HETATM    4  C4  UNL     1     -35.007  16.576  -1.910  1.00 20.00    -0.031 C 
HETATM    5  C6  UNL     1     -34.943  17.499  -0.738  1.00 20.00     0.036 C 
ENDBRANCH   1   3
BRANCH   2   6
HETATM    6  C5  UNL     1     -35.229  13.790  -5.299  1.00 20.00     0.145 C 
HETATM    7  C7  UNL     1     -34.470  14.086  -6.566  1.00 20.00     0.096 C 
HETATM    8  O8  UNL     1     -35.935  12.786  -5.199  1.00 20.00    -0.294 OA
ENDBRANCH   2   6
TORSDOF 2
ENDMDL
MODEL 5
REMARK VINA RESULT:      -3.9     11.060     11.558
REMARK  2 active torsions:
REMARK  status: ('A' for Active; 'I' for Inactive)
REMARK    1  A    between atoms: C1_1  and  C3_3 
REMARK    2  A    between atoms: C2_2  and  C5_5 
ROOT
HETATM    1  C1  UNL     1     -34.431  17.076  -1.645  1.00 20.00     0.003 C 
HETATM    2  C2  UNL     1     -33.150  17.465  -1.714  1.00 20.00     0.049 C 
ENDROOT
BRANCH   1   3
HETATM    3  C3  UNL     1     -35.040  16.223  -2.644  1.00 20.00    -0.004 C 
HETATM    4  C4  UNL     1     -34.330  15.485  -3.511  1.00 20.00    -0.031 C 
HETATM    5  C6  UNL     1     -34.947  14.601  -4.544  1.00 20.00     0.036 C 
ENDBRANCH   1   3
BRANCH   2   6
HETATM    6  C5  UNL     1     -32.500  18.341  -0.700  1.00 20.00     0.145 C 
HETATM    7  C7  UNL     1     -33.341  19.263   0.144  1.00 20.00     0.096 C 
HETATM    8  O8  UNL     1     -31.276  18.296  -0.568  1.00 20.00    -0.294 OA
ENDBRANCH   2   6
TORSDOF 2
ENDMDL
MODEL 6
REMARK VINA RESULT:      -3.9     10.940     11.615
REMARK  2 active torsions:
REMARK  status: ('A' for Active; 'I' for Inactive)
REMARK    1  A    between atoms: C1_1  and  C3_3 
REMARK    2  A    between atoms: C2_2  and  C5_5 
ROOT
HETATM    1  C1  UNL     1     -33.616  16.625  -2.717  1.00 20.00     0.003 C 
HETATM    2  C2  UNL     1     -34.325  15.692  -3.367  1.00 20.00     0.049 C 
ENDROOT
BRANCH   1   3
HETATM    3  C3  UNL     1     -34.101  17.278  -1.520  1.00 20.00    -0.004 C 
HETATM    4  C4  UNL     1     -35.289  17.001  -0.962  1.00 20.00    -0.031 C 
HETATM    5  C6  UNL     1     -35.799  17.669   0.272  1.00 20.00     0.036 C 
ENDBRANCH   1   3
BRANCH   2   6
HETATM    6  C5  UNL     1     -33.849  15.005  -4.600  1.00 20.00     0.145 C 
HETATM    7  C7  UNL     1     -33.203  15.804  -5.701  1.00 20.00     0.096 C 
HETATM    8  O8  UNL     1     -33.993  13.786  -4.698  1.00 20.00    -0.294 OA
ENDBRANCH   2   6
TORSDOF 2
ENDMDL
MODEL 7
REMARK VINA RESULT:      -3.9     10.959     11.502
REMARK  2 active torsions:
REMARK  status: ('A' for Active; 'I' for Inactive)
REMARK    1  A    between atoms: C1_1  and  C3_3 
REMARK    2  A    between atoms: C2_2  and  C5_5 
ROOT
HETATM    1  C1  UNL     1     -34.788  16.121  -2.781  1.00 20.00     0.003 C 
HETATM    2  C2  UNL     1     -33.918  15.588  -3.650  1.00 20.00     0.049 C 
ENDROOT
BRANCH   1   3
HETATM    3  C3  UNL     1     -34.405  17.123  -1.809  1.00 20.00    -0.004 C 
HETATM    4  C4  UNL     1     -33.149  17.576  -1.678  1.00 20.00    -0.031 C 
HETATM    5  C6  UNL     1     -32.742  18.609  -0.680  1.00 20.00     0.036 C 
ENDBRANCH   1   3
BRANCH   2   6
HETATM    6  C5  UNL     1     -34.287  14.557  -4.658  1.00 20.00     0.145 C 
HETATM    7  C7  UNL     1     -34.092  14.839  -6.125  1.00 20.00     0.096 C 
HETATM    8  O8  UNL     1     -34.748  13.482  -4.273  1.00 20.00    -0.294 OA
ENDBRANCH   2   6
TORSDOF 2
ENDMDL
MODEL 8
REMARK VINA RESULT:      -3.6     11.186     11.602
REMARK  2 active torsions:
REMARK  status: ('A' for Active; 'I' for Inactive)
REMARK    1  A    between atoms: C1_1  and  C3_3 
REMARK    2  A    between atoms: C2_2  and  C5_5 
ROOT
HETATM    1  C1  UNL     1     -33.673  16.824  -2.447  1.00 20.00     0.003 C 
HETATM    2  C2  UNL     1     -34.419  15.959  -3.147  1.00 20.00     0.049 C 
ENDROOT
BRANCH   1   3
HETATM    3  C3  UNL     1     -34.106  17.383  -1.183  1.00 20.00    -0.004 C 
HETATM    4  C4  UNL     1     -35.316  17.149  -0.654  1.00 20.00    -0.031 C 
HETATM    5  C6  UNL     1     -35.774  17.719   0.648  1.00 20.00     0.036 C 
ENDBRANCH   1   3
BRANCH   2   6
HETATM    6  C5  UNL     1     -33.996  15.370  -4.448  1.00 20.00     0.145 C 
HETATM    7  C7  UNL     1     -34.751  14.200  -5.022  1.00 20.00     0.096 C 
HETATM    8  O8  UNL     1     -33.029  15.854  -5.036  1.00 20.00    -0.294 OA
ENDBRANCH   2   6
TORSDOF 2
ENDMDL
MODEL 9
REMARK VINA RESULT:      -3.6     11.181     11.512
REMARK  2 active torsions:
REMARK  status: ('A' for Active; 'I' for Inactive)
REMARK    1  A    between atoms: C1_1  and  C3_3 
REMARK    2  A    between atoms: C2_2  and  C5_5 
ROOT
HETATM    1  C1  UNL     1     -34.687  16.120  -2.877  1.00 20.00     0.003 C 
HETATM    2  C2  UNL     1     -33.517  16.722  -2.624  1.00 20.00     0.049 C 
ENDROOT
BRANCH   1   3
HETATM    3  C3  UNL     1     -34.833  15.093  -3.887  1.00 20.00    -0.004 C 
HETATM    4  C4  UNL     1     -36.012  14.766  -4.437  1.00 20.00    -0.031 C 
HETATM    5  C6  UNL     1     -36.173  13.709  -5.479  1.00 20.00     0.036 C 
ENDBRANCH   1   3
BRANCH   2   6
HETATM    6  C5  UNL     1     -33.341  17.780  -1.591  1.00 20.00     0.145 C 
HETATM    7  C7  UNL     1     -34.322  17.887  -0.453  1.00 20.00     0.096 C 
HETATM    8  O8  UNL     1     -32.389  18.555  -1.686  1.00 20.00    -0.294 OA
ENDBRANCH   2   6
TORSDOF 2
ENDMDL
