MODEL 1
REMARK VINA RESULT:      -4.9      0.000      0.000
REMARK  3 active torsions:
REMARK  status: ('A' for Active; 'I' for Inactive)
REMARK    1  A    between atoms: C1_1  and  C5_5 
REMARK    2  A    between atoms: C2_2  and  C6_6 
REMARK    3  A    between atoms: C6_6  and  C7_7 
ROOT
HETATM    1  C1  UNL     1     -33.904   6.541   3.450  1.00 20.00     0.150 A 
HETATM    2  C2  UNL     1     -33.094   7.112   2.312  1.00 20.00     0.151 A 
HETATM    3  O8  UNL     1     -32.747   5.868   2.936  1.00 20.00    -0.376 OA
ENDROOT
BRANCH   2   4
HETATM    4  C6  UNL     1     -32.072   8.224   2.493  1.00 20.00     0.034 C 
BRANCH   4   5
HETATM    5  C7  UNL     1     -31.818   8.968   1.185  1.00 20.00    -0.002 C 
HETATM    6  C4  UNL     1     -32.689  10.209   1.072  1.00 20.00     0.005 C 
ENDBRANCH   4   5
ENDBRANCH   2   4
BRANCH   1   7
HETATM    7  C5  UNL     1     -33.780   7.010   4.855  1.00 20.00     0.030 C 
HETATM    8  C3  UNL     1     -34.388   6.056   5.854  1.00 20.00     0.007 C 
ENDBRANCH   1   7
TORSDOF 3
ENDMDL
MODEL 2
REMARK VINA RESULT:      -4.8      1.321      1.746
REMARK  3 active torsions:
REMARK  status: ('A' for Active; 'I' for Inactive)
REMARK    1  A    between atoms: C1_1  and  C5_5 
REMARK    2  A    between atoms: C2_2  and  C6_6 
REMARK    3  A    between atoms: C6_6  and  C7_7 
ROOT
HETATM    1  C1  UNL     1     -32.505   7.212   3.053  1.00 20.00     0.150 A 
HETATM    2  C2  UNL     1     -31.998   8.323   2.166  1.00 20.00     0.151 A 
HETATM    3  O8  UNL     1     -31.505   8.139   3.499  1.00 20.00    -0.376 OA
ENDROOT
BRANCH   2   4
HETATM    4  C6  UNL     1     -32.759   9.621   1.940  1.00 20.00     0.034 C 
BRANCH   4   5
HETATM    5  C7  UNL     1     -32.499  10.186   0.545  1.00 20.00    -0.002 C 
HETATM    6  C4  UNL     1     -33.136   9.323  -0.533  1.00 20.00     0.005 C 
ENDBRANCH   4   5
ENDBRANCH   2   4
BRANCH   1   7
HETATM    7  C5  UNL     1     -33.793   7.281   3.790  1.00 20.00     0.030 C 
HETATM    8  C3  UNL     1     -33.623   7.225   5.288  1.00 20.00     0.007 C 
ENDBRANCH   1   7
TORSDOF 3
ENDMDL
MODEL 3
REMARK VINA RESULT:      -4.7      1.217      4.276
REMARK  3 active torsions:
REMARK  status: ('A' for Active; 'I' for Inactive)
REMARK    1  A    between atoms: C1_1  and  C5_5 
REMARK    2  A    between atoms: C2_2  and  C6_6 
REMARK    3  A    between atoms: C6_6  and  C7_7 
ROOT
HETATM    1  C1  UNL     1     -32.182   8.842   2.585  1.00 20.00     0.150 A 
HETATM    2  C2  UNL     1     -32.682   7.690   3.422  1.00 20.00     0.151 A 
HETATM    3  O8  UNL     1     -31.287   8.006   3.331  1.00 20.00    -0.376 OA
ENDROOT
BRANCH   2   4
HETATM    4  C6  UNL     1     -33.071   6.341   2.834  1.00 20.00     0.034 C 
BRANCH   4   5
HETATM    5  C7  UNL     1     -34.325   5.781   3.501  1.00 20.00    -0.002 C 
HETATM    6  C4  UNL     1     -34.385   6.152   4.975  1.00 20.00     0.005 C 
ENDBRANCH   4   5
ENDBRANCH   2   4
BRANCH   1   7
HETATM    7  C5  UNL     1     -32.021   8.768   1.110  1.00 20.00     0.030 C 
HETATM    8  C3  UNL     1     -32.718   9.891   0.381  1.00 20.00     0.007 C 
ENDBRANCH   1   7
TORSDOF 3
ENDMDL
MODEL 4
REMARK VINA RESULT:      -4.7      1.731      2.206
REMARK  3 active torsions:
REMARK  status: ('A' for Active; 'I' for Inactive)
REMARK    1  A    between atoms: C1_1  and  C5_5 
REMARK    2  A    between atoms: C2_2  and  C6_6 
REMARK    3  A    between atoms: C6_6  and  C7_7 
ROOT
HETATM    1  C1  UNL     1     -34.933   5.637   4.682  1.00 20.00     0.150 A 
HETATM    2  C2  UNL     1     -34.382   5.689   3.278  1.00 20.00     0.151 A 
HETATM    3  O8  UNL     1     -34.544   4.449   3.980  1.00 20.00    -0.376 OA
ENDROOT
BRANCH   2   4
HETATM    4  C6  UNL     1     -32.941   6.060   2.962  1.00 20.00     0.034 C 
BRANCH   4   5
HETATM    5  C7  UNL     1     -32.824   7.514   2.512  1.00 20.00    -0.002 C 
HETATM    6  C4  UNL     1     -31.661   8.216   3.195  1.00 20.00     0.005 C 
ENDBRANCH   4   5
ENDBRANCH   2   4
BRANCH   1   7
HETATM    7  C5  UNL     1     -34.121   5.943   5.888  1.00 20.00     0.030 C 
HETATM    8  C3  UNL     1     -33.859   7.418   6.068  1.00 20.00     0.007 C 
ENDBRANCH   1   7
TORSDOF 3
ENDMDL
MODEL 5
REMARK VINA RESULT:      -4.6      0.833      4.333
REMARK  3 active torsions:
REMARK  status: ('A' for Active; 'I' for Inactive)
REMARK    1  A    between atoms: C1_1  and  C5_5 
REMARK    2  A    between atoms: C2_2  and  C6_6 
REMARK    3  A    between atoms: C6_6  and  C7_7 
ROOT
HETATM    1  C1  UNL     1     -32.441   7.002   2.584  1.00 20.00     0.150 A 
HETATM    2  C2  UNL     1     -33.284   6.399   3.681  1.00 20.00     0.151 A 
HETATM    3  O8  UNL     1     -33.864   6.882   2.462  1.00 20.00    -0.376 OA
ENDROOT
BRANCH   2   4
HETATM    4  C6  UNL     1     -33.696   7.162   4.930  1.00 20.00     0.034 C 
BRANCH   4   5
HETATM    5  C7  UNL     1     -34.425   6.259   5.922  1.00 20.00    -0.002 C 
HETATM    6  C4  UNL     1     -34.623   4.860   5.360  1.00 20.00     0.005 C 
ENDBRANCH   4   5
ENDBRANCH   2   4
BRANCH   1   7
HETATM    7  C5  UNL     1     -31.934   8.399   2.621  1.00 20.00     0.030 C 
HETATM    8  C3  UNL     1     -32.187   9.156   1.340  1.00 20.00     0.007 C 
ENDBRANCH   1   7
TORSDOF 3
ENDMDL
MODEL 6
REMARK VINA RESULT:      -4.6      1.394      1.605
REMARK  3 active torsions:
REMARK  status: ('A' for Active; 'I' for Inactive)
REMARK    1  A    between atoms: C1_1  and  C5_5 
REMARK    2  A    between atoms: C2_2  and  C6_6 
REMARK    3  A    between atoms: C6_6  and  C7_7 
ROOT
HETATM    1  C1  UNL     1     -32.729   6.516   3.168  1.00 20.00     0.150 A 
HETATM    2  C2  UNL     1     -32.059   7.791   2.718  1.00 20.00     0.151 A 
HETATM    3  O8  UNL     1     -32.529   7.620   4.061  1.00 20.00    -0.376 OA
ENDROOT
BRANCH   2   4
HETATM    4  C6  UNL     1     -32.776   8.874   1.924  1.00 20.00     0.034 C 
BRANCH   4   5
HETATM    5  C7  UNL     1     -32.050   9.181   0.616  1.00 20.00    -0.002 C 
HETATM    6  C4  UNL     1     -33.030   9.460  -0.512  1.00 20.00     0.005 C 
ENDBRANCH   4   5
ENDBRANCH   2   4
BRANCH   1   7
HETATM    7  C5  UNL     1     -34.152   6.198   2.880  1.00 20.00     0.030 C 
HETATM    8  C3  UNL     1     -34.903   5.692   4.087  1.00 20.00     0.007 C 
ENDBRANCH   1   7
TORSDOF 3
ENDMDL
MODEL 7
REMARK VINA RESULT:      -4.5      1.298      4.369
REMARK  3 active torsions:
REMARK  status: ('A' for Active; 'I' for Inactive)
REMARK    1  A    between atoms: C1_1  and  C5_5 
REMARK    2  A    between atoms: C2_2  and  C6_6 
REMARK    3  A    between atoms: C6_6  and  C7_7 
ROOT
HETATM    1  C1  UNL     1     -33.006   8.129   3.076  1.00 20.00     0.150 A 
HETATM    2  C2  UNL     1     -33.752   6.941   3.631  1.00 20.00     0.151 A 
HETATM    3  O8  UNL     1     -32.604   7.487   4.294  1.00 20.00    -0.376 OA
ENDROOT
BRANCH   2   4
HETATM    4  C6  UNL     1     -33.572   5.525   3.106  1.00 20.00     0.034 C 
BRANCH   4   5
HETATM    5  C7  UNL     1     -34.146   4.493   4.074  1.00 20.00    -0.002 C 
HETATM    6  C4  UNL     1     -34.688   5.151   5.333  1.00 20.00     0.005 C 
ENDBRANCH   4   5
ENDBRANCH   2   4
BRANCH   1   7
HETATM    7  C5  UNL     1     -32.024   8.028   1.965  1.00 20.00     0.030 C 
HETATM    8  C3  UNL     1     -32.092   9.191   1.005  1.00 20.00     0.007 C 
ENDBRANCH   1   7
TORSDOF 3
ENDMDL
MODEL 8
REMARK VINA RESULT:      -4.3      1.589      1.883
REMARK  3 active torsions:
REMARK  status: ('A' for Active; 'I' for Inactive)
REMARK    1  A    between atoms: C1_1  and  C5_5 
REMARK    2  A    between atoms: C2_2  and  C6_6 
REMARK    3  A    between atoms: C6_6  and  C7_7 
ROOT
HETATM    1  C1  UNL     1     -33.835   6.529   5.073  1.00 20.00     0.150 A 
HETATM    2  C2  UNL     1     -32.916   7.406   4.260  1.00 20.00     0.151 A 
HETATM    3  O8  UNL     1     -34.099   7.925   4.881  1.00 20.00    -0.376 OA
ENDROOT
BRANCH   2   4
HETATM    4  C6  UNL     1     -32.927   7.440   2.739  1.00 20.00     0.034 C 
BRANCH   4   5
HETATM    5  C7  UNL     1     -31.876   8.405   2.194  1.00 20.00    -0.002 C 
HETATM    6  C4  UNL     1     -32.503   9.468   1.306  1.00 20.00     0.005 C 
ENDBRANCH   4   5
ENDBRANCH   2   4
BRANCH   1   7
HETATM    7  C5  UNL     1     -34.838   5.615   4.466  1.00 20.00     0.030 C 
HETATM    8  C3  UNL     1     -34.426   4.164   4.516  1.00 20.00     0.007 C 
ENDBRANCH   1   7
TORSDOF 3
ENDMDL
MODEL 9
REMARK VINA RESULT:      -3.9      2.098      3.531
REMARK  3 active torsions:
REMARK  status: ('A' for Active; 'I' for Inactive)
REMARK    1  A    between atoms: C1_1  and  C5_5 
REMARK    2  A    between atoms: C2_2  and  C6_6 
REMARK    3  A    between atoms: C6_6  and  C7_7 
ROOT
HETATM    1  C1  UNL     1     -32.570   7.717   3.855  1.00 20.00     0.150 A 
HETATM    2  C2  UNL     1     -32.579   6.642   2.797  1.00 20.00     0.151 A 
HETATM    3  O8  UNL     1     -32.810   8.019   2.474  1.00 20.00    -0.376 OA
ENDROOT
BRANCH   2   4
HETATM    4  C6  UNL     1     -33.766   5.722   2.554  1.00 20.00     0.034 C 
BRANCH   4   5
HETATM    5  C7  UNL     1     -33.594   4.385   3.272  1.00 20.00    -0.002 C 
HETATM    6  C4  UNL     1     -34.493   4.290   4.495  1.00 20.00     0.005 C 
ENDBRANCH   4   5
ENDBRANCH   2   4
BRANCH   1   7
HETATM    7  C5  UNL     1     -33.720   7.980   4.759  1.00 20.00     0.030 C 
HETATM    8  C3  UNL     1     -33.584   7.305   6.102  1.00 20.00     0.007 C 
ENDBRANCH   1   7
TORSDOF 3
ENDMDL
