MODEL 1
REMARK VINA RESULT:      -6.1      0.000      0.000
REMARK  2 active torsions:
REMARK  status: ('A' for Active; 'I' for Inactive)
REMARK    1  A    between atoms: C5_5  and  C7_7 
REMARK    2  A    between atoms: C7_7  and  C8_8 
ROOT
HETATM    1  C1  UNL     1     -34.163   6.471   5.979  1.00 20.00    -0.030 C 
HETATM    2  C2  UNL     1     -33.767   7.224   4.949  1.00 20.00    -0.026 C 
HETATM    3  C3  UNL     1     -34.741   5.172   5.527  1.00 20.00     0.027 C 
HETATM    4  C4  UNL     1     -34.308   5.102   4.062  1.00 20.00     0.012 C 
HETATM    5  C5  UNL     1     -34.021   6.550   3.636  1.00 20.00     0.008 C 
ENDROOT
BRANCH   5   6
HETATM    6  C7  UNL     1     -32.846   6.648   2.674  1.00 20.00     0.008 C 
BRANCH   6   7
HETATM    7  C8  UNL     1     -32.089   7.962   2.851  1.00 20.00    -0.004 C 
HETATM    8  C6  UNL     1     -32.102   8.787   1.574  1.00 20.00     0.005 C 
ENDBRANCH   6   7
ENDBRANCH   5   6
TORSDOF 2
ENDMDL
MODEL 2
REMARK VINA RESULT:      -5.7      0.773      1.560
REMARK  2 active torsions:
REMARK  status: ('A' for Active; 'I' for Inactive)
REMARK    1  A    between atoms: C5_5  and  C7_7 
REMARK    2  A    between atoms: C7_7  and  C8_8 
ROOT
HETATM    1  C1  UNL     1     -34.822   5.229   4.455  1.00 20.00    -0.030 C 
HETATM    2  C2  UNL     1     -34.155   5.668   3.384  1.00 20.00    -0.026 C 
HETATM    3  C3  UNL     1     -34.425   5.959   5.694  1.00 20.00     0.027 C 
HETATM    4  C4  UNL     1     -33.660   7.163   5.144  1.00 20.00     0.012 C 
HETATM    5  C5  UNL     1     -33.196   6.764   3.735  1.00 20.00     0.008 C 
ENDROOT
BRANCH   5   6
HETATM    6  C7  UNL     1     -33.235   7.931   2.761  1.00 20.00     0.008 C 
BRANCH   6   7
HETATM    7  C8  UNL     1     -31.837   8.296   2.270  1.00 20.00    -0.004 C 
HETATM    8  C6  UNL     1     -31.889   9.044   0.947  1.00 20.00     0.005 C 
ENDBRANCH   6   7
ENDBRANCH   5   6
TORSDOF 2
ENDMDL
MODEL 3
REMARK VINA RESULT:      -5.5      0.914      2.092
REMARK  2 active torsions:
REMARK  status: ('A' for Active; 'I' for Inactive)
REMARK    1  A    between atoms: C5_5  and  C7_7 
REMARK    2  A    between atoms: C7_7  and  C8_8 
ROOT
HETATM    1  C1  UNL     1     -34.399   6.019   3.406  1.00 20.00    -0.030 C 
HETATM    2  C2  UNL     1     -33.353   6.427   2.681  1.00 20.00    -0.026 C 
HETATM    3  C3  UNL     1     -34.288   6.449   4.830  1.00 20.00     0.027 C 
HETATM    4  C4  UNL     1     -33.173   7.495   4.780  1.00 20.00     0.012 C 
HETATM    5  C5  UNL     1     -32.368   7.195   3.507  1.00 20.00     0.008 C 
ENDROOT
BRANCH   5   6
HETATM    6  C7  UNL     1     -31.872   8.460   2.825  1.00 20.00     0.008 C 
BRANCH   6   7
HETATM    7  C8  UNL     1     -32.528   8.653   1.460  1.00 20.00    -0.004 C 
HETATM    8  C6  UNL     1     -32.644  10.126   1.102  1.00 20.00     0.005 C 
ENDBRANCH   6   7
ENDBRANCH   5   6
TORSDOF 2
ENDMDL
MODEL 4
REMARK VINA RESULT:      -5.0      0.969      3.914
REMARK  2 active torsions:
REMARK  status: ('A' for Active; 'I' for Inactive)
REMARK    1  A    between atoms: C5_5  and  C7_7 
REMARK    2  A    between atoms: C7_7  and  C8_8 
ROOT
HETATM    1  C1  UNL     1     -32.324   7.376   2.430  1.00 20.00    -0.030 C 
HETATM    2  C2  UNL     1     -33.468   6.898   2.930  1.00 20.00    -0.026 C 
HETATM    3  C3  UNL     1     -31.652   8.313   3.378  1.00 20.00     0.027 C 
HETATM    4  C4  UNL     1     -32.395   8.054   4.690  1.00 20.00     0.012 C 
HETATM    5  C5  UNL     1     -33.749   7.444   4.297  1.00 20.00     0.008 C 
ENDROOT
BRANCH   5   6
HETATM    6  C7  UNL     1     -34.211   6.382   5.283  1.00 20.00     0.008 C 
BRANCH   6   7
HETATM    7  C8  UNL     1     -35.006   5.281   4.584  1.00 20.00    -0.004 C 
HETATM    8  C6  UNL     1     -34.206   3.991   4.492  1.00 20.00     0.005 C 
ENDBRANCH   6   7
ENDBRANCH   5   6
TORSDOF 2
ENDMDL
MODEL 5
REMARK VINA RESULT:      -4.7      1.062      3.843
REMARK  2 active torsions:
REMARK  status: ('A' for Active; 'I' for Inactive)
REMARK    1  A    between atoms: C5_5  and  C7_7 
REMARK    2  A    between atoms: C7_7  and  C8_8 
ROOT
HETATM    1  C1  UNL     1     -31.759   8.468   3.619  1.00 20.00    -0.030 C 
HETATM    2  C2  UNL     1     -32.478   7.453   4.108  1.00 20.00    -0.026 C 
HETATM    3  C3  UNL     1     -31.792   8.504   2.128  1.00 20.00     0.027 C 
HETATM    4  C4  UNL     1     -32.941   7.553   1.793  1.00 20.00     0.012 C 
HETATM    5  C5  UNL     1     -33.106   6.640   3.017  1.00 20.00     0.008 C 
ENDROOT
BRANCH   5   6
HETATM    6  C7  UNL     1     -34.562   6.295   3.290  1.00 20.00     0.008 C 
BRANCH   6   7
HETATM    7  C8  UNL     1     -34.757   5.784   4.715  1.00 20.00    -0.004 C 
HETATM    8  C6  UNL     1     -34.411   4.308   4.829  1.00 20.00     0.005 C 
ENDBRANCH   6   7
ENDBRANCH   5   6
TORSDOF 2
ENDMDL
MODEL 6
REMARK VINA RESULT:      -4.5      1.678      2.092
REMARK  2 active torsions:
REMARK  status: ('A' for Active; 'I' for Inactive)
REMARK    1  A    between atoms: C5_5  and  C7_7 
REMARK    2  A    between atoms: C7_7  and  C8_8 
ROOT
HETATM    1  C1  UNL     1     -33.798   6.980   5.877  1.00 20.00    -0.030 C 
HETATM    2  C2  UNL     1     -33.927   7.348   4.598  1.00 20.00    -0.026 C 
HETATM    3  C3  UNL     1     -34.561   5.733   6.176  1.00 20.00     0.027 C 
HETATM    4  C4  UNL     1     -34.892   5.199   4.782  1.00 20.00     0.012 C 
HETATM    5  C5  UNL     1     -34.804   6.404   3.834  1.00 20.00     0.008 C 
ENDROOT
BRANCH   5   6
HETATM    6  C7  UNL     1     -34.239   6.030   2.473  1.00 20.00     0.008 C 
BRANCH   6   7
HETATM    7  C8  UNL     1     -32.800   5.532   2.584  1.00 20.00    -0.004 C 
HETATM    8  C6  UNL     1     -32.698   4.049   2.265  1.00 20.00     0.005 C 
ENDBRANCH   6   7
ENDBRANCH   5   6
TORSDOF 2
ENDMDL
MODEL 7
REMARK VINA RESULT:      -4.4      1.380      4.625
REMARK  2 active torsions:
REMARK  status: ('A' for Active; 'I' for Inactive)
REMARK    1  A    between atoms: C5_5  and  C7_7 
REMARK    2  A    between atoms: C7_7  and  C8_8 
ROOT
HETATM    1  C1  UNL     1     -32.905  10.335   0.888  1.00 20.00    -0.030 C 
HETATM    2  C2  UNL     1     -32.462  10.055   2.117  1.00 20.00    -0.026 C 
HETATM    3  C3  UNL     1     -32.471   9.311  -0.105  1.00 20.00     0.027 C 
HETATM    4  C4  UNL     1     -31.985   8.165   0.783  1.00 20.00     0.012 C 
HETATM    5  C5  UNL     1     -31.652   8.795   2.143  1.00 20.00     0.008 C 
ENDROOT
BRANCH   5   6
HETATM    6  C7  UNL     1     -32.004   7.880   3.306  1.00 20.00     0.008 C 
BRANCH   6   7
HETATM    7  C8  UNL     1     -32.934   6.752   2.867  1.00 20.00    -0.004 C 
HETATM    8  C6  UNL     1     -34.124   6.616   3.804  1.00 20.00     0.005 C 
ENDBRANCH   6   7
ENDBRANCH   5   6
TORSDOF 2
ENDMDL
MODEL 8
REMARK VINA RESULT:      -4.1      1.713      2.850
REMARK  2 active torsions:
REMARK  status: ('A' for Active; 'I' for Inactive)
REMARK    1  A    between atoms: C5_5  and  C7_7 
REMARK    2  A    between atoms: C7_7  and  C8_8 
ROOT
HETATM    1  C1  UNL     1     -33.787   3.836   4.010  1.00 20.00    -0.030 C 
HETATM    2  C2  UNL     1     -34.663   4.718   4.501  1.00 20.00    -0.026 C 
HETATM    3  C3  UNL     1     -33.159   4.322   2.747  1.00 20.00     0.027 C 
HETATM    4  C4  UNL     1     -33.533   5.805   2.733  1.00 20.00     0.012 C 
HETATM    5  C5  UNL     1     -34.767   5.938   3.638  1.00 20.00     0.008 C 
ENDROOT
BRANCH   5   6
HETATM    6  C7  UNL     1     -34.764   7.235   4.433  1.00 20.00     0.008 C 
BRANCH   6   7
HETATM    7  C8  UNL     1     -33.732   7.198   5.557  1.00 20.00    -0.004 C 
HETATM    8  C6  UNL     1     -32.556   8.117   5.263  1.00 20.00     0.005 C 
ENDBRANCH   6   7
ENDBRANCH   5   6
TORSDOF 2
ENDMDL
MODEL 9
REMARK VINA RESULT:      -3.9     11.691     12.300
REMARK  2 active torsions:
REMARK  status: ('A' for Active; 'I' for Inactive)
REMARK    1  A    between atoms: C5_5  and  C7_7 
REMARK    2  A    between atoms: C7_7  and  C8_8 
ROOT
HETATM    1  C1  UNL     1     -35.390  17.085  -0.811  1.00 20.00    -0.030 C 
HETATM    2  C2  UNL     1     -34.555  18.003  -0.317  1.00 20.00    -0.026 C 
HETATM    3  C3  UNL     1     -34.942  16.585  -2.143  1.00 20.00     0.027 C 
HETATM    4  C4  UNL     1     -33.501  17.091  -2.225  1.00 20.00     0.012 C 
HETATM    5  C5  UNL     1     -33.410  18.271  -1.245  1.00 20.00     0.008 C 
ENDROOT
BRANCH   5   6
HETATM    6  C7  UNL     1     -32.066  18.332  -0.537  1.00 20.00     0.008 C 
BRANCH   6   7
HETATM    7  C8  UNL     1     -32.207  18.874   0.884  1.00 20.00    -0.004 C 
HETATM    8  C6  UNL     1     -30.908  18.741   1.662  1.00 20.00     0.005 C 
ENDBRANCH   6   7
ENDBRANCH   5   6
TORSDOF 2
ENDMDL
