MODEL 1
REMARK VINA RESULT:      -2.9      0.000      0.000
REMARK  0 active torsions:
REMARK  status: ('A' for Active; 'I' for Inactive)
ROOT
HETATM    1  C1  UNL     1     -34.209  14.799  -4.181  1.00 20.00     0.117 C 
HETATM    2  C2  UNL     1     -34.336  15.570  -6.912  1.00 20.00     0.117 C 
HETATM    3  C3  UNL     1     -34.693  15.846  -3.182  1.00 20.00     0.033 C 
HETATM    4  C4  UNL     1     -33.884  14.513  -7.916  1.00 20.00     0.033 C 
HETATM    5  S5  UNL     1     -33.183  15.602  -5.479  1.00 20.00    -0.137 SA
HETATM    6  S6  UNL     1     -35.602  13.902  -4.917  1.00 20.00    -0.081 SA
HETATM    7  S7  UNL     1     -36.039  15.272  -6.369  1.00 20.00    -0.081 SA
ENDROOT
TORSDOF 0
ENDMDL
MODEL 2
REMARK VINA RESULT:      -2.9      0.022      3.255
REMARK  0 active torsions:
REMARK  status: ('A' for Active; 'I' for Inactive)
ROOT
HETATM    1  C1  UNL     1     -34.338  15.588  -6.918  1.00 20.00     0.117 C 
HETATM    2  C2  UNL     1     -34.205  14.823  -4.186  1.00 20.00     0.117 C 
HETATM    3  C3  UNL     1     -33.886  14.527  -7.918  1.00 20.00     0.033 C 
HETATM    4  C4  UNL     1     -34.687  15.870  -3.186  1.00 20.00     0.033 C 
HETATM    5  S5  UNL     1     -33.184  15.629  -5.487  1.00 20.00    -0.137 SA
HETATM    6  S6  UNL     1     -36.040  15.291  -6.372  1.00 20.00    -0.081 SA
HETATM    7  S7  UNL     1     -35.598  13.925  -4.918  1.00 20.00    -0.081 SA
ENDROOT
TORSDOF 0
ENDMDL
MODEL 3
REMARK VINA RESULT:      -2.8      1.546      3.603
REMARK  0 active torsions:
REMARK  status: ('A' for Active; 'I' for Inactive)
ROOT
HETATM    1  C1  UNL     1     -33.281  15.792  -6.084  1.00 20.00     0.117 C 
HETATM    2  C2  UNL     1     -34.540  15.811  -3.538  1.00 20.00     0.117 C 
HETATM    3  C3  UNL     1     -33.971  14.945  -7.148  1.00 20.00     0.033 C 
HETATM    4  C4  UNL     1     -33.871  16.683  -2.479  1.00 20.00     0.033 C 
HETATM    5  S5  UNL     1     -33.260  14.887  -4.483  1.00 20.00    -0.137 SA
HETATM    6  S6  UNL     1     -34.087  17.406  -5.906  1.00 20.00    -0.081 SA
HETATM    7  S7  UNL     1     -35.576  16.801  -4.645  1.00 20.00    -0.081 SA
ENDROOT
TORSDOF 0
ENDMDL
MODEL 4
REMARK VINA RESULT:      -2.8      1.535      1.865
REMARK  0 active torsions:
REMARK  status: ('A' for Active; 'I' for Inactive)
ROOT
HETATM    1  C1  UNL     1     -34.553  15.790  -3.557  1.00 20.00     0.117 C 
HETATM    2  C2  UNL     1     -33.269  15.806  -6.090  1.00 20.00     0.117 C 
HETATM    3  C3  UNL     1     -33.898  16.658  -2.486  1.00 20.00     0.033 C 
HETATM    4  C4  UNL     1     -33.939  14.965  -7.173  1.00 20.00     0.033 C 
HETATM    5  S5  UNL     1     -33.261  14.882  -4.499  1.00 20.00    -0.137 SA
HETATM    6  S6  UNL     1     -35.586  16.784  -4.665  1.00 20.00    -0.081 SA
HETATM    7  S7  UNL     1     -34.088  17.411  -5.906  1.00 20.00    -0.081 SA
ENDROOT
TORSDOF 0
ENDMDL
MODEL 5
REMARK VINA RESULT:      -2.7      1.816      3.076
REMARK  0 active torsions:
REMARK  status: ('A' for Active; 'I' for Inactive)
ROOT
HETATM    1  C1  UNL     1     -35.384  14.449  -6.573  1.00 20.00     0.117 C 
HETATM    2  C2  UNL     1     -33.186  15.951  -5.584  1.00 20.00     0.117 C 
HETATM    3  C3  UNL     1     -35.024  13.122  -7.234  1.00 20.00     0.033 C 
HETATM    4  C4  UNL     1     -33.543  17.264  -4.893  1.00 20.00     0.033 C 
HETATM    5  S5  UNL     1     -34.199  15.751  -7.106  1.00 20.00    -0.137 SA
HETATM    6  S6  UNL     1     -35.411  14.296  -4.768  1.00 20.00    -0.081 SA
HETATM    7  S7  UNL     1     -33.405  14.541  -4.467  1.00 20.00    -0.081 SA
ENDROOT
TORSDOF 0
ENDMDL
MODEL 6
REMARK VINA RESULT:      -2.7      1.728      2.012
REMARK  0 active torsions:
REMARK  status: ('A' for Active; 'I' for Inactive)
ROOT
HETATM    1  C1  UNL     1     -33.185  16.075  -5.405  1.00 20.00     0.117 C 
HETATM    2  C2  UNL     1     -35.295  14.513  -6.489  1.00 20.00     0.117 C 
HETATM    3  C3  UNL     1     -33.621  17.281  -4.578  1.00 20.00     0.033 C 
HETATM    4  C4  UNL     1     -34.863  13.288  -7.290  1.00 20.00     0.033 C 
HETATM    5  S5  UNL     1     -34.224  15.947  -6.917  1.00 20.00    -0.137 SA
HETATM    6  S6  UNL     1     -33.265  14.549  -4.432  1.00 20.00    -0.081 SA
HETATM    7  S7  UNL     1     -35.255  14.181  -4.709  1.00 20.00    -0.081 SA
ENDROOT
TORSDOF 0
ENDMDL
MODEL 7
REMARK VINA RESULT:      -2.7      1.487      3.439
REMARK  0 active torsions:
REMARK  status: ('A' for Active; 'I' for Inactive)
ROOT
HETATM    1  C1  UNL     1     -34.063  14.416  -5.964  1.00 20.00     0.117 C 
HETATM    2  C2  UNL     1     -35.023  15.944  -3.771  1.00 20.00     0.117 C 
HETATM    3  C3  UNL     1     -35.134  13.897  -6.918  1.00 20.00     0.033 C 
HETATM    4  C4  UNL     1     -33.952  16.492  -2.831  1.00 20.00     0.033 C 
HETATM    5  S5  UNL     1     -34.623  14.206  -4.225  1.00 20.00    -0.137 SA
HETATM    6  S6  UNL     1     -33.658  16.148  -6.311  1.00 20.00    -0.081 SA
HETATM    7  S7  UNL     1     -35.191  16.979  -5.248  1.00 20.00    -0.081 SA
ENDROOT
TORSDOF 0
ENDMDL
MODEL 8
REMARK VINA RESULT:      -2.7      1.510      2.100
REMARK  0 active torsions:
REMARK  status: ('A' for Active; 'I' for Inactive)
ROOT
HETATM    1  C1  UNL     1     -34.930  16.001  -3.781  1.00 20.00     0.117 C 
HETATM    2  C2  UNL     1     -34.075  14.405  -5.969  1.00 20.00     0.117 C 
HETATM    3  C3  UNL     1     -33.816  16.535  -2.885  1.00 20.00     0.033 C 
HETATM    4  C4  UNL     1     -35.183  13.896  -6.885  1.00 20.00     0.033 C 
HETATM    5  S5  UNL     1     -34.596  14.245  -4.212  1.00 20.00    -0.137 SA
HETATM    6  S6  UNL     1     -35.113  17.012  -5.273  1.00 20.00    -0.081 SA
HETATM    7  S7  UNL     1     -33.633  16.118  -6.362  1.00 20.00    -0.081 SA
ENDROOT
TORSDOF 0
ENDMDL
MODEL 9
REMARK VINA RESULT:      -2.6      1.674      2.676
REMARK  0 active torsions:
REMARK  status: ('A' for Active; 'I' for Inactive)
ROOT
HETATM    1  C1  UNL     1     -35.228  16.646  -3.738  1.00 20.00     0.117 C 
HETATM    2  C2  UNL     1     -35.128  14.105  -5.003  1.00 20.00     0.117 C 
HETATM    3  C3  UNL     1     -35.062  16.629  -2.222  1.00 20.00     0.033 C 
HETATM    4  C4  UNL     1     -35.262  14.121  -6.523  1.00 20.00     0.033 C 
HETATM    5  S5  UNL     1     -36.338  15.275  -4.259  1.00 20.00    -0.137 SA
HETATM    6  S6  UNL     1     -33.624  16.537  -4.575  1.00 20.00    -0.081 SA
HETATM    7  S7  UNL     1     -33.438  14.504  -4.489  1.00 20.00    -0.081 SA
ENDROOT
TORSDOF 0
ENDMDL
