MODEL 1
REMARK VINA RESULT:      -5.3      0.000      0.000
REMARK  2 active torsions:
REMARK  status: ('A' for Active; 'I' for Inactive)
REMARK    1  A    between atoms: C1_1  and  C2_2 
REMARK    2  A    between atoms: C2_2  and  C3_3 
ROOT
HETATM    1  C2  UNL     1     -33.985   6.997   4.180  1.00 20.00     0.203 C 
HETATM    2 CL8  UNL     1     -33.367   7.446   5.801  1.00 20.00    -0.115 Cl
ENDROOT
BRANCH   1   3
HETATM    3  C1  UNL     1     -32.837   6.867   3.180  1.00 20.00     0.143 C 
HETATM    4 CL7  UNL     1     -31.642   8.176   3.368  1.00 20.00    -0.129 Cl
ENDBRANCH   1   3
BRANCH   1   5
HETATM    5  C3  UNL     1     -34.763   5.697   4.296  1.00 20.00     0.405 C 
HETATM    6  F4  UNL     1     -34.953   5.338   5.584  1.00 20.00    -0.169 F 
HETATM    7  F5  UNL     1     -35.980   5.813   3.720  1.00 20.00    -0.169 F 
HETATM    8  F6  UNL     1     -34.121   4.684   3.673  1.00 20.00    -0.169 F 
ENDBRANCH   1   5
TORSDOF 2
ENDMDL
MODEL 2
REMARK VINA RESULT:      -4.9      1.539      2.125
REMARK  2 active torsions:
REMARK  status: ('A' for Active; 'I' for Inactive)
REMARK    1  A    between atoms: C1_1  and  C2_2 
REMARK    2  A    between atoms: C2_2  and  C3_3 
ROOT
HETATM    1  C2  UNL     1     -33.428   5.851   3.907  1.00 20.00     0.203 C 
HETATM    2 CL8  UNL     1     -33.050   4.771   2.527  1.00 20.00    -0.115 Cl
ENDROOT
BRANCH   1   3
HETATM    3  C1  UNL     1     -33.502   7.307   3.450  1.00 20.00     0.143 C 
HETATM    4 CL7  UNL     1     -31.882   8.016   3.225  1.00 20.00    -0.129 Cl
ENDBRANCH   1   3
BRANCH   1   5
HETATM    5  C3  UNL     1     -34.737   5.405   4.534  1.00 20.00     0.405 C 
HETATM    6  F4  UNL     1     -35.806   5.880   3.858  1.00 20.00    -0.169 F 
HETATM    7  F5  UNL     1     -34.828   4.056   4.546  1.00 20.00    -0.169 F 
HETATM    8  F6  UNL     1     -34.837   5.823   5.815  1.00 20.00    -0.169 F 
ENDBRANCH   1   5
TORSDOF 2
ENDMDL
MODEL 3
REMARK VINA RESULT:      -4.7      2.732      3.525
REMARK  2 active torsions:
REMARK  status: ('A' for Active; 'I' for Inactive)
REMARK    1  A    between atoms: C1_1  and  C2_2 
REMARK    2  A    between atoms: C2_2  and  C3_3 
ROOT
HETATM    1  C2  UNL     1     -34.029   7.282   3.943  1.00 20.00     0.203 C 
HETATM    2 CL8  UNL     1     -35.093   5.979   3.325  1.00 20.00    -0.115 Cl
ENDROOT
BRANCH   1   3
HETATM    3  C1  UNL     1     -33.734   7.080   5.429  1.00 20.00     0.143 C 
HETATM    4 CL7  UNL     1     -34.447   5.568   6.048  1.00 20.00    -0.129 Cl
ENDBRANCH   1   3
BRANCH   1   5
HETATM    5  C3  UNL     1     -32.748   7.297   3.126  1.00 20.00     0.405 C 
HETATM    6  F4  UNL     1     -32.873   8.048   2.010  1.00 20.00    -0.169 F 
HETATM    7  F5  UNL     1     -31.724   7.805   3.848  1.00 20.00    -0.169 F 
HETATM    8  F6  UNL     1     -32.391   6.049   2.749  1.00 20.00    -0.169 F 
ENDBRANCH   1   5
TORSDOF 2
ENDMDL
MODEL 4
REMARK VINA RESULT:      -4.7      2.736      3.520
REMARK  2 active torsions:
REMARK  status: ('A' for Active; 'I' for Inactive)
REMARK    1  A    between atoms: C1_1  and  C2_2 
REMARK    2  A    between atoms: C2_2  and  C3_3 
ROOT
HETATM    1  C2  UNL     1     -34.046   6.094   2.978  1.00 20.00     0.203 C 
HETATM    2 CL8  UNL     1     -32.999   4.675   2.664  1.00 20.00    -0.115 Cl
ENDROOT
BRANCH   1   3
HETATM    3  C1  UNL     1     -35.102   5.765   4.032  1.00 20.00     0.143 C 
HETATM    4 CL7  UNL     1     -34.514   4.561   5.208  1.00 20.00    -0.129 Cl
ENDBRANCH   1   3
BRANCH   1   5
HETATM    5  C3  UNL     1     -33.175   7.258   3.419  1.00 20.00     0.405 C 
HETATM    6  F4  UNL     1     -33.337   7.540   4.730  1.00 20.00    -0.169 F 
HETATM    7  F5  UNL     1     -31.867   6.980   3.219  1.00 20.00    -0.169 F 
HETATM    8  F6  UNL     1     -33.458   8.377   2.716  1.00 20.00    -0.169 F 
ENDBRANCH   1   5
TORSDOF 2
ENDMDL
MODEL 5
REMARK VINA RESULT:      -4.6      2.221      2.695
REMARK  2 active torsions:
REMARK  status: ('A' for Active; 'I' for Inactive)
REMARK    1  A    between atoms: C1_1  and  C2_2 
REMARK    2  A    between atoms: C2_2  and  C3_3 
ROOT
HETATM    1  C2  UNL     1     -34.412   6.076   3.928  1.00 20.00     0.203 C 
HETATM    2 CL8  UNL     1     -34.535   4.716   5.089  1.00 20.00    -0.115 Cl
ENDROOT
BRANCH   1   3
HETATM    3  C1  UNL     1     -33.787   7.301   4.594  1.00 20.00     0.143 C 
HETATM    4 CL7  UNL     1     -33.928   7.236   6.370  1.00 20.00    -0.129 Cl
ENDBRANCH   1   3
BRANCH   1   5
HETATM    5  C3  UNL     1     -33.594   5.625   2.731  1.00 20.00     0.405 C 
HETATM    6  F4  UNL     1     -33.261   4.318   2.813  1.00 20.00    -0.169 F 
HETATM    7  F5  UNL     1     -34.287   5.799   1.583  1.00 20.00    -0.169 F 
HETATM    8  F6  UNL     1     -32.451   6.338   2.620  1.00 20.00    -0.169 F 
ENDBRANCH   1   5
TORSDOF 2
ENDMDL
MODEL 6
REMARK VINA RESULT:      -4.5      1.315      2.481
REMARK  2 active torsions:
REMARK  status: ('A' for Active; 'I' for Inactive)
REMARK    1  A    between atoms: C1_1  and  C2_2 
REMARK    2  A    between atoms: C2_2  and  C3_3 
ROOT
HETATM    1  C2  UNL     1     -32.939   6.751   3.509  1.00 20.00     0.203 C 
HETATM    2 CL8  UNL     1     -32.292   7.797   2.205  1.00 20.00    -0.115 Cl
ENDROOT
BRANCH   1   3
HETATM    3  C1  UNL     1     -33.954   7.512   4.360  1.00 20.00     0.143 C 
HETATM    4 CL7  UNL     1     -33.748   7.175   6.099  1.00 20.00    -0.129 Cl
ENDBRANCH   1   3
BRANCH   1   5
HETATM    5  C3  UNL     1     -33.564   5.517   2.882  1.00 20.00     0.405 C 
HETATM    6  F4  UNL     1     -34.330   4.838   3.763  1.00 20.00    -0.169 F 
HETATM    7  F5  UNL     1     -34.348   5.856   1.834  1.00 20.00    -0.169 F 
HETATM    8  F6  UNL     1     -32.619   4.670   2.416  1.00 20.00    -0.169 F 
ENDBRANCH   1   5
TORSDOF 2
ENDMDL
MODEL 7
REMARK VINA RESULT:      -4.4      2.571      3.315
REMARK  2 active torsions:
REMARK  status: ('A' for Active; 'I' for Inactive)
REMARK    1  A    between atoms: C1_1  and  C2_2 
REMARK    2  A    between atoms: C2_2  and  C3_3 
ROOT
HETATM    1  C2  UNL     1     -33.402   6.519   4.659  1.00 20.00     0.203 C 
HETATM    2 CL8  UNL     1     -33.813   7.600   6.028  1.00 20.00    -0.115 Cl
ENDROOT
BRANCH   1   3
HETATM    3  C1  UNL     1     -34.631   5.738   4.198  1.00 20.00     0.143 C 
HETATM    4 CL7  UNL     1     -34.389   3.977   4.335  1.00 20.00    -0.129 Cl
ENDBRANCH   1   3
BRANCH   1   5
HETATM    5  C3  UNL     1     -32.829   7.356   3.529  1.00 20.00     0.405 C 
HETATM    6  F4  UNL     1     -31.767   8.087   3.933  1.00 20.00    -0.169 F 
HETATM    7  F5  UNL     1     -32.419   6.570   2.508  1.00 20.00    -0.169 F 
HETATM    8  F6  UNL     1     -33.753   8.208   3.031  1.00 20.00    -0.169 F 
ENDBRANCH   1   5
TORSDOF 2
ENDMDL
MODEL 8
REMARK VINA RESULT:      -4.3      2.468      3.276
REMARK  2 active torsions:
REMARK  status: ('A' for Active; 'I' for Inactive)
REMARK    1  A    between atoms: C1_1  and  C2_2 
REMARK    2  A    between atoms: C2_2  and  C3_3 
ROOT
HETATM    1  C2  UNL     1     -34.207   6.708   4.034  1.00 20.00     0.203 C 
HETATM    2 CL8  UNL     1     -32.957   6.243   2.837  1.00 20.00    -0.115 Cl
ENDROOT
BRANCH   1   3
HETATM    3  C1  UNL     1     -35.094   5.514   4.382  1.00 20.00     0.143 C 
HETATM    4 CL7  UNL     1     -34.198   3.975   4.299  1.00 20.00    -0.129 Cl
ENDBRANCH   1   3
BRANCH   1   5
HETATM    5  C3  UNL     1     -33.520   7.260   5.270  1.00 20.00     0.405 C 
HETATM    6  F4  UNL     1     -34.271   8.200   5.886  1.00 20.00    -0.169 F 
HETATM    7  F5  UNL     1     -33.281   6.276   6.166  1.00 20.00    -0.169 F 
HETATM    8  F6  UNL     1     -32.328   7.819   4.962  1.00 20.00    -0.169 F 
ENDBRANCH   1   5
TORSDOF 2
ENDMDL
MODEL 9
REMARK VINA RESULT:      -4.3      2.090      2.372
REMARK  2 active torsions:
REMARK  status: ('A' for Active; 'I' for Inactive)
REMARK    1  A    between atoms: C1_1  and  C2_2 
REMARK    2  A    between atoms: C2_2  and  C3_3 
ROOT
HETATM    1  C2  UNL     1     -33.526   5.752   4.285  1.00 20.00     0.203 C 
HETATM    2 CL8  UNL     1     -34.555   4.298   4.487  1.00 20.00    -0.115 Cl
ENDROOT
BRANCH   1   3
HETATM    3  C1  UNL     1     -33.623   6.290   2.858  1.00 20.00     0.143 C 
HETATM    4 CL7  UNL     1     -32.386   7.531   2.531  1.00 20.00    -0.129 Cl
ENDBRANCH   1   3
BRANCH   1   5
HETATM    5  C3  UNL     1     -33.954   6.800   5.297  1.00 20.00     0.405 C 
HETATM    6  F4  UNL     1     -32.894   7.427   5.851  1.00 20.00    -0.169 F 
HETATM    7  F5  UNL     1     -34.729   7.742   4.714  1.00 20.00    -0.169 F 
HETATM    8  F6  UNL     1     -34.679   6.250   6.297  1.00 20.00    -0.169 F 
ENDBRANCH   1   5
TORSDOF 2
ENDMDL
