MODEL 1
REMARK VINA RESULT:      -5.7      0.000      0.000
REMARK  5 active torsions:
REMARK  status: ('A' for Active; 'I' for Inactive)
REMARK    1  A    between atoms: C1_1  and  C5_5 
REMARK    2  A    between atoms: C1_1  and  C9_9 
REMARK    3  A    between atoms: C5_5  and  C6_6 
REMARK    4  A    between atoms: C7_7  and  C9_9 
REMARK    5  A    between atoms: C8_8  and  C9_9 
ROOT
HETATM    1  C1  UNL     1     -32.400   7.891   3.188  1.00 20.00     0.131 C 
HETATM    2  O10 UNL     1     -31.462   8.140   3.944  1.00 20.00    -0.298 OA
ENDROOT
BRANCH   1   3
HETATM    3  C5  UNL     1     -32.313   8.102   1.683  1.00 20.00     0.078 C 
BRANCH   3   4
HETATM    4  C6  UNL     1     -32.566   9.543   1.247  1.00 20.00     0.003 C 
HETATM    5  C2  UNL     1     -33.009   9.645  -0.205  1.00 20.00     0.005 C 
ENDBRANCH   3   4
ENDBRANCH   1   3
BRANCH   1   6
HETATM    6  C9  UNL     1     -33.718   7.321   3.715  1.00 20.00     0.054 C 
BRANCH   6   7
HETATM    7  C7  UNL     1     -33.590   7.020   5.217  1.00 20.00     0.007 C 
HETATM    8  C3  UNL     1     -34.562   5.946   5.689  1.00 20.00     0.006 C 
ENDBRANCH   6   7
BRANCH   6   9
HETATM    9  C8  UNL     1     -34.089   6.046   2.940  1.00 20.00     0.007 C 
HETATM   10  C4  UNL     1     -32.936   5.054   2.850  1.00 20.00     0.006 C 
ENDBRANCH   6   9
ENDBRANCH   1   6
TORSDOF 5
ENDMDL
MODEL 2
REMARK VINA RESULT:      -5.6      0.499      1.995
REMARK  5 active torsions:
REMARK  status: ('A' for Active; 'I' for Inactive)
REMARK    1  A    between atoms: C1_1  and  C5_5 
REMARK    2  A    between atoms: C1_1  and  C9_9 
REMARK    3  A    between atoms: C5_5  and  C6_6 
REMARK    4  A    between atoms: C7_7  and  C9_9 
REMARK    5  A    between atoms: C8_8  and  C9_9 
ROOT
HETATM    1  C1  UNL     1     -32.033   7.956   3.232  1.00 20.00     0.131 C 
HETATM    2  O10 UNL     1     -31.317   8.672   3.931  1.00 20.00    -0.298 OA
ENDROOT
BRANCH   1   3
HETATM    3  C5  UNL     1     -32.151   8.144   1.726  1.00 20.00     0.078 C 
BRANCH   3   4
HETATM    4  C6  UNL     1     -32.505   9.569   1.309  1.00 20.00     0.003 C 
HETATM    5  C2  UNL     1     -32.979   9.654  -0.136  1.00 20.00     0.005 C 
ENDBRANCH   3   4
ENDBRANCH   1   3
BRANCH   1   6
HETATM    6  C9  UNL     1     -32.835   6.802   3.833  1.00 20.00     0.054 C 
BRANCH   6   7
HETATM    7  C7  UNL     1     -33.637   6.095   2.729  1.00 20.00     0.007 C 
HETATM    8  C3  UNL     1     -33.219   4.643   2.532  1.00 20.00     0.006 C 
ENDBRANCH   6   7
BRANCH   6   9
HETATM    9  C8  UNL     1     -33.777   7.328   4.929  1.00 20.00     0.007 C 
HETATM   10  C4  UNL     1     -34.357   6.215   5.793  1.00 20.00     0.006 C 
ENDBRANCH   6   9
ENDBRANCH   1   6
TORSDOF 5
ENDMDL
MODEL 3
REMARK VINA RESULT:      -5.3      1.427      1.754
REMARK  5 active torsions:
REMARK  status: ('A' for Active; 'I' for Inactive)
REMARK    1  A    between atoms: C1_1  and  C5_5 
REMARK    2  A    between atoms: C1_1  and  C9_9 
REMARK    3  A    between atoms: C5_5  and  C6_6 
REMARK    4  A    between atoms: C7_7  and  C9_9 
REMARK    5  A    between atoms: C8_8  and  C9_9 
ROOT
HETATM    1  C1  UNL     1     -32.926   6.843   3.028  1.00 20.00     0.131 C 
HETATM    2  O10 UNL     1     -32.778   5.875   2.282  1.00 20.00    -0.298 OA
ENDROOT
BRANCH   1   3
HETATM    3  C5  UNL     1     -32.058   8.089   2.930  1.00 20.00     0.078 C 
BRANCH   3   4
HETATM    4  C6  UNL     1     -31.827   8.568   1.499  1.00 20.00     0.003 C 
HETATM    5  C2  UNL     1     -32.582   9.851   1.183  1.00 20.00     0.005 C 
ENDBRANCH   3   4
ENDBRANCH   1   3
BRANCH   1   6
HETATM    6  C9  UNL     1     -34.023   6.866   4.093  1.00 20.00     0.054 C 
BRANCH   6   7
HETATM    7  C7  UNL     1     -33.391   6.776   5.491  1.00 20.00     0.007 C 
HETATM    8  C3  UNL     1     -33.823   7.913   6.409  1.00 20.00     0.006 C 
ENDBRANCH   6   7
BRANCH   6   9
HETATM    9  C8  UNL     1     -35.002   5.702   3.869  1.00 20.00     0.007 C 
HETATM   10  C4  UNL     1     -34.701   4.499   4.754  1.00 20.00     0.006 C 
ENDBRANCH   6   9
ENDBRANCH   1   6
TORSDOF 5
ENDMDL
MODEL 4
REMARK VINA RESULT:      -5.2      1.608      2.287
REMARK  5 active torsions:
REMARK  status: ('A' for Active; 'I' for Inactive)
REMARK    1  A    between atoms: C1_1  and  C5_5 
REMARK    2  A    between atoms: C1_1  and  C9_9 
REMARK    3  A    between atoms: C5_5  and  C6_6 
REMARK    4  A    between atoms: C7_7  and  C9_9 
REMARK    5  A    between atoms: C8_8  and  C9_9 
ROOT
HETATM    1  C1  UNL     1     -33.024   7.106   2.613  1.00 20.00     0.131 C 
HETATM    2  O10 UNL     1     -33.633   6.663   1.640  1.00 20.00    -0.298 OA
ENDROOT
BRANCH   1   3
HETATM    3  C5  UNL     1     -32.042   8.264   2.504  1.00 20.00     0.078 C 
BRANCH   3   4
HETATM    4  C6  UNL     1     -32.002   8.910   1.121  1.00 20.00     0.003 C 
HETATM    5  C2  UNL     1     -32.692  10.267   1.091  1.00 20.00     0.005 C 
ENDBRANCH   3   4
ENDBRANCH   1   3
BRANCH   1   6
HETATM    6  C9  UNL     1     -33.239   6.534   4.015  1.00 20.00     0.054 C 
BRANCH   6   7
HETATM    7  C7  UNL     1     -34.599   5.820   4.082  1.00 20.00     0.007 C 
HETATM    8  C3  UNL     1     -34.475   4.345   4.440  1.00 20.00     0.006 C 
ENDBRANCH   6   7
BRANCH   6   9
HETATM    9  C8  UNL     1     -33.169   7.658   5.061  1.00 20.00     0.007 C 
HETATM   10  C4  UNL     1     -33.954   7.335   6.327  1.00 20.00     0.006 C 
ENDBRANCH   6   9
ENDBRANCH   1   6
TORSDOF 5
ENDMDL
MODEL 5
REMARK VINA RESULT:      -5.1      1.069      4.076
REMARK  5 active torsions:
REMARK  status: ('A' for Active; 'I' for Inactive)
REMARK    1  A    between atoms: C1_1  and  C5_5 
REMARK    2  A    between atoms: C1_1  and  C9_9 
REMARK    3  A    between atoms: C5_5  and  C6_6 
REMARK    4  A    between atoms: C7_7  and  C9_9 
REMARK    5  A    between atoms: C8_8  and  C9_9 
ROOT
HETATM    1  C1  UNL     1     -32.814   7.671   4.132  1.00 20.00     0.131 C 
HETATM    2  O10 UNL     1     -31.959   8.298   4.756  1.00 20.00    -0.298 OA
ENDROOT
BRANCH   1   3
HETATM    3  C5  UNL     1     -34.175   7.336   4.724  1.00 20.00     0.078 C 
BRANCH   3   4
HETATM    4  C6  UNL     1     -34.105   6.455   5.969  1.00 20.00     0.003 C 
HETATM    5  C2  UNL     1     -34.626   5.047   5.719  1.00 20.00     0.005 C 
ENDBRANCH   3   4
ENDBRANCH   1   3
BRANCH   1   6
HETATM    6  C9  UNL     1     -32.571   7.208   2.694  1.00 20.00     0.054 C 
BRANCH   6   7
HETATM    7  C7  UNL     1     -32.719   8.398   1.733  1.00 20.00     0.007 C 
HETATM    8  C3  UNL     1     -31.448   8.682   0.944  1.00 20.00     0.006 C 
ENDBRANCH   6   7
BRANCH   6   9
HETATM    9  C8  UNL     1     -33.560   6.091   2.325  1.00 20.00     0.007 C 
HETATM   10  C4  UNL     1     -32.973   4.697   2.510  1.00 20.00     0.006 C 
ENDBRANCH   6   9
ENDBRANCH   1   6
TORSDOF 5
ENDMDL
MODEL 6
REMARK VINA RESULT:      -5.1      1.417      4.557
REMARK  5 active torsions:
REMARK  status: ('A' for Active; 'I' for Inactive)
REMARK    1  A    between atoms: C1_1  and  C5_5 
REMARK    2  A    between atoms: C1_1  and  C9_9 
REMARK    3  A    between atoms: C5_5  and  C6_6 
REMARK    4  A    between atoms: C7_7  and  C9_9 
REMARK    5  A    between atoms: C8_8  and  C9_9 
ROOT
HETATM    1  C1  UNL     1     -33.412   6.207   2.955  1.00 20.00     0.131 C 
HETATM    2  O10 UNL     1     -32.635   5.360   2.517  1.00 20.00    -0.298 OA
ENDROOT
BRANCH   1   3
HETATM    3  C5  UNL     1     -34.779   5.846   3.520  1.00 20.00     0.078 C 
BRANCH   3   4
HETATM    4  C6  UNL     1     -34.765   4.620   4.429  1.00 20.00     0.003 C 
HETATM    5  C2  UNL     1     -34.605   4.984   5.899  1.00 20.00     0.005 C 
ENDBRANCH   3   4
ENDBRANCH   1   3
BRANCH   1   6
HETATM    6  C9  UNL     1     -33.040   7.690   2.985  1.00 20.00     0.054 C 
BRANCH   6   7
HETATM    7  C7  UNL     1     -32.280   8.061   1.702  1.00 20.00     0.007 C 
HETATM    8  C3  UNL     1     -32.369   9.546   1.370  1.00 20.00     0.006 C 
ENDBRANCH   6   7
BRANCH   6   9
HETATM    9  C8  UNL     1     -32.183   7.994   4.225  1.00 20.00     0.007 C 
HETATM   10  C4  UNL     1     -32.984   7.954   5.520  1.00 20.00     0.006 C 
ENDBRANCH   6   9
ENDBRANCH   1   6
TORSDOF 5
ENDMDL
MODEL 7
REMARK VINA RESULT:      -4.9      1.232      1.580
REMARK  5 active torsions:
REMARK  status: ('A' for Active; 'I' for Inactive)
REMARK    1  A    between atoms: C1_1  and  C5_5 
REMARK    2  A    between atoms: C1_1  and  C9_9 
REMARK    3  A    between atoms: C5_5  and  C6_6 
REMARK    4  A    between atoms: C7_7  and  C9_9 
REMARK    5  A    between atoms: C8_8  and  C9_9 
ROOT
HETATM    1  C1  UNL     1     -32.987   7.335   4.045  1.00 20.00     0.131 C 
HETATM    2  O10 UNL     1     -33.166   7.688   5.210  1.00 20.00    -0.298 OA
ENDROOT
BRANCH   1   3
HETATM    3  C5  UNL     1     -31.947   7.987   3.145  1.00 20.00     0.078 C 
BRANCH   3   4
HETATM    4  C6  UNL     1     -32.538   8.671   1.915  1.00 20.00     0.003 C 
HETATM    5  C2  UNL     1     -31.533   8.798   0.778  1.00 20.00     0.005 C 
ENDBRANCH   3   4
ENDBRANCH   1   3
BRANCH   1   6
HETATM    6  C9  UNL     1     -33.789   6.188   3.428  1.00 20.00     0.054 C 
BRANCH   6   7
HETATM    7  C7  UNL     1     -34.963   5.821   4.350  1.00 20.00     0.007 C 
HETATM    8  C3  UNL     1     -34.639   4.667   5.289  1.00 20.00     0.006 C 
ENDBRANCH   6   7
BRANCH   6   9
HETATM    9  C8  UNL     1     -32.880   4.969   3.204  1.00 20.00     0.007 C 
HETATM   10  C4  UNL     1     -33.081   4.327   1.837  1.00 20.00     0.006 C 
ENDBRANCH   6   9
ENDBRANCH   1   6
TORSDOF 5
ENDMDL
MODEL 8
REMARK VINA RESULT:      -4.7      0.881      4.091
REMARK  5 active torsions:
REMARK  status: ('A' for Active; 'I' for Inactive)
REMARK    1  A    between atoms: C1_1  and  C5_5 
REMARK    2  A    between atoms: C1_1  and  C9_9 
REMARK    3  A    between atoms: C5_5  and  C6_6 
REMARK    4  A    between atoms: C7_7  and  C9_9 
REMARK    5  A    between atoms: C8_8  and  C9_9 
ROOT
HETATM    1  C1  UNL     1     -33.115   7.627   4.154  1.00 20.00     0.131 C 
HETATM    2  O10 UNL     1     -32.034   7.993   4.614  1.00 20.00    -0.298 OA
ENDROOT
BRANCH   1   3
HETATM    3  C5  UNL     1     -34.302   7.276   5.041  1.00 20.00     0.078 C 
BRANCH   3   4
HETATM    4  C6  UNL     1     -34.028   6.127   6.008  1.00 20.00     0.003 C 
HETATM    5  C2  UNL     1     -34.699   4.830   5.579  1.00 20.00     0.005 C 
ENDBRANCH   3   4
ENDBRANCH   1   3
BRANCH   1   6
HETATM    6  C9  UNL     1     -33.347   7.529   2.646  1.00 20.00     0.054 C 
BRANCH   6   7
HETATM    7  C7  UNL     1     -33.867   6.126   2.291  1.00 20.00     0.007 C 
HETATM    8  C3  UNL     1     -32.843   5.031   2.558  1.00 20.00     0.006 C 
ENDBRANCH   6   7
BRANCH   6   9
HETATM    9  C8  UNL     1     -32.042   7.826   1.890  1.00 20.00     0.007 C 
HETATM   10  C4  UNL     1     -32.102   9.125   1.097  1.00 20.00     0.006 C 
ENDBRANCH   6   9
ENDBRANCH   1   6
TORSDOF 5
ENDMDL
MODEL 9
REMARK VINA RESULT:      -4.7      1.614      4.232
REMARK  5 active torsions:
REMARK  status: ('A' for Active; 'I' for Inactive)
REMARK    1  A    between atoms: C1_1  and  C5_5 
REMARK    2  A    between atoms: C1_1  and  C9_9 
REMARK    3  A    between atoms: C5_5  and  C6_6 
REMARK    4  A    between atoms: C7_7  and  C9_9 
REMARK    5  A    between atoms: C8_8  and  C9_9 
ROOT
HETATM    1  C1  UNL     1     -33.298   5.667   2.895  1.00 20.00     0.131 C 
HETATM    2  O10 UNL     1     -32.745   4.760   2.273  1.00 20.00    -0.298 OA
ENDROOT
BRANCH   1   3
HETATM    3  C5  UNL     1     -34.663   5.495   3.547  1.00 20.00     0.078 C 
BRANCH   3   4
HETATM    4  C6  UNL     1     -34.700   4.414   4.623  1.00 20.00     0.003 C 
HETATM    5  C2  UNL     1     -34.663   4.990   6.032  1.00 20.00     0.005 C 
ENDBRANCH   3   4
ENDBRANCH   1   3
BRANCH   1   6
HETATM    6  C9  UNL     1     -32.629   7.030   3.079  1.00 20.00     0.054 C 
BRANCH   6   7
HETATM    7  C7  UNL     1     -33.482   7.906   4.010  1.00 20.00     0.007 C 
HETATM    8  C3  UNL     1     -32.990   7.888   5.452  1.00 20.00     0.006 C 
ENDBRANCH   6   7
BRANCH   6   9
HETATM    9  C8  UNL     1     -32.444   7.715   1.715  1.00 20.00     0.007 C 
HETATM   10  C4  UNL     1     -32.335   9.231   1.827  1.00 20.00     0.006 C 
ENDBRANCH   6   9
ENDBRANCH   1   6
TORSDOF 5
ENDMDL
