MODEL 1
REMARK VINA RESULT:      -5.0      0.000      0.000
REMARK  2 active torsions:
REMARK  status: ('A' for Active; 'I' for Inactive)
REMARK    1  A    between atoms: C2_2  and  C3_3 
REMARK    2  A    between atoms: C3_3  and  O4_4 
ROOT
HETATM    1  C3  UNL     1     -34.766   5.470   4.206  1.00 20.00     0.398 C 
HETATM    2  F6  UNL     1     -35.965   5.877   3.724  1.00 20.00    -0.171 F 
HETATM    3  F7  UNL     1     -34.716   4.118   4.091  1.00 20.00    -0.171 F 
ENDROOT
BRANCH   1   4
HETATM    4  C2  UNL     1     -34.622   5.848   5.663  1.00 20.00     0.367 C 
HETATM    5  F5  UNL     1     -34.039   4.813   6.325  1.00 20.00    -0.223 F 
HETATM    6 CL8  UNL     1     -33.609   7.293   5.867  1.00 20.00    -0.080 Cl
ENDBRANCH   1   4
BRANCH   1   7
HETATM    7  O4  UNL     1     -33.718   6.031   3.425  1.00 20.00    -0.328 OA
HETATM    8  C1  UNL     1     -33.007   5.053   2.680  1.00 20.00     0.208 C 
ENDBRANCH   1   7
TORSDOF 2
ENDMDL
MODEL 2
REMARK VINA RESULT:      -5.0      1.703      1.973
REMARK  2 active torsions:
REMARK  status: ('A' for Active; 'I' for Inactive)
REMARK    1  A    between atoms: C2_2  and  C3_3 
REMARK    2  A    between atoms: C3_3  and  O4_4 
ROOT
HETATM    1  C3  UNL     1     -33.745   5.676   3.173  1.00 20.00     0.398 C 
HETATM    2  F6  UNL     1     -34.488   5.997   2.087  1.00 20.00    -0.171 F 
HETATM    3  F7  UNL     1     -32.804   4.782   2.776  1.00 20.00    -0.171 F 
ENDROOT
BRANCH   1   4
HETATM    4  C2  UNL     1     -34.610   5.043   4.241  1.00 20.00     0.367 C 
HETATM    5  F5  UNL     1     -34.239   3.743   4.385  1.00 20.00    -0.223 F 
HETATM    6 CL8  UNL     1     -34.421   5.863   5.805  1.00 20.00    -0.080 Cl
ENDBRANCH   1   4
BRANCH   1   7
HETATM    7  O4  UNL     1     -33.089   6.838   3.667  1.00 20.00    -0.328 OA
HETATM    8  C1  UNL     1     -32.515   7.623   2.631  1.00 20.00     0.208 C 
ENDBRANCH   1   7
TORSDOF 2
ENDMDL
MODEL 3
REMARK VINA RESULT:      -4.9      0.933      1.203
REMARK  2 active torsions:
REMARK  status: ('A' for Active; 'I' for Inactive)
REMARK    1  A    between atoms: C2_2  and  C3_3 
REMARK    2  A    between atoms: C3_3  and  O4_4 
ROOT
HETATM    1  C3  UNL     1     -34.678   5.882   4.084  1.00 20.00     0.398 C 
HETATM    2  F6  UNL     1     -34.122   6.955   3.471  1.00 20.00    -0.171 F 
HETATM    3  F7  UNL     1     -35.982   5.827   3.711  1.00 20.00    -0.171 F 
ENDROOT
BRANCH   1   4
HETATM    4  C2  UNL     1     -34.599   6.028   5.587  1.00 20.00     0.367 C 
HETATM    5  F5  UNL     1     -34.107   4.873   6.109  1.00 20.00    -0.223 F 
HETATM    6 CL8  UNL     1     -33.528   7.364   6.059  1.00 20.00    -0.080 Cl
ENDBRANCH   1   4
BRANCH   1   7
HETATM    7  O4  UNL     1     -34.031   4.692   3.649  1.00 20.00    -0.328 OA
HETATM    8  C1  UNL     1     -33.012   4.942   2.692  1.00 20.00     0.208 C 
ENDBRANCH   1   7
TORSDOF 2
ENDMDL
MODEL 4
REMARK VINA RESULT:      -4.9      1.299      1.796
REMARK  2 active torsions:
REMARK  status: ('A' for Active; 'I' for Inactive)
REMARK    1  A    between atoms: C2_2  and  C3_3 
REMARK    2  A    between atoms: C3_3  and  O4_4 
ROOT
HETATM    1  C3  UNL     1     -34.682   5.569   4.453  1.00 20.00     0.398 C 
HETATM    2  F6  UNL     1     -35.837   5.858   3.808  1.00 20.00    -0.171 F 
HETATM    3  F7  UNL     1     -34.997   5.238   5.731  1.00 20.00    -0.171 F 
ENDROOT
BRANCH   1   4
HETATM    4  C2  UNL     1     -33.763   6.770   4.464  1.00 20.00     0.367 C 
HETATM    5  F5  UNL     1     -34.283   7.721   3.643  1.00 20.00    -0.223 F 
HETATM    6 CL8  UNL     1     -33.603   7.455   6.095  1.00 20.00    -0.080 Cl
ENDBRANCH   1   4
BRANCH   1   7
HETATM    7  O4  UNL     1     -34.055   4.450   3.836  1.00 20.00    -0.328 OA
HETATM    8  C1  UNL     1     -33.156   4.828   2.802  1.00 20.00     0.208 C 
ENDBRANCH   1   7
TORSDOF 2
ENDMDL
MODEL 5
REMARK VINA RESULT:      -4.8      1.820      2.656
REMARK  2 active torsions:
REMARK  status: ('A' for Active; 'I' for Inactive)
REMARK    1  A    between atoms: C2_2  and  C3_3 
REMARK    2  A    between atoms: C3_3  and  O4_4 
ROOT
HETATM    1  C3  UNL     1     -34.692   5.721   4.662  1.00 20.00     0.398 C 
HETATM    2  F6  UNL     1     -35.088   5.441   5.927  1.00 20.00    -0.171 F 
HETATM    3  F7  UNL     1     -35.802   5.749   3.882  1.00 20.00    -0.171 F 
ENDROOT
BRANCH   1   4
HETATM    4  C2  UNL     1     -33.753   4.652   4.150  1.00 20.00     0.367 C 
HETATM    5  F5  UNL     1     -34.441   3.483   4.049  1.00 20.00    -0.223 F 
HETATM    6 CL8  UNL     1     -33.101   5.066   2.550  1.00 20.00    -0.080 Cl
ENDBRANCH   1   4
BRANCH   1   7
HETATM    7  O4  UNL     1     -34.078   7.004   4.624  1.00 20.00    -0.328 OA
HETATM    8  C1  UNL     1     -33.572   7.406   5.889  1.00 20.00     0.208 C 
ENDBRANCH   1   7
TORSDOF 2
ENDMDL
MODEL 6
REMARK VINA RESULT:      -4.5      2.032      2.032
REMARK  2 active torsions:
REMARK  status: ('A' for Active; 'I' for Inactive)
REMARK    1  A    between atoms: C2_2  and  C3_3 
REMARK    2  A    between atoms: C3_3  and  O4_4 
ROOT
HETATM    1  C3  UNL     1     -34.010   6.379   3.682  1.00 20.00     0.398 C 
HETATM    2  F6  UNL     1     -35.315   6.190   3.371  1.00 20.00    -0.171 F 
HETATM    3  F7  UNL     1     -33.295   5.407   3.060  1.00 20.00    -0.171 F 
ENDROOT
BRANCH   1   4
HETATM    4  C2  UNL     1     -33.797   6.273   5.175  1.00 20.00     0.367 C 
HETATM    5  F5  UNL     1     -34.243   7.417   5.760  1.00 20.00    -0.223 F 
HETATM    6 CL8  UNL     1     -34.688   4.900   5.866  1.00 20.00    -0.080 Cl
ENDBRANCH   1   4
BRANCH   1   7
HETATM    7  O4  UNL     1     -33.579   7.644   3.192  1.00 20.00    -0.328 OA
HETATM    8  C1  UNL     1     -32.164   7.750   3.124  1.00 20.00     0.208 C 
ENDBRANCH   1   7
TORSDOF 2
ENDMDL
MODEL 7
REMARK VINA RESULT:      -4.5      2.264      2.883
REMARK  2 active torsions:
REMARK  status: ('A' for Active; 'I' for Inactive)
REMARK    1  A    between atoms: C2_2  and  C3_3 
REMARK    2  A    between atoms: C3_3  and  O4_4 
ROOT
HETATM    1  C3  UNL     1     -33.589   6.647   3.689  1.00 20.00     0.398 C 
HETATM    2  F6  UNL     1     -34.040   7.500   2.738  1.00 20.00    -0.171 F 
HETATM    3  F7  UNL     1     -32.695   5.812   3.100  1.00 20.00    -0.171 F 
ENDROOT
BRANCH   1   4
HETATM    4  C2  UNL     1     -34.729   5.831   4.257  1.00 20.00     0.367 C 
HETATM    5  F5  UNL     1     -35.810   5.972   3.444  1.00 20.00    -0.223 F 
HETATM    6 CL8  UNL     1     -34.314   4.107   4.354  1.00 20.00    -0.080 Cl
ENDBRANCH   1   4
BRANCH   1   7
HETATM    7  O4  UNL     1     -32.922   7.377   4.712  1.00 20.00    -0.328 OA
HETATM    8  C1  UNL     1     -33.635   7.373   5.940  1.00 20.00     0.208 C 
ENDBRANCH   1   7
TORSDOF 2
ENDMDL
MODEL 8
REMARK VINA RESULT:      -4.5      2.223      2.801
REMARK  2 active torsions:
REMARK  status: ('A' for Active; 'I' for Inactive)
REMARK    1  A    between atoms: C2_2  and  C3_3 
REMARK    2  A    between atoms: C3_3  and  O4_4 
ROOT
HETATM    1  C3  UNL     1     -33.560   6.944   4.051  1.00 20.00     0.398 C 
HETATM    2  F6  UNL     1     -33.227   7.180   5.343  1.00 20.00    -0.171 F 
HETATM    3  F7  UNL     1     -34.355   7.964   3.639  1.00 20.00    -0.171 F 
ENDROOT
BRANCH   1   4
HETATM    4  C2  UNL     1     -34.321   5.643   3.926  1.00 20.00     0.367 C 
HETATM    5  F5  UNL     1     -33.591   4.785   3.163  1.00 20.00    -0.223 F 
HETATM    6 CL8  UNL     1     -34.598   4.893   5.512  1.00 20.00    -0.080 Cl
ENDBRANCH   1   4
BRANCH   1   7
HETATM    7  O4  UNL     1     -32.386   6.930   3.247  1.00 20.00    -0.328 OA
HETATM    8  C1  UNL     1     -32.337   8.016   2.332  1.00 20.00     0.208 C 
ENDBRANCH   1   7
TORSDOF 2
ENDMDL
MODEL 9
REMARK VINA RESULT:      -4.5      2.283      3.128
REMARK  2 active torsions:
REMARK  status: ('A' for Active; 'I' for Inactive)
REMARK    1  A    between atoms: C2_2  and  C3_3 
REMARK    2  A    between atoms: C3_3  and  O4_4 
ROOT
HETATM    1  C3  UNL     1     -34.513   6.083   3.968  1.00 20.00     0.398 C 
HETATM    2  F6  UNL     1     -34.209   5.058   4.800  1.00 20.00    -0.171 F 
HETATM    3  F7  UNL     1     -35.834   5.990   3.669  1.00 20.00    -0.171 F 
ENDROOT
BRANCH   1   4
HETATM    4  C2  UNL     1     -33.708   5.989   2.691  1.00 20.00     0.367 C 
HETATM    5  F5  UNL     1     -32.771   6.974   2.695  1.00 20.00    -0.223 F 
HETATM    6 CL8  UNL     1     -32.883   4.422   2.553  1.00 20.00    -0.080 Cl
ENDBRANCH   1   4
BRANCH   1   7
HETATM    7  O4  UNL     1     -34.283   7.322   4.629  1.00 20.00    -0.328 OA
HETATM    8  C1  UNL     1     -33.766   7.154   5.941  1.00 20.00     0.208 C 
ENDBRANCH   1   7
TORSDOF 2
ENDMDL
