MODEL 1
REMARK VINA RESULT:      -4.7      0.000      0.000
REMARK  0 active torsions:
REMARK  status: ('A' for Active; 'I' for Inactive)
ROOT
HETATM    1  C1  UNL     1     -35.143   5.659   4.121  1.00 20.00     0.050 C 
HETATM    2  C2  UNL     1     -34.408   5.929   5.422  1.00 20.00     0.171 C 
HETATM    3  C3  UNL     1     -34.147   6.112   3.074  1.00 20.00     0.128 C 
HETATM    4  C4  UNL     1     -33.551   7.328   3.775  1.00 20.00     0.235 C 
HETATM    5  O5  UNL     1     -33.488   7.005   5.172  1.00 20.00    -0.369 OA
HETATM    6 CL6  UNL     1     -32.958   4.804   2.782  1.00 20.00    -0.121 Cl
HETATM    7 CL7  UNL     1     -31.976   7.858   3.176  1.00 20.00    -0.094 Cl
ENDROOT
TORSDOF 0
ENDMDL
MODEL 2
REMARK VINA RESULT:      -4.1      2.010      3.122
REMARK  0 active torsions:
REMARK  status: ('A' for Active; 'I' for Inactive)
ROOT
HETATM    1  C1  UNL     1     -33.624   7.801   3.236  1.00 20.00     0.050 C 
HETATM    2  C2  UNL     1     -32.424   6.955   2.850  1.00 20.00     0.171 C 
HETATM    3  C3  UNL     1     -34.379   6.895   4.187  1.00 20.00     0.128 C 
HETATM    4  C4  UNL     1     -34.149   5.546   3.515  1.00 20.00     0.235 C 
HETATM    5  O5  UNL     1     -32.819   5.579   2.976  1.00 20.00    -0.369 OA
HETATM    6 CL6  UNL     1     -33.652   7.012   5.820  1.00 20.00    -0.121 Cl
HETATM    7 CL7  UNL     1     -34.378   4.131   4.548  1.00 20.00    -0.094 Cl
ENDROOT
TORSDOF 0
ENDMDL
MODEL 3
REMARK VINA RESULT:      -3.9      1.407      1.859
REMARK  0 active torsions:
REMARK  status: ('A' for Active; 'I' for Inactive)
ROOT
HETATM    1  C1  UNL     1     -34.783   6.153   5.948  1.00 20.00     0.050 C 
HETATM    2  C2  UNL     1     -33.482   6.925   5.804  1.00 20.00     0.171 C 
HETATM    3  C3  UNL     1     -34.898   5.443   4.615  1.00 20.00     0.128 C 
HETATM    4  C4  UNL     1     -34.349   6.520   3.685  1.00 20.00     0.235 C 
HETATM    5  O5  UNL     1     -33.296   7.181   4.402  1.00 20.00    -0.369 OA
HETATM    6 CL6  UNL     1     -33.902   3.955   4.648  1.00 20.00    -0.121 Cl
HETATM    7 CL7  UNL     1     -33.784   5.953   2.110  1.00 20.00    -0.094 Cl
ENDROOT
TORSDOF 0
ENDMDL
MODEL 4
REMARK VINA RESULT:      -3.9      1.701      2.401
REMARK  0 active torsions:
REMARK  status: ('A' for Active; 'I' for Inactive)
ROOT
HETATM    1  C1  UNL     1     -33.904   6.046   2.374  1.00 20.00     0.050 C 
HETATM    2  C2  UNL     1     -33.581   4.833   3.230  1.00 20.00     0.171 C 
HETATM    3  C3  UNL     1     -33.743   7.194   3.348  1.00 20.00     0.128 C 
HETATM    4  C4  UNL     1     -34.303   6.555   4.615  1.00 20.00     0.235 C 
HETATM    5  O5  UNL     1     -33.904   5.177   4.588  1.00 20.00    -0.369 OA
HETATM    6 CL6  UNL     1     -32.010   7.627   3.474  1.00 20.00    -0.121 Cl
HETATM    7 CL7  UNL     1     -33.823   7.323   6.132  1.00 20.00    -0.094 Cl
ENDROOT
TORSDOF 0
ENDMDL
MODEL 5
REMARK VINA RESULT:      -3.6      2.147      2.578
REMARK  0 active torsions:
REMARK  status: ('A' for Active; 'I' for Inactive)
ROOT
HETATM    1  C1  UNL     1     -33.235   5.620   2.643  1.00 20.00     0.050 C 
HETATM    2  C2  UNL     1     -32.924   7.098   2.484  1.00 20.00     0.171 C 
HETATM    3  C3  UNL     1     -33.982   5.576   3.960  1.00 20.00     0.128 C 
HETATM    4  C4  UNL     1     -33.212   6.632   4.744  1.00 20.00     0.235 C 
HETATM    5  O5  UNL     1     -32.857   7.660   3.806  1.00 20.00    -0.369 OA
HETATM    6 CL6  UNL     1     -35.699   6.004   3.682  1.00 20.00    -0.121 Cl
HETATM    7 CL7  UNL     1     -34.056   7.313   6.139  1.00 20.00    -0.094 Cl
ENDROOT
TORSDOF 0
ENDMDL
MODEL 6
REMARK VINA RESULT:      -3.6      1.728      2.239
REMARK  0 active torsions:
REMARK  status: ('A' for Active; 'I' for Inactive)
ROOT
HETATM    1  C1  UNL     1     -34.702   5.172   4.953  1.00 20.00     0.050 C 
HETATM    2  C2  UNL     1     -35.485   5.784   3.804  1.00 20.00     0.171 C 
HETATM    3  C3  UNL     1     -33.457   6.034   5.004  1.00 20.00     0.128 C 
HETATM    4  C4  UNL     1     -33.229   6.269   3.515  1.00 20.00     0.235 C 
HETATM    5  O5  UNL     1     -34.529   6.389   2.916  1.00 20.00    -0.369 OA
HETATM    6 CL6  UNL     1     -33.810   7.533   5.918  1.00 20.00    -0.121 Cl
HETATM    7 CL7  UNL     1     -32.216   7.659   3.109  1.00 20.00    -0.094 Cl
ENDROOT
TORSDOF 0
ENDMDL
MODEL 7
REMARK VINA RESULT:      -3.1      9.359      9.634
REMARK  0 active torsions:
REMARK  status: ('A' for Active; 'I' for Inactive)
ROOT
HETATM    1  C1  UNL     1     -43.137   5.105   0.303  1.00 20.00     0.050 C 
HETATM    2  C2  UNL     1     -43.087   6.097   1.451  1.00 20.00     0.171 C 
HETATM    3  C3  UNL     1     -42.355   5.813  -0.784  1.00 20.00     0.128 C 
HETATM    4  C4  UNL     1     -42.803   7.251  -0.547  1.00 20.00     0.235 C 
HETATM    5  O5  UNL     1     -42.946   7.406   0.873  1.00 20.00    -0.369 OA
HETATM    6 CL6  UNL     1     -40.603   5.558  -0.517  1.00 20.00    -0.121 Cl
HETATM    7 CL7  UNL     1     -41.747   8.499  -1.216  1.00 20.00    -0.094 Cl
ENDROOT
TORSDOF 0
ENDMDL
MODEL 8
REMARK VINA RESULT:      -3.1     11.623     12.384
REMARK  0 active torsions:
REMARK  status: ('A' for Active; 'I' for Inactive)
ROOT
HETATM    1  C1  UNL     1     -36.208  15.042  -5.610  1.00 20.00     0.050 C 
HETATM    2  C2  UNL     1     -36.180  13.546  -5.349  1.00 20.00     0.171 C 
HETATM    3  C3  UNL     1     -34.748  15.429  -5.487  1.00 20.00     0.128 C 
HETATM    4  C4  UNL     1     -34.320  14.514  -4.344  1.00 20.00     0.235 C 
HETATM    5  O5  UNL     1     -35.039  13.283  -4.515  1.00 20.00    -0.369 OA
HETATM    6 CL6  UNL     1     -33.911  15.081  -7.032  1.00 20.00    -0.121 Cl
HETATM    7 CL7  UNL     1     -32.583  14.220  -4.213  1.00 20.00    -0.094 Cl
ENDROOT
TORSDOF 0
ENDMDL
MODEL 9
REMARK VINA RESULT:      -3.0     11.504     12.303
REMARK  0 active torsions:
REMARK  status: ('A' for Active; 'I' for Inactive)
ROOT
HETATM    1  C1  UNL     1     -36.769  14.891  -4.554  1.00 20.00     0.050 C 
HETATM    2  C2  UNL     1     -36.427  13.640  -5.344  1.00 20.00     0.171 C 
HETATM    3  C3  UNL     1     -35.412  15.529  -4.336  1.00 20.00     0.128 C 
HETATM    4  C4  UNL     1     -34.560  14.283  -4.117  1.00 20.00     0.235 C 
HETATM    5  O5  UNL     1     -35.083  13.271  -4.991  1.00 20.00    -0.369 OA
HETATM    6 CL6  UNL     1     -34.953  16.461  -5.795  1.00 20.00    -0.121 Cl
HETATM    7 CL7  UNL     1     -32.823  14.494  -4.364  1.00 20.00    -0.094 Cl
ENDROOT
TORSDOF 0
ENDMDL
