MODEL 1
REMARK VINA RESULT:      -5.4      0.000      0.000
REMARK  2 active torsions:
REMARK  status: ('A' for Active; 'I' for Inactive)
REMARK    1  A    between atoms: C6_6  and  C7_7 
REMARK    2  A    between atoms: C7_7  and  O8_8 
ROOT
HETATM    1  C1  UNL     1     -32.973   4.416   2.437  1.00 20.00     0.015 C 
HETATM    2  C2  UNL     1     -33.633   5.009   3.247  1.00 20.00    -0.079 C 
HETATM    3  C5  UNL     1     -34.538   4.900   5.528  1.00 20.00     0.061 C 
HETATM    4  C7  UNL     1     -34.449   5.733   4.242  1.00 20.00     0.119 C 
ENDROOT
BRANCH   4   5
HETATM    5  C6  UNL     1     -33.911   7.169   4.512  1.00 20.00     0.024 C 
HETATM    6  C3  UNL     1     -33.555   7.434   5.980  1.00 20.00     0.014 C 
HETATM    7  C4  UNL     1     -32.713   7.530   3.621  1.00 20.00     0.014 C 
ENDBRANCH   4   5
BRANCH   4   8
HETATM    8  O8  UNL     1     -35.782   5.837   3.726  1.00 20.00    -0.378 OA
HETATM    9  H20 UNL     1     -36.141   6.665   4.075  1.00 20.00     0.211 HD
ENDBRANCH   4   8
TORSDOF 2
ENDMDL
MODEL 2
REMARK VINA RESULT:      -5.3      0.869      2.318
REMARK  2 active torsions:
REMARK  status: ('A' for Active; 'I' for Inactive)
REMARK    1  A    between atoms: C6_6  and  C7_7 
REMARK    2  A    between atoms: C7_7  and  O8_8 
ROOT
HETATM    1  C1  UNL     1     -32.140   8.014   2.767  1.00 20.00     0.015 C 
HETATM    2  C2  UNL     1     -32.931   7.162   3.068  1.00 20.00    -0.079 C 
HETATM    3  C5  UNL     1     -33.278   4.733   3.189  1.00 20.00     0.061 C 
HETATM    4  C7  UNL     1     -33.904   6.113   3.432  1.00 20.00     0.119 C 
ENDROOT
BRANCH   4   5
HETATM    5  C6  UNL     1     -34.423   6.271   4.892  1.00 20.00     0.024 C 
HETATM    6  C3  UNL     1     -34.558   4.945   5.650  1.00 20.00     0.014 C 
HETATM    7  C4  UNL     1     -33.575   7.250   5.718  1.00 20.00     0.014 C 
ENDBRANCH   4   5
BRANCH   4   8
HETATM    8  O8  UNL     1     -35.021   6.220   2.540  1.00 20.00    -0.378 OA
HETATM    9  H20 UNL     1     -34.745   6.823   1.836  1.00 20.00     0.211 HD
ENDBRANCH   4   8
TORSDOF 2
ENDMDL
MODEL 3
REMARK VINA RESULT:      -4.7      1.125      2.855
REMARK  2 active torsions:
REMARK  status: ('A' for Active; 'I' for Inactive)
REMARK    1  A    between atoms: C6_6  and  C7_7 
REMARK    2  A    between atoms: C7_7  and  O8_8 
ROOT
HETATM    1  C1  UNL     1     -33.697   7.307   6.037  1.00 20.00     0.015 C 
HETATM    2  C2  UNL     1     -34.048   6.608   5.125  1.00 20.00    -0.079 C 
HETATM    3  C5  UNL     1     -35.942   6.070   3.656  1.00 20.00     0.061 C 
HETATM    4  C7  UNL     1     -34.484   5.746   4.008  1.00 20.00     0.119 C 
ENDROOT
BRANCH   4   5
HETATM    5  C6  UNL     1     -33.544   5.863   2.772  1.00 20.00     0.024 C 
HETATM    6  C3  UNL     1     -32.577   7.051   2.837  1.00 20.00     0.014 C 
HETATM    7  C4  UNL     1     -32.754   4.573   2.505  1.00 20.00     0.014 C 
ENDBRANCH   4   5
BRANCH   4   8
HETATM    8  O8  UNL     1     -34.463   4.388   4.466  1.00 20.00    -0.378 OA
HETATM    9  H20 UNL     1     -33.762   3.947   3.967  1.00 20.00     0.211 HD
ENDBRANCH   4   8
TORSDOF 2
ENDMDL
MODEL 4
REMARK VINA RESULT:      -4.4      1.325      2.032
REMARK  2 active torsions:
REMARK  status: ('A' for Active; 'I' for Inactive)
REMARK    1  A    between atoms: C6_6  and  C7_7 
REMARK    2  A    between atoms: C7_7  and  O8_8 
ROOT
HETATM    1  C1  UNL     1     -32.807   4.375   2.291  1.00 20.00     0.015 C 
HETATM    2  C2  UNL     1     -33.359   5.215   2.948  1.00 20.00    -0.079 C 
HETATM    3  C5  UNL     1     -35.544   6.220   3.449  1.00 20.00     0.061 C 
HETATM    4  C7  UNL     1     -34.039   6.251   3.750  1.00 20.00     0.119 C 
ENDROOT
BRANCH   4   5
HETATM    5  C6  UNL     1     -33.745   6.106   5.272  1.00 20.00     0.024 C 
HETATM    6  C3  UNL     1     -33.793   7.430   6.044  1.00 20.00     0.014 C 
HETATM    7  C4  UNL     1     -34.660   5.080   5.957  1.00 20.00     0.014 C 
ENDBRANCH   4   5
BRANCH   4   8
HETATM    8  O8  UNL     1     -33.559   7.530   3.316  1.00 20.00    -0.378 OA
HETATM    9  H20 UNL     1     -32.999   7.864   4.031  1.00 20.00     0.211 HD
ENDBRANCH   4   8
TORSDOF 2
ENDMDL
MODEL 5
REMARK VINA RESULT:      -4.4      2.020      3.514
REMARK  2 active torsions:
REMARK  status: ('A' for Active; 'I' for Inactive)
REMARK    1  A    between atoms: C6_6  and  C7_7 
REMARK    2  A    between atoms: C7_7  and  O8_8 
ROOT
HETATM    1  C1  UNL     1     -32.873   9.152   0.938  1.00 20.00     0.015 C 
HETATM    2  C2  UNL     1     -32.727   8.446   1.898  1.00 20.00    -0.079 C 
HETATM    3  C5  UNL     1     -31.411   8.135   3.948  1.00 20.00     0.061 C 
HETATM    4  C7  UNL     1     -32.543   7.575   3.077  1.00 20.00     0.119 C 
ENDROOT
BRANCH   4   5
HETATM    5  C6  UNL     1     -33.862   7.387   3.882  1.00 20.00     0.024 C 
HETATM    6  C3  UNL     1     -34.655   6.134   3.490  1.00 20.00     0.014 C 
HETATM    7  C4  UNL     1     -33.634   7.395   5.401  1.00 20.00     0.014 C 
ENDBRANCH   4   5
BRANCH   4   8
HETATM    8  O8  UNL     1     -32.108   6.292   2.612  1.00 20.00    -0.378 OA
HETATM    9  H20 UNL     1     -32.068   5.722   3.393  1.00 20.00     0.211 HD
ENDBRANCH   4   8
TORSDOF 2
ENDMDL
MODEL 6
REMARK VINA RESULT:      -4.3      1.537      2.690
REMARK  2 active torsions:
REMARK  status: ('A' for Active; 'I' for Inactive)
REMARK    1  A    between atoms: C6_6  and  C7_7 
REMARK    2  A    between atoms: C7_7  and  O8_8 
ROOT
HETATM    1  C1  UNL     1     -34.747   4.817   5.432  1.00 20.00     0.015 C 
HETATM    2  C2  UNL     1     -34.250   5.264   4.434  1.00 20.00    -0.079 C 
HETATM    3  C5  UNL     1     -34.750   6.192   2.216  1.00 20.00     0.061 C 
HETATM    4  C7  UNL     1     -33.641   5.807   3.204  1.00 20.00     0.119 C 
ENDROOT
BRANCH   4   5
HETATM    5  C6  UNL     1     -32.681   6.997   3.497  1.00 20.00     0.024 C 
HETATM    6  C3  UNL     1     -32.601   8.025   2.362  1.00 20.00     0.014 C 
HETATM    7  C4  UNL     1     -33.013   7.714   4.815  1.00 20.00     0.014 C 
ENDBRANCH   4   5
BRANCH   4   8
HETATM    8  O8  UNL     1     -32.886   4.758   2.586  1.00 20.00    -0.378 OA
HETATM    9  H20 UNL     1     -32.089   4.647   3.124  1.00 20.00     0.211 HD
ENDBRANCH   4   8
TORSDOF 2
ENDMDL
MODEL 7
REMARK VINA RESULT:      -4.3      1.177      3.447
REMARK  2 active torsions:
REMARK  status: ('A' for Active; 'I' for Inactive)
REMARK    1  A    between atoms: C6_6  and  C7_7 
REMARK    2  A    between atoms: C7_7  and  O8_8 
ROOT
HETATM    1  C1  UNL     1     -33.677   7.420   6.271  1.00 20.00     0.015 C 
HETATM    2  C2  UNL     1     -33.619   7.240   5.085  1.00 20.00    -0.079 C 
HETATM    3  C5  UNL     1     -32.120   7.310   3.140  1.00 20.00     0.061 C 
HETATM    4  C7  UNL     1     -33.548   7.025   3.626  1.00 20.00     0.119 C 
ENDROOT
BRANCH   4   5
HETATM    5  C6  UNL     1     -34.032   5.603   3.215  1.00 20.00     0.024 C 
HETATM    6  C3  UNL     1     -32.953   4.752   2.535  1.00 20.00     0.014 C 
HETATM    7  C4  UNL     1     -34.637   4.821   4.391  1.00 20.00     0.014 C 
ENDBRANCH   4   5
BRANCH   4   8
HETATM    8  O8  UNL     1     -34.397   7.993   2.996  1.00 20.00    -0.378 OA
HETATM    9  H20 UNL     1     -34.205   8.838   3.425  1.00 20.00     0.211 HD
ENDBRANCH   4   8
TORSDOF 2
ENDMDL
MODEL 8
REMARK VINA RESULT:      -4.2      1.017      2.548
REMARK  2 active torsions:
REMARK  status: ('A' for Active; 'I' for Inactive)
REMARK    1  A    between atoms: C6_6  and  C7_7 
REMARK    2  A    between atoms: C7_7  and  O8_8 
ROOT
HETATM    1  C1  UNL     1     -34.789   4.495   5.415  1.00 20.00     0.015 C 
HETATM    2  C2  UNL     1     -34.355   5.527   4.980  1.00 20.00    -0.079 C 
HETATM    3  C5  UNL     1     -33.267   7.638   5.606  1.00 20.00     0.061 C 
HETATM    4  C7  UNL     1     -33.826   6.799   4.449  1.00 20.00     0.119 C 
ENDROOT
BRANCH   4   5
HETATM    5  C6  UNL     1     -32.770   6.575   3.327  1.00 20.00     0.024 C 
HETATM    6  C3  UNL     1     -33.039   5.341   2.458  1.00 20.00     0.014 C 
HETATM    7  C4  UNL     1     -32.593   7.807   2.426  1.00 20.00     0.014 C 
ENDBRANCH   4   5
BRANCH   4   8
HETATM    8  O8  UNL     1     -34.923   7.536   3.898  1.00 20.00    -0.378 OA
HETATM    9  H20 UNL     1     -34.648   7.805   3.010  1.00 20.00     0.211 HD
ENDBRANCH   4   8
TORSDOF 2
ENDMDL
MODEL 9
REMARK VINA RESULT:      -4.0     11.889     12.686
REMARK  2 active torsions:
REMARK  status: ('A' for Active; 'I' for Inactive)
REMARK    1  A    between atoms: C6_6  and  C7_7 
REMARK    2  A    between atoms: C7_7  and  O8_8 
ROOT
HETATM    1  C1  UNL     1     -38.244  14.963  -4.731  1.00 20.00     0.015 C 
HETATM    2  C2  UNL     1     -37.134  14.536  -4.901  1.00 20.00    -0.079 C 
HETATM    3  C5  UNL     1     -35.300  14.378  -6.527  1.00 20.00     0.061 C 
HETATM    4  C7  UNL     1     -35.772  14.008  -5.114  1.00 20.00     0.119 C 
ENDROOT
BRANCH   4   5
HETATM    5  C6  UNL     1     -34.775  14.490  -4.020  1.00 20.00     0.024 C 
HETATM    6  C3  UNL     1     -33.306  14.445  -4.456  1.00 20.00     0.014 C 
HETATM    7  C4  UNL     1     -35.110  15.892  -3.490  1.00 20.00     0.014 C 
ENDBRANCH   4   5
BRANCH   4   8
HETATM    8  O8  UNL     1     -35.843  12.578  -5.066  1.00 20.00    -0.378 OA
HETATM    9  H20 UNL     1     -35.082  12.253  -5.568  1.00 20.00     0.211 HD
ENDBRANCH   4   8
TORSDOF 2
ENDMDL
