MODEL 1
REMARK VINA RESULT:      -3.8      0.000      0.000
REMARK  2 active torsions:
REMARK  status: ('A' for Active; 'I' for Inactive)
REMARK    1  A    between atoms: C7_7  and  O9_9 
REMARK    2  A    between atoms: C8_8  and  O9_9 
ROOT
HETATM    1  O9  UNL     1     -33.115   6.003   3.760  1.00 20.00    -0.371 OA
ENDROOT
BRANCH   1   2
HETATM    2  C7  UNL     1     -33.037   7.420   3.913  1.00 20.00     0.051 C 
HETATM    3  C1  UNL     1     -33.265   7.764   5.385  1.00 20.00     0.045 C 
HETATM    4  C2  UNL     1     -31.644   7.856   3.468  1.00 20.00     0.045 C 
HETATM    5  C3  UNL     1     -34.107   8.064   3.032  1.00 20.00     0.045 C 
ENDBRANCH   1   2
BRANCH   1   6
HETATM    6  C8  UNL     1     -34.283   5.481   4.373  1.00 20.00     0.051 C 
HETATM    7  C4  UNL     1     -35.502   5.977   3.596  1.00 20.00     0.045 C 
HETATM    8  C5  UNL     1     -34.192   3.957   4.314  1.00 20.00     0.045 C 
HETATM    9  C6  UNL     1     -34.328   5.961   5.823  1.00 20.00     0.045 C 
ENDBRANCH   1   6
TORSDOF 2
ENDMDL
MODEL 2
REMARK VINA RESULT:      -3.8      0.006      3.386
REMARK  2 active torsions:
REMARK  status: ('A' for Active; 'I' for Inactive)
REMARK    1  A    between atoms: C7_7  and  O9_9 
REMARK    2  A    between atoms: C8_8  and  O9_9 
ROOT
HETATM    1  O9  UNL     1     -33.106   6.008   3.763  1.00 20.00    -0.371 OA
ENDROOT
BRANCH   1   2
HETATM    2  C7  UNL     1     -34.283   5.479   4.373  1.00 20.00     0.051 C 
HETATM    3  C1  UNL     1     -35.501   5.975   3.595  1.00 20.00     0.045 C 
HETATM    4  C2  UNL     1     -34.188   3.957   4.311  1.00 20.00     0.045 C 
HETATM    5  C3  UNL     1     -34.333   5.955   5.825  1.00 20.00     0.045 C 
ENDBRANCH   1   2
BRANCH   1   6
HETATM    6  C8  UNL     1     -33.036   7.417   3.914  1.00 20.00     0.051 C 
HETATM    7  C4  UNL     1     -33.265   7.760   5.386  1.00 20.00     0.045 C 
HETATM    8  C5  UNL     1     -31.642   7.859   3.470  1.00 20.00     0.045 C 
HETATM    9  C6  UNL     1     -34.109   8.056   3.032  1.00 20.00     0.045 C 
ENDBRANCH   1   6
TORSDOF 2
ENDMDL
MODEL 3
REMARK VINA RESULT:      -3.8      0.015      3.309
REMARK  2 active torsions:
REMARK  status: ('A' for Active; 'I' for Inactive)
REMARK    1  A    between atoms: C7_7  and  O9_9 
REMARK    2  A    between atoms: C8_8  and  O9_9 
ROOT
HETATM    1  O9  UNL     1     -33.114   6.013   3.744  1.00 20.00    -0.371 OA
ENDROOT
BRANCH   1   2
HETATM    2  C7  UNL     1     -34.284   5.486   4.369  1.00 20.00     0.051 C 
HETATM    3  C1  UNL     1     -35.510   5.979   3.600  1.00 20.00     0.045 C 
HETATM    4  C2  UNL     1     -34.190   3.964   4.313  1.00 20.00     0.045 C 
HETATM    5  C3  UNL     1     -34.320   5.969   5.818  1.00 20.00     0.045 C 
ENDBRANCH   1   2
BRANCH   1   6
HETATM    6  C8  UNL     1     -33.027   7.419   3.914  1.00 20.00     0.051 C 
HETATM    7  C4  UNL     1     -31.633   7.875   3.481  1.00 20.00     0.045 C 
HETATM    8  C5  UNL     1     -34.098   8.056   3.030  1.00 20.00     0.045 C 
HETATM    9  C6  UNL     1     -33.276   7.748   5.385  1.00 20.00     0.045 C 
ENDBRANCH   1   6
TORSDOF 2
ENDMDL
MODEL 4
REMARK VINA RESULT:      -3.8      0.015      1.447
REMARK  2 active torsions:
REMARK  status: ('A' for Active; 'I' for Inactive)
REMARK    1  A    between atoms: C7_7  and  O9_9 
REMARK    2  A    between atoms: C8_8  and  O9_9 
ROOT
HETATM    1  O9  UNL     1     -33.120   6.005   3.744  1.00 20.00    -0.371 OA
ENDROOT
BRANCH   1   2
HETATM    2  C7  UNL     1     -33.028   7.420   3.914  1.00 20.00     0.051 C 
HETATM    3  C1  UNL     1     -31.633   7.872   3.485  1.00 20.00     0.045 C 
HETATM    4  C2  UNL     1     -34.096   8.060   3.031  1.00 20.00     0.045 C 
HETATM    5  C3  UNL     1     -33.279   7.750   5.385  1.00 20.00     0.045 C 
ENDBRANCH   1   2
BRANCH   1   6
HETATM    6  C8  UNL     1     -34.283   5.485   4.369  1.00 20.00     0.051 C 
HETATM    7  C4  UNL     1     -35.509   5.978   3.601  1.00 20.00     0.045 C 
HETATM    8  C5  UNL     1     -34.192   3.961   4.315  1.00 20.00     0.045 C 
HETATM    9  C6  UNL     1     -34.315   5.971   5.818  1.00 20.00     0.045 C 
ENDBRANCH   1   6
TORSDOF 2
ENDMDL
MODEL 5
REMARK VINA RESULT:      -3.8      0.014      3.309
REMARK  2 active torsions:
REMARK  status: ('A' for Active; 'I' for Inactive)
REMARK    1  A    between atoms: C7_7  and  O9_9 
REMARK    2  A    between atoms: C8_8  and  O9_9 
ROOT
HETATM    1  O9  UNL     1     -33.114   6.017   3.747  1.00 20.00    -0.371 OA
ENDROOT
BRANCH   1   2
HETATM    2  C7  UNL     1     -34.279   5.483   4.375  1.00 20.00     0.051 C 
HETATM    3  C1  UNL     1     -34.326   5.983   5.819  1.00 20.00     0.045 C 
HETATM    4  C2  UNL     1     -35.492   5.979   3.594  1.00 20.00     0.045 C 
HETATM    5  C3  UNL     1     -34.199   3.957   4.331  1.00 20.00     0.045 C 
ENDBRANCH   1   2
BRANCH   1   6
HETATM    6  C8  UNL     1     -33.038   7.424   3.912  1.00 20.00     0.051 C 
HETATM    7  C4  UNL     1     -33.263   7.753   5.388  1.00 20.00     0.045 C 
HETATM    8  C5  UNL     1     -31.644   7.865   3.470  1.00 20.00     0.045 C 
HETATM    9  C6  UNL     1     -34.110   8.075   3.039  1.00 20.00     0.045 C 
ENDBRANCH   1   6
TORSDOF 2
ENDMDL
MODEL 6
REMARK VINA RESULT:      -3.5      2.446      3.854
REMARK  2 active torsions:
REMARK  status: ('A' for Active; 'I' for Inactive)
REMARK    1  A    between atoms: C7_7  and  O9_9 
REMARK    2  A    between atoms: C8_8  and  O9_9 
ROOT
HETATM    1  O9  UNL     1     -33.541   8.568   1.999  1.00 20.00    -0.371 OA
ENDROOT
BRANCH   1   2
HETATM    2  C7  UNL     1     -32.643   9.232   1.110  1.00 20.00     0.051 C 
HETATM    3  C1  UNL     1     -31.290   8.524   1.165  1.00 20.00     0.045 C 
HETATM    4  C2  UNL     1     -33.239   9.147  -0.293  1.00 20.00     0.045 C 
HETATM    5  C3  UNL     1     -32.513  10.690   1.549  1.00 20.00     0.045 C 
ENDBRANCH   1   2
BRANCH   1   6
HETATM    6  C8  UNL     1     -32.845   7.703   2.883  1.00 20.00     0.051 C 
HETATM    7  C4  UNL     1     -31.512   8.355   3.251  1.00 20.00     0.045 C 
HETATM    8  C5  UNL     1     -33.714   7.519   4.126  1.00 20.00     0.045 C 
HETATM    9  C6  UNL     1     -32.622   6.365   2.180  1.00 20.00     0.045 C 
ENDBRANCH   1   6
TORSDOF 2
ENDMDL
MODEL 7
REMARK VINA RESULT:      -3.5      2.485      4.512
REMARK  2 active torsions:
REMARK  status: ('A' for Active; 'I' for Inactive)
REMARK    1  A    between atoms: C7_7  and  O9_9 
REMARK    2  A    between atoms: C8_8  and  O9_9 
ROOT
HETATM    1  O9  UNL     1     -33.527   8.603   1.948  1.00 20.00    -0.371 OA
ENDROOT
BRANCH   1   2
HETATM    2  C7  UNL     1     -32.834   7.736   2.845  1.00 20.00     0.051 C 
HETATM    3  C1  UNL     1     -31.492   8.375   3.201  1.00 20.00     0.045 C 
HETATM    4  C2  UNL     1     -33.701   7.575   4.091  1.00 20.00     0.045 C 
HETATM    5  C3  UNL     1     -32.629   6.387   2.156  1.00 20.00     0.045 C 
ENDBRANCH   1   2
BRANCH   1   6
HETATM    6  C8  UNL     1     -32.628   9.267   1.074  1.00 20.00     0.051 C 
HETATM    7  C4  UNL     1     -31.283   8.542   1.119  1.00 20.00     0.045 C 
HETATM    8  C5  UNL     1     -33.224   9.207  -0.332  1.00 20.00     0.045 C 
HETATM    9  C6  UNL     1     -32.482  10.716   1.535  1.00 20.00     0.045 C 
ENDBRANCH   1   6
TORSDOF 2
ENDMDL
MODEL 8
REMARK VINA RESULT:      -3.4     11.597     12.962
REMARK  2 active torsions:
REMARK  status: ('A' for Active; 'I' for Inactive)
REMARK    1  A    between atoms: C7_7  and  O9_9 
REMARK    2  A    between atoms: C8_8  and  O9_9 
ROOT
HETATM    1  O9  UNL     1     -34.112  13.739  -5.781  1.00 20.00    -0.371 OA
ENDROOT
BRANCH   1   2
HETATM    2  C7  UNL     1     -35.372  14.143  -6.317  1.00 20.00     0.051 C 
HETATM    3  C1  UNL     1     -35.368  15.663  -6.477  1.00 20.00     0.045 C 
HETATM    4  C2  UNL     1     -35.536  13.460  -7.672  1.00 20.00     0.045 C 
HETATM    5  C3  UNL     1     -36.474  13.699  -5.355  1.00 20.00     0.045 C 
ENDBRANCH   1   2
BRANCH   1   6
HETATM    6  C8  UNL     1     -33.609  14.700  -4.866  1.00 20.00     0.051 C 
HETATM    7  C4  UNL     1     -34.716  15.052  -3.873  1.00 20.00     0.045 C 
HETATM    8  C5  UNL     1     -32.420  14.069  -4.143  1.00 20.00     0.045 C 
HETATM    9  C6  UNL     1     -33.168  15.935  -5.651  1.00 20.00     0.045 C 
ENDBRANCH   1   6
TORSDOF 2
ENDMDL
MODEL 9
REMARK VINA RESULT:      -3.4     11.576     12.733
REMARK  2 active torsions:
REMARK  status: ('A' for Active; 'I' for Inactive)
REMARK    1  A    between atoms: C7_7  and  O9_9 
REMARK    2  A    between atoms: C8_8  and  O9_9 
ROOT
HETATM    1  O9  UNL     1     -34.115  13.671  -5.695  1.00 20.00    -0.371 OA
ENDROOT
BRANCH   1   2
HETATM    2  C7  UNL     1     -33.563  14.676  -4.845  1.00 20.00     0.051 C 
HETATM    3  C1  UNL     1     -34.631  15.104  -3.839  1.00 20.00     0.045 C 
HETATM    4  C2  UNL     1     -32.363  14.063  -4.127  1.00 20.00     0.045 C 
HETATM    5  C3  UNL     1     -33.124  15.858  -5.709  1.00 20.00     0.045 C 
ENDBRANCH   1   2
BRANCH   1   6
HETATM    6  C8  UNL     1     -35.340  14.097  -6.268  1.00 20.00     0.051 C 
HETATM    7  C4  UNL     1     -35.295  15.615  -6.440  1.00 20.00     0.045 C 
HETATM    8  C5  UNL     1     -35.479  13.407  -7.624  1.00 20.00     0.045 C 
HETATM    9  C6  UNL     1     -36.481  13.688  -5.338  1.00 20.00     0.045 C 
ENDBRANCH   1   6
TORSDOF 2
ENDMDL
