MODEL 1
REMARK VINA RESULT:      -4.7      0.000      0.000
REMARK  3 active torsions:
REMARK  status: ('A' for Active; 'I' for Inactive)
REMARK    1  A    between atoms: C2_2  and  C7_7 
REMARK    2  A    between atoms: C5_5  and  C6_6 
REMARK    3  A    between atoms: C6_6  and  C7_7 
ROOT
HETATM    1  C4  UNL     1     -33.008   4.956   2.446  1.00 20.00     0.012 C 
HETATM    2  C7  UNL     1     -33.319   5.955   3.563  1.00 20.00     0.012 C 
ENDROOT
BRANCH   2   3
HETATM    3  C2  UNL     1     -34.634   5.572   4.246  1.00 20.00     0.149 A 
HETATM    4  C1  UNL     1     -34.657   5.059   5.658  1.00 20.00     0.200 A 
HETATM    5  O8  UNL     1     -34.772   4.176   4.531  1.00 20.00    -0.381 OA
ENDBRANCH   2   3
BRANCH   2   6
HETATM    6  C6  UNL     1     -33.399   7.404   3.049  1.00 20.00     0.006 C 
BRANCH   6   7
HETATM    7  C5  UNL     1     -32.046   7.974   2.618  1.00 20.00    -0.004 C 
HETATM    8  C3  UNL     1     -32.202   8.973   1.481  1.00 20.00     0.005 C 
ENDBRANCH   6   7
ENDBRANCH   2   6
TORSDOF 3
ENDMDL
MODEL 2
REMARK VINA RESULT:      -4.6      1.806      3.959
REMARK  3 active torsions:
REMARK  status: ('A' for Active; 'I' for Inactive)
REMARK    1  A    between atoms: C2_2  and  C7_7 
REMARK    2  A    between atoms: C5_5  and  C6_6 
REMARK    3  A    between atoms: C6_6  and  C7_7 
ROOT
HETATM    1  C4  UNL     1     -32.905   4.970   2.653  1.00 20.00     0.012 C 
HETATM    2  C7  UNL     1     -33.870   6.154   2.712  1.00 20.00     0.012 C 
ENDROOT
BRANCH   2   3
HETATM    3  C2  UNL     1     -33.121   7.408   3.169  1.00 20.00     0.149 A 
HETATM    4  C1  UNL     1     -32.524   8.364   2.175  1.00 20.00     0.200 A 
HETATM    5  O8  UNL     1     -31.720   7.404   2.878  1.00 20.00    -0.381 OA
ENDBRANCH   2   3
BRANCH   2   6
HETATM    6  C6  UNL     1     -35.067   5.891   3.645  1.00 20.00     0.006 C 
BRANCH   6   7
HETATM    7  C5  UNL     1     -34.823   4.757   4.643  1.00 20.00    -0.004 C 
HETATM    8  C3  UNL     1     -34.548   5.298   6.039  1.00 20.00     0.005 C 
ENDBRANCH   6   7
ENDBRANCH   2   6
TORSDOF 3
ENDMDL
MODEL 3
REMARK VINA RESULT:      -4.5      1.393      1.393
REMARK  3 active torsions:
REMARK  status: ('A' for Active; 'I' for Inactive)
REMARK    1  A    between atoms: C2_2  and  C7_7 
REMARK    2  A    between atoms: C5_5  and  C6_6 
REMARK    3  A    between atoms: C6_6  and  C7_7 
ROOT
HETATM    1  C4  UNL     1     -33.312   5.247   2.848  1.00 20.00     0.012 C 
HETATM    2  C7  UNL     1     -33.092   6.664   3.381  1.00 20.00     0.012 C 
ENDROOT
BRANCH   2   3
HETATM    3  C2  UNL     1     -34.133   6.978   4.458  1.00 20.00     0.149 A 
HETATM    4  C1  UNL     1     -33.726   7.254   5.878  1.00 20.00     0.200 A 
HETATM    5  O8  UNL     1     -34.255   5.980   5.477  1.00 20.00    -0.381 OA
ENDBRANCH   2   3
BRANCH   2   6
HETATM    6  C6  UNL     1     -33.154   7.726   2.268  1.00 20.00     0.006 C 
BRANCH   6   7
HETATM    7  C5  UNL     1     -31.817   8.426   2.017  1.00 20.00    -0.004 C 
HETATM    8  C3  UNL     1     -31.828   9.186   0.699  1.00 20.00     0.005 C 
ENDBRANCH   6   7
ENDBRANCH   2   6
TORSDOF 3
ENDMDL
MODEL 4
REMARK VINA RESULT:      -4.5      1.116      1.568
REMARK  3 active torsions:
REMARK  status: ('A' for Active; 'I' for Inactive)
REMARK    1  A    between atoms: C2_2  and  C7_7 
REMARK    2  A    between atoms: C5_5  and  C6_6 
REMARK    3  A    between atoms: C6_6  and  C7_7 
ROOT
HETATM    1  C4  UNL     1     -33.578   7.356   5.529  1.00 20.00     0.012 C 
HETATM    2  C7  UNL     1     -34.091   6.944   4.149  1.00 20.00     0.012 C 
ENDROOT
BRANCH   2   3
HETATM    3  C2  UNL     1     -34.897   5.647   4.265  1.00 20.00     0.149 A 
HETATM    4  C1  UNL     1     -34.591   4.634   5.331  1.00 20.00     0.200 A 
HETATM    5  O8  UNL     1     -34.155   4.458   3.974  1.00 20.00    -0.381 OA
ENDBRANCH   2   3
BRANCH   2   6
HETATM    6  C6  UNL     1     -32.952   6.762   3.129  1.00 20.00     0.006 C 
BRANCH   6   7
HETATM    7  C5  UNL     1     -31.981   7.943   3.082  1.00 20.00    -0.004 C 
HETATM    8  C3  UNL     1     -32.065   8.677   1.752  1.00 20.00     0.005 C 
ENDBRANCH   6   7
ENDBRANCH   2   6
TORSDOF 3
ENDMDL
MODEL 5
REMARK VINA RESULT:      -4.5      2.390      4.466
REMARK  3 active torsions:
REMARK  status: ('A' for Active; 'I' for Inactive)
REMARK    1  A    between atoms: C2_2  and  C7_7 
REMARK    2  A    between atoms: C5_5  and  C6_6 
REMARK    3  A    between atoms: C6_6  and  C7_7 
ROOT
HETATM    1  C4  UNL     1     -33.012   7.610   4.609  1.00 20.00     0.012 C 
HETATM    2  C7  UNL     1     -32.788   7.058   3.200  1.00 20.00     0.012 C 
ENDROOT
BRANCH   2   3
HETATM    3  C2  UNL     1     -32.822   8.204   2.186  1.00 20.00     0.149 A 
HETATM    4  C1  UNL     1     -31.655   8.474   1.277  1.00 20.00     0.200 A 
HETATM    5  O8  UNL     1     -31.896   9.263   2.453  1.00 20.00    -0.381 OA
ENDBRANCH   2   3
BRANCH   2   6
HETATM    6  C6  UNL     1     -33.828   5.990   2.816  1.00 20.00     0.006 C 
BRANCH   6   7
HETATM    7  C5  UNL     1     -34.812   5.663   3.942  1.00 20.00    -0.004 C 
HETATM    8  C3  UNL     1     -34.488   4.325   4.590  1.00 20.00     0.005 C 
ENDBRANCH   6   7
ENDBRANCH   2   6
TORSDOF 3
ENDMDL
MODEL 6
REMARK VINA RESULT:      -4.5      2.151      4.237
REMARK  3 active torsions:
REMARK  status: ('A' for Active; 'I' for Inactive)
REMARK    1  A    between atoms: C2_2  and  C7_7 
REMARK    2  A    between atoms: C5_5  and  C6_6 
REMARK    3  A    between atoms: C6_6  and  C7_7 
ROOT
HETATM    1  C4  UNL     1     -32.863   5.497   2.486  1.00 20.00     0.012 C 
HETATM    2  C7  UNL     1     -33.368   6.888   2.873  1.00 20.00     0.012 C 
ENDROOT
BRANCH   2   3
HETATM    3  C2  UNL     1     -32.211   7.889   2.824  1.00 20.00     0.149 A 
HETATM    4  C1  UNL     1     -32.314   9.159   2.027  1.00 20.00     0.200 A 
HETATM    5  O8  UNL     1     -31.590   8.018   1.541  1.00 20.00    -0.381 OA
ENDBRANCH   2   3
BRANCH   2   6
HETATM    6  C6  UNL     1     -34.018   6.910   4.269  1.00 20.00     0.006 C 
BRANCH   6   7
HETATM    7  C5  UNL     1     -34.953   5.725   4.524  1.00 20.00    -0.004 C 
HETATM    8  C3  UNL     1     -34.557   4.968   5.783  1.00 20.00     0.005 C 
ENDBRANCH   6   7
ENDBRANCH   2   6
TORSDOF 3
ENDMDL
MODEL 7
REMARK VINA RESULT:      -4.1      1.732      2.771
REMARK  3 active torsions:
REMARK  status: ('A' for Active; 'I' for Inactive)
REMARK    1  A    between atoms: C2_2  and  C7_7 
REMARK    2  A    between atoms: C5_5  and  C6_6 
REMARK    3  A    between atoms: C6_6  and  C7_7 
ROOT
HETATM    1  C4  UNL     1     -31.511   8.371   3.890  1.00 20.00     0.012 C 
HETATM    2  C7  UNL     1     -32.461   8.034   2.740  1.00 20.00     0.012 C 
ENDROOT
BRANCH   2   3
HETATM    3  C2  UNL     1     -32.817   6.546   2.784  1.00 20.00     0.149 A 
HETATM    4  C1  UNL     1     -34.247   6.086   2.724  1.00 20.00     0.200 A 
HETATM    5  O8  UNL     1     -33.521   6.137   3.962  1.00 20.00    -0.381 OA
ENDBRANCH   2   3
BRANCH   2   6
HETATM    6  C6  UNL     1     -31.867   8.388   1.364  1.00 20.00     0.006 C 
BRANCH   6   7
HETATM    7  C5  UNL     1     -32.412   9.694   0.782  1.00 20.00    -0.004 C 
HETATM    8  C3  UNL     1     -33.159   9.450  -0.521  1.00 20.00     0.005 C 
ENDBRANCH   6   7
ENDBRANCH   2   6
TORSDOF 3
ENDMDL
MODEL 8
REMARK VINA RESULT:      -3.8      1.633      3.146
REMARK  3 active torsions:
REMARK  status: ('A' for Active; 'I' for Inactive)
REMARK    1  A    between atoms: C2_2  and  C7_7 
REMARK    2  A    between atoms: C5_5  and  C6_6 
REMARK    3  A    between atoms: C6_6  and  C7_7 
ROOT
HETATM    1  C4  UNL     1     -32.307   7.860   2.285  1.00 20.00     0.012 C 
HETATM    2  C7  UNL     1     -32.882   6.947   3.368  1.00 20.00     0.012 C 
ENDROOT
BRANCH   2   3
HETATM    3  C2  UNL     1     -33.641   5.788   2.717  1.00 20.00     0.149 A 
HETATM    4  C1  UNL     1     -33.775   4.460   3.408  1.00 20.00     0.200 A 
HETATM    5  O8  UNL     1     -32.823   4.671   2.354  1.00 20.00    -0.381 OA
ENDBRANCH   2   3
BRANCH   2   6
HETATM    6  C6  UNL     1     -33.812   7.700   4.338  1.00 20.00     0.006 C 
BRANCH   6   7
HETATM    7  C5  UNL     1     -33.652   7.264   5.797  1.00 20.00    -0.004 C 
HETATM    8  C3  UNL     1     -34.596   6.121   6.140  1.00 20.00     0.005 C 
ENDBRANCH   6   7
ENDBRANCH   2   6
TORSDOF 3
ENDMDL
MODEL 9
REMARK VINA RESULT:      -3.7     11.360     11.813
REMARK  3 active torsions:
REMARK  status: ('A' for Active; 'I' for Inactive)
REMARK    1  A    between atoms: C2_2  and  C7_7 
REMARK    2  A    between atoms: C5_5  and  C6_6 
REMARK    3  A    between atoms: C6_6  and  C7_7 
ROOT
HETATM    1  C4  UNL     1     -32.993  14.377  -4.275  1.00 20.00     0.012 C 
HETATM    2  C7  UNL     1     -34.486  14.638  -4.074  1.00 20.00     0.012 C 
ENDROOT
BRANCH   2   3
HETATM    3  C2  UNL     1     -35.258  14.211  -5.325  1.00 20.00     0.149 A 
HETATM    4  C1  UNL     1     -36.696  13.781  -5.243  1.00 20.00     0.200 A 
HETATM    5  O8  UNL     1     -35.627  12.828  -5.354  1.00 20.00    -0.381 OA
ENDBRANCH   2   3
BRANCH   2   6
HETATM    6  C6  UNL     1     -34.786  16.113  -3.752  1.00 20.00     0.006 C 
BRANCH   6   7
HETATM    7  C5  UNL     1     -34.133  16.601  -2.457  1.00 20.00    -0.004 C 
HETATM    8  C3  UNL     1     -35.175  16.896  -1.388  1.00 20.00     0.005 C 
ENDBRANCH   6   7
ENDBRANCH   2   6
TORSDOF 3
ENDMDL
