MODEL 1
REMARK VINA RESULT:      -4.2      0.000      0.000
REMARK  0 active torsions:
REMARK  status: ('A' for Active; 'I' for Inactive)
ROOT
HETATM    1  C1  UNL     1     -34.043  16.652  -3.114  1.00 20.00    -0.007 C 
HETATM    2  C2  UNL     1     -35.420  16.058  -2.930  1.00 20.00     0.056 C 
HETATM    3  C3  UNL     1     -33.138  14.768  -4.311  1.00 20.00     0.011 C 
HETATM    4  C4  UNL     1     -34.525  14.096  -4.200  1.00 20.00     0.011 C 
HETATM    5  C5  UNL     1     -33.489  16.261  -4.473  1.00 20.00     0.034 C 
HETATM    6  C6  UNL     1     -35.513  15.296  -4.288  1.00 20.00    -0.032 C 
HETATM    7  C7  UNL     1     -34.799  16.247  -5.302  1.00 20.00    -0.032 C 
HETATM    8  C8  UNL     1     -36.931  14.877  -4.625  1.00 20.00     0.016 C 
HETATM    9  C9  UNL     1     -34.626  15.676  -6.724  1.00 20.00     0.016 C 
HETATM   10  C10 UNL     1     -35.437  17.641  -5.470  1.00 20.00     0.016 C 
HETATM   11  S11 UNL     1     -33.252  17.579  -1.985  1.00 20.00    -0.089 SA
ENDROOT
TORSDOF 0
ENDMDL
MODEL 2
REMARK VINA RESULT:      -4.2      2.283      3.491
REMARK  0 active torsions:
REMARK  status: ('A' for Active; 'I' for Inactive)
ROOT
HETATM    1  C1  UNL     1     -36.747  15.050  -5.204  1.00 20.00    -0.007 C 
HETATM    2  C2  UNL     1     -36.162  16.298  -5.824  1.00 20.00     0.056 C 
HETATM    3  C3  UNL     1     -35.222  13.525  -6.279  1.00 20.00     0.011 C 
HETATM    4  C4  UNL     1     -34.540  14.748  -6.932  1.00 20.00     0.011 C 
HETATM    5  C5  UNL     1     -35.637  14.060  -4.893  1.00 20.00     0.034 C 
HETATM    6  C6  UNL     1     -34.667  15.854  -5.844  1.00 20.00    -0.032 C 
HETATM    7  C7  UNL     1     -34.498  15.043  -4.518  1.00 20.00    -0.032 C 
HETATM    8  C8  UNL     1     -33.717  17.016  -6.061  1.00 20.00     0.016 C 
HETATM    9  C9  UNL     1     -33.127  14.363  -4.338  1.00 20.00     0.016 C 
HETATM   10  C10 UNL     1     -34.766  15.830  -3.219  1.00 20.00     0.016 C 
HETATM   11  S11 UNL     1     -38.364  14.798  -4.925  1.00 20.00    -0.089 SA
ENDROOT
TORSDOF 0
ENDMDL
MODEL 3
REMARK VINA RESULT:      -4.1      2.091      3.351
REMARK  0 active torsions:
REMARK  status: ('A' for Active; 'I' for Inactive)
ROOT
HETATM    1  C1  UNL     1     -35.488  15.072  -4.836  1.00 20.00    -0.007 C 
HETATM    2  C2  UNL     1     -35.812  16.450  -5.367  1.00 20.00     0.056 C 
HETATM    3  C3  UNL     1     -33.104  15.410  -4.760  1.00 20.00     0.011 C 
HETATM    4  C4  UNL     1     -33.343  16.850  -5.270  1.00 20.00     0.011 C 
HETATM    5  C5  UNL     1     -34.329  15.155  -3.858  1.00 20.00     0.034 C 
HETATM    6  C6  UNL     1     -34.699  17.242  -4.614  1.00 20.00    -0.032 C 
HETATM    7  C7  UNL     1     -34.615  16.539  -3.220  1.00 20.00    -0.032 C 
HETATM    8  C8  UNL     1     -34.949  18.738  -4.612  1.00 20.00     0.016 C 
HETATM    9  C9  UNL     1     -33.485  17.043  -2.300  1.00 20.00     0.016 C 
HETATM   10  C10 UNL     1     -35.908  16.575  -2.378  1.00 20.00     0.016 C 
HETATM   11  S11 UNL     1     -36.276  13.678  -5.276  1.00 20.00    -0.089 SA
ENDROOT
TORSDOF 0
ENDMDL
MODEL 4
REMARK VINA RESULT:      -4.1      1.331      1.636
REMARK  0 active torsions:
REMARK  status: ('A' for Active; 'I' for Inactive)
ROOT
HETATM    1  C1  UNL     1     -34.170  16.827  -4.900  1.00 20.00    -0.007 C 
HETATM    2  C2  UNL     1     -35.541  16.358  -4.466  1.00 20.00     0.056 C 
HETATM    3  C3  UNL     1     -33.080  14.709  -4.543  1.00 20.00     0.011 C 
HETATM    4  C4  UNL     1     -34.450  14.134  -4.115  1.00 20.00     0.011 C 
HETATM    5  C5  UNL     1     -33.458  15.714  -5.649  1.00 20.00     0.034 C 
HETATM    6  C6  UNL     1     -35.459  14.902  -5.017  1.00 20.00    -0.032 C 
HETATM    7  C7  UNL     1     -34.667  15.051  -6.357  1.00 20.00    -0.032 C 
HETATM    8  C8  UNL     1     -36.818  14.233  -5.096  1.00 20.00     0.016 C 
HETATM    9  C9  UNL     1     -34.322  13.725  -7.063  1.00 20.00     0.016 C 
HETATM   10  C10 UNL     1     -35.327  15.950  -7.423  1.00 20.00     0.016 C 
HETATM   11  S11 UNL     1     -33.538  18.330  -4.583  1.00 20.00    -0.089 SA
ENDROOT
TORSDOF 0
ENDMDL
MODEL 5
REMARK VINA RESULT:      -4.1      0.933      2.671
REMARK  0 active torsions:
REMARK  status: ('A' for Active; 'I' for Inactive)
ROOT
HETATM    1  C1  UNL     1     -33.853  17.009  -3.095  1.00 20.00    -0.007 C 
HETATM    2  C2  UNL     1     -33.608  17.419  -4.529  1.00 20.00     0.056 C 
HETATM    3  C3  UNL     1     -36.182  16.475  -3.404  1.00 20.00     0.011 C 
HETATM    4  C4  UNL     1     -36.015  16.842  -4.897  1.00 20.00     0.011 C 
HETATM    5  C5  UNL     1     -34.821  15.840  -3.051  1.00 20.00     0.034 C 
HETATM    6  C6  UNL     1     -34.559  16.392  -5.216  1.00 20.00    -0.032 C 
HETATM    7  C7  UNL     1     -34.408  15.101  -4.349  1.00 20.00    -0.032 C 
HETATM    8  C8  UNL     1     -34.291  16.254  -6.702  1.00 20.00     0.016 C 
HETATM    9  C9  UNL     1     -35.351  13.943  -4.731  1.00 20.00     0.016 C 
HETATM   10  C10 UNL     1     -32.987  14.501  -4.291  1.00 20.00     0.016 C 
HETATM   11  S11 UNL     1     -33.176  17.746  -1.769  1.00 20.00    -0.089 SA
ENDROOT
TORSDOF 0
ENDMDL
MODEL 6
REMARK VINA RESULT:      -4.1      1.847      2.991
REMARK  0 active torsions:
REMARK  status: ('A' for Active; 'I' for Inactive)
ROOT
HETATM    1  C1  UNL     1     -35.972  16.202  -4.545  1.00 20.00    -0.007 C 
HETATM    2  C2  UNL     1     -34.853  15.696  -3.664  1.00 20.00     0.056 C 
HETATM    3  C3  UNL     1     -34.552  16.806  -6.395  1.00 20.00     0.011 C 
HETATM    4  C4  UNL     1     -33.350  16.279  -5.578  1.00 20.00     0.011 C 
HETATM    5  C5  UNL     1     -35.690  15.845  -5.995  1.00 20.00     0.034 C 
HETATM    6  C6  UNL     1     -33.953  15.085  -4.782  1.00 20.00    -0.032 C 
HETATM    7  C7  UNL     1     -34.975  14.483  -5.800  1.00 20.00    -0.032 C 
HETATM    8  C8  UNL     1     -32.900  14.142  -4.231  1.00 20.00     0.016 C 
HETATM    9  C9  UNL     1     -34.354  13.919  -7.094  1.00 20.00     0.016 C 
HETATM   10  C10 UNL     1     -35.896  13.378  -5.244  1.00 20.00     0.016 C 
HETATM   11  S11 UNL     1     -37.300  17.041  -4.004  1.00 20.00    -0.089 SA
ENDROOT
TORSDOF 0
ENDMDL
MODEL 7
REMARK VINA RESULT:      -4.0      2.197      3.462
REMARK  0 active torsions:
REMARK  status: ('A' for Active; 'I' for Inactive)
ROOT
HETATM    1  C1  UNL     1     -35.000  14.568  -6.037  1.00 20.00    -0.007 C 
HETATM    2  C2  UNL     1     -35.217  15.988  -6.507  1.00 20.00     0.056 C 
HETATM    3  C3  UNL     1     -33.118  15.079  -4.623  1.00 20.00     0.011 C 
HETATM    4  C4  UNL     1     -33.286  16.563  -5.023  1.00 20.00     0.011 C 
HETATM    5  C5  UNL     1     -34.572  14.566  -4.580  1.00 20.00     0.034 C 
HETATM    6  C6  UNL     1     -34.826  16.719  -5.186  1.00 20.00    -0.032 C 
HETATM    7  C7  UNL     1     -35.380  15.784  -4.062  1.00 20.00    -0.032 C 
HETATM    8  C8  UNL     1     -35.285  18.164  -5.162  1.00 20.00     0.016 C 
HETATM    9  C9  UNL     1     -35.016  16.203  -2.624  1.00 20.00     0.016 C 
HETATM   10  C10 UNL     1     -36.907  15.561  -4.075  1.00 20.00     0.016 C 
HETATM   11  S11 UNL     1     -35.186  13.217  -6.985  1.00 20.00    -0.089 SA
ENDROOT
TORSDOF 0
ENDMDL
MODEL 8
REMARK VINA RESULT:      -4.0      2.166      3.243
REMARK  0 active torsions:
REMARK  status: ('A' for Active; 'I' for Inactive)
ROOT
HETATM    1  C1  UNL     1     -36.548  15.048  -4.927  1.00 20.00    -0.007 C 
HETATM    2  C2  UNL     1     -35.418  14.099  -4.595  1.00 20.00     0.056 C 
HETATM    3  C3  UNL     1     -35.835  16.788  -3.421  1.00 20.00     0.011 C 
HETATM    4  C4  UNL     1     -34.628  15.898  -3.045  1.00 20.00     0.011 C 
HETATM    5  C5  UNL     1     -36.039  16.479  -4.918  1.00 20.00     0.034 C 
HETATM    6  C6  UNL     1     -34.297  15.162  -4.376  1.00 20.00    -0.032 C 
HETATM    7  C7  UNL     1     -34.601  16.255  -5.451  1.00 20.00    -0.032 C 
HETATM    8  C8  UNL     1     -32.908  14.554  -4.392  1.00 20.00     0.016 C 
HETATM    9  C9  UNL     1     -33.710  17.511  -5.376  1.00 20.00     0.016 C 
HETATM   10  C10 UNL     1     -34.554  15.778  -6.917  1.00 20.00     0.016 C 
HETATM   11  S11 UNL     1     -38.113  14.586  -5.234  1.00 20.00    -0.089 SA
ENDROOT
TORSDOF 0
ENDMDL
MODEL 9
REMARK VINA RESULT:      -3.9      2.150      3.434
REMARK  0 active torsions:
REMARK  status: ('A' for Active; 'I' for Inactive)
ROOT
HETATM    1  C1  UNL     1     -35.318  16.110  -6.416  1.00 20.00    -0.007 C 
HETATM    2  C2  UNL     1     -34.092  15.226  -6.385  1.00 20.00     0.056 C 
HETATM    3  C3  UNL     1     -36.496  14.928  -4.678  1.00 20.00     0.011 C 
HETATM    4  C4  UNL     1     -35.271  13.994  -4.553  1.00 20.00     0.011 C 
HETATM    5  C5  UNL     1     -35.858  16.293  -5.008  1.00 20.00     0.034 C 
HETATM    6  C6  UNL     1     -34.068  14.937  -4.853  1.00 20.00    -0.032 C 
HETATM    7  C7  UNL     1     -34.529  16.285  -4.209  1.00 20.00    -0.032 C 
HETATM    8  C8  UNL     1     -32.739  14.375  -4.386  1.00 20.00     0.016 C 
HETATM    9  C9  UNL     1     -34.725  16.246  -2.680  1.00 20.00     0.016 C 
HETATM   10  C10 UNL     1     -33.628  17.503  -4.499  1.00 20.00     0.016 C 
HETATM   11  S11 UNL     1     -35.981  16.764  -7.791  1.00 20.00    -0.089 SA
ENDROOT
TORSDOF 0
ENDMDL
