MODEL 1
REMARK VINA RESULT:      -5.0      0.000      0.000
REMARK  5 active torsions:
REMARK  status: ('A' for Active; 'I' for Inactive)
REMARK    1  A    between atoms: C3_3  and  C7_7 
REMARK    2  A    between atoms: C4_4  and  C8_8 
REMARK    3  A    between atoms: C7_7  and  C9_9 
REMARK    4  A    between atoms: C8_8  and  C10_10 
REMARK    5  A    between atoms: C9_9  and  C10_10 
ROOT
HETATM    1  C1  UNL     1     -34.066   6.832   5.891  1.00 20.00    -0.111 C 
HETATM    2  C3  UNL     1     -34.292   5.832   5.265  1.00 20.00    -0.107 C 
HETATM    3  C5  UNL     1     -33.794   8.049   6.655  1.00 20.00     0.112 C 
ENDROOT
BRANCH   2   4
HETATM    4  C7  UNL     1     -34.567   4.609   4.499  1.00 20.00     0.094 C 
BRANCH   4   5
HETATM    5  C9  UNL     1     -33.744   4.537   3.210  1.00 20.00     0.013 C 
BRANCH   5   6
HETATM    6  C10 UNL     1     -33.712   5.871   2.451  1.00 20.00     0.013 C 
BRANCH   6   7
HETATM    7  C8  UNL     1     -32.436   6.671   2.715  1.00 20.00     0.094 C 
BRANCH   7   8
HETATM    8  C4  UNL     1     -32.482   8.008   2.106  1.00 20.00    -0.107 C 
HETATM    9  C2  UNL     1     -32.521   9.100   1.608  1.00 20.00    -0.111 C 
HETATM   10  C6  UNL     1     -32.565  10.430   1.002  1.00 20.00     0.112 C 
ENDBRANCH   7   8
ENDBRANCH   6   7
ENDBRANCH   5   6
ENDBRANCH   4   5
ENDBRANCH   2   4
TORSDOF 5
ENDMDL
MODEL 2
REMARK VINA RESULT:      -5.0      0.134      4.365
REMARK  5 active torsions:
REMARK  status: ('A' for Active; 'I' for Inactive)
REMARK    1  A    between atoms: C3_3  and  C7_7 
REMARK    2  A    between atoms: C4_4  and  C8_8 
REMARK    3  A    between atoms: C7_7  and  C9_9 
REMARK    4  A    between atoms: C8_8  and  C10_10 
REMARK    5  A    between atoms: C9_9  and  C10_10 
ROOT
HETATM    1  C1  UNL     1     -32.538   8.956   1.679  1.00 20.00    -0.111 C 
HETATM    2  C3  UNL     1     -32.501   7.861   2.171  1.00 20.00    -0.107 C 
HETATM    3  C5  UNL     1     -32.581  10.290   1.081  1.00 20.00     0.112 C 
ENDROOT
BRANCH   2   4
HETATM    4  C7  UNL     1     -32.457   6.522   2.773  1.00 20.00     0.094 C 
BRANCH   4   5
HETATM    5  C9  UNL     1     -33.740   5.728   2.512  1.00 20.00     0.013 C 
BRANCH   5   6
HETATM    6  C10 UNL     1     -33.800   4.418   3.312  1.00 20.00     0.013 C 
BRANCH   6   7
HETATM    7  C8  UNL     1     -34.601   4.553   4.608  1.00 20.00     0.094 C 
BRANCH   7   8
HETATM    8  C4  UNL     1     -34.302   5.804   5.319  1.00 20.00    -0.107 C 
HETATM    9  C2  UNL     1     -34.058   6.826   5.899  1.00 20.00    -0.111 C 
HETATM   10  C6  UNL     1     -33.758   8.071   6.606  1.00 20.00     0.112 C 
ENDBRANCH   7   8
ENDBRANCH   6   7
ENDBRANCH   5   6
ENDBRANCH   4   5
ENDBRANCH   2   4
TORSDOF 5
ENDMDL
MODEL 3
REMARK VINA RESULT:      -4.9      1.271      5.407
REMARK  5 active torsions:
REMARK  status: ('A' for Active; 'I' for Inactive)
REMARK    1  A    between atoms: C3_3  and  C7_7 
REMARK    2  A    between atoms: C4_4  and  C8_8 
REMARK    3  A    between atoms: C7_7  and  C9_9 
REMARK    4  A    between atoms: C8_8  and  C10_10 
REMARK    5  A    between atoms: C9_9  and  C10_10 
ROOT
HETATM    1  C1  UNL     1     -32.570   9.177   0.640  1.00 20.00    -0.111 C 
HETATM    2  C3  UNL     1     -32.106   8.868   1.704  1.00 20.00    -0.107 C 
HETATM    3  C5  UNL     1     -33.132   9.554  -0.656  1.00 20.00     0.112 C 
ENDROOT
BRANCH   2   4
HETATM    4  C7  UNL     1     -31.539   8.490   3.005  1.00 20.00     0.094 C 
BRANCH   4   5
HETATM    5  C9  UNL     1     -32.501   7.630   3.828  1.00 20.00     0.013 C 
BRANCH   5   6
HETATM    6  C10 UNL     1     -32.746   8.193   5.235  1.00 20.00     0.013 C 
BRANCH   6   7
HETATM    7  C8  UNL     1     -33.838   7.436   5.994  1.00 20.00     0.094 C 
BRANCH   7   8
HETATM    8  C4  UNL     1     -34.093   6.107   5.421  1.00 20.00    -0.107 C 
HETATM    9  C2  UNL     1     -34.301   5.021   4.953  1.00 20.00    -0.111 C 
HETATM   10  C6  UNL     1     -34.556   3.700   4.382  1.00 20.00     0.112 C 
ENDBRANCH   7   8
ENDBRANCH   6   7
ENDBRANCH   5   6
ENDBRANCH   4   5
ENDBRANCH   2   4
TORSDOF 5
ENDMDL
MODEL 4
REMARK VINA RESULT:      -4.9      1.304      2.739
REMARK  5 active torsions:
REMARK  status: ('A' for Active; 'I' for Inactive)
REMARK    1  A    between atoms: C3_3  and  C7_7 
REMARK    2  A    between atoms: C4_4  and  C8_8 
REMARK    3  A    between atoms: C7_7  and  C9_9 
REMARK    4  A    between atoms: C8_8  and  C10_10 
REMARK    5  A    between atoms: C9_9  and  C10_10 
ROOT
HETATM    1  C1  UNL     1     -34.344   5.160   4.999  1.00 20.00    -0.111 C 
HETATM    2  C3  UNL     1     -34.084   6.237   5.462  1.00 20.00    -0.107 C 
HETATM    3  C5  UNL     1     -34.657   3.847   4.434  1.00 20.00     0.112 C 
ENDROOT
BRANCH   2   4
HETATM    4  C7  UNL     1     -33.768   7.554   6.030  1.00 20.00     0.094 C 
BRANCH   4   5
HETATM    5  C9  UNL     1     -32.666   8.272   5.246  1.00 20.00     0.013 C 
BRANCH   5   6
HETATM    6  C10 UNL     1     -32.413   7.645   3.867  1.00 20.00     0.013 C 
BRANCH   6   7
HETATM    7  C8  UNL     1     -31.467   8.480   3.002  1.00 20.00     0.094 C 
BRANCH   7   8
HETATM    8  C4  UNL     1     -32.072   8.850   1.716  1.00 20.00    -0.107 C 
HETATM    9  C2  UNL     1     -32.567   9.153   0.665  1.00 20.00    -0.111 C 
HETATM   10  C6  UNL     1     -33.168   9.520  -0.617  1.00 20.00     0.112 C 
ENDBRANCH   7   8
ENDBRANCH   6   7
ENDBRANCH   5   6
ENDBRANCH   4   5
ENDBRANCH   2   4
TORSDOF 5
ENDMDL
MODEL 5
REMARK VINA RESULT:      -4.8      1.158      2.929
REMARK  5 active torsions:
REMARK  status: ('A' for Active; 'I' for Inactive)
REMARK    1  A    between atoms: C3_3  and  C7_7 
REMARK    2  A    between atoms: C4_4  and  C8_8 
REMARK    3  A    between atoms: C7_7  and  C9_9 
REMARK    4  A    between atoms: C8_8  and  C10_10 
REMARK    5  A    between atoms: C9_9  and  C10_10 
ROOT
HETATM    1  C1  UNL     1     -33.516   4.506   3.150  1.00 20.00    -0.111 C 
HETATM    2  C3  UNL     1     -34.040   4.825   4.182  1.00 20.00    -0.107 C 
HETATM    3  C5  UNL     1     -32.875   4.117   1.894  1.00 20.00     0.112 C 
ENDROOT
BRANCH   2   4
HETATM    4  C7  UNL     1     -34.682   5.215   5.445  1.00 20.00     0.094 C 
BRANCH   4   5
HETATM    5  C9  UNL     1     -34.201   6.581   5.941  1.00 20.00     0.013 C 
BRANCH   5   6
HETATM    6  C10 UNL     1     -33.946   7.572   4.797  1.00 20.00     0.013 C 
BRANCH   6   7
HETATM    7  C8  UNL     1     -32.457   7.791   4.524  1.00 20.00     0.094 C 
BRANCH   7   8
HETATM    8  C4  UNL     1     -32.199   8.179   3.131  1.00 20.00    -0.107 C 
HETATM    9  C2  UNL     1     -31.988   8.496   1.992  1.00 20.00    -0.111 C 
HETATM   10  C6  UNL     1     -31.729   8.881   0.605  1.00 20.00     0.112 C 
ENDBRANCH   7   8
ENDBRANCH   6   7
ENDBRANCH   5   6
ENDBRANCH   4   5
ENDBRANCH   2   4
TORSDOF 5
ENDMDL
MODEL 6
REMARK VINA RESULT:      -4.8      1.186      4.595
REMARK  5 active torsions:
REMARK  status: ('A' for Active; 'I' for Inactive)
REMARK    1  A    between atoms: C3_3  and  C7_7 
REMARK    2  A    between atoms: C4_4  and  C8_8 
REMARK    3  A    between atoms: C7_7  and  C9_9 
REMARK    4  A    between atoms: C8_8  and  C10_10 
REMARK    5  A    between atoms: C9_9  and  C10_10 
ROOT
HETATM    1  C1  UNL     1     -31.996   8.424   2.091  1.00 20.00    -0.111 C 
HETATM    2  C3  UNL     1     -32.235   8.133   3.231  1.00 20.00    -0.107 C 
HETATM    3  C5  UNL     1     -31.706   8.781   0.703  1.00 20.00     0.112 C 
ENDROOT
BRANCH   2   4
HETATM    4  C7  UNL     1     -32.527   7.776   4.626  1.00 20.00     0.094 C 
BRANCH   4   5
HETATM    5  C9  UNL     1     -34.017   7.512   4.857  1.00 20.00     0.013 C 
BRANCH   5   6
HETATM    6  C10 UNL     1     -34.274   6.512   5.994  1.00 20.00     0.013 C 
BRANCH   6   7
HETATM    7  C8  UNL     1     -34.692   5.132   5.484  1.00 20.00     0.094 C 
BRANCH   7   8
HETATM    8  C4  UNL     1     -34.048   4.792   4.208  1.00 20.00    -0.107 C 
HETATM    9  C2  UNL     1     -33.521   4.513   3.166  1.00 20.00    -0.111 C 
HETATM   10  C6  UNL     1     -32.879   4.176   1.896  1.00 20.00     0.112 C 
ENDBRANCH   7   8
ENDBRANCH   6   7
ENDBRANCH   5   6
ENDBRANCH   4   5
ENDBRANCH   2   4
TORSDOF 5
ENDMDL
MODEL 7
REMARK VINA RESULT:      -4.7      1.456      5.300
REMARK  5 active torsions:
REMARK  status: ('A' for Active; 'I' for Inactive)
REMARK    1  A    between atoms: C3_3  and  C7_7 
REMARK    2  A    between atoms: C4_4  and  C8_8 
REMARK    3  A    between atoms: C7_7  and  C9_9 
REMARK    4  A    between atoms: C8_8  and  C10_10 
REMARK    5  A    between atoms: C9_9  and  C10_10 
ROOT
HETATM    1  C1  UNL     1     -32.687   9.465   0.471  1.00 20.00    -0.111 C 
HETATM    2  C3  UNL     1     -32.211   9.173   1.534  1.00 20.00    -0.107 C 
HETATM    3  C5  UNL     1     -33.268   9.822  -0.823  1.00 20.00     0.112 C 
ENDROOT
BRANCH   2   4
HETATM    4  C7  UNL     1     -31.628   8.816   2.834  1.00 20.00     0.094 C 
BRANCH   4   5
HETATM    5  C9  UNL     1     -32.274   7.564   3.434  1.00 20.00     0.013 C 
BRANCH   5   6
HETATM    6  C10 UNL     1     -32.582   6.492   2.380  1.00 20.00     0.013 C 
BRANCH   6   7
HETATM    7  C8  UNL     1     -34.003   5.936   2.499  1.00 20.00     0.094 C 
BRANCH   7   8
HETATM    8  C4  UNL     1     -34.338   5.559   3.878  1.00 20.00    -0.107 C 
HETATM    9  C2  UNL     1     -34.613   5.250   5.005  1.00 20.00    -0.111 C 
HETATM   10  C6  UNL     1     -34.947   4.876   6.379  1.00 20.00     0.112 C 
ENDBRANCH   7   8
ENDBRANCH   6   7
ENDBRANCH   5   6
ENDBRANCH   4   5
ENDBRANCH   2   4
TORSDOF 5
ENDMDL
MODEL 8
REMARK VINA RESULT:      -4.7      1.440      2.186
REMARK  5 active torsions:
REMARK  status: ('A' for Active; 'I' for Inactive)
REMARK    1  A    between atoms: C3_3  and  C7_7 
REMARK    2  A    between atoms: C4_4  and  C8_8 
REMARK    3  A    between atoms: C7_7  and  C9_9 
REMARK    4  A    between atoms: C8_8  and  C10_10 
REMARK    5  A    between atoms: C9_9  and  C10_10 
ROOT
HETATM    1  C1  UNL     1     -34.596   5.312   4.990  1.00 20.00    -0.111 C 
HETATM    2  C3  UNL     1     -34.319   5.628   3.865  1.00 20.00    -0.107 C 
HETATM    3  C5  UNL     1     -34.937   4.929   6.360  1.00 20.00     0.112 C 
ENDROOT
BRANCH   2   4
HETATM    4  C7  UNL     1     -33.979   6.013   2.489  1.00 20.00     0.094 C 
BRANCH   4   5
HETATM    5  C9  UNL     1     -32.542   6.526   2.370  1.00 20.00     0.013 C 
BRANCH   5   6
HETATM    6  C10 UNL     1     -32.177   7.531   3.472  1.00 20.00     0.013 C 
BRANCH   6   7
HETATM    7  C8  UNL     1     -31.654   8.856   2.915  1.00 20.00     0.094 C 
BRANCH   7   8
HETATM    8  C4  UNL     1     -32.217   9.165   1.594  1.00 20.00    -0.107 C 
HETATM    9  C2  UNL     1     -32.679   9.417   0.515  1.00 20.00    -0.111 C 
HETATM   10  C6  UNL     1     -33.238   9.723  -0.801  1.00 20.00     0.112 C 
ENDBRANCH   7   8
ENDBRANCH   6   7
ENDBRANCH   5   6
ENDBRANCH   4   5
ENDBRANCH   2   4
TORSDOF 5
ENDMDL
MODEL 9
REMARK VINA RESULT:      -4.3     11.204     12.151
REMARK  5 active torsions:
REMARK  status: ('A' for Active; 'I' for Inactive)
REMARK    1  A    between atoms: C3_3  and  C7_7 
REMARK    2  A    between atoms: C4_4  and  C8_8 
REMARK    3  A    between atoms: C7_7  and  C9_9 
REMARK    4  A    between atoms: C8_8  and  C10_10 
REMARK    5  A    between atoms: C9_9  and  C10_10 
ROOT
HETATM    1  C1  UNL     1     -35.257  14.409  -4.471  1.00 20.00    -0.111 C 
HETATM    2  C3  UNL     1     -34.686  15.231  -3.807  1.00 20.00    -0.107 C 
HETATM    3  C5  UNL     1     -35.952  13.406  -5.277  1.00 20.00     0.112 C 
ENDROOT
BRANCH   2   4
HETATM    4  C7  UNL     1     -33.988  16.237  -2.995  1.00 20.00     0.094 C 
BRANCH   4   5
HETATM    5  C9  UNL     1     -34.808  16.667  -1.776  1.00 20.00     0.013 C 
BRANCH   5   6
HETATM    6  C10 UNL     1     -34.329  17.998  -1.178  1.00 20.00     0.013 C 
BRANCH   6   7
HETATM    7  C8  UNL     1     -32.854  18.280  -1.467  1.00 20.00     0.094 C 
BRANCH   7   8
HETATM    8  C4  UNL     1     -32.079  18.503  -0.239  1.00 20.00    -0.107 C 
HETATM    9  C2  UNL     1     -31.446  18.685   0.765  1.00 20.00    -0.111 C 
HETATM   10  C6  UNL     1     -30.676  18.905   1.988  1.00 20.00     0.112 C 
ENDBRANCH   7   8
ENDBRANCH   6   7
ENDBRANCH   5   6
ENDBRANCH   4   5
ENDBRANCH   2   4
TORSDOF 5
ENDMDL
