MODEL 1
REMARK VINA RESULT:      -4.5      0.000      0.000
REMARK  2 active torsions:
REMARK  status: ('A' for Active; 'I' for Inactive)
REMARK    1  A    between atoms: C1_1  and  C5_5 
REMARK    2  A    between atoms: C1_1  and  C6_6 
ROOT
HETATM    1  C1  UNL     1     -33.238   6.265   3.248  1.00 20.00     0.167 C 
HETATM    2  O7  UNL     1     -32.598   5.446   2.582  1.00 20.00    -0.294 OA
ENDROOT
BRANCH   1   3
HETATM    3  C5  UNL     1     -32.965   7.749   3.109  1.00 20.00     0.248 C 
HETATM    4 CL8  UNL     1     -32.913   8.142   1.383  1.00 20.00    -0.100 Cl
HETATM    5 CL9  UNL     1     -31.420   8.103   3.897  1.00 20.00    -0.100 Cl
ENDBRANCH   1   3
BRANCH   1   6
HETATM    6  C6  UNL     1     -34.330   5.810   4.241  1.00 20.00     0.012 C 
HETATM    7  C2  UNL     1     -35.719   6.144   3.665  1.00 20.00     0.022 C 
HETATM    8  C3  UNL     1     -34.241   4.293   4.452  1.00 20.00     0.022 C 
HETATM    9  C4  UNL     1     -34.164   6.553   5.572  1.00 20.00     0.022 C 
ENDBRANCH   1   6
TORSDOF 2
ENDMDL
MODEL 2
REMARK VINA RESULT:      -4.4      1.496      2.451
REMARK  2 active torsions:
REMARK  status: ('A' for Active; 'I' for Inactive)
REMARK    1  A    between atoms: C1_1  and  C5_5 
REMARK    2  A    between atoms: C1_1  and  C6_6 
ROOT
HETATM    1  C1  UNL     1     -33.424   6.955   4.335  1.00 20.00     0.167 C 
HETATM    2  O7  UNL     1     -33.540   7.662   5.340  1.00 20.00    -0.294 OA
ENDROOT
BRANCH   1   3
HETATM    3  C5  UNL     1     -32.432   7.321   3.249  1.00 20.00     0.248 C 
HETATM    4 CL8  UNL     1     -31.216   8.399   3.952  1.00 20.00    -0.100 Cl
HETATM    5 CL9  UNL     1     -33.318   8.116   1.938  1.00 20.00    -0.100 Cl
ENDBRANCH   1   3
BRANCH   1   6
HETATM    6  C6  UNL     1     -34.279   5.683   4.148  1.00 20.00     0.012 C 
HETATM    7  C2  UNL     1     -34.483   4.996   5.511  1.00 20.00     0.022 C 
HETATM    8  C3  UNL     1     -35.654   6.060   3.581  1.00 20.00     0.022 C 
HETATM    9  C4  UNL     1     -33.558   4.704   3.213  1.00 20.00     0.022 C 
ENDBRANCH   1   6
TORSDOF 2
ENDMDL
MODEL 3
REMARK VINA RESULT:      -4.4      1.502      2.039
REMARK  2 active torsions:
REMARK  status: ('A' for Active; 'I' for Inactive)
REMARK    1  A    between atoms: C1_1  and  C5_5 
REMARK    2  A    between atoms: C1_1  and  C6_6 
ROOT
HETATM    1  C1  UNL     1     -33.422   6.972   4.333  1.00 20.00     0.167 C 
HETATM    2  O7  UNL     1     -33.548   7.689   5.330  1.00 20.00    -0.294 OA
ENDROOT
BRANCH   1   3
HETATM    3  C5  UNL     1     -32.430   7.333   3.246  1.00 20.00     0.248 C 
HETATM    4 CL8  UNL     1     -31.206   8.402   3.949  1.00 20.00    -0.100 Cl
HETATM    5 CL9  UNL     1     -33.312   8.136   1.938  1.00 20.00    -0.100 Cl
ENDBRANCH   1   3
BRANCH   1   6
HETATM    6  C6  UNL     1     -34.268   5.691   4.157  1.00 20.00     0.012 C 
HETATM    7  C2  UNL     1     -35.644   6.059   3.573  1.00 20.00     0.022 C 
HETATM    8  C3  UNL     1     -33.565   4.734   3.186  1.00 20.00     0.022 C 
HETATM    9  C4  UNL     1     -34.481   5.019   5.519  1.00 20.00     0.022 C 
ENDBRANCH   1   6
TORSDOF 2
ENDMDL
MODEL 4
REMARK VINA RESULT:      -3.7      2.584      4.335
REMARK  2 active torsions:
REMARK  status: ('A' for Active; 'I' for Inactive)
REMARK    1  A    between atoms: C1_1  and  C5_5 
REMARK    2  A    between atoms: C1_1  and  C6_6 
ROOT
HETATM    1  C1  UNL     1     -32.266   8.154   2.653  1.00 20.00     0.167 C 
HETATM    2  O7  UNL     1     -31.312   8.305   3.421  1.00 20.00    -0.294 OA
ENDROOT
BRANCH   1   3
HETATM    3  C5  UNL     1     -33.397   7.210   3.007  1.00 20.00     0.248 C 
HETATM    4 CL8  UNL     1     -33.732   7.375   4.738  1.00 20.00    -0.100 Cl
HETATM    5 CL9  UNL     1     -32.888   5.563   2.605  1.00 20.00    -0.100 Cl
ENDBRANCH   1   3
BRANCH   1   6
HETATM    6  C6  UNL     1     -32.341   8.915   1.311  1.00 20.00     0.012 C 
HETATM    7  C2  UNL     1     -33.499   8.354   0.465  1.00 20.00     0.022 C 
HETATM    8  C3  UNL     1     -32.604  10.404   1.572  1.00 20.00     0.022 C 
HETATM    9  C4  UNL     1     -31.033   8.726   0.532  1.00 20.00     0.022 C 
ENDBRANCH   1   6
TORSDOF 2
ENDMDL
MODEL 5
REMARK VINA RESULT:      -3.6      2.603      3.509
REMARK  2 active torsions:
REMARK  status: ('A' for Active; 'I' for Inactive)
REMARK    1  A    between atoms: C1_1  and  C5_5 
REMARK    2  A    between atoms: C1_1  and  C6_6 
ROOT
HETATM    1  C1  UNL     1     -34.518   6.011   3.926  1.00 20.00     0.167 C 
HETATM    2  O7  UNL     1     -35.745   6.072   3.800  1.00 20.00    -0.294 OA
ENDROOT
BRANCH   1   3
HETATM    3  C5  UNL     1     -33.892   5.903   5.302  1.00 20.00     0.248 C 
HETATM    4 CL8  UNL     1     -34.839   4.747   6.251  1.00 20.00    -0.100 Cl
HETATM    5 CL9  UNL     1     -33.908   7.511   6.043  1.00 20.00    -0.100 Cl
ENDBRANCH   1   3
BRANCH   1   6
HETATM    6  C6  UNL     1     -33.585   6.042   2.697  1.00 20.00     0.012 C 
HETATM    7  C2  UNL     1     -34.418   6.280   1.424  1.00 20.00     0.022 C 
HETATM    8  C3  UNL     1     -32.576   7.189   2.840  1.00 20.00     0.022 C 
HETATM    9  C4  UNL     1     -32.859   4.698   2.560  1.00 20.00     0.022 C 
ENDBRANCH   1   6
TORSDOF 2
ENDMDL
MODEL 6
REMARK VINA RESULT:      -3.6     11.740     12.558
REMARK  2 active torsions:
REMARK  status: ('A' for Active; 'I' for Inactive)
REMARK    1  A    between atoms: C1_1  and  C5_5 
REMARK    2  A    between atoms: C1_1  and  C6_6 
ROOT
HETATM    1  C1  UNL     1     -35.507  14.205  -5.137  1.00 20.00     0.167 C 
HETATM    2  O7  UNL     1     -35.474  12.985  -4.953  1.00 20.00    -0.294 OA
ENDROOT
BRANCH   1   3
HETATM    3  C5  UNL     1     -36.653  14.837  -5.901  1.00 20.00     0.248 C 
HETATM    4 CL8  UNL     1     -38.164  14.416  -5.079  1.00 20.00    -0.100 Cl
HETATM    5 CL9  UNL     1     -36.624  14.211  -7.556  1.00 20.00    -0.100 Cl
ENDBRANCH   1   3
BRANCH   1   6
HETATM    6  C6  UNL     1     -34.389  15.125  -4.600  1.00 20.00     0.012 C 
HETATM    7  C2  UNL     1     -33.115  14.296  -4.351  1.00 20.00     0.022 C 
HETATM    8  C3  UNL     1     -34.069  16.213  -5.634  1.00 20.00     0.022 C 
HETATM    9  C4  UNL     1     -34.827  15.755  -3.271  1.00 20.00     0.022 C 
ENDBRANCH   1   6
TORSDOF 2
ENDMDL
MODEL 7
REMARK VINA RESULT:      -3.6     11.746     12.540
REMARK  2 active torsions:
REMARK  status: ('A' for Active; 'I' for Inactive)
REMARK    1  A    between atoms: C1_1  and  C5_5 
REMARK    2  A    between atoms: C1_1  and  C6_6 
ROOT
HETATM    1  C1  UNL     1     -35.516  14.201  -5.128  1.00 20.00     0.167 C 
HETATM    2  O7  UNL     1     -35.483  12.979  -4.956  1.00 20.00    -0.294 OA
ENDROOT
BRANCH   1   3
HETATM    3  C5  UNL     1     -36.658  14.839  -5.892  1.00 20.00     0.248 C 
HETATM    4 CL8  UNL     1     -38.172  14.420  -5.074  1.00 20.00    -0.100 Cl
HETATM    5 CL9  UNL     1     -36.629  14.218  -7.550  1.00 20.00    -0.100 Cl
ENDBRANCH   1   3
BRANCH   1   6
HETATM    6  C6  UNL     1     -34.401  15.117  -4.577  1.00 20.00     0.012 C 
HETATM    7  C2  UNL     1     -34.103  16.233  -5.594  1.00 20.00     0.022 C 
HETATM    8  C3  UNL     1     -34.862  15.763  -3.264  1.00 20.00     0.022 C 
HETATM    9  C4  UNL     1     -33.120  14.302  -4.358  1.00 20.00     0.022 C 
ENDBRANCH   1   6
TORSDOF 2
ENDMDL
MODEL 8
REMARK VINA RESULT:      -3.5      2.113      2.320
REMARK  2 active torsions:
REMARK  status: ('A' for Active; 'I' for Inactive)
REMARK    1  A    between atoms: C1_1  and  C5_5 
REMARK    2  A    between atoms: C1_1  and  C6_6 
ROOT
HETATM    1  C1  UNL     1     -32.389   7.962   2.751  1.00 20.00     0.167 C 
HETATM    2  O7  UNL     1     -31.455   8.342   3.464  1.00 20.00    -0.294 OA
ENDROOT
BRANCH   1   3
HETATM    3  C5  UNL     1     -32.629   8.596   1.396  1.00 20.00     0.248 C 
HETATM    4 CL8  UNL     1     -31.139   8.455   0.449  1.00 20.00    -0.100 Cl
HETATM    5 CL9  UNL     1     -33.073  10.291   1.650  1.00 20.00    -0.100 Cl
ENDBRANCH   1   3
BRANCH   1   6
HETATM    6  C6  UNL     1     -33.340   6.836   3.213  1.00 20.00     0.012 C 
HETATM    7  C2  UNL     1     -34.630   6.877   2.373  1.00 20.00     0.022 C 
HETATM    8  C3  UNL     1     -32.668   5.472   3.010  1.00 20.00     0.022 C 
HETATM    9  C4  UNL     1     -33.712   7.042   4.687  1.00 20.00     0.022 C 
ENDBRANCH   1   6
TORSDOF 2
ENDMDL
MODEL 9
REMARK VINA RESULT:      -3.5     11.830     12.442
REMARK  2 active torsions:
REMARK  status: ('A' for Active; 'I' for Inactive)
REMARK    1  A    between atoms: C1_1  and  C5_5 
REMARK    2  A    between atoms: C1_1  and  C6_6 
ROOT
HETATM    1  C1  UNL     1     -35.830  14.077  -5.378  1.00 20.00     0.167 C 
HETATM    2  O7  UNL     1     -36.037  12.876  -5.181  1.00 20.00    -0.294 OA
ENDROOT
BRANCH   1   3
HETATM    3  C5  UNL     1     -34.485  14.552  -5.888  1.00 20.00     0.248 C 
HETATM    4 CL8  UNL     1     -34.097  13.641  -7.356  1.00 20.00    -0.100 Cl
HETATM    5 CL9  UNL     1     -33.283  14.270  -4.619  1.00 20.00    -0.100 Cl
ENDBRANCH   1   3
BRANCH   1   6
HETATM    6  C6  UNL     1     -36.927  15.131  -5.113  1.00 20.00     0.012 C 
HETATM    7  C2  UNL     1     -36.909  16.185  -6.235  1.00 20.00     0.022 C 
HETATM    8  C3  UNL     1     -38.304  14.455  -5.100  1.00 20.00     0.022 C 
HETATM    9  C4  UNL     1     -36.658  15.836  -3.777  1.00 20.00     0.022 C 
ENDBRANCH   1   6
TORSDOF 2
ENDMDL
