MODEL 1
REMARK VINA RESULT:      -5.2      0.000      0.000
REMARK  1 active torsions:
REMARK  status: ('A' for Active; 'I' for Inactive)
REMARK    1  A    between atoms: C4_4  and  C8_8 
ROOT
HETATM    1  C1  UNL     1     -32.232   7.956   4.098  1.00 20.00    -0.007 C 
HETATM    2  C2  UNL     1     -32.621   7.785   2.828  1.00 20.00     0.009 C 
HETATM    3  C5  UNL     1     -33.044   7.491   5.270  1.00 20.00     0.029 C 
HETATM    4  C6  UNL     1     -33.889   7.086   2.430  1.00 20.00     0.061 C 
HETATM    5  C7  UNL     1     -34.468   7.062   4.894  1.00 20.00     0.014 C 
HETATM    6  C8  UNL     1     -34.533   6.278   3.575  1.00 20.00     0.035 C 
HETATM    7 CL9  UNL     1     -31.642   8.362   1.526  1.00 20.00    -0.089 Cl
ENDROOT
BRANCH   6   8
HETATM    8  C4  UNL     1     -33.918   4.914   3.692  1.00 20.00     0.007 C 
HETATM    9  C3  UNL     1     -34.176   4.050   4.681  1.00 20.00     0.032 C 
HETATM   10 CL10 UNL     1     -32.810   4.488   2.433  1.00 20.00    -0.089 Cl
ENDBRANCH   6   8
TORSDOF 1
ENDMDL
MODEL 2
REMARK VINA RESULT:      -4.1      2.060      4.023
REMARK  1 active torsions:
REMARK  status: ('A' for Active; 'I' for Inactive)
REMARK    1  A    between atoms: C4_4  and  C8_8 
ROOT
HETATM    1  C1  UNL     1     -33.609   4.333   3.967  1.00 20.00    -0.007 C 
HETATM    2  C2  UNL     1     -34.439   5.121   4.662  1.00 20.00     0.009 C 
HETATM    3  C5  UNL     1     -33.030   4.725   2.640  1.00 20.00     0.029 C 
HETATM    4  C6  UNL     1     -34.859   6.492   4.214  1.00 20.00     0.061 C 
HETATM    5  C7  UNL     1     -33.687   5.971   2.032  1.00 20.00     0.014 C 
HETATM    6  C8  UNL     1     -33.994   7.059   3.071  1.00 20.00     0.035 C 
HETATM    7 CL9  UNL     1     -35.083   4.596   6.178  1.00 20.00    -0.089 Cl
ENDROOT
BRANCH   6   8
HETATM    8  C4  UNL     1     -32.748   7.707   3.602  1.00 20.00     0.007 C 
HETATM    9  C3  UNL     1     -31.721   8.105   2.843  1.00 20.00     0.032 C 
HETATM   10 CL10 UNL     1     -32.698   7.927   5.318  1.00 20.00    -0.089 Cl
ENDBRANCH   6   8
TORSDOF 1
ENDMDL
MODEL 3
REMARK VINA RESULT:      -4.0     11.479     12.707
REMARK  1 active torsions:
REMARK  status: ('A' for Active; 'I' for Inactive)
REMARK    1  A    between atoms: C4_4  and  C8_8 
ROOT
HETATM    1  C1  UNL     1     -36.510  15.376  -4.005  1.00 20.00    -0.007 C 
HETATM    2  C2  UNL     1     -35.590  14.526  -4.479  1.00 20.00     0.009 C 
HETATM    3  C5  UNL     1     -36.171  16.524  -3.100  1.00 20.00     0.029 C 
HETATM    4  C6  UNL     1     -34.120  14.638  -4.188  1.00 20.00     0.061 C 
HETATM    5  C7  UNL     1     -34.741  16.466  -2.551  1.00 20.00     0.014 C 
HETATM    6  C8  UNL     1     -33.712  16.000  -3.592  1.00 20.00     0.035 C 
HETATM    7 CL9  UNL     1     -36.054  13.214  -5.504  1.00 20.00    -0.089 Cl
ENDROOT
BRANCH   6   8
HETATM    8  C4  UNL     1     -33.490  17.022  -4.670  1.00 20.00     0.007 C 
HETATM    9  C3  UNL     1     -33.375  18.337  -4.453  1.00 20.00     0.032 C 
HETATM   10 CL10 UNL     1     -33.386  16.393  -6.278  1.00 20.00    -0.089 Cl
ENDBRANCH   6   8
TORSDOF 1
ENDMDL
MODEL 4
REMARK VINA RESULT:      -3.9      1.862      2.833
REMARK  1 active torsions:
REMARK  status: ('A' for Active; 'I' for Inactive)
REMARK    1  A    between atoms: C4_4  and  C8_8 
ROOT
HETATM    1  C1  UNL     1     -32.144   6.330   2.633  1.00 20.00    -0.007 C 
HETATM    2  C2  UNL     1     -33.127   5.422   2.593  1.00 20.00     0.009 C 
HETATM    3  C5  UNL     1     -32.326   7.706   3.202  1.00 20.00     0.029 C 
HETATM    4  C6  UNL     1     -34.507   5.660   3.137  1.00 20.00     0.061 C 
HETATM    5  C7  UNL     1     -33.792   8.065   3.472  1.00 20.00     0.014 C 
HETATM    6  C8  UNL     1     -34.603   6.897   4.052  1.00 20.00     0.035 C 
HETATM    7 CL9  UNL     1     -32.850   3.860   1.906  1.00 20.00    -0.089 Cl
ENDROOT
BRANCH   6   8
HETATM    8  C4  UNL     1     -34.198   6.567   5.459  1.00 20.00     0.007 C 
HETATM    9  C3  UNL     1     -33.639   7.436   6.309  1.00 20.00     0.032 C 
HETATM   10 CL10 UNL     1     -34.500   4.937   5.956  1.00 20.00    -0.089 Cl
ENDBRANCH   6   8
TORSDOF 1
ENDMDL
MODEL 5
REMARK VINA RESULT:      -3.9      2.138      2.997
REMARK  1 active torsions:
REMARK  status: ('A' for Active; 'I' for Inactive)
REMARK    1  A    between atoms: C4_4  and  C8_8 
ROOT
HETATM    1  C1  UNL     1     -34.112   5.727   6.088  1.00 20.00    -0.007 C 
HETATM    2  C2  UNL     1     -33.982   6.987   5.653  1.00 20.00     0.009 C 
HETATM    3  C5  UNL     1     -34.638   4.617   5.226  1.00 20.00     0.029 C 
HETATM    4  C6  UNL     1     -34.314   7.428   4.256  1.00 20.00     0.061 C 
HETATM    5  C7  UNL     1     -35.266   5.107   3.915  1.00 20.00     0.014 C 
HETATM    6  C8  UNL     1     -34.485   6.259   3.265  1.00 20.00     0.035 C 
HETATM    7 CL9  UNL     1     -33.385   8.220   6.707  1.00 20.00    -0.089 Cl
ENDROOT
BRANCH   6   8
HETATM    8  C4  UNL     1     -33.161   5.811   2.718  1.00 20.00     0.007 C 
HETATM    9  C3  UNL     1     -32.885   4.559   2.335  1.00 20.00     0.032 C 
HETATM   10 CL10 UNL     1     -31.951   7.043   2.600  1.00 20.00    -0.089 Cl
ENDBRANCH   6   8
TORSDOF 1
ENDMDL
MODEL 6
REMARK VINA RESULT:      -3.9     11.475     12.452
REMARK  1 active torsions:
REMARK  status: ('A' for Active; 'I' for Inactive)
REMARK    1  A    between atoms: C4_4  and  C8_8 
ROOT
HETATM    1  C1  UNL     1     -35.010  14.066  -4.464  1.00 20.00    -0.007 C 
HETATM    2  C2  UNL     1     -36.002  14.945  -4.657  1.00 20.00     0.009 C 
HETATM    3  C5  UNL     1     -33.582  14.478  -4.263  1.00 20.00     0.029 C 
HETATM    4  C6  UNL     1     -35.808  16.435  -4.665  1.00 20.00     0.061 C 
HETATM    5  C7  UNL     1     -33.324  15.958  -4.576  1.00 20.00     0.014 C 
HETATM    6  C8  UNL     1     -34.450  16.883  -4.090  1.00 20.00     0.035 C 
HETATM    7 CL9  UNL     1     -37.624  14.398  -4.900  1.00 20.00    -0.089 Cl
ENDROOT
BRANCH   6   8
HETATM    8  C4  UNL     1     -34.498  16.982  -2.592  1.00 20.00     0.007 C 
HETATM    9  C3  UNL     1     -35.591  16.756  -1.855  1.00 20.00     0.032 C 
HETATM   10 CL10 UNL     1     -33.009  17.421  -1.829  1.00 20.00    -0.089 Cl
ENDBRANCH   6   8
TORSDOF 1
ENDMDL
MODEL 7
REMARK VINA RESULT:      -3.8     11.521     12.646
REMARK  1 active torsions:
REMARK  status: ('A' for Active; 'I' for Inactive)
REMARK    1  A    between atoms: C4_4  and  C8_8 
ROOT
HETATM    1  C1  UNL     1     -34.800  17.153  -4.603  1.00 20.00    -0.007 C 
HETATM    2  C2  UNL     1     -34.714  16.228  -3.638  1.00 20.00     0.009 C 
HETATM    3  C5  UNL     1     -34.200  16.970  -5.965  1.00 20.00     0.029 C 
HETATM    4  C6  UNL     1     -34.040  14.898  -3.816  1.00 20.00     0.061 C 
HETATM    5  C7  UNL     1     -33.254  15.767  -6.059  1.00 20.00     0.014 C 
HETATM    6  C8  UNL     1     -33.761  14.539  -5.289  1.00 20.00     0.035 C 
HETATM    7 CL9  UNL     1     -35.414  16.514  -2.084  1.00 20.00    -0.089 Cl
ENDROOT
BRANCH   6   8
HETATM    8  C4  UNL     1     -34.966  13.919  -5.936  1.00 20.00     0.007 C 
HETATM    9  C3  UNL     1     -36.046  13.494  -5.271  1.00 20.00     0.032 C 
HETATM   10 CL10 UNL     1     -34.891  13.774  -7.658  1.00 20.00    -0.089 Cl
ENDBRANCH   6   8
TORSDOF 1
ENDMDL
MODEL 8
REMARK VINA RESULT:      -3.8     11.299     13.087
REMARK  1 active torsions:
REMARK  status: ('A' for Active; 'I' for Inactive)
REMARK    1  A    between atoms: C4_4  and  C8_8 
ROOT
HETATM    1  C1  UNL     1     -35.506  14.177  -5.444  1.00 20.00    -0.007 C 
HETATM    2  C2  UNL     1     -35.067  14.866  -6.505  1.00 20.00     0.009 C 
HETATM    3  C5  UNL     1     -34.694  13.993  -4.197  1.00 20.00     0.029 C 
HETATM    4  C6  UNL     1     -33.735  15.557  -6.559  1.00 20.00     0.061 C 
HETATM    5  C7  UNL     1     -33.229  14.421  -4.354  1.00 20.00     0.014 C 
HETATM    6  C8  UNL     1     -33.061  15.705  -5.181  1.00 20.00     0.035 C 
HETATM    7 CL9  UNL     1     -36.052  15.022  -7.918  1.00 20.00    -0.089 Cl
ENDROOT
BRANCH   6   8
HETATM    8  C4  UNL     1     -33.565  16.919  -4.455  1.00 20.00     0.007 C 
HETATM    9  C3  UNL     1     -34.027  18.021  -5.056  1.00 20.00     0.032 C 
HETATM   10 CL10 UNL     1     -33.522  16.823  -2.728  1.00 20.00    -0.089 Cl
ENDBRANCH   6   8
TORSDOF 1
ENDMDL
MODEL 9
REMARK VINA RESULT:      -3.8     11.401     12.661
REMARK  1 active torsions:
REMARK  status: ('A' for Active; 'I' for Inactive)
REMARK    1  A    between atoms: C4_4  and  C8_8 
ROOT
HETATM    1  C1  UNL     1     -33.532  16.452  -5.225  1.00 20.00    -0.007 C 
HETATM    2  C2  UNL     1     -33.859  15.876  -4.061  1.00 20.00     0.009 C 
HETATM    3  C5  UNL     1     -33.759  15.795  -6.554  1.00 20.00     0.029 C 
HETATM    4  C6  UNL     1     -34.514  14.528  -3.952  1.00 20.00     0.061 C 
HETATM    5  C7  UNL     1     -34.134  14.312  -6.444  1.00 20.00     0.014 C 
HETATM    6  C8  UNL     1     -35.096  14.016  -5.284  1.00 20.00     0.035 C 
HETATM    7 CL9  UNL     1     -33.552  16.685  -2.565  1.00 20.00    -0.089 Cl
ENDROOT
BRANCH   6   8
HETATM    8  C4  UNL     1     -36.469  14.570  -5.528  1.00 20.00     0.007 C 
HETATM    9  C3  UNL     1     -37.284  15.023  -4.568  1.00 20.00     0.032 C 
HETATM   10 CL10 UNL     1     -36.975  14.599  -7.183  1.00 20.00    -0.089 Cl
ENDBRANCH   6   8
TORSDOF 1
ENDMDL
