MODEL 1
REMARK VINA RESULT:      -4.0      0.000      0.000
REMARK  2 active torsions:
REMARK  status: ('A' for Active; 'I' for Inactive)
REMARK    1  A    between atoms: C1_1  and  C6_6 
REMARK    2  A    between atoms: C6_6  and  O8_8 
ROOT
HETATM    1  C3  UNL     1     -33.329   5.211   3.072  1.00 20.00     0.054 C 
HETATM    2  C4  UNL     1     -35.631   6.186   3.280  1.00 20.00     0.054 C 
HETATM    3  C6  UNL     1     -34.187   6.269   3.767  1.00 20.00     0.112 C 
ENDROOT
BRANCH   3   4
HETATM    4  C1  UNL     1     -34.139   6.107   5.291  1.00 20.00     0.156 C 
HETATM    5  C2  UNL     1     -33.715   7.300   6.115  1.00 20.00     0.094 C 
HETATM    6  O7  UNL     1     -34.462   5.055   5.844  1.00 20.00    -0.295 OA
ENDBRANCH   3   4
BRANCH   3   7
HETATM    7  O8  UNL     1     -33.677   7.551   3.427  1.00 20.00    -0.378 OA
HETATM    8  C5  UNL     1     -32.509   7.453   2.624  1.00 20.00     0.203 C 
ENDBRANCH   3   7
TORSDOF 2
ENDMDL
MODEL 2
REMARK VINA RESULT:      -3.9      1.253      2.577
REMARK  2 active torsions:
REMARK  status: ('A' for Active; 'I' for Inactive)
REMARK    1  A    between atoms: C1_1  and  C6_6 
REMARK    2  A    between atoms: C6_6  and  O8_8 
ROOT
HETATM    1  C3  UNL     1     -33.434   7.148   3.531  1.00 20.00     0.054 C 
HETATM    2  C4  UNL     1     -35.782   6.266   3.558  1.00 20.00     0.054 C 
HETATM    3  C6  UNL     1     -34.363   6.067   4.083  1.00 20.00     0.112 C 
ENDROOT
BRANCH   3   4
HETATM    4  C1  UNL     1     -33.862   4.665   3.716  1.00 20.00     0.156 C 
HETATM    5  C2  UNL     1     -32.901   4.540   2.557  1.00 20.00     0.094 C 
HETATM    6  O7  UNL     1     -34.198   3.666   4.353  1.00 20.00    -0.295 OA
ENDBRANCH   3   4
BRANCH   3   7
HETATM    7  O8  UNL     1     -34.393   6.184   5.499  1.00 20.00    -0.378 OA
HETATM    8  C5  UNL     1     -33.664   7.320   5.945  1.00 20.00     0.203 C 
ENDBRANCH   3   7
TORSDOF 2
ENDMDL
MODEL 3
REMARK VINA RESULT:      -3.8      1.287      2.780
REMARK  2 active torsions:
REMARK  status: ('A' for Active; 'I' for Inactive)
REMARK    1  A    between atoms: C1_1  and  C6_6 
REMARK    2  A    between atoms: C6_6  and  O8_8 
ROOT
HETATM    1  C3  UNL     1     -35.769   6.164   3.463  1.00 20.00     0.054 C 
HETATM    2  C4  UNL     1     -34.368   4.985   5.177  1.00 20.00     0.054 C 
HETATM    3  C6  UNL     1     -34.394   6.093   4.127  1.00 20.00     0.112 C 
ENDROOT
BRANCH   3   4
HETATM    4  C1  UNL     1     -33.290   5.858   3.091  1.00 20.00     0.156 C 
HETATM    5  C2  UNL     1     -32.495   7.054   2.622  1.00 20.00     0.094 C 
HETATM    6  O7  UNL     1     -33.025   4.733   2.666  1.00 20.00    -0.295 OA
ENDBRANCH   3   4
BRANCH   3   7
HETATM    7  O8  UNL     1     -34.151   7.330   4.783  1.00 20.00    -0.378 OA
HETATM    8  C5  UNL     1     -33.811   7.140   6.150  1.00 20.00     0.203 C 
ENDBRANCH   3   7
TORSDOF 2
ENDMDL
MODEL 4
REMARK VINA RESULT:      -3.8      1.163      1.910
REMARK  2 active torsions:
REMARK  status: ('A' for Active; 'I' for Inactive)
REMARK    1  A    between atoms: C1_1  and  C6_6 
REMARK    2  A    between atoms: C6_6  and  O8_8 
ROOT
HETATM    1  C3  UNL     1     -35.664   6.170   3.383  1.00 20.00     0.054 C 
HETATM    2  C4  UNL     1     -33.290   6.975   3.278  1.00 20.00     0.054 C 
HETATM    3  C6  UNL     1     -34.247   5.975   3.923  1.00 20.00     0.112 C 
ENDROOT
BRANCH   3   4
HETATM    4  C1  UNL     1     -34.210   6.125   5.448  1.00 20.00     0.156 C 
HETATM    5  C2  UNL     1     -33.644   7.404   6.019  1.00 20.00     0.094 C 
HETATM    6  O7  UNL     1     -34.651   5.253   6.199  1.00 20.00    -0.295 OA
ENDBRANCH   3   4
BRANCH   3   7
HETATM    7  O8  UNL     1     -33.815   4.666   3.582  1.00 20.00    -0.378 OA
HETATM    8  C5  UNL     1     -32.921   4.680   2.477  1.00 20.00     0.203 C 
ENDBRANCH   3   7
TORSDOF 2
ENDMDL
MODEL 5
REMARK VINA RESULT:      -3.7      1.633      2.017
REMARK  2 active torsions:
REMARK  status: ('A' for Active; 'I' for Inactive)
REMARK    1  A    between atoms: C1_1  and  C6_6 
REMARK    2  A    between atoms: C6_6  and  O8_8 
ROOT
HETATM    1  C3  UNL     1     -34.218   4.483   4.598  1.00 20.00     0.054 C 
HETATM    2  C4  UNL     1     -35.726   6.208   3.576  1.00 20.00     0.054 C 
HETATM    3  C6  UNL     1     -34.276   5.799   3.823  1.00 20.00     0.112 C 
ENDROOT
BRANCH   3   4
HETATM    4  C1  UNL     1     -33.538   6.915   4.571  1.00 20.00     0.156 C 
HETATM    5  C2  UNL     1     -33.899   7.155   6.018  1.00 20.00     0.094 C 
HETATM    6  O7  UNL     1     -32.655   7.586   4.033  1.00 20.00    -0.295 OA
ENDBRANCH   3   4
BRANCH   3   7
HETATM    7  O8  UNL     1     -33.650   5.603   2.562  1.00 20.00    -0.378 OA
HETATM    8  C5  UNL     1     -32.892   4.400   2.536  1.00 20.00     0.203 C 
ENDBRANCH   3   7
TORSDOF 2
ENDMDL
MODEL 6
REMARK VINA RESULT:      -3.7      1.356      1.922
REMARK  2 active torsions:
REMARK  status: ('A' for Active; 'I' for Inactive)
REMARK    1  A    between atoms: C1_1  and  C6_6 
REMARK    2  A    between atoms: C6_6  and  O8_8 
ROOT
HETATM    1  C3  UNL     1     -35.340   6.426   3.031  1.00 20.00     0.054 C 
HETATM    2  C4  UNL     1     -33.809   7.231   4.848  1.00 20.00     0.054 C 
HETATM    3  C6  UNL     1     -34.115   6.089   3.882  1.00 20.00     0.112 C 
ENDROOT
BRANCH   3   4
HETATM    4  C1  UNL     1     -34.325   4.787   4.663  1.00 20.00     0.156 C 
HETATM    5  C2  UNL     1     -34.657   4.890   6.133  1.00 20.00     0.094 C 
HETATM    6  O7  UNL     1     -34.259   3.683   4.119  1.00 20.00    -0.295 OA
ENDBRANCH   3   4
BRANCH   3   7
HETATM    7  O8  UNL     1     -33.000   5.928   3.017  1.00 20.00    -0.378 OA
HETATM    8  C5  UNL     1     -32.401   7.177   2.698  1.00 20.00     0.203 C 
ENDBRANCH   3   7
TORSDOF 2
ENDMDL
MODEL 7
REMARK VINA RESULT:      -3.6      1.412      2.840
REMARK  2 active torsions:
REMARK  status: ('A' for Active; 'I' for Inactive)
REMARK    1  A    between atoms: C1_1  and  C6_6 
REMARK    2  A    between atoms: C6_6  and  O8_8 
ROOT
HETATM    1  C3  UNL     1     -34.476   5.838   5.669  1.00 20.00     0.054 C 
HETATM    2  C4  UNL     1     -35.442   6.331   3.407  1.00 20.00     0.054 C 
HETATM    3  C6  UNL     1     -34.161   6.047   4.188  1.00 20.00     0.112 C 
ENDROOT
BRANCH   3   4
HETATM    4  C1  UNL     1     -33.163   7.195   3.991  1.00 20.00     0.156 C 
HETATM    5  C2  UNL     1     -32.771   7.556   2.578  1.00 20.00     0.094 C 
HETATM    6  O7  UNL     1     -32.710   7.833   4.942  1.00 20.00    -0.295 OA
ENDBRANCH   3   4
BRANCH   3   7
HETATM    7  O8  UNL     1     -33.587   4.851   3.679  1.00 20.00    -0.378 OA
HETATM    8  C5  UNL     1     -34.086   3.704   4.354  1.00 20.00     0.203 C 
ENDBRANCH   3   7
TORSDOF 2
ENDMDL
MODEL 8
REMARK VINA RESULT:      -3.6      1.080      2.719
REMARK  2 active torsions:
REMARK  status: ('A' for Active; 'I' for Inactive)
REMARK    1  A    between atoms: C1_1  and  C6_6 
REMARK    2  A    between atoms: C6_6  and  O8_8 
ROOT
HETATM    1  C3  UNL     1     -35.515   6.308   3.353  1.00 20.00     0.054 C 
HETATM    2  C4  UNL     1     -33.297   5.313   2.734  1.00 20.00     0.054 C 
HETATM    3  C6  UNL     1     -34.135   5.899   3.868  1.00 20.00     0.112 C 
ENDROOT
BRANCH   3   4
HETATM    4  C1  UNL     1     -33.403   7.089   4.497  1.00 20.00     0.156 C 
HETATM    5  C2  UNL     1     -33.693   7.413   5.943  1.00 20.00     0.094 C 
HETATM    6  O7  UNL     1     -32.578   7.753   3.867  1.00 20.00    -0.295 OA
ENDBRANCH   3   4
BRANCH   3   7
HETATM    7  O8  UNL     1     -34.307   4.893   4.857  1.00 20.00    -0.378 OA
HETATM    8  C5  UNL     1     -33.988   3.603   4.353  1.00 20.00     0.203 C 
ENDBRANCH   3   7
TORSDOF 2
ENDMDL
MODEL 9
REMARK VINA RESULT:      -3.5     11.621     12.804
REMARK  2 active torsions:
REMARK  status: ('A' for Active; 'I' for Inactive)
REMARK    1  A    between atoms: C1_1  and  C6_6 
REMARK    2  A    between atoms: C6_6  and  O8_8 
ROOT
HETATM    1  C3  UNL     1     -36.827  15.892  -4.059  1.00 20.00     0.054 C 
HETATM    2  C4  UNL     1     -36.901  15.316  -6.499  1.00 20.00     0.054 C 
HETATM    3  C6  UNL     1     -36.908  14.756  -5.079  1.00 20.00     0.112 C 
ENDROOT
BRANCH   3   4
HETATM    4  C1  UNL     1     -35.751  13.767  -4.900  1.00 20.00     0.156 C 
HETATM    5  C2  UNL     1     -34.519  14.246  -4.169  1.00 20.00     0.094 C 
HETATM    6  O7  UNL     1     -35.818  12.606  -5.307  1.00 20.00    -0.295 OA
ENDBRANCH   3   4
BRANCH   3   7
HETATM    7  O8  UNL     1     -38.134  14.065  -4.881  1.00 20.00    -0.378 OA
HETATM    8  C5  UNL     1     -39.252  14.883  -5.198  1.00 20.00     0.203 C 
ENDBRANCH   3   7
TORSDOF 2
ENDMDL
