MODEL 1
REMARK VINA RESULT:      -3.2      0.000      0.000
REMARK  0 active torsions:
REMARK  status: ('A' for Active; 'I' for Inactive)
ROOT
HETATM    1  C1  UNL     1     -23.930  17.212  10.277  1.00 20.00     0.196 C 
HETATM    2  C2  UNL     1     -23.231  18.070  11.297  1.00 20.00     0.196 C 
HETATM    3  C3  UNL     1     -24.872  19.263  10.309  1.00 20.00     0.337 C 
HETATM    4  O4  UNL     1     -24.579  18.166   9.438  1.00 20.00    -0.365 OA
HETATM    5  O5  UNL     1     -24.171  19.113  11.547  1.00 20.00    -0.365 OA
ENDROOT
TORSDOF 0
ENDMDL
MODEL 2
REMARK VINA RESULT:      -3.1      0.096      1.764
REMARK  0 active torsions:
REMARK  status: ('A' for Active; 'I' for Inactive)
ROOT
HETATM    1  C1  UNL     1     -23.180  18.130  11.207  1.00 20.00     0.196 C 
HETATM    2  C2  UNL     1     -23.916  17.217  10.265  1.00 20.00     0.196 C 
HETATM    3  C3  UNL     1     -24.865  19.263  10.224  1.00 20.00     0.337 C 
HETATM    4  O4  UNL     1     -24.114  19.183  11.439  1.00 20.00    -0.365 OA
HETATM    5  O5  UNL     1     -24.604  18.121   9.403  1.00 20.00    -0.365 OA
ENDROOT
TORSDOF 0
ENDMDL
MODEL 3
REMARK VINA RESULT:      -3.1     16.333     17.118
REMARK  0 active torsions:
REMARK  status: ('A' for Active; 'I' for Inactive)
ROOT
HETATM    1  C1  UNL     1     -34.828   5.918   3.705  1.00 20.00     0.196 C 
HETATM    2  C2  UNL     1     -34.598   4.812   4.699  1.00 20.00     0.196 C 
HETATM    3  C3  UNL     1     -34.009   6.785   5.621  1.00 20.00     0.337 C 
HETATM    4  O4  UNL     1     -34.016   6.979   4.203  1.00 20.00    -0.365 OA
HETATM    5  O5  UNL     1     -34.544   5.499   5.948  1.00 20.00    -0.365 OA
ENDROOT
TORSDOF 0
ENDMDL
MODEL 4
REMARK VINA RESULT:      -3.1     16.337     17.149
REMARK  0 active torsions:
REMARK  status: ('A' for Active; 'I' for Inactive)
ROOT
HETATM    1  C1  UNL     1     -34.597   4.807   4.695  1.00 20.00     0.196 C 
HETATM    2  C2  UNL     1     -34.830   5.916   3.706  1.00 20.00     0.196 C 
HETATM    3  C3  UNL     1     -34.014   6.779   5.624  1.00 20.00     0.337 C 
HETATM    4  O4  UNL     1     -34.545   5.490   5.946  1.00 20.00    -0.365 OA
HETATM    5  O5  UNL     1     -34.021   6.978   4.208  1.00 20.00    -0.365 OA
ENDROOT
TORSDOF 0
ENDMDL
MODEL 5
REMARK VINA RESULT:      -3.1     16.159     16.730
REMARK  0 active torsions:
REMARK  status: ('A' for Active; 'I' for Inactive)
ROOT
HETATM    1  C1  UNL     1     -33.485   7.164   4.234  1.00 20.00     0.196 C 
HETATM    2  C2  UNL     1     -33.876   7.158   5.687  1.00 20.00     0.196 C 
HETATM    3  C3  UNL     1     -34.864   5.423   4.635  1.00 20.00     0.337 C 
HETATM    4  O4  UNL     1     -34.493   6.361   3.621  1.00 20.00    -0.365 OA
HETATM    5  O5  UNL     1     -34.326   5.821   5.900  1.00 20.00    -0.365 OA
ENDROOT
TORSDOF 0
ENDMDL
MODEL 6
REMARK VINA RESULT:      -3.0     16.222     16.807
REMARK  0 active torsions:
REMARK  status: ('A' for Active; 'I' for Inactive)
ROOT
HETATM    1  C1  UNL     1     -33.907   7.090   5.759  1.00 20.00     0.196 C 
HETATM    2  C2  UNL     1     -33.476   7.165   4.319  1.00 20.00     0.196 C 
HETATM    3  C3  UNL     1     -34.882   5.422   4.592  1.00 20.00     0.337 C 
HETATM    4  O4  UNL     1     -34.376   5.749   5.890  1.00 20.00    -0.365 OA
HETATM    5  O5  UNL     1     -34.474   6.406   3.638  1.00 20.00    -0.365 OA
ENDROOT
TORSDOF 0
ENDMDL
MODEL 7
REMARK VINA RESULT:      -3.0     15.984     16.836
REMARK  0 active torsions:
REMARK  status: ('A' for Active; 'I' for Inactive)
ROOT
HETATM    1  C1  UNL     1     -34.462   5.839   5.685  1.00 20.00     0.196 C 
HETATM    2  C2  UNL     1     -34.988   5.541   4.307  1.00 20.00     0.196 C 
HETATM    3  C3  UNL     1     -33.477   7.212   4.189  1.00 20.00     0.337 C 
HETATM    4  O4  UNL     1     -33.916   7.150   5.549  1.00 20.00    -0.365 OA
HETATM    5  O5  UNL     1     -33.998   6.105   3.448  1.00 20.00    -0.365 OA
ENDROOT
TORSDOF 0
ENDMDL
MODEL 8
REMARK VINA RESULT:      -2.9     16.423     17.222
REMARK  0 active torsions:
REMARK  status: ('A' for Active; 'I' for Inactive)
ROOT
HETATM    1  C1  UNL     1     -34.679   5.221   5.491  1.00 20.00     0.196 C 
HETATM    2  C2  UNL     1     -34.037   6.581   5.499  1.00 20.00     0.196 C 
HETATM    3  C3  UNL     1     -34.102   5.793   3.386  1.00 20.00     0.337 C 
HETATM    4  O4  UNL     1     -34.248   4.663   4.251  1.00 20.00    -0.365 OA
HETATM    5  O5  UNL     1     -34.153   7.006   4.142  1.00 20.00    -0.365 OA
ENDROOT
TORSDOF 0
ENDMDL
MODEL 9
REMARK VINA RESULT:      -2.9      1.304      2.064
REMARK  0 active torsions:
REMARK  status: ('A' for Active; 'I' for Inactive)
ROOT
HETATM    1  C1  UNL     1     -25.395  18.172  11.371  1.00 20.00     0.196 C 
HETATM    2  C2  UNL     1     -24.581  19.259  10.723  1.00 20.00     0.196 C 
HETATM    3  C3  UNL     1     -23.989  17.261   9.859  1.00 20.00     0.337 C 
HETATM    4  O4  UNL     1     -24.635  16.994  11.107  1.00 20.00    -0.365 OA
HETATM    5  O5  UNL     1     -24.110  18.647   9.524  1.00 20.00    -0.365 OA
ENDROOT
TORSDOF 0
ENDMDL
