MODEL 1
REMARK VINA RESULT:      -3.5      0.000      0.000
REMARK  3 active torsions:
REMARK  status: ('A' for Active; 'I' for Inactive)
REMARK    1  A    between atoms: C3_3  and  C4_4 
REMARK    2  A    between atoms: C3_3  and  N5_5 
REMARK    3  A    between atoms: C4_4  and  O6_6 
ROOT
HETATM    1  C1  UNL     1     -32.262   8.216   2.470  1.00 20.00     0.157 C 
HETATM    2  N5  UNL     1     -32.276   7.577   3.455  1.00 20.00    -0.273 NA
HETATM    3  S7  UNL     1     -32.214   9.084   1.136  1.00 20.00    -0.055 SA
ENDROOT
BRANCH   2   4
HETATM    4  C3  UNL     1     -33.606   7.140   3.887  1.00 20.00     0.176 C 
BRANCH   4   5
HETATM    5  C4  UNL     1     -33.684   7.207   5.402  1.00 20.00     0.189 C 
BRANCH   5   6
HETATM    6  O6  UNL     1     -34.389   6.072   5.886  1.00 20.00    -0.394 OA
HETATM    7  C2  UNL     1     -34.666   5.146   4.845  1.00 20.00     0.201 C 
ENDBRANCH   5   6
ENDBRANCH   4   5
ENDBRANCH   2   4
TORSDOF 3
ENDMDL
MODEL 2
REMARK VINA RESULT:      -3.5      1.021      1.078
REMARK  3 active torsions:
REMARK  status: ('A' for Active; 'I' for Inactive)
REMARK    1  A    between atoms: C3_3  and  C4_4 
REMARK    2  A    between atoms: C3_3  and  N5_5 
REMARK    3  A    between atoms: C4_4  and  O6_6 
ROOT
HETATM    1  C1  UNL     1     -32.258   8.401   2.096  1.00 20.00     0.157 C 
HETATM    2  N5  UNL     1     -32.182   7.656   3.001  1.00 20.00    -0.273 NA
HETATM    3  S7  UNL     1     -32.338   9.427   0.880  1.00 20.00    -0.055 SA
ENDROOT
BRANCH   2   4
HETATM    4  C3  UNL     1     -33.161   6.566   2.984  1.00 20.00     0.176 C 
BRANCH   4   5
HETATM    5  C4  UNL     1     -34.091   6.714   4.174  1.00 20.00     0.189 C 
BRANCH   5   6
HETATM    6  O6  UNL     1     -35.058   5.672   4.148  1.00 20.00    -0.394 OA
HETATM    7  C2  UNL     1     -34.491   4.425   4.523  1.00 20.00     0.201 C 
ENDBRANCH   5   6
ENDBRANCH   4   5
ENDBRANCH   2   4
TORSDOF 3
ENDMDL
MODEL 3
REMARK VINA RESULT:      -3.4      1.268      1.754
REMARK  3 active torsions:
REMARK  status: ('A' for Active; 'I' for Inactive)
REMARK    1  A    between atoms: C3_3  and  C4_4 
REMARK    2  A    between atoms: C3_3  and  N5_5 
REMARK    3  A    between atoms: C4_4  and  O6_6 
ROOT
HETATM    1  C1  UNL     1     -32.828   6.959   2.571  1.00 20.00     0.157 C 
HETATM    2  N5  UNL     1     -33.366   5.940   2.791  1.00 20.00    -0.273 NA
HETATM    3  S7  UNL     1     -32.076   8.328   2.256  1.00 20.00    -0.055 SA
ENDROOT
BRANCH   2   4
HETATM    4  C3  UNL     1     -34.579   6.048   3.607  1.00 20.00     0.176 C 
BRANCH   4   5
HETATM    5  C4  UNL     1     -34.575   4.949   4.654  1.00 20.00     0.189 C 
BRANCH   5   6
HETATM    6  O6  UNL     1     -34.599   5.534   5.949  1.00 20.00    -0.394 OA
HETATM    7  C2  UNL     1     -34.052   6.845   5.940  1.00 20.00     0.201 C 
ENDBRANCH   5   6
ENDBRANCH   4   5
ENDBRANCH   2   4
TORSDOF 3
ENDMDL
MODEL 4
REMARK VINA RESULT:      -3.3      1.106      1.106
REMARK  3 active torsions:
REMARK  status: ('A' for Active; 'I' for Inactive)
REMARK    1  A    between atoms: C3_3  and  C4_4 
REMARK    2  A    between atoms: C3_3  and  N5_5 
REMARK    3  A    between atoms: C4_4  and  O6_6 
ROOT
HETATM    1  C1  UNL     1     -32.485   7.868   3.343  1.00 20.00     0.157 C 
HETATM    2  N5  UNL     1     -32.832   7.455   4.385  1.00 20.00    -0.273 NA
HETATM    3  S7  UNL     1     -31.991   8.442   1.941  1.00 20.00    -0.055 SA
ENDROOT
BRANCH   2   4
HETATM    4  C3  UNL     1     -34.041   6.626   4.348  1.00 20.00     0.176 C 
BRANCH   4   5
HETATM    5  C4  UNL     1     -34.357   6.145   5.752  1.00 20.00     0.189 C 
BRANCH   5   6
HETATM    6  O6  UNL     1     -34.557   4.737   5.732  1.00 20.00    -0.394 OA
HETATM    7  C2  UNL     1     -34.390   4.206   4.425  1.00 20.00     0.201 C 
ENDBRANCH   5   6
ENDBRANCH   4   5
ENDBRANCH   2   4
TORSDOF 3
ENDMDL
MODEL 5
REMARK VINA RESULT:      -3.2      3.445      4.508
REMARK  3 active torsions:
REMARK  status: ('A' for Active; 'I' for Inactive)
REMARK    1  A    between atoms: C3_3  and  C4_4 
REMARK    2  A    between atoms: C3_3  and  N5_5 
REMARK    3  A    between atoms: C4_4  and  O6_6 
ROOT
HETATM    1  C1  UNL     1     -34.045   6.233   4.312  1.00 20.00     0.157 C 
HETATM    2  N5  UNL     1     -33.549   7.241   3.971  1.00 20.00    -0.273 NA
HETATM    3  S7  UNL     1     -34.728   4.878   4.798  1.00 20.00    -0.055 SA
ENDROOT
BRANCH   2   4
HETATM    4  C3  UNL     1     -32.823   7.172   2.700  1.00 20.00     0.176 C 
BRANCH   4   5
HETATM    5  C4  UNL     1     -31.896   8.369   2.591  1.00 20.00     0.189 C 
BRANCH   5   6
HETATM    6  O6  UNL     1     -31.867   8.819   1.242  1.00 20.00    -0.394 OA
HETATM    7  C2  UNL     1     -32.586  10.033   1.082  1.00 20.00     0.201 C 
ENDBRANCH   5   6
ENDBRANCH   4   5
ENDBRANCH   2   4
TORSDOF 3
ENDMDL
MODEL 6
REMARK VINA RESULT:      -3.2      3.378      4.208
REMARK  3 active torsions:
REMARK  status: ('A' for Active; 'I' for Inactive)
REMARK    1  A    between atoms: C3_3  and  C4_4 
REMARK    2  A    between atoms: C3_3  and  N5_5 
REMARK    3  A    between atoms: C4_4  and  O6_6 
ROOT
HETATM    1  C1  UNL     1     -34.443   5.616   4.165  1.00 20.00     0.157 C 
HETATM    2  N5  UNL     1     -34.326   6.052   3.081  1.00 20.00    -0.273 NA
HETATM    3  S7  UNL     1     -34.630   5.023   5.631  1.00 20.00    -0.055 SA
ENDROOT
BRANCH   2   4
HETATM    4  C3  UNL     1     -32.956   6.413   2.706  1.00 20.00     0.176 C 
BRANCH   4   5
HETATM    5  C4  UNL     1     -32.499   7.582   3.559  1.00 20.00     0.189 C 
BRANCH   5   6
HETATM    6  O6  UNL     1     -31.564   8.362   2.825  1.00 20.00    -0.394 OA
HETATM    7  C2  UNL     1     -32.094   8.770   1.572  1.00 20.00     0.201 C 
ENDBRANCH   5   6
ENDBRANCH   4   5
ENDBRANCH   2   4
TORSDOF 3
ENDMDL
MODEL 7
REMARK VINA RESULT:      -3.0      3.077      3.928
REMARK  3 active torsions:
REMARK  status: ('A' for Active; 'I' for Inactive)
REMARK    1  A    between atoms: C3_3  and  C4_4 
REMARK    2  A    between atoms: C3_3  and  N5_5 
REMARK    3  A    between atoms: C4_4  and  O6_6 
ROOT
HETATM    1  C1  UNL     1     -34.290   5.998   5.726  1.00 20.00     0.157 C 
HETATM    2  N5  UNL     1     -34.708   4.936   5.454  1.00 20.00    -0.273 NA
HETATM    3  S7  UNL     1     -33.737   7.439   6.120  1.00 20.00    -0.055 SA
ENDROOT
BRANCH   2   4
HETATM    4  C3  UNL     1     -34.239   4.398   4.174  1.00 20.00     0.176 C 
BRANCH   4   5
HETATM    5  C4  UNL     1     -34.207   5.515   3.146  1.00 20.00     0.189 C 
BRANCH   5   6
HETATM    6  O6  UNL     1     -32.860   5.766   2.767  1.00 20.00    -0.394 OA
HETATM    7  C2  UNL     1     -32.609   7.157   2.627  1.00 20.00     0.201 C 
ENDBRANCH   5   6
ENDBRANCH   4   5
ENDBRANCH   2   4
TORSDOF 3
ENDMDL
MODEL 8
REMARK VINA RESULT:      -3.0     11.537     11.937
REMARK  3 active torsions:
REMARK  status: ('A' for Active; 'I' for Inactive)
REMARK    1  A    between atoms: C3_3  and  C4_4 
REMARK    2  A    between atoms: C3_3  and  N5_5 
REMARK    3  A    between atoms: C4_4  and  O6_6 
ROOT
HETATM    1  C1  UNL     1     -34.082  14.448  -4.760  1.00 20.00     0.157 C 
HETATM    2  N5  UNL     1     -34.789  13.581  -4.405  1.00 20.00    -0.273 NA
HETATM    3  S7  UNL     1     -33.105  15.619  -5.219  1.00 20.00    -0.055 SA
ENDROOT
BRANCH   2   4
HETATM    4  C3  UNL     1     -35.949  13.339  -5.268  1.00 20.00     0.176 C 
BRANCH   4   5
HETATM    5  C4  UNL     1     -36.927  14.491  -5.122  1.00 20.00     0.189 C 
BRANCH   5   6
HETATM    6  O6  UNL     1     -38.240  13.973  -4.950  1.00 20.00    -0.394 OA
HETATM    7  C2  UNL     1     -39.227  14.962  -5.206  1.00 20.00     0.201 C 
ENDBRANCH   5   6
ENDBRANCH   4   5
ENDBRANCH   2   4
TORSDOF 3
ENDMDL
MODEL 9
REMARK VINA RESULT:      -2.9     12.000     12.637
REMARK  3 active torsions:
REMARK  status: ('A' for Active; 'I' for Inactive)
REMARK    1  A    between atoms: C3_3  and  C4_4 
REMARK    2  A    between atoms: C3_3  and  N5_5 
REMARK    3  A    between atoms: C4_4  and  O6_6 
ROOT
HETATM    1  C1  UNL     1     -38.788  14.678  -5.205  1.00 20.00     0.157 C 
HETATM    2  N5  UNL     1     -37.850  14.042  -4.899  1.00 20.00    -0.273 NA
HETATM    3  S7  UNL     1     -40.078  15.516  -5.616  1.00 20.00    -0.055 SA
ENDROOT
BRANCH   2   4
HETATM    4  C3  UNL     1     -36.573  14.760  -4.959  1.00 20.00     0.176 C 
BRANCH   4   5
HETATM    5  C4  UNL     1     -35.436  13.767  -4.800  1.00 20.00     0.189 C 
BRANCH   5   6
HETATM    6  O6  UNL     1     -35.568  12.742  -5.777  1.00 20.00    -0.394 OA
HETATM    7  C2  UNL     1     -35.096  13.169  -7.047  1.00 20.00     0.201 C 
ENDBRANCH   5   6
ENDBRANCH   4   5
ENDBRANCH   2   4
TORSDOF 3
ENDMDL
