MODEL 1
REMARK VINA RESULT:      -4.3      0.000      0.000
REMARK  3 active torsions:
REMARK  status: ('A' for Active; 'I' for Inactive)
REMARK    1  A    between atoms: C7_7  and  C8_8 
REMARK    2  A    between atoms: C7_7  and  C9_9 
REMARK    3  A    between atoms: C9_9  and  S10_10 
ROOT
HETATM    1  C7  UNL     1     -33.463   8.441   1.986  1.00 20.00     0.028 C 
ENDROOT
BRANCH   1   2
HETATM    2  C8  UNL     1     -32.592   9.277   0.993  1.00 20.00    -0.050 C 
HETATM    3  C1  UNL     1     -31.193   8.696   0.751  1.00 20.00     0.014 C 
HETATM    4  C2  UNL     1     -33.336   9.283  -0.367  1.00 20.00     0.014 C 
HETATM    5  C3  UNL     1     -32.462  10.747   1.435  1.00 20.00     0.014 C 
ENDBRANCH   1   2
BRANCH   1   6
HETATM    6  C9  UNL     1     -32.863   7.461   3.036  1.00 20.00     0.001 C 
HETATM    7  C4  UNL     1     -31.541   8.065   3.554  1.00 20.00     0.026 C 
HETATM    8  C5  UNL     1     -32.575   6.056   2.505  1.00 20.00     0.026 C 
BRANCH   6   9
HETATM    9  S10 UNL     1     -33.952   7.301   4.513  1.00 20.00    -0.164 SA
HETATM   10  C6  UNL     1     -34.846   5.825   3.988  1.00 20.00     0.090 C 
ENDBRANCH   6   9
ENDBRANCH   1   6
TORSDOF 3
ENDMDL
MODEL 2
REMARK VINA RESULT:      -4.2      1.022      1.411
REMARK  3 active torsions:
REMARK  status: ('A' for Active; 'I' for Inactive)
REMARK    1  A    between atoms: C7_7  and  C8_8 
REMARK    2  A    between atoms: C7_7  and  C9_9 
REMARK    3  A    between atoms: C9_9  and  S10_10 
ROOT
HETATM    1  C7  UNL     1     -33.493   8.361   1.843  1.00 20.00     0.028 C 
ENDROOT
BRANCH   1   2
HETATM    2  C8  UNL     1     -32.594   9.258   0.932  1.00 20.00    -0.050 C 
HETATM    3  C1  UNL     1     -31.178   8.707   0.719  1.00 20.00     0.014 C 
HETATM    4  C2  UNL     1     -33.281   9.328  -0.454  1.00 20.00     0.014 C 
HETATM    5  C3  UNL     1     -32.502  10.704   1.457  1.00 20.00     0.014 C 
ENDBRANCH   1   2
BRANCH   1   6
HETATM    6  C9  UNL     1     -32.946   7.547   3.052  1.00 20.00     0.001 C 
HETATM    7  C4  UNL     1     -33.940   7.700   4.223  1.00 20.00     0.026 C 
HETATM    8  C5  UNL     1     -31.561   7.978   3.537  1.00 20.00     0.026 C 
BRANCH   6   9
HETATM    9  S10 UNL     1     -32.885   5.743   2.681  1.00 20.00    -0.164 SA
HETATM   10  C6  UNL     1     -34.209   5.230   3.793  1.00 20.00     0.090 C 
ENDBRANCH   6   9
ENDBRANCH   1   6
TORSDOF 3
ENDMDL
MODEL 3
REMARK VINA RESULT:      -4.1      0.061      1.354
REMARK  3 active torsions:
REMARK  status: ('A' for Active; 'I' for Inactive)
REMARK    1  A    between atoms: C7_7  and  C8_8 
REMARK    2  A    between atoms: C7_7  and  C9_9 
REMARK    3  A    between atoms: C9_9  and  S10_10 
ROOT
HETATM    1  C7  UNL     1     -33.468   8.514   2.049  1.00 20.00     0.028 C 
ENDROOT
BRANCH   1   2
HETATM    2  C8  UNL     1     -32.635   9.251   0.951  1.00 20.00    -0.050 C 
HETATM    3  C1  UNL     1     -33.299   9.263  -0.432  1.00 20.00     0.014 C 
HETATM    4  C2  UNL     1     -32.487  10.724   1.409  1.00 20.00     0.014 C 
HETATM    5  C3  UNL     1     -31.211   8.679   0.826  1.00 20.00     0.014 C 
ENDBRANCH   1   2
BRANCH   1   6
HETATM    6  C9  UNL     1     -32.853   7.491   3.048  1.00 20.00     0.001 C 
HETATM    7  C4  UNL     1     -31.514   8.065   3.558  1.00 20.00     0.026 C 
HETATM    8  C5  UNL     1     -32.589   6.105   2.460  1.00 20.00     0.026 C 
BRANCH   6   9
HETATM    9  S10 UNL     1     -33.910   7.285   4.543  1.00 20.00    -0.164 SA
HETATM   10  C6  UNL     1     -34.824   5.833   3.987  1.00 20.00     0.090 C 
ENDBRANCH   6   9
ENDBRANCH   1   6
TORSDOF 3
ENDMDL
MODEL 4
REMARK VINA RESULT:      -3.9      9.694     10.631
REMARK  3 active torsions:
REMARK  status: ('A' for Active; 'I' for Inactive)
REMARK    1  A    between atoms: C7_7  and  C8_8 
REMARK    2  A    between atoms: C7_7  and  C9_9 
REMARK    3  A    between atoms: C9_9  and  S10_10 
ROOT
HETATM    1  C7  UNL     1     -34.735  15.882  -2.995  1.00 20.00     0.028 C 
ENDROOT
BRANCH   1   2
HETATM    2  C8  UNL     1     -34.625  17.237  -2.225  1.00 20.00    -0.050 C 
HETATM    3  C1  UNL     1     -35.224  18.432  -2.979  1.00 20.00     0.014 C 
HETATM    4  C2  UNL     1     -35.420  17.074  -0.905  1.00 20.00     0.014 C 
HETATM    5  C3  UNL     1     -33.171  17.562  -1.832  1.00 20.00     0.014 C 
ENDBRANCH   1   2
BRANCH   1   6
HETATM    6  C9  UNL     1     -34.227  15.681  -4.453  1.00 20.00     0.001 C 
HETATM    7  C4  UNL     1     -33.331  14.424  -4.479  1.00 20.00     0.026 C 
HETATM    8  C5  UNL     1     -33.425  16.855  -5.016  1.00 20.00     0.026 C 
BRANCH   6   9
HETATM    9  S10 UNL     1     -35.616  15.329  -5.611  1.00 20.00    -0.164 SA
HETATM   10  C6  UNL     1     -35.841  13.590  -5.186  1.00 20.00     0.090 C 
ENDBRANCH   6   9
ENDBRANCH   1   6
TORSDOF 3
ENDMDL
MODEL 5
REMARK VINA RESULT:      -3.8      9.903     10.664
REMARK  3 active torsions:
REMARK  status: ('A' for Active; 'I' for Inactive)
REMARK    1  A    between atoms: C7_7  and  C8_8 
REMARK    2  A    between atoms: C7_7  and  C9_9 
REMARK    3  A    between atoms: C9_9  and  S10_10 
ROOT
HETATM    1  C7  UNL     1     -33.959  16.358  -3.004  1.00 20.00     0.028 C 
ENDROOT
BRANCH   1   2
HETATM    2  C8  UNL     1     -34.274  17.512  -1.998  1.00 20.00    -0.050 C 
HETATM    3  C1  UNL     1     -35.248  17.116  -0.880  1.00 20.00     0.014 C 
HETATM    4  C2  UNL     1     -32.935  17.909  -1.330  1.00 20.00     0.014 C 
HETATM    5  C3  UNL     1     -34.806  18.770  -2.712  1.00 20.00     0.014 C 
ENDBRANCH   1   2
BRANCH   1   6
HETATM    6  C9  UNL     1     -34.978  15.840  -4.061  1.00 20.00     0.001 C 
HETATM    7  C4  UNL     1     -34.739  16.615  -5.375  1.00 20.00     0.026 C 
HETATM    8  C5  UNL     1     -36.445  16.004  -3.665  1.00 20.00     0.026 C 
BRANCH   6   9
HETATM    9  S10 UNL     1     -34.689  14.067  -4.467  1.00 20.00    -0.164 SA
HETATM   10  C6  UNL     1     -36.280  13.744  -5.254  1.00 20.00     0.090 C 
ENDBRANCH   6   9
ENDBRANCH   1   6
TORSDOF 3
ENDMDL
MODEL 6
REMARK VINA RESULT:      -3.7      9.904     10.878
REMARK  3 active torsions:
REMARK  status: ('A' for Active; 'I' for Inactive)
REMARK    1  A    between atoms: C7_7  and  C8_8 
REMARK    2  A    between atoms: C7_7  and  C9_9 
REMARK    3  A    between atoms: C9_9  and  S10_10 
ROOT
HETATM    1  C7  UNL     1     -35.325  15.880  -2.926  1.00 20.00     0.028 C 
ENDROOT
BRANCH   1   2
HETATM    2  C8  UNL     1     -34.849  17.190  -2.219  1.00 20.00    -0.050 C 
HETATM    3  C1  UNL     1     -35.395  18.475  -2.855  1.00 20.00     0.014 C 
HETATM    4  C2  UNL     1     -35.371  17.134  -0.762  1.00 20.00     0.014 C 
HETATM    5  C3  UNL     1     -33.313  17.276  -2.139  1.00 20.00     0.014 C 
ENDBRANCH   1   2
BRANCH   1   6
HETATM    6  C9  UNL     1     -34.727  15.364  -4.268  1.00 20.00     0.001 C 
HETATM    7  C4  UNL     1     -35.572  14.161  -4.737  1.00 20.00     0.026 C 
HETATM    8  C5  UNL     1     -33.265  14.923  -4.186  1.00 20.00     0.026 C 
BRANCH   6   9
HETATM    9  S10 UNL     1     -34.870  16.626  -5.602  1.00 20.00    -0.164 SA
HETATM   10  C6  UNL     1     -33.563  15.990  -6.669  1.00 20.00     0.090 C 
ENDBRANCH   6   9
ENDBRANCH   1   6
TORSDOF 3
ENDMDL
MODEL 7
REMARK VINA RESULT:      -3.6      9.736     10.889
REMARK  3 active torsions:
REMARK  status: ('A' for Active; 'I' for Inactive)
REMARK    1  A    between atoms: C7_7  and  C8_8 
REMARK    2  A    between atoms: C7_7  and  C9_9 
REMARK    3  A    between atoms: C9_9  and  S10_10 
ROOT
HETATM    1  C7  UNL     1     -35.120  15.750  -5.889  1.00 20.00     0.028 C 
ENDROOT
BRANCH   1   2
HETATM    2  C8  UNL     1     -35.564  14.335  -6.382  1.00 20.00    -0.050 C 
HETATM    3  C1  UNL     1     -35.992  13.387  -5.254  1.00 20.00     0.014 C 
HETATM    4  C2  UNL     1     -36.788  14.541  -7.308  1.00 20.00     0.014 C 
HETATM    5  C3  UNL     1     -34.474  13.652  -7.232  1.00 20.00     0.014 C 
ENDBRANCH   1   2
BRANCH   1   6
HETATM    6  C9  UNL     1     -34.166  15.975  -4.680  1.00 20.00     0.001 C 
HETATM    7  C4  UNL     1     -33.448  17.327  -4.883  1.00 20.00     0.026 C 
HETATM    8  C5  UNL     1     -33.105  14.890  -4.494  1.00 20.00     0.026 C 
BRANCH   6   9
HETATM    9  S10 UNL     1     -35.100  16.138  -3.101  1.00 20.00    -0.164 SA
HETATM   10  C6  UNL     1     -33.818  16.983  -2.155  1.00 20.00     0.090 C 
ENDBRANCH   6   9
ENDBRANCH   1   6
TORSDOF 3
ENDMDL
MODEL 8
REMARK VINA RESULT:      -3.6      1.621      4.478
REMARK  3 active torsions:
REMARK  status: ('A' for Active; 'I' for Inactive)
REMARK    1  A    between atoms: C7_7  and  C8_8 
REMARK    2  A    between atoms: C7_7  and  C9_9 
REMARK    3  A    between atoms: C9_9  and  S10_10 
ROOT
HETATM    1  C7  UNL     1     -33.061   6.350   3.002  1.00 20.00     0.028 C 
ENDROOT
BRANCH   1   2
HETATM    2  C8  UNL     1     -34.166   5.869   3.996  1.00 20.00    -0.050 C 
HETATM    3  C1  UNL     1     -35.598   6.125   3.509  1.00 20.00     0.014 C 
HETATM    4  C2  UNL     1     -33.995   4.338   4.157  1.00 20.00     0.014 C 
HETATM    5  C3  UNL     1     -33.989   6.485   5.398  1.00 20.00     0.014 C 
ENDBRANCH   1   2
BRANCH   1   6
HETATM    6  C9  UNL     1     -32.668   7.845   2.815  1.00 20.00     0.001 C 
HETATM    7  C4  UNL     1     -31.504   8.159   3.779  1.00 20.00     0.026 C 
HETATM    8  C5  UNL     1     -33.798   8.840   3.086  1.00 20.00     0.026 C 
BRANCH   6   9
HETATM    9  S10 UNL     1     -32.016   8.168   1.123  1.00 20.00    -0.164 SA
HETATM   10  C6  UNL     1     -32.532   9.892   0.996  1.00 20.00     0.090 C 
ENDBRANCH   6   9
ENDBRANCH   1   6
TORSDOF 3
ENDMDL
MODEL 9
REMARK VINA RESULT:      -3.6      1.724      4.165
REMARK  3 active torsions:
REMARK  status: ('A' for Active; 'I' for Inactive)
REMARK    1  A    between atoms: C7_7  and  C8_8 
REMARK    2  A    between atoms: C7_7  and  C9_9 
REMARK    3  A    between atoms: C9_9  and  S10_10 
ROOT
HETATM    1  C7  UNL     1     -33.603   7.630   2.251  1.00 20.00     0.028 C 
ENDROOT
BRANCH   1   2
HETATM    2  C8  UNL     1     -33.704   6.554   3.380  1.00 20.00    -0.050 C 
HETATM    3  C1  UNL     1     -33.340   7.078   4.775  1.00 20.00     0.014 C 
HETATM    4  C2  UNL     1     -35.179   6.086   3.428  1.00 20.00     0.014 C 
HETATM    5  C3  UNL     1     -32.852   5.309   3.067  1.00 20.00     0.014 C 
ENDBRANCH   1   2
BRANCH   1   6
HETATM    6  C9  UNL     1     -32.340   8.510   2.017  1.00 20.00     0.001 C 
HETATM    7  C4  UNL     1     -31.545   7.904   0.841  1.00 20.00     0.026 C 
HETATM    8  C5  UNL     1     -31.407   8.620   3.223  1.00 20.00     0.026 C 
BRANCH   6   9
HETATM    9  S10 UNL     1     -32.792  10.216   1.487  1.00 20.00    -0.164 SA
HETATM   10  C6  UNL     1     -33.093   9.849  -0.253  1.00 20.00     0.090 C 
ENDBRANCH   6   9
ENDBRANCH   1   6
TORSDOF 3
ENDMDL
