MODEL 1
REMARK VINA RESULT:      -5.0      0.000      0.000
REMARK  4 active torsions:
REMARK  status: ('A' for Active; 'I' for Inactive)
REMARK    1  A    between atoms: C5_5  and  O8_8 
REMARK    2  A    between atoms: C6_6  and  O9_9 
REMARK    3  A    between atoms: C7_7  and  O8_8 
REMARK    4  A    between atoms: C7_7  and  O9_9 
ROOT
HETATM    1  C1  UNL     1     -32.369   9.383   0.827  1.00 20.00     0.014 C 
HETATM    2  C2  UNL     1     -32.089   8.819   1.850  1.00 20.00    -0.091 C 
HETATM    3  C5  UNL     1     -31.745   8.135   3.096  1.00 20.00     0.263 C 
ENDROOT
BRANCH   3   4
HETATM    4  O8  UNL     1     -32.578   7.000   3.286  1.00 20.00    -0.350 OA
BRANCH   4   5
HETATM    5  C7  UNL     1     -33.801   7.311   3.961  1.00 20.00     0.256 C 
HETATM    6  C4  UNL     1     -33.542   7.390   5.460  1.00 20.00     0.070 C 
BRANCH   5   7
HETATM    7  O9  UNL     1     -34.776   6.279   3.763  1.00 20.00    -0.362 OA
BRANCH   7   8
HETATM    8  C6  UNL     1     -34.791   5.340   4.831  1.00 20.00     0.166 C 
HETATM    9  C3  UNL     1     -34.207   4.030   4.342  1.00 20.00     0.033 C 
ENDBRANCH   7   8
ENDBRANCH   5   7
ENDBRANCH   4   5
ENDBRANCH   3   4
TORSDOF 4
ENDMDL
MODEL 2
REMARK VINA RESULT:      -5.0      1.149      1.933
REMARK  4 active torsions:
REMARK  status: ('A' for Active; 'I' for Inactive)
REMARK    1  A    between atoms: C5_5  and  O8_8 
REMARK    2  A    between atoms: C6_6  and  O9_9 
REMARK    3  A    between atoms: C7_7  and  O8_8 
REMARK    4  A    between atoms: C7_7  and  O9_9 
ROOT
HETATM    1  C1  UNL     1     -32.549  10.232   0.785  1.00 20.00     0.014 C 
HETATM    2  C2  UNL     1     -32.397   9.256   1.467  1.00 20.00    -0.091 C 
HETATM    3  C5  UNL     1     -32.210   8.067   2.299  1.00 20.00     0.263 C 
ENDROOT
BRANCH   3   4
HETATM    4  O8  UNL     1     -33.427   7.344   2.415  1.00 20.00    -0.350 OA
BRANCH   4   5
HETATM    5  C7  UNL     1     -33.346   6.260   3.345  1.00 20.00     0.256 C 
HETATM    6  C4  UNL     1     -33.009   4.977   2.595  1.00 20.00     0.070 C 
BRANCH   5   7
HETATM    7  O9  UNL     1     -34.605   6.041   3.994  1.00 20.00    -0.362 OA
BRANCH   7   8
HETATM    8  C6  UNL     1     -34.484   6.018   5.410  1.00 20.00     0.166 C 
HETATM    9  C3  UNL     1     -33.741   7.259   5.862  1.00 20.00     0.033 C 
ENDBRANCH   7   8
ENDBRANCH   5   7
ENDBRANCH   4   5
ENDBRANCH   3   4
TORSDOF 4
ENDMDL
MODEL 3
REMARK VINA RESULT:      -4.9      1.115      4.623
REMARK  4 active torsions:
REMARK  status: ('A' for Active; 'I' for Inactive)
REMARK    1  A    between atoms: C5_5  and  O8_8 
REMARK    2  A    between atoms: C6_6  and  O9_9 
REMARK    3  A    between atoms: C7_7  and  O8_8 
REMARK    4  A    between atoms: C7_7  and  O9_9 
ROOT
HETATM    1  C1  UNL     1     -34.751   4.853   5.580  1.00 20.00     0.014 C 
HETATM    2  C2  UNL     1     -34.278   5.940   5.388  1.00 20.00    -0.091 C 
HETATM    3  C5  UNL     1     -33.700   7.263   5.156  1.00 20.00     0.263 C 
ENDROOT
BRANCH   3   4
HETATM    4  O8  UNL     1     -33.823   7.628   3.789  1.00 20.00    -0.350 OA
BRANCH   4   5
HETATM    5  C7  UNL     1     -32.610   7.449   3.052  1.00 20.00     0.256 C 
HETATM    6  C4  UNL     1     -31.492   8.234   3.725  1.00 20.00     0.070 C 
BRANCH   5   7
HETATM    7  O9  UNL     1     -32.734   7.965   1.721  1.00 20.00    -0.362 OA
BRANCH   7   8
HETATM    8  C6  UNL     1     -32.157   9.258   1.588  1.00 20.00     0.166 C 
HETATM    9  C3  UNL     1     -32.761   9.945   0.381  1.00 20.00     0.033 C 
ENDBRANCH   7   8
ENDBRANCH   5   7
ENDBRANCH   4   5
ENDBRANCH   3   4
TORSDOF 4
ENDMDL
MODEL 4
REMARK VINA RESULT:      -4.9      1.369      4.636
REMARK  4 active torsions:
REMARK  status: ('A' for Active; 'I' for Inactive)
REMARK    1  A    between atoms: C5_5  and  O8_8 
REMARK    2  A    between atoms: C6_6  and  O9_9 
REMARK    3  A    between atoms: C7_7  and  O8_8 
REMARK    4  A    between atoms: C7_7  and  O9_9 
ROOT
HETATM    1  C1  UNL     1     -34.730   4.974   5.585  1.00 20.00     0.014 C 
HETATM    2  C2  UNL     1     -34.277   6.086   5.575  1.00 20.00    -0.091 C 
HETATM    3  C5  UNL     1     -33.727   7.441   5.564  1.00 20.00     0.263 C 
ENDROOT
BRANCH   3   4
HETATM    4  O8  UNL     1     -32.593   7.511   4.712  1.00 20.00    -0.350 OA
BRANCH   4   5
HETATM    5  C7  UNL     1     -32.939   7.674   3.334  1.00 20.00     0.256 C 
HETATM    6  C4  UNL     1     -32.830   6.330   2.625  1.00 20.00     0.070 C 
BRANCH   5   7
HETATM    7  O9  UNL     1     -32.028   8.564   2.674  1.00 20.00    -0.362 OA
BRANCH   7   8
HETATM    8  C6  UNL     1     -32.384   8.790   1.316  1.00 20.00     0.166 C 
HETATM    9  C3  UNL     1     -32.622  10.271   1.109  1.00 20.00     0.033 C 
ENDBRANCH   7   8
ENDBRANCH   5   7
ENDBRANCH   4   5
ENDBRANCH   3   4
TORSDOF 4
ENDMDL
MODEL 5
REMARK VINA RESULT:      -4.5      1.012      1.214
REMARK  4 active torsions:
REMARK  status: ('A' for Active; 'I' for Inactive)
REMARK    1  A    between atoms: C5_5  and  O8_8 
REMARK    2  A    between atoms: C6_6  and  O9_9 
REMARK    3  A    between atoms: C7_7  and  O8_8 
REMARK    4  A    between atoms: C7_7  and  O9_9 
ROOT
HETATM    1  C1  UNL     1     -33.134   9.663  -0.403  1.00 20.00     0.014 C 
HETATM    2  C2  UNL     1     -32.697   9.270   0.644  1.00 20.00    -0.091 C 
HETATM    3  C5  UNL     1     -32.163   8.794   1.919  1.00 20.00     0.263 C 
ENDROOT
BRANCH   3   4
HETATM    4  O8  UNL     1     -32.516   7.434   2.130  1.00 20.00    -0.350 OA
BRANCH   4   5
HETATM    5  C7  UNL     1     -33.378   7.248   3.256  1.00 20.00     0.256 C 
HETATM    6  C4  UNL     1     -32.677   7.744   4.514  1.00 20.00     0.070 C 
BRANCH   5   7
HETATM    7  O9  UNL     1     -33.666   5.859   3.463  1.00 20.00    -0.362 OA
BRANCH   7   8
HETATM    8  C6  UNL     1     -34.840   5.662   4.240  1.00 20.00     0.166 C 
HETATM    9  C3  UNL     1     -34.608   4.512   5.199  1.00 20.00     0.033 C 
ENDBRANCH   7   8
ENDBRANCH   5   7
ENDBRANCH   4   5
ENDBRANCH   3   4
TORSDOF 4
ENDMDL
MODEL 6
REMARK VINA RESULT:      -4.4      1.633      3.677
REMARK  4 active torsions:
REMARK  status: ('A' for Active; 'I' for Inactive)
REMARK    1  A    between atoms: C5_5  and  O8_8 
REMARK    2  A    between atoms: C6_6  and  O9_9 
REMARK    3  A    between atoms: C7_7  and  O8_8 
REMARK    4  A    between atoms: C7_7  and  O9_9 
ROOT
HETATM    1  C1  UNL     1     -34.738   4.878   5.762  1.00 20.00     0.014 C 
HETATM    2  C2  UNL     1     -34.271   5.983   5.798  1.00 20.00    -0.091 C 
HETATM    3  C5  UNL     1     -33.701   7.329   5.844  1.00 20.00     0.263 C 
ENDROOT
BRANCH   3   4
HETATM    4  O8  UNL     1     -33.691   7.911   4.548  1.00 20.00    -0.350 OA
BRANCH   4   5
HETATM    5  C7  UNL     1     -32.723   7.319   3.677  1.00 20.00     0.256 C 
HETATM    6  C4  UNL     1     -31.546   8.272   3.511  1.00 20.00     0.070 C 
BRANCH   5   7
HETATM    7  O9  UNL     1     -33.268   7.103   2.369  1.00 20.00    -0.362 OA
BRANCH   7   8
HETATM    8  C6  UNL     1     -33.949   5.859   2.268  1.00 20.00     0.166 C 
HETATM    9  C3  UNL     1     -32.980   4.739   2.585  1.00 20.00     0.033 C 
ENDBRANCH   7   8
ENDBRANCH   5   7
ENDBRANCH   4   5
ENDBRANCH   3   4
TORSDOF 4
ENDMDL
MODEL 7
REMARK VINA RESULT:      -4.4      1.184      4.225
REMARK  4 active torsions:
REMARK  status: ('A' for Active; 'I' for Inactive)
REMARK    1  A    between atoms: C5_5  and  O8_8 
REMARK    2  A    between atoms: C6_6  and  O9_9 
REMARK    3  A    between atoms: C7_7  and  O8_8 
REMARK    4  A    between atoms: C7_7  and  O9_9 
ROOT
HETATM    1  C1  UNL     1     -33.749   7.366   6.252  1.00 20.00     0.014 C 
HETATM    2  C2  UNL     1     -34.166   6.555   5.472  1.00 20.00    -0.091 C 
HETATM    3  C5  UNL     1     -34.673   5.565   4.522  1.00 20.00     0.263 C 
ENDROOT
BRANCH   3   4
HETATM    4  O8  UNL     1     -34.760   6.123   3.219  1.00 20.00    -0.350 OA
BRANCH   4   5
HETATM    5  C7  UNL     1     -33.569   5.936   2.450  1.00 20.00     0.256 C 
HETATM    6  C4  UNL     1     -33.014   4.541   2.712  1.00 20.00     0.070 C 
BRANCH   5   7
HETATM    7  O9  UNL     1     -32.550   6.866   2.840  1.00 20.00    -0.362 OA
BRANCH   7   8
HETATM    8  C6  UNL     1     -32.809   8.180   2.363  1.00 20.00     0.166 C 
HETATM    9  C3  UNL     1     -31.716   8.577   1.393  1.00 20.00     0.033 C 
ENDBRANCH   7   8
ENDBRANCH   5   7
ENDBRANCH   4   5
ENDBRANCH   3   4
TORSDOF 4
ENDMDL
MODEL 8
REMARK VINA RESULT:      -4.1      1.215      3.825
REMARK  4 active torsions:
REMARK  status: ('A' for Active; 'I' for Inactive)
REMARK    1  A    between atoms: C5_5  and  O8_8 
REMARK    2  A    between atoms: C6_6  and  O9_9 
REMARK    3  A    between atoms: C7_7  and  O8_8 
REMARK    4  A    between atoms: C7_7  and  O9_9 
ROOT
HETATM    1  C1  UNL     1     -34.498   4.163   4.833  1.00 20.00     0.014 C 
HETATM    2  C2  UNL     1     -33.938   4.489   3.822  1.00 20.00    -0.091 C 
HETATM    3  C5  UNL     1     -33.257   4.884   2.589  1.00 20.00     0.263 C 
ENDROOT
BRANCH   3   4
HETATM    4  O8  UNL     1     -32.401   5.993   2.827  1.00 20.00    -0.350 OA
BRANCH   4   5
HETATM    5  C7  UNL     1     -33.031   7.251   2.569  1.00 20.00     0.256 C 
HETATM    6  C4  UNL     1     -31.964   8.297   2.275  1.00 20.00     0.070 C 
BRANCH   5   7
HETATM    7  O9  UNL     1     -33.756   7.710   3.717  1.00 20.00    -0.362 OA
BRANCH   7   8
HETATM    8  C6  UNL     1     -32.929   7.815   4.869  1.00 20.00     0.166 C 
HETATM    9  C3  UNL     1     -33.734   7.422   6.091  1.00 20.00     0.033 C 
ENDBRANCH   7   8
ENDBRANCH   5   7
ENDBRANCH   4   5
ENDBRANCH   3   4
TORSDOF 4
ENDMDL
MODEL 9
REMARK VINA RESULT:      -4.0      1.146      3.860
REMARK  4 active torsions:
REMARK  status: ('A' for Active; 'I' for Inactive)
REMARK    1  A    between atoms: C5_5  and  O8_8 
REMARK    2  A    between atoms: C6_6  and  O9_9 
REMARK    3  A    between atoms: C7_7  and  O8_8 
REMARK    4  A    between atoms: C7_7  and  O9_9 
ROOT
HETATM    1  C1  UNL     1     -32.936   4.308   2.408  1.00 20.00     0.014 C 
HETATM    2  C2  UNL     1     -33.697   4.441   3.327  1.00 20.00    -0.091 C 
HETATM    3  C5  UNL     1     -34.625   4.601   4.446  1.00 20.00     0.263 C 
ENDROOT
BRANCH   3   4
HETATM    4  O8  UNL     1     -34.865   5.978   4.702  1.00 20.00    -0.350 OA
BRANCH   4   5
HETATM    5  C7  UNL     1     -33.665   6.756   4.740  1.00 20.00     0.256 C 
HETATM    6  C4  UNL     1     -33.648   7.592   6.013  1.00 20.00     0.070 C 
BRANCH   5   7
HETATM    7  O9  UNL     1     -33.610   7.674   3.641  1.00 20.00    -0.362 OA
BRANCH   7   8
HETATM    8  C6  UNL     1     -32.288   7.839   3.143  1.00 20.00     0.166 C 
HETATM    9  C3  UNL     1     -32.345   8.618   1.845  1.00 20.00     0.033 C 
ENDBRANCH   7   8
ENDBRANCH   5   7
ENDBRANCH   4   5
ENDBRANCH   3   4
TORSDOF 4
ENDMDL
