MODEL 1
REMARK VINA RESULT:      -6.3      0.000      0.000
REMARK  5 active torsions:
REMARK  status: ('A' for Active; 'I' for Inactive)
REMARK    1  A    between atoms: C1_1  and  C9_9 
REMARK    2  A    between atoms: C6_6  and  C7_7 
REMARK    3  A    between atoms: C6_6  and  C8_8 
REMARK    4  A    between atoms: C7_7  and  C9_9 
REMARK    5  A    between atoms: C8_8  and  C10_10 
ROOT
HETATM    1  C7  UNL     1     -32.129   7.382   3.585  1.00 20.00     0.011 C 
ENDROOT
BRANCH   1   2
HETATM    2  C6  UNL     1     -31.831   8.705   2.867  1.00 20.00     0.001 C 
BRANCH   2   3
HETATM    3  C8  UNL     1     -31.748   8.500   1.351  1.00 20.00     0.004 C 
BRANCH   3   4
HETATM    4  C10 UNL     1     -32.231   9.717   0.539  1.00 20.00    -0.023 C 
HETATM    5  C4  UNL     1     -33.211   9.329  -0.569  1.00 20.00     0.009 C 
HETATM    6  C5  UNL     1     -32.886  10.737   1.474  1.00 20.00     0.009 C 
ENDBRANCH   3   4
ENDBRANCH   2   3
ENDBRANCH   1   2
BRANCH   1   7
HETATM    7  C9  UNL     1     -33.623   7.043   3.709  1.00 20.00     0.051 C 
HETATM    8  C3  UNL     1     -34.045   5.927   2.753  1.00 20.00     0.018 C 
BRANCH   7   9
HETATM    9  C1  UNL     1     -34.014   6.718   5.150  1.00 20.00     0.126 C 
HETATM   10  C2  UNL     1     -34.661   5.379   5.403  1.00 20.00     0.091 C 
HETATM   11  O11 UNL     1     -33.802   7.495   6.083  1.00 20.00    -0.298 OA
ENDBRANCH   7   9
ENDBRANCH   1   7
TORSDOF 5
ENDMDL
MODEL 2
REMARK VINA RESULT:      -6.3      1.084      1.673
REMARK  5 active torsions:
REMARK  status: ('A' for Active; 'I' for Inactive)
REMARK    1  A    between atoms: C1_1  and  C9_9 
REMARK    2  A    between atoms: C6_6  and  C7_7 
REMARK    3  A    between atoms: C6_6  and  C8_8 
REMARK    4  A    between atoms: C7_7  and  C9_9 
REMARK    5  A    between atoms: C8_8  and  C10_10 
ROOT
HETATM    1  C7  UNL     1     -33.477   7.672   3.137  1.00 20.00     0.011 C 
ENDROOT
BRANCH   1   2
HETATM    2  C6  UNL     1     -31.976   7.675   2.822  1.00 20.00     0.001 C 
BRANCH   2   3
HETATM    3  C8  UNL     1     -31.685   8.475   1.547  1.00 20.00     0.004 C 
BRANCH   3   4
HETATM    4  C10 UNL     1     -32.839   9.403   1.127  1.00 20.00    -0.023 C 
HETATM    5  C4  UNL     1     -32.585  10.862   1.509  1.00 20.00     0.009 C 
HETATM    6  C5  UNL     1     -33.066   9.298  -0.384  1.00 20.00     0.009 C 
ENDBRANCH   3   4
ENDBRANCH   2   3
ENDBRANCH   1   2
BRANCH   1   7
HETATM    7  C9  UNL     1     -34.063   6.286   3.450  1.00 20.00     0.051 C 
HETATM    8  C3  UNL     1     -33.238   5.155   2.834  1.00 20.00     0.018 C 
BRANCH   7   9
HETATM    9  C1  UNL     1     -34.258   6.078   4.952  1.00 20.00     0.126 C 
HETATM   10  C2  UNL     1     -33.833   7.204   5.863  1.00 20.00     0.091 C 
HETATM   11  O11 UNL     1     -34.756   5.052   5.417  1.00 20.00    -0.298 OA
ENDBRANCH   7   9
ENDBRANCH   1   7
TORSDOF 5
ENDMDL
MODEL 3
REMARK VINA RESULT:      -6.2      1.331      2.006
REMARK  5 active torsions:
REMARK  status: ('A' for Active; 'I' for Inactive)
REMARK    1  A    between atoms: C1_1  and  C9_9 
REMARK    2  A    between atoms: C6_6  and  C7_7 
REMARK    3  A    between atoms: C6_6  and  C8_8 
REMARK    4  A    between atoms: C7_7  and  C9_9 
REMARK    5  A    between atoms: C8_8  and  C10_10 
ROOT
HETATM    1  C7  UNL     1     -33.335   7.649   3.316  1.00 20.00     0.011 C 
ENDROOT
BRANCH   1   2
HETATM    2  C6  UNL     1     -31.874   7.993   2.998  1.00 20.00     0.001 C 
BRANCH   2   3
HETATM    3  C8  UNL     1     -31.727   8.485   1.554  1.00 20.00     0.004 C 
BRANCH   3   4
HETATM    4  C10 UNL     1     -32.856   9.434   1.111  1.00 20.00    -0.023 C 
HETATM    5  C4  UNL     1     -32.590  10.886   1.513  1.00 20.00     0.009 C 
HETATM    6  C5  UNL     1     -33.043   9.345  -0.406  1.00 20.00     0.009 C 
ENDBRANCH   3   4
ENDBRANCH   2   3
ENDBRANCH   1   2
BRANCH   1   7
HETATM    7  C9  UNL     1     -33.522   6.648   4.467  1.00 20.00     0.051 C 
HETATM    8  C3  UNL     1     -33.739   7.343   5.811  1.00 20.00     0.018 C 
BRANCH   7   9
HETATM    9  C1  UNL     1     -34.638   5.646   4.171  1.00 20.00     0.126 C 
HETATM   10  C2  UNL     1     -34.394   4.209   4.561  1.00 20.00     0.091 C 
HETATM   11  O11 UNL     1     -35.706   5.980   3.654  1.00 20.00    -0.298 OA
ENDBRANCH   7   9
ENDBRANCH   1   7
TORSDOF 5
ENDMDL
MODEL 4
REMARK VINA RESULT:      -6.1      2.157      5.216
REMARK  5 active torsions:
REMARK  status: ('A' for Active; 'I' for Inactive)
REMARK    1  A    between atoms: C1_1  and  C9_9 
REMARK    2  A    between atoms: C6_6  and  C7_7 
REMARK    3  A    between atoms: C6_6  and  C8_8 
REMARK    4  A    between atoms: C7_7  and  C9_9 
REMARK    5  A    between atoms: C8_8  and  C10_10 
ROOT
HETATM    1  C7  UNL     1     -32.925   6.781   1.931  1.00 20.00     0.011 C 
ENDROOT
BRANCH   1   2
HETATM    2  C6  UNL     1     -33.346   5.814   3.045  1.00 20.00     0.001 C 
BRANCH   2   3
HETATM    3  C8  UNL     1     -34.703   6.214   3.636  1.00 20.00     0.004 C 
BRANCH   3   4
HETATM    4  C10 UNL     1     -34.803   5.985   5.155  1.00 20.00    -0.023 C 
HETATM    5  C4  UNL     1     -34.403   4.565   5.560  1.00 20.00     0.009 C 
HETATM    6  C5  UNL     1     -33.923   6.999   5.891  1.00 20.00     0.009 C 
ENDBRANCH   3   4
ENDBRANCH   2   3
ENDBRANCH   1   2
BRANCH   1   7
HETATM    7  C9  UNL     1     -32.549   8.191   2.414  1.00 20.00     0.051 C 
HETATM    8  C3  UNL     1     -31.488   8.163   3.513  1.00 20.00     0.018 C 
BRANCH   7   9
HETATM    9  C1  UNL     1     -32.127   9.094   1.255  1.00 20.00     0.126 C 
HETATM   10  C2  UNL     1     -32.811  10.434   1.143  1.00 20.00     0.091 C 
HETATM   11  O11 UNL     1     -31.256   8.767   0.447  1.00 20.00    -0.298 OA
ENDBRANCH   7   9
ENDBRANCH   1   7
TORSDOF 5
ENDMDL
MODEL 5
REMARK VINA RESULT:      -5.8      2.073      5.191
REMARK  5 active torsions:
REMARK  status: ('A' for Active; 'I' for Inactive)
REMARK    1  A    between atoms: C1_1  and  C9_9 
REMARK    2  A    between atoms: C6_6  and  C7_7 
REMARK    3  A    between atoms: C6_6  and  C8_8 
REMARK    4  A    between atoms: C7_7  and  C9_9 
REMARK    5  A    between atoms: C8_8  and  C10_10 
ROOT
HETATM    1  C7  UNL     1     -32.614   6.651   2.598  1.00 20.00     0.011 C 
ENDROOT
BRANCH   1   2
HETATM    2  C6  UNL     1     -34.071   6.206   2.414  1.00 20.00     0.001 C 
BRANCH   2   3
HETATM    3  C8  UNL     1     -34.855   6.337   3.725  1.00 20.00     0.004 C 
BRANCH   3   4
HETATM    4  C10 UNL     1     -34.030   5.972   4.973  1.00 20.00    -0.023 C 
HETATM    5  C4  UNL     1     -33.953   7.122   5.979  1.00 20.00     0.009 C 
HETATM    6  C5  UNL     1     -34.629   4.736   5.648  1.00 20.00     0.009 C 
ENDBRANCH   3   4
ENDBRANCH   2   3
ENDBRANCH   1   2
BRANCH   1   7
HETATM    7  C9  UNL     1     -32.423   8.167   2.756  1.00 20.00     0.051 C 
HETATM    8  C3  UNL     1     -31.378   8.513   3.818  1.00 20.00     0.018 C 
BRANCH   7   9
HETATM    9  C1  UNL     1     -32.104   8.841   1.421  1.00 20.00     0.126 C 
HETATM   10  C2  UNL     1     -32.877  10.090   1.079  1.00 20.00     0.091 C 
HETATM   11  O11 UNL     1     -31.244   8.408   0.653  1.00 20.00    -0.298 OA
ENDBRANCH   7   9
ENDBRANCH   1   7
TORSDOF 5
ENDMDL
MODEL 6
REMARK VINA RESULT:      -5.3      1.889      5.086
REMARK  5 active torsions:
REMARK  status: ('A' for Active; 'I' for Inactive)
REMARK    1  A    between atoms: C1_1  and  C9_9 
REMARK    2  A    between atoms: C6_6  and  C7_7 
REMARK    3  A    between atoms: C6_6  and  C8_8 
REMARK    4  A    between atoms: C7_7  and  C9_9 
REMARK    5  A    between atoms: C8_8  and  C10_10 
ROOT
HETATM    1  C7  UNL     1     -32.024   8.269   2.667  1.00 20.00     0.011 C 
ENDROOT
BRANCH   1   2
HETATM    2  C6  UNL     1     -33.287   7.413   2.508  1.00 20.00     0.001 C 
BRANCH   2   3
HETATM    3  C8  UNL     1     -33.253   6.205   3.451  1.00 20.00     0.004 C 
BRANCH   3   4
HETATM    4  C10 UNL     1     -34.301   6.276   4.578  1.00 20.00    -0.023 C 
HETATM    5  C4  UNL     1     -34.627   4.899   5.161  1.00 20.00     0.009 C 
HETATM    6  C5  UNL     1     -33.804   7.202   5.691  1.00 20.00     0.009 C 
ENDBRANCH   3   4
ENDBRANCH   2   3
ENDBRANCH   1   2
BRANCH   1   7
HETATM    7  C9  UNL     1     -31.617   9.050   1.407  1.00 20.00     0.051 C 
HETATM    8  C3  UNL     1     -31.121   8.131   0.290  1.00 20.00     0.018 C 
BRANCH   7   9
HETATM    9  C1  UNL     1     -32.741   9.964   0.918  1.00 20.00     0.126 C 
HETATM   10  C2  UNL     1     -33.353   9.645  -0.423  1.00 20.00     0.091 C 
HETATM   11  O11 UNL     1     -33.156  10.913   1.584  1.00 20.00    -0.298 OA
ENDBRANCH   7   9
ENDBRANCH   1   7
TORSDOF 5
ENDMDL
MODEL 7
REMARK VINA RESULT:      -5.2      2.121      5.148
REMARK  5 active torsions:
REMARK  status: ('A' for Active; 'I' for Inactive)
REMARK    1  A    between atoms: C1_1  and  C9_9 
REMARK    2  A    between atoms: C6_6  and  C7_7 
REMARK    3  A    between atoms: C6_6  and  C8_8 
REMARK    4  A    between atoms: C7_7  and  C9_9 
REMARK    5  A    between atoms: C8_8  and  C10_10 
ROOT
HETATM    1  C7  UNL     1     -31.835   8.850   2.874  1.00 20.00     0.011 C 
ENDROOT
BRANCH   1   2
HETATM    2  C6  UNL     1     -32.185   7.384   3.160  1.00 20.00     0.001 C 
BRANCH   2   3
HETATM    3  C8  UNL     1     -33.464   7.278   3.998  1.00 20.00     0.004 C 
BRANCH   3   4
HETATM    4  C10 UNL     1     -34.269   5.992   3.731  1.00 20.00    -0.023 C 
HETATM    5  C4  UNL     1     -33.484   4.972   2.904  1.00 20.00     0.009 C 
HETATM    6  C5  UNL     1     -34.695   5.362   5.059  1.00 20.00     0.009 C 
ENDBRANCH   3   4
ENDBRANCH   2   3
ENDBRANCH   1   2
BRANCH   1   7
HETATM    7  C9  UNL     1     -32.644   9.492   1.736  1.00 20.00     0.051 C 
HETATM    8  C3  UNL     1     -32.704  11.015   1.856  1.00 20.00     0.018 C 
BRANCH   7   9
HETATM    9  C1  UNL     1     -32.131   9.061   0.362  1.00 20.00     0.126 C 
HETATM   10  C2  UNL     1     -33.067   9.236  -0.807  1.00 20.00     0.091 C 
HETATM   11  O11 UNL     1     -30.999   8.605   0.194  1.00 20.00    -0.298 OA
ENDBRANCH   7   9
ENDBRANCH   1   7
TORSDOF 5
ENDMDL
MODEL 8
REMARK VINA RESULT:      -4.5     10.253     10.987
REMARK  5 active torsions:
REMARK  status: ('A' for Active; 'I' for Inactive)
REMARK    1  A    between atoms: C1_1  and  C9_9 
REMARK    2  A    between atoms: C6_6  and  C7_7 
REMARK    3  A    between atoms: C6_6  and  C8_8 
REMARK    4  A    between atoms: C7_7  and  C9_9 
REMARK    5  A    between atoms: C8_8  and  C10_10 
ROOT
HETATM    1  C7  UNL     1     -33.824  14.705  -4.284  1.00 20.00     0.011 C 
ENDROOT
BRANCH   1   2
HETATM    2  C6  UNL     1     -33.647  16.022  -3.517  1.00 20.00     0.001 C 
BRANCH   2   3
HETATM    3  C8  UNL     1     -34.852  16.296  -2.611  1.00 20.00     0.004 C 
BRANCH   3   4
HETATM    4  C10 UNL     1     -34.655  17.503  -1.675  1.00 20.00    -0.023 C 
HETATM    5  C4  UNL     1     -35.378  17.331  -0.338  1.00 20.00     0.009 C 
HETATM    6  C5  UNL     1     -33.161  17.729  -1.427  1.00 20.00     0.009 C 
ENDBRANCH   3   4
ENDBRANCH   2   3
ENDBRANCH   1   2
BRANCH   1   7
HETATM    7  C9  UNL     1     -34.833  14.769  -5.441  1.00 20.00     0.051 C 
HETATM    8  C3  UNL     1     -34.174  14.527  -6.799  1.00 20.00     0.018 C 
BRANCH   7   9
HETATM    9  C1  UNL     1     -36.013  13.822  -5.218  1.00 20.00     0.126 C 
HETATM   10  C2  UNL     1     -37.365  14.450  -4.989  1.00 20.00     0.091 C 
HETATM   11  O11 UNL     1     -35.888  12.597  -5.240  1.00 20.00    -0.298 OA
ENDBRANCH   7   9
ENDBRANCH   1   7
TORSDOF 5
ENDMDL
MODEL 9
REMARK VINA RESULT:      -4.5      1.897      4.949
REMARK  5 active torsions:
REMARK  status: ('A' for Active; 'I' for Inactive)
REMARK    1  A    between atoms: C1_1  and  C9_9 
REMARK    2  A    between atoms: C6_6  and  C7_7 
REMARK    3  A    between atoms: C6_6  and  C8_8 
REMARK    4  A    between atoms: C7_7  and  C9_9 
REMARK    5  A    between atoms: C8_8  and  C10_10 
ROOT
HETATM    1  C7  UNL     1     -32.319   8.000   4.206  1.00 20.00     0.011 C 
ENDROOT
BRANCH   1   2
HETATM    2  C6  UNL     1     -33.775   7.734   4.610  1.00 20.00     0.001 C 
BRANCH   2   3
HETATM    3  C8  UNL     1     -33.866   6.570   5.602  1.00 20.00     0.004 C 
BRANCH   3   4
HETATM    4  C10 UNL     1     -34.837   5.459   5.159  1.00 20.00    -0.023 C 
HETATM    5  C4  UNL     1     -35.594   5.821   3.880  1.00 20.00     0.009 C 
HETATM    6  C5  UNL     1     -34.068   4.151   4.952  1.00 20.00     0.009 C 
ENDBRANCH   3   4
ENDBRANCH   2   3
ENDBRANCH   1   2
BRANCH   1   7
HETATM    7  C9  UNL     1     -31.974   7.613   2.760  1.00 20.00     0.051 C 
HETATM    8  C3  UNL     1     -32.813   6.438   2.259  1.00 20.00     0.018 C 
BRANCH   7   9
HETATM    9  C1  UNL     1     -32.070   8.810   1.814  1.00 20.00     0.126 C 
HETATM   10  C2  UNL     1     -31.403   8.677   0.467  1.00 20.00     0.091 C 
HETATM   11  O11 UNL     1     -32.676   9.840   2.112  1.00 20.00    -0.298 OA
ENDBRANCH   7   9
ENDBRANCH   1   7
TORSDOF 5
ENDMDL
