MODEL 1
REMARK VINA RESULT:      -6.3      0.000      0.000
REMARK  0 active torsions:
REMARK  status: ('A' for Active; 'I' for Inactive)
ROOT
HETATM    1  C1  UNL     1     -32.242   8.225   2.310  1.00 20.00    -0.077 C 
HETATM    2  C2  UNL     1     -32.634   7.318   3.217  1.00 20.00    -0.077 C 
HETATM    3  C3  UNL     1     -31.871   9.636   2.686  1.00 20.00     0.034 C 
HETATM    4  C4  UNL     1     -32.164   7.915   0.838  1.00 20.00     0.034 C 
HETATM    5  C5  UNL     1     -33.006   5.908   2.839  1.00 20.00     0.034 C 
HETATM    6  C6  UNL     1     -32.758   7.642   4.683  1.00 20.00     0.034 C 
HETATM    7  C7  UNL     1     -32.674  10.646   1.864  1.00 20.00     0.004 C 
HETATM    8  C8  UNL     1     -32.966   8.933   0.026  1.00 20.00     0.004 C 
HETATM    9  C9  UNL     1     -34.397   5.554   3.369  1.00 20.00     0.004 C 
HETATM   10  C10 UNL     1     -34.150   7.280   5.202  1.00 20.00     0.004 C 
HETATM   11  C11 UNL     1     -32.568  10.371   0.363  1.00 20.00     0.001 C 
HETATM   12  C12 UNL     1     -34.524   5.834   4.867  1.00 20.00     0.001 C 
ENDROOT
TORSDOF 0
ENDMDL
MODEL 2
REMARK VINA RESULT:      -6.2      0.011      4.813
REMARK  0 active torsions:
REMARK  status: ('A' for Active; 'I' for Inactive)
ROOT
HETATM    1  C1  UNL     1     -32.629   7.324   3.210  1.00 20.00    -0.077 C 
HETATM    2  C2  UNL     1     -32.237   8.232   2.304  1.00 20.00    -0.077 C 
HETATM    3  C3  UNL     1     -32.996   5.912   2.833  1.00 20.00     0.034 C 
HETATM    4  C4  UNL     1     -32.758   7.648   4.675  1.00 20.00     0.034 C 
HETATM    5  C5  UNL     1     -31.872   9.644   2.681  1.00 20.00     0.034 C 
HETATM    6  C6  UNL     1     -32.155   7.921   0.832  1.00 20.00     0.034 C 
HETATM    7  C7  UNL     1     -34.387   5.554   3.359  1.00 20.00     0.004 C 
HETATM    8  C8  UNL     1     -34.151   7.282   5.191  1.00 20.00     0.004 C 
HETATM    9  C9  UNL     1     -32.676  10.651   1.857  1.00 20.00     0.004 C 
HETATM   10  C10 UNL     1     -32.957   8.936   0.018  1.00 20.00     0.004 C 
HETATM   11  C11 UNL     1     -34.520   5.836   4.857  1.00 20.00     0.001 C 
HETATM   12  C12 UNL     1     -32.564  10.376   0.357  1.00 20.00     0.001 C 
ENDROOT
TORSDOF 0
ENDMDL
MODEL 3
REMARK VINA RESULT:      -5.1     10.236     11.262
REMARK  0 active torsions:
REMARK  status: ('A' for Active; 'I' for Inactive)
ROOT
HETATM    1  C1  UNL     1     -33.135  19.001   0.785  1.00 20.00    -0.077 C 
HETATM    2  C2  UNL     1     -33.774  18.606  -0.326  1.00 20.00    -0.077 C 
HETATM    3  C3  UNL     1     -31.652  19.262   0.815  1.00 20.00     0.034 C 
HETATM    4  C4  UNL     1     -33.844  19.192   2.100  1.00 20.00     0.034 C 
HETATM    5  C5  UNL     1     -35.257  18.344  -0.355  1.00 20.00     0.034 C 
HETATM    6  C6  UNL     1     -33.056  18.369  -1.630  1.00 20.00     0.034 C 
HETATM    7  C7  UNL     1     -30.981  18.455   1.927  1.00 20.00     0.004 C 
HETATM    8  C8  UNL     1     -33.162  18.384   3.206  1.00 20.00     0.004 C 
HETATM    9  C9  UNL     1     -35.550  16.945  -0.902  1.00 20.00     0.004 C 
HETATM   10  C10 UNL     1     -33.360  16.971  -2.169  1.00 20.00     0.004 C 
HETATM   11  C11 UNL     1     -31.662  18.673   3.279  1.00 20.00     0.001 C 
HETATM   12  C12 UNL     1     -34.865  16.706  -2.248  1.00 20.00     0.001 C 
ENDROOT
TORSDOF 0
ENDMDL
MODEL 4
REMARK VINA RESULT:      -5.1     10.294     11.040
REMARK  0 active torsions:
REMARK  status: ('A' for Active; 'I' for Inactive)
ROOT
HETATM    1  C1  UNL     1     -33.760  18.640  -0.356  1.00 20.00    -0.077 C 
HETATM    2  C2  UNL     1     -33.159  19.015   0.782  1.00 20.00    -0.077 C 
HETATM    3  C3  UNL     1     -35.244  18.393  -0.444  1.00 20.00     0.034 C 
HETATM    4  C4  UNL     1     -32.998  18.412  -1.635  1.00 20.00     0.034 C 
HETATM    5  C5  UNL     1     -31.675  19.260   0.869  1.00 20.00     0.034 C 
HETATM    6  C6  UNL     1     -33.915  19.196   2.073  1.00 20.00     0.034 C 
HETATM    7  C7  UNL     1     -35.530  17.004  -1.018  1.00 20.00     0.004 C 
HETATM    8  C8  UNL     1     -33.295  17.023  -2.203  1.00 20.00     0.004 C 
HETATM    9  C9  UNL     1     -31.054  18.433   1.996  1.00 20.00     0.004 C 
HETATM   10  C10 UNL     1     -33.282  18.369   3.193  1.00 20.00     0.004 C 
HETATM   11  C11 UNL     1     -34.798  16.774  -2.341  1.00 20.00     0.001 C 
HETATM   12  C12 UNL     1     -31.782  18.643   3.324  1.00 20.00     0.001 C 
ENDROOT
TORSDOF 0
ENDMDL
MODEL 5
REMARK VINA RESULT:      -4.8      9.988     11.080
REMARK  0 active torsions:
REMARK  status: ('A' for Active; 'I' for Inactive)
ROOT
HETATM    1  C1  UNL     1     -34.579  16.688  -3.938  1.00 20.00    -0.077 C 
HETATM    2  C2  UNL     1     -34.569  17.471  -2.850  1.00 20.00    -0.077 C 
HETATM    3  C3  UNL     1     -35.713  15.745  -4.244  1.00 20.00     0.034 C 
HETATM    4  C4  UNL     1     -33.447  16.669  -4.931  1.00 20.00     0.034 C 
HETATM    5  C5  UNL     1     -33.434  18.413  -2.543  1.00 20.00     0.034 C 
HETATM    6  C6  UNL     1     -35.679  17.455  -1.832  1.00 20.00     0.034 C 
HETATM    7  C7  UNL     1     -35.193  14.323  -4.463  1.00 20.00     0.004 C 
HETATM    8  C8  UNL     1     -32.937  15.243  -5.146  1.00 20.00     0.004 C 
HETATM    9  C9  UNL     1     -32.890  18.167  -1.135  1.00 20.00     0.004 C 
HETATM   10  C10 UNL     1     -35.124  17.213  -0.428  1.00 20.00     0.004 C 
HETATM   11  C11 UNL     1     -34.072  14.281  -5.503  1.00 20.00     0.001 C 
HETATM   12  C12 UNL     1     -34.000  18.194  -0.084  1.00 20.00     0.001 C 
ENDROOT
TORSDOF 0
ENDMDL
MODEL 6
REMARK VINA RESULT:      -4.8      9.964     11.160
REMARK  0 active torsions:
REMARK  status: ('A' for Active; 'I' for Inactive)
ROOT
HETATM    1  C1  UNL     1     -34.496  17.503  -2.810  1.00 20.00    -0.077 C 
HETATM    2  C2  UNL     1     -34.523  16.706  -3.889  1.00 20.00    -0.077 C 
HETATM    3  C3  UNL     1     -33.352  18.442  -2.527  1.00 20.00     0.034 C 
HETATM    4  C4  UNL     1     -35.595  17.507  -1.781  1.00 20.00     0.034 C 
HETATM    5  C5  UNL     1     -35.667  15.767  -4.171  1.00 20.00     0.034 C 
HETATM    6  C6  UNL     1     -33.401  16.668  -4.893  1.00 20.00     0.034 C 
HETATM    7  C7  UNL     1     -32.795  18.210  -1.122  1.00 20.00     0.004 C 
HETATM    8  C8  UNL     1     -35.027  17.279  -0.379  1.00 20.00     0.004 C 
HETATM    9  C9  UNL     1     -35.157  14.339  -4.377  1.00 20.00     0.004 C 
HETATM   10  C10 UNL     1     -32.903  15.237  -5.096  1.00 20.00     0.004 C 
HETATM   11  C11 UNL     1     -33.894  18.256  -0.059  1.00 20.00     0.001 C 
HETATM   12  C12 UNL     1     -34.049  14.278  -5.429  1.00 20.00     0.001 C 
ENDROOT
TORSDOF 0
ENDMDL
MODEL 7
REMARK VINA RESULT:      -4.7     10.326     11.225
REMARK  0 active torsions:
REMARK  status: ('A' for Active; 'I' for Inactive)
ROOT
HETATM    1  C1  UNL     1     -34.382  16.094  -3.389  1.00 20.00    -0.077 C 
HETATM    2  C2  UNL     1     -34.279  16.772  -2.237  1.00 20.00    -0.077 C 
HETATM    3  C3  UNL     1     -33.231  15.954  -4.350  1.00 20.00     0.034 C 
HETATM    4  C4  UNL     1     -35.664  15.436  -3.827  1.00 20.00     0.034 C 
HETATM    5  C5  UNL     1     -35.431  16.912  -1.276  1.00 20.00     0.034 C 
HETATM    6  C6  UNL     1     -33.011  17.471  -1.821  1.00 20.00     0.034 C 
HETATM    7  C7  UNL     1     -33.637  16.412  -5.752  1.00 20.00     0.004 C 
HETATM    8  C8  UNL     1     -36.058  15.897  -5.231  1.00 20.00     0.004 C 
HETATM    9  C9  UNL     1     -35.691  18.385  -0.951  1.00 20.00     0.004 C 
HETATM   10  C10 UNL     1     -33.283  18.940  -1.494  1.00 20.00     0.004 C 
HETATM   11  C11 UNL     1     -34.913  15.718  -6.230  1.00 20.00     0.001 C 
HETATM   12  C12 UNL     1     -34.421  19.097  -0.483  1.00 20.00     0.001 C 
ENDROOT
TORSDOF 0
ENDMDL
MODEL 8
REMARK VINA RESULT:      -4.7     10.332     11.444
REMARK  0 active torsions:
REMARK  status: ('A' for Active; 'I' for Inactive)
ROOT
HETATM    1  C1  UNL     1     -34.323  16.751  -2.252  1.00 20.00    -0.077 C 
HETATM    2  C2  UNL     1     -34.446  16.105  -3.421  1.00 20.00    -0.077 C 
HETATM    3  C3  UNL     1     -35.464  16.883  -1.277  1.00 20.00     0.034 C 
HETATM    4  C4  UNL     1     -33.042  17.420  -1.830  1.00 20.00     0.034 C 
HETATM    5  C5  UNL     1     -33.305  15.974  -4.396  1.00 20.00     0.034 C 
HETATM    6  C6  UNL     1     -35.742  15.477  -3.865  1.00 20.00     0.034 C 
HETATM    7  C7  UNL     1     -35.700  18.349  -0.912  1.00 20.00     0.004 C 
HETATM    8  C8  UNL     1     -33.289  18.883  -1.462  1.00 20.00     0.004 C 
HETATM    9  C9  UNL     1     -33.717  16.475  -5.782  1.00 20.00     0.004 C 
HETATM   10  C10 UNL     1     -36.141  15.981  -5.252  1.00 20.00     0.004 C 
HETATM   11  C11 UNL     1     -34.415  19.031  -0.437  1.00 20.00     0.001 C 
HETATM   12  C12 UNL     1     -35.007  15.812  -6.266  1.00 20.00     0.001 C 
ENDROOT
TORSDOF 0
ENDMDL
MODEL 9
REMARK VINA RESULT:      -4.6      9.672     11.324
REMARK  0 active torsions:
REMARK  status: ('A' for Active; 'I' for Inactive)
ROOT
HETATM    1  C1  UNL     1     -34.090  16.589  -3.225  1.00 20.00    -0.077 C 
HETATM    2  C2  UNL     1     -33.903  15.599  -4.110  1.00 20.00    -0.077 C 
HETATM    3  C3  UNL     1     -35.000  16.447  -2.033  1.00 20.00     0.034 C 
HETATM    4  C4  UNL     1     -33.423  17.933  -3.363  1.00 20.00     0.034 C 
HETATM    5  C5  UNL     1     -32.993  15.743  -5.302  1.00 20.00     0.034 C 
HETATM    6  C6  UNL     1     -34.607  14.272  -3.999  1.00 20.00     0.034 C 
HETATM    7  C7  UNL     1     -36.027  17.580  -1.997  1.00 20.00     0.004 C 
HETATM    8  C8  UNL     1     -34.458  19.058  -3.320  1.00 20.00     0.004 C 
HETATM    9  C9  UNL     1     -33.735  15.399  -6.595  1.00 20.00     0.004 C 
HETATM   10  C10 UNL     1     -35.340  13.936  -5.297  1.00 20.00     0.004 C 
HETATM   11  C11 UNL     1     -35.362  18.954  -2.090  1.00 20.00     0.001 C 
HETATM   12  C12 UNL     1     -34.416  14.032  -6.514  1.00 20.00     0.001 C 
ENDROOT
TORSDOF 0
ENDMDL
