MODEL 1
REMARK VINA RESULT:      -4.4      0.000      0.000
REMARK  1 active torsions:
REMARK  status: ('A' for Active; 'I' for Inactive)
REMARK    1  A    between atoms: C1_1  and  C7_7 
ROOT
HETATM    1  C2  UNL     1     -34.392   6.152   6.295  1.00 20.00     0.000 C 
HETATM    2  C3  UNL     1     -33.680   7.267   5.538  1.00 20.00     0.001 C 
HETATM    3  C4  UNL     1     -34.381   4.847   5.507  1.00 20.00     0.001 C 
HETATM    4  C5  UNL     1     -34.270   7.469   4.142  1.00 20.00     0.018 C 
HETATM    5  C6  UNL     1     -34.978   5.025   4.110  1.00 20.00     0.018 C 
HETATM    6  C7  UNL     1     -34.333   6.173   3.330  1.00 20.00     0.032 C 
HETATM    7  C8  UNL     1     -35.040   6.395   1.993  1.00 20.00     0.025 C 
ENDROOT
BRANCH   6   8
HETATM    8  C1  UNL     1     -32.923   5.771   2.900  1.00 20.00     0.227 C 
HETATM    9  O9  UNL     1     -32.619   4.600   2.696  1.00 20.00    -0.279 OA
HETATM   10 CL10 UNL     1     -31.869   7.145   2.749  1.00 20.00    -0.043 Cl
ENDBRANCH   6   8
TORSDOF 1
ENDMDL
MODEL 2
REMARK VINA RESULT:      -4.4     12.027     13.055
REMARK  1 active torsions:
REMARK  status: ('A' for Active; 'I' for Inactive)
REMARK    1  A    between atoms: C1_1  and  C7_7 
ROOT
HETATM    1  C2  UNL     1     -32.890  15.707  -5.315  1.00 20.00     0.000 C 
HETATM    2  C3  UNL     1     -33.914  15.956  -6.415  1.00 20.00     0.001 C 
HETATM    3  C4  UNL     1     -33.289  14.527  -4.436  1.00 20.00     0.001 C 
HETATM    4  C5  UNL     1     -35.320  16.151  -5.846  1.00 20.00     0.018 C 
HETATM    5  C6  UNL     1     -34.689  14.708  -3.847  1.00 20.00     0.018 C 
HETATM    6  C7  UNL     1     -35.745  15.017  -4.910  1.00 20.00     0.032 C 
HETATM    7  C8  UNL     1     -37.101  15.312  -4.269  1.00 20.00     0.025 C 
ENDROOT
BRANCH   6   8
HETATM    8  C1  UNL     1     -36.030  13.759  -5.729  1.00 20.00     0.227 C 
HETATM    9  O9  UNL     1     -35.863  12.635  -5.266  1.00 20.00    -0.279 OA
HETATM   10 CL10 UNL     1     -36.598  14.135  -7.329  1.00 20.00    -0.043 Cl
ENDBRANCH   6   8
TORSDOF 1
ENDMDL
MODEL 3
REMARK VINA RESULT:      -4.3     12.046     12.901
REMARK  1 active torsions:
REMARK  status: ('A' for Active; 'I' for Inactive)
REMARK    1  A    between atoms: C1_1  and  C7_7 
ROOT
HETATM    1  C2  UNL     1     -33.881  15.865  -3.443  1.00 20.00     0.000 C 
HETATM    2  C3  UNL     1     -33.548  14.570  -4.175  1.00 20.00     0.001 C 
HETATM    3  C4  UNL     1     -35.365  16.198  -3.543  1.00 20.00     0.001 C 
HETATM    4  C5  UNL     1     -34.000  14.613  -5.635  1.00 20.00     0.018 C 
HETATM    5  C6  UNL     1     -35.836  16.256  -4.998  1.00 20.00     0.018 C 
HETATM    6  C7  UNL     1     -35.473  14.999  -5.790  1.00 20.00     0.032 C 
HETATM    7  C8  UNL     1     -35.850  15.150  -7.264  1.00 20.00     0.025 C 
ENDROOT
BRANCH   6   8
HETATM    8  C1  UNL     1     -36.356  13.836  -5.338  1.00 20.00     0.227 C 
HETATM    9  O9  UNL     1     -35.915  12.698  -5.222  1.00 20.00    -0.279 OA
HETATM   10 CL10 UNL     1     -37.990  14.339  -5.027  1.00 20.00    -0.043 Cl
ENDBRANCH   6   8
TORSDOF 1
ENDMDL
MODEL 4
REMARK VINA RESULT:      -4.2      1.949      2.671
REMARK  1 active torsions:
REMARK  status: ('A' for Active; 'I' for Inactive)
REMARK    1  A    between atoms: C1_1  and  C7_7 
ROOT
HETATM    1  C2  UNL     1     -32.123   8.176   4.138  1.00 20.00     0.000 C 
HETATM    2  C3  UNL     1     -32.198   7.263   2.920  1.00 20.00     0.001 C 
HETATM    3  C4  UNL     1     -32.866   7.581   5.329  1.00 20.00     0.001 C 
HETATM    4  C5  UNL     1     -33.644   6.931   2.549  1.00 20.00     0.018 C 
HETATM    5  C6  UNL     1     -34.319   7.251   4.982  1.00 20.00     0.018 C 
HETATM    6  C7  UNL     1     -34.448   6.381   3.730  1.00 20.00     0.032 C 
HETATM    7  C8  UNL     1     -35.915   6.180   3.350  1.00 20.00     0.025 C 
ENDROOT
BRANCH   6   8
HETATM    8  C1  UNL     1     -33.987   4.959   4.045  1.00 20.00     0.227 C 
HETATM    9  O9  UNL     1     -33.360   4.289   3.231  1.00 20.00    -0.279 OA
HETATM   10 CL10 UNL     1     -34.458   4.457   5.641  1.00 20.00    -0.043 Cl
ENDBRANCH   6   8
TORSDOF 1
ENDMDL
MODEL 5
REMARK VINA RESULT:      -4.1     11.866     13.374
REMARK  1 active torsions:
REMARK  status: ('A' for Active; 'I' for Inactive)
REMARK    1  A    between atoms: C1_1  and  C7_7 
ROOT
HETATM    1  C2  UNL     1     -33.998  14.775  -7.884  1.00 20.00     0.000 C 
HETATM    2  C3  UNL     1     -34.469  13.514  -7.170  1.00 20.00     0.001 C 
HETATM    3  C4  UNL     1     -33.770  15.920  -6.903  1.00 20.00     0.001 C 
HETATM    4  C5  UNL     1     -35.723  13.773  -6.333  1.00 20.00     0.018 C 
HETATM    5  C6  UNL     1     -35.016  16.203  -6.063  1.00 20.00     0.018 C 
HETATM    6  C7  UNL     1     -35.562  14.952  -5.370  1.00 20.00     0.032 C 
HETATM    7  C8  UNL     1     -36.873  15.253  -4.645  1.00 20.00     0.025 C 
ENDROOT
BRANCH   6   8
HETATM    8  C1  UNL     1     -34.631  14.554  -4.226  1.00 20.00     0.227 C 
HETATM    9  O9  UNL     1     -34.355  13.381  -3.997  1.00 20.00    -0.279 OA
HETATM   10 CL10 UNL     1     -34.052  15.935  -3.344  1.00 20.00    -0.043 Cl
ENDBRANCH   6   8
TORSDOF 1
ENDMDL
MODEL 6
REMARK VINA RESULT:      -4.0     11.750     12.526
REMARK  1 active torsions:
REMARK  status: ('A' for Active; 'I' for Inactive)
REMARK    1  A    between atoms: C1_1  and  C7_7 
ROOT
HETATM    1  C2  UNL     1     -35.839  16.890  -2.468  1.00 20.00     0.000 C 
HETATM    2  C3  UNL     1     -34.370  16.556  -2.243  1.00 20.00     0.001 C 
HETATM    3  C4  UNL     1     -36.456  16.002  -3.543  1.00 20.00     0.001 C 
HETATM    4  C5  UNL     1     -33.566  16.634  -3.541  1.00 20.00     0.018 C 
HETATM    5  C6  UNL     1     -35.673  16.075  -4.855  1.00 20.00     0.018 C 
HETATM    6  C7  UNL     1     -34.178  15.802  -4.670  1.00 20.00     0.032 C 
HETATM    7  C8  UNL     1     -33.416  16.006  -5.980  1.00 20.00     0.025 C 
ENDROOT
BRANCH   6   8
HETATM    8  C1  UNL     1     -33.961  14.316  -4.386  1.00 20.00     0.227 C 
HETATM    9  O9  UNL     1     -34.890  13.515  -4.392  1.00 20.00    -0.279 OA
HETATM   10 CL10 UNL     1     -32.292  13.949  -4.069  1.00 20.00    -0.043 Cl
ENDBRANCH   6   8
TORSDOF 1
ENDMDL
MODEL 7
REMARK VINA RESULT:      -4.0     12.100     12.845
REMARK  1 active torsions:
REMARK  status: ('A' for Active; 'I' for Inactive)
REMARK    1  A    between atoms: C1_1  and  C7_7 
ROOT
HETATM    1  C2  UNL     1     -37.181  14.209  -5.159  1.00 20.00     0.000 C 
HETATM    2  C3  UNL     1     -36.715  15.419  -4.358  1.00 20.00     0.001 C 
HETATM    3  C4  UNL     1     -36.013  13.309  -5.543  1.00 20.00     0.001 C 
HETATM    4  C5  UNL     1     -35.639  16.210  -5.104  1.00 20.00     0.018 C 
HETATM    5  C6  UNL     1     -34.930  14.079  -6.300  1.00 20.00     0.018 C 
HETATM    6  C7  UNL     1     -34.468  15.336  -5.560  1.00 20.00     0.032 C 
HETATM    7  C8  UNL     1     -33.479  16.139  -6.405  1.00 20.00     0.025 C 
ENDROOT
BRANCH   6   8
HETATM    8  C1  UNL     1     -33.625  14.938  -4.349  1.00 20.00     0.227 C 
HETATM    9  O9  UNL     1     -33.056  13.853  -4.287  1.00 20.00    -0.279 OA
HETATM   10 CL10 UNL     1     -33.594  16.183  -3.137  1.00 20.00    -0.043 Cl
ENDBRANCH   6   8
TORSDOF 1
ENDMDL
MODEL 8
REMARK VINA RESULT:      -4.0      1.963      2.513
REMARK  1 active torsions:
REMARK  status: ('A' for Active; 'I' for Inactive)
REMARK    1  A    between atoms: C1_1  and  C7_7 
ROOT
HETATM    1  C2  UNL     1     -34.327   4.137   4.180  1.00 20.00     0.000 C 
HETATM    2  C3  UNL     1     -34.939   5.392   4.791  1.00 20.00     0.001 C 
HETATM    3  C4  UNL     1     -32.933   4.407   3.627  1.00 20.00     0.001 C 
HETATM    4  C5  UNL     1     -34.964   6.552   3.794  1.00 20.00     0.018 C 
HETATM    5  C6  UNL     1     -32.937   5.558   2.619  1.00 20.00     0.018 C 
HETATM    6  C7  UNL     1     -33.594   6.826   3.168  1.00 20.00     0.032 C 
HETATM    7  C8  UNL     1     -33.688   7.907   2.092  1.00 20.00     0.025 C 
ENDROOT
BRANCH   6   8
HETATM    8  C1  UNL     1     -32.677   7.469   4.208  1.00 20.00     0.227 C 
HETATM    9  O9  UNL     1     -31.575   7.917   3.907  1.00 20.00    -0.279 OA
HETATM   10 CL10 UNL     1     -33.387   7.472   5.794  1.00 20.00    -0.043 Cl
ENDBRANCH   6   8
TORSDOF 1
ENDMDL
MODEL 9
REMARK VINA RESULT:      -3.9     12.439     12.941
REMARK  1 active torsions:
REMARK  status: ('A' for Active; 'I' for Inactive)
REMARK    1  A    between atoms: C1_1  and  C7_7 
ROOT
HETATM    1  C2  UNL     1     -34.776  16.452  -2.508  1.00 20.00     0.000 C 
HETATM    2  C3  UNL     1     -36.086  16.663  -3.258  1.00 20.00     0.001 C 
HETATM    3  C4  UNL     1     -33.695  15.885  -3.420  1.00 20.00     0.001 C 
HETATM    4  C5  UNL     1     -36.564  15.378  -3.936  1.00 20.00     0.018 C 
HETATM    5  C6  UNL     1     -34.148  14.592  -4.100  1.00 20.00     0.018 C 
HETATM    6  C7  UNL     1     -35.490  14.739  -4.821  1.00 20.00     0.032 C 
HETATM    7  C8  UNL     1     -35.965  13.398  -5.379  1.00 20.00     0.025 C 
ENDROOT
BRANCH   6   8
HETATM    8  C1  UNL     1     -35.304  15.578  -6.084  1.00 20.00     0.227 C 
HETATM    9  O9  UNL     1     -36.165  16.360  -6.474  1.00 20.00    -0.279 OA
HETATM   10 CL10 UNL     1     -33.771  15.279  -6.847  1.00 20.00    -0.043 Cl
ENDBRANCH   6   8
TORSDOF 1
ENDMDL
