MODEL 1
REMARK VINA RESULT:      -5.1      0.000      0.000
REMARK  0 active torsions:
REMARK  status: ('A' for Active; 'I' for Inactive)
ROOT
HETATM    1  C1  UNL     1     -35.444  13.345  -6.650  1.00 20.00     0.127 C 
HETATM    2  C2  UNL     1     -35.195  14.358  -7.740  1.00 20.00     0.078 C 
HETATM    3  C3  UNL     1     -36.249  13.822  -5.461  1.00 20.00     0.087 C 
HETATM    4  C4  UNL     1     -34.630  15.643  -7.154  1.00 20.00     0.008 C 
HETATM    5  C5  UNL     1     -34.810  16.483  -2.311  1.00 20.00     0.000 C 
HETATM    6  C6  UNL     1     -33.782  15.959  -3.308  1.00 20.00     0.001 C 
HETATM    7  C7  UNL     1     -36.133  16.829  -2.985  1.00 20.00     0.001 C 
HETATM    8  C8  UNL     1     -35.473  16.160  -5.987  1.00 20.00     0.010 C 
HETATM    9  C9  UNL     1     -34.332  14.790  -4.124  1.00 20.00     0.010 C 
HETATM   10  C10 UNL     1     -36.674  15.658  -3.805  1.00 20.00     0.010 C 
HETATM   11  C11 UNL     1     -35.664  15.117  -4.851  1.00 20.00    -0.034 C 
HETATM   12  O12 UNL     1     -35.093  12.172  -6.764  1.00 20.00    -0.298 OA
ENDROOT
TORSDOF 0
ENDMDL
MODEL 2
REMARK VINA RESULT:      -4.8      2.734      3.656
REMARK  0 active torsions:
REMARK  status: ('A' for Active; 'I' for Inactive)
ROOT
HETATM    1  C1  UNL     1     -33.570  16.161  -4.617  1.00 20.00     0.127 C 
HETATM    2  C2  UNL     1     -34.040  17.335  -5.440  1.00 20.00     0.078 C 
HETATM    3  C3  UNL     1     -34.318  15.904  -3.327  1.00 20.00     0.087 C 
HETATM    4  C4  UNL     1     -34.131  18.586  -4.581  1.00 20.00     0.008 C 
HETATM    5  C5  UNL     1     -33.989  18.275   0.326  1.00 20.00     0.000 C 
HETATM    6  C6  UNL     1     -33.000  18.576  -0.795  1.00 20.00     0.001 C 
HETATM    7  C7  UNL     1     -35.386  17.984  -0.209  1.00 20.00     0.001 C 
HETATM    8  C8  UNL     1     -34.934  18.346  -3.301  1.00 20.00     0.010 C 
HETATM    9  C9  UNL     1     -32.990  17.471  -1.851  1.00 20.00     0.010 C 
HETATM   10  C10 UNL     1     -35.369  16.884  -1.270  1.00 20.00     0.010 C 
HETATM   11  C11 UNL     1     -34.394  17.170  -2.443  1.00 20.00    -0.034 C 
HETATM   12  O12 UNL     1     -32.691  15.400  -5.017  1.00 20.00    -0.298 OA
ENDROOT
TORSDOF 0
ENDMDL
MODEL 3
REMARK VINA RESULT:      -4.8      2.001      2.903
REMARK  0 active torsions:
REMARK  status: ('A' for Active; 'I' for Inactive)
ROOT
HETATM    1  C1  UNL     1     -36.731  14.873  -4.614  1.00 20.00     0.127 C 
HETATM    2  C2  UNL     1     -35.703  13.816  -4.938  1.00 20.00     0.078 C 
HETATM    3  C3  UNL     1     -36.277  16.311  -4.737  1.00 20.00     0.087 C 
HETATM    4  C4  UNL     1     -34.417  14.070  -4.168  1.00 20.00     0.008 C 
HETATM    5  C5  UNL     1     -33.628  18.394  -1.960  1.00 20.00     0.000 C 
HETATM    6  C6  UNL     1     -34.127  17.013  -1.548  1.00 20.00     0.001 C 
HETATM    7  C7  UNL     1     -33.293  18.459  -3.445  1.00 20.00     0.001 C 
HETATM    8  C8  UNL     1     -33.923  15.508  -4.335  1.00 20.00     0.010 C 
HETATM    9  C9  UNL     1     -35.296  16.553  -2.418  1.00 20.00     0.010 C 
HETATM   10  C10 UNL     1     -34.463  17.990  -4.310  1.00 20.00     0.010 C 
HETATM   11  C11 UNL     1     -34.980  16.576  -3.939  1.00 20.00    -0.034 C 
HETATM   12  O12 UNL     1     -37.898  14.583  -4.356  1.00 20.00    -0.298 OA
ENDROOT
TORSDOF 0
ENDMDL
MODEL 4
REMARK VINA RESULT:      -4.8      2.963      5.214
REMARK  0 active torsions:
REMARK  status: ('A' for Active; 'I' for Inactive)
ROOT
HETATM    1  C1  UNL     1     -33.030  18.110  -1.504  1.00 20.00     0.127 C 
HETATM    2  C2  UNL     1     -34.190  18.041  -0.541  1.00 20.00     0.078 C 
HETATM    3  C3  UNL     1     -33.381  18.217  -2.972  1.00 20.00     0.087 C 
HETATM    4  C4  UNL     1     -35.172  16.961  -0.967  1.00 20.00     0.008 C 
HETATM    5  C5  UNL     1     -34.931  14.984  -5.465  1.00 20.00     0.000 C 
HETATM    6  C6  UNL     1     -34.448  14.618  -4.065  1.00 20.00     0.001 C 
HETATM    7  C7  UNL     1     -35.676  16.313  -5.481  1.00 20.00     0.001 C 
HETATM    8  C8  UNL     1     -35.574  17.099  -2.437  1.00 20.00     0.010 C 
HETATM    9  C9  UNL     1     -33.624  15.744  -3.440  1.00 20.00     0.010 C 
HETATM   10  C10 UNL     1     -34.850  17.433  -4.848  1.00 20.00     0.010 C 
HETATM   11  C11 UNL     1     -34.364  17.108  -3.411  1.00 20.00    -0.034 C 
HETATM   12  O12 UNL     1     -31.866  18.171  -1.112  1.00 20.00    -0.298 OA
ENDROOT
TORSDOF 0
ENDMDL
MODEL 5
REMARK VINA RESULT:      -4.7     11.006     12.132
REMARK  0 active torsions:
REMARK  status: ('A' for Active; 'I' for Inactive)
ROOT
HETATM    1  C1  UNL     1     -32.779   8.661   1.636  1.00 20.00     0.127 C 
HETATM    2  C2  UNL     1     -31.637   9.103   2.519  1.00 20.00     0.078 C 
HETATM    3  C3  UNL     1     -33.995   8.100   2.341  1.00 20.00     0.087 C 
HETATM    4  C4  UNL     1     -31.265   8.001   3.499  1.00 20.00     0.008 C 
HETATM    5  C5  UNL     1     -34.262   4.169   4.224  1.00 20.00     0.000 C 
HETATM    6  C6  UNL     1     -33.019   4.463   3.391  1.00 20.00     0.001 C 
HETATM    7  C7  UNL     1     -34.699   5.379   5.041  1.00 20.00     0.001 C 
HETATM    8  C8  UNL     1     -32.483   7.469   4.255  1.00 20.00     0.010 C 
HETATM    9  C9  UNL     1     -33.204   5.704   2.519  1.00 20.00     0.010 C 
HETATM   10  C10 UNL     1     -34.876   6.620   4.165  1.00 20.00     0.010 C 
HETATM   11  C11 UNL     1     -33.620   6.966   3.323  1.00 20.00    -0.034 C 
HETATM   12  O12 UNL     1     -32.760   8.834   0.419  1.00 20.00    -0.298 OA
ENDROOT
TORSDOF 0
ENDMDL
MODEL 6
REMARK VINA RESULT:      -4.7      1.384      2.432
REMARK  0 active torsions:
REMARK  status: ('A' for Active; 'I' for Inactive)
ROOT
HETATM    1  C1  UNL     1     -35.736  13.586  -5.197  1.00 20.00     0.127 C 
HETATM    2  C2  UNL     1     -37.172  14.040  -5.102  1.00 20.00     0.078 C 
HETATM    3  C3  UNL     1     -34.777  14.171  -4.183  1.00 20.00     0.087 C 
HETATM    4  C4  UNL     1     -37.249  15.558  -5.063  1.00 20.00     0.008 C 
HETATM    5  C5  UNL     1     -33.224  18.253  -4.205  1.00 20.00     0.000 C 
HETATM    6  C6  UNL     1     -34.015  17.798  -5.428  1.00 20.00     0.001 C 
HETATM    7  C7  UNL     1     -33.830  17.730  -2.908  1.00 20.00     0.001 C 
HETATM    8  C8  UNL     1     -36.323  16.152  -4.000  1.00 20.00     0.010 C 
HETATM    9  C9  UNL     1     -34.195  16.281  -5.451  1.00 20.00     0.010 C 
HETATM   10  C10 UNL     1     -34.014  16.213  -2.941  1.00 20.00     0.010 C 
HETATM   11  C11 UNL     1     -34.840  15.716  -4.157  1.00 20.00    -0.034 C 
HETATM   12  O12 UNL     1     -35.383  12.717  -5.994  1.00 20.00    -0.298 OA
ENDROOT
TORSDOF 0
ENDMDL
MODEL 7
REMARK VINA RESULT:      -4.7      1.914      3.255
REMARK  0 active torsions:
REMARK  status: ('A' for Active; 'I' for Inactive)
ROOT
HETATM    1  C1  UNL     1     -35.603  16.206  -5.636  1.00 20.00     0.127 C 
HETATM    2  C2  UNL     1     -35.007  14.820  -5.606  1.00 20.00     0.078 C 
HETATM    3  C3  UNL     1     -34.786  17.302  -4.988  1.00 20.00     0.087 C 
HETATM    4  C4  UNL     1     -34.586  14.451  -4.192  1.00 20.00     0.008 C 
HETATM    5  C5  UNL     1     -34.262  17.892  -0.693  1.00 20.00     0.000 C 
HETATM    6  C6  UNL     1     -35.288  16.855  -1.137  1.00 20.00     0.001 C 
HETATM    7  C7  UNL     1     -33.012  17.866  -1.564  1.00 20.00     0.001 C 
HETATM    8  C8  UNL     1     -33.712  15.532  -3.553  1.00 20.00     0.010 C 
HETATM    9  C9  UNL     1     -35.623  16.991  -2.621  1.00 20.00     0.010 C 
HETATM   10  C10 UNL     1     -33.354  17.995  -3.049  1.00 20.00     0.010 C 
HETATM   11  C11 UNL     1     -34.374  16.937  -3.543  1.00 20.00    -0.034 C 
HETATM   12  O12 UNL     1     -36.650  16.447  -6.235  1.00 20.00    -0.298 OA
ENDROOT
TORSDOF 0
ENDMDL
MODEL 8
REMARK VINA RESULT:      -4.7      2.084      4.335
REMARK  0 active torsions:
REMARK  status: ('A' for Active; 'I' for Inactive)
ROOT
HETATM    1  C1  UNL     1     -36.196  16.639  -3.151  1.00 20.00     0.127 C 
HETATM    2  C2  UNL     1     -34.973  16.503  -2.276  1.00 20.00     0.078 C 
HETATM    3  C3  UNL     1     -36.439  15.524  -4.143  1.00 20.00     0.087 C 
HETATM    4  C4  UNL     1     -33.742  16.222  -3.122  1.00 20.00     0.008 C 
HETATM    5  C5  UNL     1     -34.190  14.854  -7.826  1.00 20.00     0.000 C 
HETATM    6  C6  UNL     1     -33.922  16.150  -7.069  1.00 20.00     0.001 C 
HETATM    7  C7  UNL     1     -34.377  13.671  -6.883  1.00 20.00     0.001 C 
HETATM    8  C8  UNL     1     -33.964  15.057  -4.089  1.00 20.00     0.010 C 
HETATM    9  C9  UNL     1     -34.997  16.422  -6.018  1.00 20.00     0.010 C 
HETATM   10  C10 UNL     1     -35.449  13.952  -5.829  1.00 20.00     0.010 C 
HETATM   11  C11 UNL     1     -35.194  15.250  -5.018  1.00 20.00    -0.034 C 
HETATM   12  O12 UNL     1     -37.000  17.558  -3.000  1.00 20.00    -0.298 OA
ENDROOT
TORSDOF 0
ENDMDL
MODEL 9
REMARK VINA RESULT:      -4.6      3.525      5.874
REMARK  0 active torsions:
REMARK  status: ('A' for Active; 'I' for Inactive)
ROOT
HETATM    1  C1  UNL     1     -32.483  18.489  -0.756  1.00 20.00     0.127 C 
HETATM    2  C2  UNL     1     -33.539  18.515   0.321  1.00 20.00     0.078 C 
HETATM    3  C3  UNL     1     -32.946  18.817  -2.159  1.00 20.00     0.087 C 
HETATM    4  C4  UNL     1     -34.739  17.676  -0.088  1.00 20.00     0.008 C 
HETATM    5  C5  UNL     1     -35.293  16.198  -4.747  1.00 20.00     0.000 C 
HETATM    6  C6  UNL     1     -34.755  15.601  -3.451  1.00 20.00     0.001 C 
HETATM    7  C7  UNL     1     -35.779  17.630  -4.557  1.00 20.00     0.001 C 
HETATM    8  C8  UNL     1     -35.246  18.043  -1.484  1.00 20.00     0.010 C 
HETATM    9  C9  UNL     1     -33.683  16.490  -2.823  1.00 20.00     0.010 C 
HETATM   10  C10 UNL     1     -34.705  18.512  -3.921  1.00 20.00     0.010 C 
HETATM   11  C11 UNL     1     -34.153  17.951  -2.584  1.00 20.00    -0.034 C 
HETATM   12  O12 UNL     1     -31.295  18.303  -0.495  1.00 20.00    -0.298 OA
ENDROOT
TORSDOF 0
ENDMDL
