MODEL 1
REMARK VINA RESULT:      -4.9      0.000      0.000
REMARK  2 active torsions:
REMARK  status: ('A' for Active; 'I' for Inactive)
REMARK    1  A    between atoms: C6_6  and  C7_7 
REMARK    2  A    between atoms: C6_6  and  C8_8 
ROOT
HETATM    1  C1  UNL     1     -34.053   6.643   5.226  1.00 20.00     0.068 C 
HETATM    2  C4  UNL     1     -34.047   4.427   4.205  1.00 20.00     0.031 C 
HETATM    3  C5  UNL     1     -35.623   6.181   3.384  1.00 20.00     0.031 C 
HETATM    4  C8  UNL     1     -34.210   5.938   3.933  1.00 20.00     0.042 C 
HETATM    5  N9  UNL     1     -33.928   7.186   6.245  1.00 20.00    -0.196 NA
ENDROOT
BRANCH   4   6
HETATM    6  C6  UNL     1     -33.108   6.372   2.927  1.00 20.00     0.027 C 
BRANCH   6   7
HETATM    7  C7  UNL     1     -32.695   7.863   2.881  1.00 20.00    -0.021 C 
HETATM    8  C2  UNL     1     -32.578   8.308   1.417  1.00 20.00     0.009 C 
HETATM    9  C3  UNL     1     -31.382   8.163   3.602  1.00 20.00     0.009 C 
ENDBRANCH   6   7
ENDBRANCH   4   6
TORSDOF 2
ENDMDL
MODEL 2
REMARK VINA RESULT:      -4.8      1.398      2.004
REMARK  2 active torsions:
REMARK  status: ('A' for Active; 'I' for Inactive)
REMARK    1  A    between atoms: C6_6  and  C7_7 
REMARK    2  A    between atoms: C6_6  and  C8_8 
ROOT
HETATM    1  C1  UNL     1     -34.141   4.604   4.218  1.00 20.00     0.068 C 
HETATM    2  C4  UNL     1     -35.573   6.397   3.390  1.00 20.00     0.031 C 
HETATM    3  C5  UNL     1     -34.049   6.804   5.325  1.00 20.00     0.031 C 
HETATM    4  C8  UNL     1     -34.188   6.066   3.987  1.00 20.00     0.042 C 
HETATM    5  N9  UNL     1     -34.114   3.457   4.397  1.00 20.00    -0.196 NA
ENDROOT
BRANCH   4   6
HETATM    6  C6  UNL     1     -33.102   6.501   2.963  1.00 20.00     0.027 C 
BRANCH   6   7
HETATM    7  C7  UNL     1     -32.656   7.983   2.944  1.00 20.00    -0.021 C 
HETATM    8  C2  UNL     1     -32.557   8.461   1.489  1.00 20.00     0.009 C 
HETATM    9  C3  UNL     1     -31.323   8.237   3.645  1.00 20.00     0.009 C 
ENDBRANCH   6   7
ENDBRANCH   4   6
TORSDOF 2
ENDMDL
MODEL 3
REMARK VINA RESULT:      -4.4      1.856      3.575
REMARK  2 active torsions:
REMARK  status: ('A' for Active; 'I' for Inactive)
REMARK    1  A    between atoms: C6_6  and  C7_7 
REMARK    2  A    between atoms: C6_6  and  C8_8 
ROOT
HETATM    1  C1  UNL     1     -32.544   7.265   2.714  1.00 20.00     0.068 C 
HETATM    2  C4  UNL     1     -34.394   6.371   1.399  1.00 20.00     0.031 C 
HETATM    3  C5  UNL     1     -32.858   4.823   2.617  1.00 20.00     0.031 C 
HETATM    4  C8  UNL     1     -33.559   6.187   2.684  1.00 20.00     0.042 C 
HETATM    5  N9  UNL     1     -31.751   8.114   2.728  1.00 20.00    -0.196 NA
ENDROOT
BRANCH   4   6
HETATM    6  C6  UNL     1     -34.517   6.293   3.904  1.00 20.00     0.027 C 
BRANCH   6   7
HETATM    7  C7  UNL     1     -33.931   6.096   5.322  1.00 20.00    -0.021 C 
HETATM    8  C2  UNL     1     -34.740   5.018   6.057  1.00 20.00     0.009 C 
HETATM    9  C3  UNL     1     -33.912   7.368   6.167  1.00 20.00     0.009 C 
ENDBRANCH   6   7
ENDBRANCH   4   6
TORSDOF 2
ENDMDL
MODEL 4
REMARK VINA RESULT:      -4.3      1.566      2.815
REMARK  2 active torsions:
REMARK  status: ('A' for Active; 'I' for Inactive)
REMARK    1  A    between atoms: C6_6  and  C7_7 
REMARK    2  A    between atoms: C6_6  and  C8_8 
ROOT
HETATM    1  C1  UNL     1     -33.401   7.424   4.469  1.00 20.00     0.068 C 
HETATM    2  C4  UNL     1     -31.275   7.937   3.388  1.00 20.00     0.031 C 
HETATM    3  C5  UNL     1     -32.687   6.057   2.546  1.00 20.00     0.031 C 
HETATM    4  C8  UNL     1     -32.726   7.468   3.151  1.00 20.00     0.042 C 
HETATM    5  N9  UNL     1     -33.921   7.392   5.507  1.00 20.00    -0.196 NA
ENDROOT
BRANCH   4   6
HETATM    6  C6  UNL     1     -33.419   8.490   2.207  1.00 20.00     0.027 C 
BRANCH   6   7
HETATM    7  C7  UNL     1     -32.538   9.314   1.237  1.00 20.00    -0.021 C 
HETATM    8  C2  UNL     1     -32.702  10.807   1.552  1.00 20.00     0.009 C 
HETATM    9  C3  UNL     1     -32.855   9.077  -0.238  1.00 20.00     0.009 C 
ENDBRANCH   6   7
ENDBRANCH   4   6
TORSDOF 2
ENDMDL
MODEL 5
REMARK VINA RESULT:      -4.3      2.206      4.000
REMARK  2 active torsions:
REMARK  status: ('A' for Active; 'I' for Inactive)
REMARK    1  A    between atoms: C6_6  and  C7_7 
REMARK    2  A    between atoms: C6_6  and  C8_8 
ROOT
HETATM    1  C1  UNL     1     -32.662   8.971   1.756  1.00 20.00     0.068 C 
HETATM    2  C4  UNL     1     -32.254   6.582   2.036  1.00 20.00     0.031 C 
HETATM    3  C5  UNL     1     -31.281   8.218   3.653  1.00 20.00     0.031 C 
HETATM    4  C8  UNL     1     -32.505   7.911   2.779  1.00 20.00     0.042 C 
HETATM    5  N9  UNL     1     -32.782   9.794   0.945  1.00 20.00    -0.196 NA
ENDROOT
BRANCH   4   6
HETATM    6  C6  UNL     1     -33.802   7.759   3.622  1.00 20.00     0.027 C 
BRANCH   6   7
HETATM    7  C7  UNL     1     -33.900   6.579   4.619  1.00 20.00    -0.021 C 
HETATM    8  C2  UNL     1     -35.113   5.711   4.255  1.00 20.00     0.009 C 
HETATM    9  C3  UNL     1     -34.016   7.011   6.079  1.00 20.00     0.009 C 
ENDBRANCH   6   7
ENDBRANCH   4   6
TORSDOF 2
ENDMDL
MODEL 6
REMARK VINA RESULT:      -4.2      2.101      3.326
REMARK  2 active torsions:
REMARK  status: ('A' for Active; 'I' for Inactive)
REMARK    1  A    between atoms: C6_6  and  C7_7 
REMARK    2  A    between atoms: C6_6  and  C8_8 
ROOT
HETATM    1  C1  UNL     1     -32.865   6.079   2.803  1.00 20.00     0.068 C 
HETATM    2  C4  UNL     1     -33.632   7.738   4.421  1.00 20.00     0.031 C 
HETATM    3  C5  UNL     1     -31.362   7.939   3.398  1.00 20.00     0.031 C 
HETATM    4  C8  UNL     1     -32.815   7.523   3.128  1.00 20.00     0.042 C 
HETATM    5  N9  UNL     1     -32.911   4.945   2.558  1.00 20.00    -0.196 NA
ENDROOT
BRANCH   4   6
HETATM    6  C6  UNL     1     -33.465   8.369   1.998  1.00 20.00     0.027 C 
BRANCH   6   7
HETATM    7  C7  UNL     1     -32.545   9.214   1.085  1.00 20.00    -0.021 C 
HETATM    8  C2  UNL     1     -32.670  10.694   1.474  1.00 20.00     0.009 C 
HETATM    9  C3  UNL     1     -32.843   9.063  -0.405  1.00 20.00     0.009 C 
ENDBRANCH   6   7
ENDBRANCH   4   6
TORSDOF 2
ENDMDL
MODEL 7
REMARK VINA RESULT:      -4.2     11.269     12.089
REMARK  2 active torsions:
REMARK  status: ('A' for Active; 'I' for Inactive)
REMARK    1  A    between atoms: C6_6  and  C7_7 
REMARK    2  A    between atoms: C6_6  and  C8_8 
ROOT
HETATM    1  C1  UNL     1     -35.295  13.815  -5.026  1.00 20.00     0.068 C 
HETATM    2  C4  UNL     1     -33.098  14.476  -4.195  1.00 20.00     0.031 C 
HETATM    3  C5  UNL     1     -34.175  15.757  -6.049  1.00 20.00     0.031 C 
HETATM    4  C8  UNL     1     -34.445  14.994  -4.744  1.00 20.00     0.042 C 
HETATM    5  N9  UNL     1     -35.953  12.883  -5.244  1.00 20.00    -0.196 NA
ENDROOT
BRANCH   4   6
HETATM    6  C6  UNL     1     -35.094  15.900  -3.661  1.00 20.00     0.027 C 
BRANCH   6   7
HETATM    7  C7  UNL     1     -34.177  16.563  -2.605  1.00 20.00    -0.021 C 
HETATM    8  C2  UNL     1     -35.001  16.878  -1.349  1.00 20.00     0.009 C 
HETATM    9  C3  UNL     1     -33.498  17.842  -3.091  1.00 20.00     0.009 C 
ENDBRANCH   6   7
ENDBRANCH   4   6
TORSDOF 2
ENDMDL
MODEL 8
REMARK VINA RESULT:      -3.8     11.447     12.374
REMARK  2 active torsions:
REMARK  status: ('A' for Active; 'I' for Inactive)
REMARK    1  A    between atoms: C6_6  and  C7_7 
REMARK    2  A    between atoms: C6_6  and  C8_8 
ROOT
HETATM    1  C1  UNL     1     -33.007  17.956  -1.647  1.00 20.00     0.068 C 
HETATM    2  C4  UNL     1     -35.194  16.922  -1.331  1.00 20.00     0.031 C 
HETATM    3  C5  UNL     1     -34.746  18.314  -3.356  1.00 20.00     0.031 C 
HETATM    4  C8  UNL     1     -34.124  17.311  -2.374  1.00 20.00     0.042 C 
HETATM    5  N9  UNL     1     -32.136  18.462  -1.067  1.00 20.00    -0.196 NA
ENDROOT
BRANCH   4   6
HETATM    6  C6  UNL     1     -33.647  16.015  -3.087  1.00 20.00     0.027 C 
BRANCH   6   7
HETATM    7  C7  UNL     1     -34.237  15.676  -4.477  1.00 20.00    -0.021 C 
HETATM    8  C2  UNL     1     -34.890  14.288  -4.422  1.00 20.00     0.009 C 
HETATM    9  C3  UNL     1     -33.211  15.702  -5.608  1.00 20.00     0.009 C 
ENDBRANCH   6   7
ENDBRANCH   4   6
TORSDOF 2
ENDMDL
MODEL 9
REMARK VINA RESULT:      -3.7     11.704     12.428
REMARK  2 active torsions:
REMARK  status: ('A' for Active; 'I' for Inactive)
REMARK    1  A    between atoms: C6_6  and  C7_7 
REMARK    2  A    between atoms: C6_6  and  C8_8 
ROOT
HETATM    1  C1  UNL     1     -36.318  13.814  -5.259  1.00 20.00     0.068 C 
HETATM    2  C4  UNL     1     -37.170  15.570  -6.723  1.00 20.00     0.031 C 
HETATM    3  C5  UNL     1     -38.338  15.050  -4.578  1.00 20.00     0.031 C 
HETATM    4  C8  UNL     1     -36.963  15.147  -5.253  1.00 20.00     0.042 C 
HETATM    5  N9  UNL     1     -35.813  12.768  -5.275  1.00 20.00    -0.196 NA
ENDROOT
BRANCH   4   6
HETATM    6  C6  UNL     1     -36.049  16.202  -4.568  1.00 20.00     0.027 C 
BRANCH   6   7
HETATM    7  C7  UNL     1     -35.104  15.737  -3.435  1.00 20.00    -0.021 C 
HETATM    8  C2  UNL     1     -35.375  16.574  -2.177  1.00 20.00     0.009 C 
HETATM    9  C3  UNL     1     -33.621  15.831  -3.788  1.00 20.00     0.009 C 
ENDBRANCH   6   7
ENDBRANCH   4   6
TORSDOF 2
ENDMDL
