MODEL 1
REMARK VINA RESULT:      -5.5      0.000      0.000
REMARK  3 active torsions:
REMARK  status: ('A' for Active; 'I' for Inactive)
REMARK    1  A    between atoms: C3_3  and  C4_4 
REMARK    2  A    between atoms: C5_5  and  C8_8 
REMARK    3  A    between atoms: C6_6  and  C8_8 
ROOT
HETATM    1  C4  UNL     1     -32.482   7.378   2.594  1.00 20.00    -0.004 C 
HETATM    2  C6  UNL     1     -33.651   7.388   3.253  1.00 20.00    -0.019 C 
ENDROOT
BRANCH   2   3
HETATM    3  C8  UNL     1     -34.338   6.140   3.754  1.00 20.00     0.026 C 
HETATM    4  C7  UNL     1     -33.613   4.896   3.236  1.00 20.00     0.018 C 
BRANCH   3   5
HETATM    5  C5  UNL     1     -34.379   6.125   5.261  1.00 20.00    -0.029 C 
HETATM    6  C2  UNL     1     -33.890   7.104   6.032  1.00 20.00     0.007 C 
ENDBRANCH   3   5
ENDBRANCH   2   3
BRANCH   1   7
HETATM    7  C3  UNL     1     -31.833   8.578   2.120  1.00 20.00    -0.011 C 
HETATM    8  C1  UNL     1     -32.119   9.153   0.947  1.00 20.00     0.011 C 
ENDBRANCH   1   7
TORSDOF 3
ENDMDL
MODEL 2
REMARK VINA RESULT:      -5.5      0.957      1.803
REMARK  3 active torsions:
REMARK  status: ('A' for Active; 'I' for Inactive)
REMARK    1  A    between atoms: C3_3  and  C4_4 
REMARK    2  A    between atoms: C5_5  and  C8_8 
REMARK    3  A    between atoms: C6_6  and  C8_8 
ROOT
HETATM    1  C4  UNL     1     -32.079   8.032   2.599  1.00 20.00    -0.004 C 
HETATM    2  C6  UNL     1     -33.244   7.500   2.998  1.00 20.00    -0.019 C 
ENDROOT
BRANCH   2   3
HETATM    3  C8  UNL     1     -33.391   6.641   4.231  1.00 20.00     0.026 C 
HETATM    4  C7  UNL     1     -33.563   7.523   5.470  1.00 20.00     0.018 C 
BRANCH   3   5
HETATM    5  C5  UNL     1     -34.569   5.709   4.092  1.00 20.00    -0.029 C 
HETATM    6  C2  UNL     1     -34.700   4.563   4.770  1.00 20.00     0.007 C 
ENDBRANCH   3   5
ENDBRANCH   2   3
BRANCH   1   7
HETATM    7  C3  UNL     1     -31.950   8.853   1.418  1.00 20.00    -0.011 C 
HETATM    8  C1  UNL     1     -32.642   9.982   1.229  1.00 20.00     0.011 C 
ENDBRANCH   1   7
TORSDOF 3
ENDMDL
MODEL 3
REMARK VINA RESULT:      -5.2      1.215      4.499
REMARK  3 active torsions:
REMARK  status: ('A' for Active; 'I' for Inactive)
REMARK    1  A    between atoms: C3_3  and  C4_4 
REMARK    2  A    between atoms: C5_5  and  C8_8 
REMARK    3  A    between atoms: C6_6  and  C8_8 
ROOT
HETATM    1  C4  UNL     1     -34.061   6.691   3.981  1.00 20.00    -0.004 C 
HETATM    2  C6  UNL     1     -33.327   6.999   2.901  1.00 20.00    -0.019 C 
ENDROOT
BRANCH   2   3
HETATM    3  C8  UNL     1     -32.587   8.306   2.738  1.00 20.00     0.026 C 
HETATM    4  C7  UNL     1     -31.297   8.286   3.562  1.00 20.00     0.018 C 
BRANCH   3   5
HETATM    5  C5  UNL     1     -32.270   8.559   1.286  1.00 20.00    -0.029 C 
HETATM    6  C2  UNL     1     -32.420   9.744   0.683  1.00 20.00     0.007 C 
ENDBRANCH   3   5
ENDBRANCH   2   3
BRANCH   1   7
HETATM    7  C3  UNL     1     -34.764   5.438   4.127  1.00 20.00    -0.011 C 
HETATM    8  C1  UNL     1     -34.586   4.612   5.164  1.00 20.00     0.011 C 
ENDBRANCH   1   7
TORSDOF 3
ENDMDL
MODEL 4
REMARK VINA RESULT:      -4.8      1.089      1.737
REMARK  3 active torsions:
REMARK  status: ('A' for Active; 'I' for Inactive)
REMARK    1  A    between atoms: C3_3  and  C4_4 
REMARK    2  A    between atoms: C5_5  and  C8_8 
REMARK    3  A    between atoms: C6_6  and  C8_8 
ROOT
HETATM    1  C4  UNL     1     -33.152   7.413   3.103  1.00 20.00    -0.004 C 
HETATM    2  C6  UNL     1     -33.454   7.095   4.372  1.00 20.00    -0.019 C 
ENDROOT
BRANCH   2   3
HETATM    3  C8  UNL     1     -34.692   6.326   4.769  1.00 20.00     0.026 C 
HETATM    4  C7  UNL     1     -35.620   6.165   3.562  1.00 20.00     0.018 C 
BRANCH   3   5
HETATM    5  C5  UNL     1     -34.322   4.973   5.322  1.00 20.00    -0.029 C 
HETATM    6  C2  UNL     1     -34.085   3.895   4.565  1.00 20.00     0.007 C 
ENDBRANCH   3   5
ENDBRANCH   2   3
BRANCH   1   7
HETATM    7  C3  UNL     1     -31.965   8.148   2.735  1.00 20.00    -0.011 C 
HETATM    8  C1  UNL     1     -31.752   8.632   1.506  1.00 20.00     0.011 C 
ENDBRANCH   1   7
TORSDOF 3
ENDMDL
MODEL 5
REMARK VINA RESULT:      -4.5      1.117      4.624
REMARK  3 active torsions:
REMARK  status: ('A' for Active; 'I' for Inactive)
REMARK    1  A    between atoms: C3_3  and  C4_4 
REMARK    2  A    between atoms: C5_5  and  C8_8 
REMARK    3  A    between atoms: C6_6  and  C8_8 
ROOT
HETATM    1  C4  UNL     1     -32.806   7.636   3.719  1.00 20.00    -0.004 C 
HETATM    2  C6  UNL     1     -32.973   8.043   2.450  1.00 20.00    -0.019 C 
ENDROOT
BRANCH   2   3
HETATM    3  C8  UNL     1     -32.065   9.035   1.764  1.00 20.00     0.026 C 
HETATM    4  C7  UNL     1     -31.098   8.304   0.830  1.00 20.00     0.018 C 
BRANCH   3   5
HETATM    5  C5  UNL     1     -32.872  10.044   0.987  1.00 20.00    -0.029 C 
HETATM    6  C2  UNL     1     -33.318   9.845  -0.259  1.00 20.00     0.007 C 
ENDBRANCH   3   5
ENDBRANCH   2   3
BRANCH   1   7
HETATM    7  C3  UNL     1     -33.680   6.686   4.365  1.00 20.00    -0.011 C 
HETATM    8  C1  UNL     1     -34.040   6.775   5.650  1.00 20.00     0.011 C 
ENDBRANCH   1   7
TORSDOF 3
ENDMDL
MODEL 6
REMARK VINA RESULT:      -4.2      1.131      4.014
REMARK  3 active torsions:
REMARK  status: ('A' for Active; 'I' for Inactive)
REMARK    1  A    between atoms: C3_3  and  C4_4 
REMARK    2  A    between atoms: C5_5  and  C8_8 
REMARK    3  A    between atoms: C6_6  and  C8_8 
ROOT
HETATM    1  C4  UNL     1     -33.703   5.899   3.314  1.00 20.00    -0.004 C 
HETATM    2  C6  UNL     1     -33.564   7.197   3.004  1.00 20.00    -0.019 C 
ENDROOT
BRANCH   2   3
HETATM    3  C8  UNL     1     -32.419   7.743   2.184  1.00 20.00     0.026 C 
HETATM    4  C7  UNL     1     -32.909   8.886   1.292  1.00 20.00     0.018 C 
BRANCH   3   5
HETATM    5  C5  UNL     1     -31.308   8.226   3.082  1.00 20.00    -0.029 C 
HETATM    6  C2  UNL     1     -31.499   8.706   4.316  1.00 20.00     0.007 C 
ENDBRANCH   3   5
ENDBRANCH   2   3
BRANCH   1   7
HETATM    7  C3  UNL     1     -34.803   5.388   4.098  1.00 20.00    -0.011 C 
HETATM    8  C1  UNL     1     -34.705   5.098   5.400  1.00 20.00     0.011 C 
ENDBRANCH   1   7
TORSDOF 3
ENDMDL
MODEL 7
REMARK VINA RESULT:      -3.8      1.746      4.935
REMARK  3 active torsions:
REMARK  status: ('A' for Active; 'I' for Inactive)
REMARK    1  A    between atoms: C3_3  and  C4_4 
REMARK    2  A    between atoms: C5_5  and  C8_8 
REMARK    3  A    between atoms: C6_6  and  C8_8 
ROOT
HETATM    1  C4  UNL     1     -33.257   7.773   2.535  1.00 20.00    -0.004 C 
HETATM    2  C6  UNL     1     -32.502   8.668   1.879  1.00 20.00    -0.019 C 
ENDROOT
BRANCH   2   3
HETATM    3  C8  UNL     1     -33.049   9.937   1.270  1.00 20.00     0.026 C 
HETATM    4  C7  UNL     1     -32.291  11.150   1.812  1.00 20.00     0.018 C 
BRANCH   3   5
HETATM    5  C5  UNL     1     -32.947   9.891  -0.234  1.00 20.00    -0.029 C 
HETATM    6  C2  UNL     1     -32.787   8.764  -0.938  1.00 20.00     0.007 C 
ENDBRANCH   3   5
ENDBRANCH   2   3
BRANCH   1   7
HETATM    7  C3  UNL     1     -32.722   6.563   3.115  1.00 20.00    -0.011 C 
HETATM    8  C1  UNL     1     -33.192   5.343   2.832  1.00 20.00     0.011 C 
ENDBRANCH   1   7
TORSDOF 3
ENDMDL
MODEL 8
REMARK VINA RESULT:      -3.7     10.842     11.516
REMARK  3 active torsions:
REMARK  status: ('A' for Active; 'I' for Inactive)
REMARK    1  A    between atoms: C3_3  and  C4_4 
REMARK    2  A    between atoms: C5_5  and  C8_8 
REMARK    3  A    between atoms: C6_6  and  C8_8 
ROOT
HETATM    1  C4  UNL     1     -33.771  15.811  -3.549  1.00 20.00    -0.004 C 
HETATM    2  C6  UNL     1     -34.688  16.245  -2.671  1.00 20.00    -0.019 C 
ENDROOT
BRANCH   2   3
HETATM    3  C8  UNL     1     -34.513  17.483  -1.823  1.00 20.00     0.026 C 
HETATM    4  C7  UNL     1     -35.246  17.315  -0.490  1.00 20.00     0.018 C 
BRANCH   3   5
HETATM    5  C5  UNL     1     -33.051  17.757  -1.579  1.00 20.00    -0.029 C 
HETATM    6  C2  UNL     1     -32.588  18.503  -0.569  1.00 20.00     0.007 C 
ENDBRANCH   3   5
ENDBRANCH   2   3
BRANCH   1   7
HETATM    7  C3  UNL     1     -33.949  14.626  -4.355  1.00 20.00    -0.011 C 
HETATM    8  C1  UNL     1     -35.137  14.040  -4.548  1.00 20.00     0.011 C 
ENDBRANCH   1   7
TORSDOF 3
ENDMDL
MODEL 9
REMARK VINA RESULT:      -3.7     10.782     11.414
REMARK  3 active torsions:
REMARK  status: ('A' for Active; 'I' for Inactive)
REMARK    1  A    between atoms: C3_3  and  C4_4 
REMARK    2  A    between atoms: C5_5  and  C8_8 
REMARK    3  A    between atoms: C6_6  and  C8_8 
ROOT
HETATM    1  C4  UNL     1     -33.869  16.638  -2.510  1.00 20.00    -0.004 C 
HETATM    2  C6  UNL     1     -34.748  15.867  -3.168  1.00 20.00    -0.019 C 
ENDROOT
BRANCH   2   3
HETATM    3  C8  UNL     1     -34.420  15.126  -4.442  1.00 20.00     0.026 C 
HETATM    4  C7  UNL     1     -32.925  14.800  -4.491  1.00 20.00     0.018 C 
BRANCH   3   5
HETATM    5  C5  UNL     1     -35.229  13.858  -4.542  1.00 20.00    -0.029 C 
HETATM    6  C2  UNL     1     -36.282  13.705  -5.355  1.00 20.00     0.007 C 
ENDBRANCH   3   5
ENDBRANCH   2   3
BRANCH   1   7
HETATM    7  C3  UNL     1     -34.194  17.342  -1.291  1.00 20.00    -0.011 C 
HETATM    8  C1  UNL     1     -35.373  17.230  -0.670  1.00 20.00     0.011 C 
ENDBRANCH   1   7
TORSDOF 3
ENDMDL
