MODEL 1
REMARK VINA RESULT:      -5.1      0.000      0.000
REMARK  1 active torsions:
REMARK  status: ('A' for Active; 'I' for Inactive)
REMARK    1  A    between atoms: C6_6  and  C8_8 
ROOT
HETATM    1  C1  UNL     1     -34.228   4.632   5.761  1.00 20.00     0.000 C 
HETATM    2  C2  UNL     1     -34.258   4.044   4.354  1.00 20.00     0.002 C 
HETATM    3  C3  UNL     1     -34.627   6.104   5.769  1.00 20.00     0.002 C 
HETATM    4  C4  UNL     1     -33.402   4.861   3.384  1.00 20.00     0.026 C 
HETATM    5  C5  UNL     1     -33.772   6.926   4.804  1.00 20.00     0.026 C 
HETATM    6  C6  UNL     1     -33.755   6.361   3.371  1.00 20.00     0.037 C 
HETATM    7 CL9  UNL     1     -35.383   6.583   2.623  1.00 20.00    -0.119 Cl
ENDROOT
BRANCH   6   8
HETATM    8  C8  UNL     1     -32.748   7.133   2.511  1.00 20.00     0.021 C 
HETATM    9  C7  UNL     1     -31.890   8.024   3.343  1.00 20.00     0.007 C 
ENDBRANCH   6   8
TORSDOF 1
ENDMDL
MODEL 2
REMARK VINA RESULT:      -4.8      1.024      1.119
REMARK  1 active torsions:
REMARK  status: ('A' for Active; 'I' for Inactive)
REMARK    1  A    between atoms: C6_6  and  C8_8 
ROOT
HETATM    1  C1  UNL     1     -34.468   5.065   5.477  1.00 20.00     0.000 C 
HETATM    2  C2  UNL     1     -34.437   4.946   3.957  1.00 20.00     0.002 C 
HETATM    3  C3  UNL     1     -34.435   6.520   5.932  1.00 20.00     0.002 C 
HETATM    4  C4  UNL     1     -33.243   5.694   3.357  1.00 20.00     0.026 C 
HETATM    5  C5  UNL     1     -33.243   7.271   5.339  1.00 20.00     0.026 C 
HETATM    6  C6  UNL     1     -33.157   7.166   3.804  1.00 20.00     0.037 C 
HETATM    7 CL9  UNL     1     -34.517   8.094   3.065  1.00 20.00    -0.119 Cl
ENDROOT
BRANCH   6   8
HETATM    8  C8  UNL     1     -31.851   7.793   3.304  1.00 20.00     0.021 C 
HETATM    9  C7  UNL     1     -32.064   8.571   2.050  1.00 20.00     0.007 C 
ENDBRANCH   6   8
TORSDOF 1
ENDMDL
MODEL 3
REMARK VINA RESULT:      -4.3      0.862      3.431
REMARK  1 active torsions:
REMARK  status: ('A' for Active; 'I' for Inactive)
REMARK    1  A    between atoms: C6_6  and  C8_8 
ROOT
HETATM    1  C1  UNL     1     -32.260   7.923   3.841  1.00 20.00     0.000 C 
HETATM    2  C2  UNL     1     -33.324   8.019   4.929  1.00 20.00     0.002 C 
HETATM    3  C3  UNL     1     -32.736   7.088   2.656  1.00 20.00     0.002 C 
HETATM    4  C4  UNL     1     -33.802   6.636   5.375  1.00 20.00     0.026 C 
HETATM    5  C5  UNL     1     -33.211   5.703   3.096  1.00 20.00     0.026 C 
HETATM    6  C6  UNL     1     -34.276   5.747   4.209  1.00 20.00     0.037 C 
HETATM    7 CL9  UNL     1     -35.813   6.414   3.538  1.00 20.00    -0.119 Cl
ENDROOT
BRANCH   6   8
HETATM    8  C8  UNL     1     -34.573   4.330   4.712  1.00 20.00     0.021 C 
HETATM    9  C7  UNL     1     -33.699   3.321   4.047  1.00 20.00     0.007 C 
ENDBRANCH   6   8
TORSDOF 1
ENDMDL
MODEL 4
REMARK VINA RESULT:      -4.2      1.906      2.728
REMARK  1 active torsions:
REMARK  status: ('A' for Active; 'I' for Inactive)
REMARK    1  A    between atoms: C6_6  and  C8_8 
ROOT
HETATM    1  C1  UNL     1     -34.323   5.302   4.218  1.00 20.00     0.000 C 
HETATM    2  C2  UNL     1     -34.093   6.609   4.970  1.00 20.00     0.002 C 
HETATM    3  C3  UNL     1     -33.279   5.085   3.128  1.00 20.00     0.002 C 
HETATM    4  C4  UNL     1     -34.024   7.804   4.017  1.00 20.00     0.026 C 
HETATM    5  C5  UNL     1     -33.208   6.275   2.170  1.00 20.00     0.026 C 
HETATM    6  C6  UNL     1     -32.995   7.623   2.885  1.00 20.00     0.037 C 
HETATM    7 CL9  UNL     1     -31.329   7.673   3.579  1.00 20.00    -0.119 Cl
ENDROOT
BRANCH   6   8
HETATM    8  C8  UNL     1     -33.106   8.776   1.882  1.00 20.00     0.021 C 
HETATM    9  C7  UNL     1     -31.876   8.895   1.047  1.00 20.00     0.007 C 
ENDBRANCH   6   8
TORSDOF 1
ENDMDL
MODEL 5
REMARK VINA RESULT:      -4.2      1.617      2.128
REMARK  1 active torsions:
REMARK  status: ('A' for Active; 'I' for Inactive)
REMARK    1  A    between atoms: C6_6  and  C8_8 
ROOT
HETATM    1  C1  UNL     1     -34.842   5.896   5.797  1.00 20.00     0.000 C 
HETATM    2  C2  UNL     1     -33.444   6.501   5.858  1.00 20.00     0.002 C 
HETATM    3  C3  UNL     1     -35.130   5.268   4.437  1.00 20.00     0.002 C 
HETATM    4  C4  UNL     1     -33.209   7.497   4.720  1.00 20.00     0.026 C 
HETATM    5  C5  UNL     1     -34.901   6.261   3.297  1.00 20.00     0.026 C 
HETATM    6  C6  UNL     1     -33.505   6.913   3.326  1.00 20.00     0.037 C 
HETATM    7 CL9  UNL     1     -32.258   5.672   2.922  1.00 20.00    -0.119 Cl
ENDROOT
BRANCH   6   8
HETATM    8  C8  UNL     1     -33.415   8.014   2.263  1.00 20.00     0.021 C 
HETATM    9  C7  UNL     1     -31.998   8.383   1.979  1.00 20.00     0.007 C 
ENDBRANCH   6   8
TORSDOF 1
ENDMDL
MODEL 6
REMARK VINA RESULT:      -4.1      1.507      3.714
REMARK  1 active torsions:
REMARK  status: ('A' for Active; 'I' for Inactive)
REMARK    1  A    between atoms: C6_6  and  C8_8 
ROOT
HETATM    1  C1  UNL     1     -31.854   8.838   2.518  1.00 20.00     0.000 C 
HETATM    2  C2  UNL     1     -32.575   8.025   1.448  1.00 20.00     0.002 C 
HETATM    3  C3  UNL     1     -31.566   8.006   3.763  1.00 20.00     0.002 C 
HETATM    4  C4  UNL     1     -33.849   7.377   1.994  1.00 20.00     0.026 C 
HETATM    5  C5  UNL     1     -32.837   7.358   4.316  1.00 20.00     0.026 C 
HETATM    6  C6  UNL     1     -33.611   6.539   3.266  1.00 20.00     0.037 C 
HETATM    7 CL9  UNL     1     -32.661   5.065   2.840  1.00 20.00    -0.119 Cl
ENDROOT
BRANCH   6   8
HETATM    8  C8  UNL     1     -34.950   6.069   3.845  1.00 20.00     0.021 C 
HETATM    9  C7  UNL     1     -34.756   5.284   5.099  1.00 20.00     0.007 C 
ENDBRANCH   6   8
TORSDOF 1
ENDMDL
MODEL 7
REMARK VINA RESULT:      -3.9      1.189      2.854
REMARK  1 active torsions:
REMARK  status: ('A' for Active; 'I' for Inactive)
REMARK    1  A    between atoms: C6_6  and  C8_8 
ROOT
HETATM    1  C1  UNL     1     -32.742   4.443   2.487  1.00 20.00     0.000 C 
HETATM    2  C2  UNL     1     -33.055   5.928   2.330  1.00 20.00     0.002 C 
HETATM    3  C3  UNL     1     -33.827   3.715   3.273  1.00 20.00     0.002 C 
HETATM    4  C4  UNL     1     -33.310   6.596   3.683  1.00 20.00     0.026 C 
HETATM    5  C5  UNL     1     -34.084   4.377   4.628  1.00 20.00     0.026 C 
HETATM    6  C6  UNL     1     -34.387   5.884   4.523  1.00 20.00     0.037 C 
HETATM    7 CL9  UNL     1     -36.000   6.115   3.746  1.00 20.00    -0.119 Cl
ENDROOT
BRANCH   6   8
HETATM    8  C8  UNL     1     -34.461   6.506   5.922  1.00 20.00     0.021 C 
HETATM    9  C7  UNL     1     -33.494   7.631   6.071  1.00 20.00     0.007 C 
ENDBRANCH   6   8
TORSDOF 1
ENDMDL
MODEL 8
REMARK VINA RESULT:      -3.8      9.392     10.221
REMARK  1 active torsions:
REMARK  status: ('A' for Active; 'I' for Inactive)
REMARK    1  A    between atoms: C6_6  and  C8_8 
ROOT
HETATM    1  C1  UNL     1     -41.208   7.939  -0.830  1.00 20.00     0.000 C 
HETATM    2  C2  UNL     1     -40.639   6.957   0.188  1.00 20.00     0.002 C 
HETATM    3  C3  UNL     1     -42.727   8.034  -0.738  1.00 20.00     0.002 C 
HETATM    4  C4  UNL     1     -41.294   5.579   0.070  1.00 20.00     0.026 C 
HETATM    5  C5  UNL     1     -43.388   6.660  -0.859  1.00 20.00     0.026 C 
HETATM    6  C6  UNL     1     -42.833   5.626   0.139  1.00 20.00     0.037 C 
HETATM    7 CL9  UNL     1     -43.341   6.078   1.811  1.00 20.00    -0.119 Cl
ENDROOT
BRANCH   6   8
HETATM    8  C8  UNL     1     -43.417   4.241  -0.158  1.00 20.00     0.021 C 
HETATM    9  C7  UNL     1     -43.393   3.939  -1.618  1.00 20.00     0.007 C 
ENDBRANCH   6   8
TORSDOF 1
ENDMDL
MODEL 9
REMARK VINA RESULT:      -3.8     12.445     12.963
REMARK  1 active torsions:
REMARK  status: ('A' for Active; 'I' for Inactive)
REMARK    1  A    between atoms: C6_6  and  C8_8 
ROOT
HETATM    1  C1  UNL     1     -34.477  18.116   0.524  1.00 20.00     0.000 C 
HETATM    2  C2  UNL     1     -35.674  17.711  -0.330  1.00 20.00     0.002 C 
HETATM    3  C3  UNL     1     -33.362  18.728  -0.317  1.00 20.00     0.002 C 
HETATM    4  C4  UNL     1     -35.262  16.782  -1.474  1.00 20.00     0.026 C 
HETATM    5  C5  UNL     1     -32.943  17.802  -1.460  1.00 20.00     0.026 C 
HETATM    6  C6  UNL     1     -34.122  17.350  -2.342  1.00 20.00     0.037 C 
HETATM    7 CL9  UNL     1     -34.738  18.761  -3.285  1.00 20.00    -0.119 Cl
ENDROOT
BRANCH   6   8
HETATM    8  C8  UNL     1     -33.653  16.296  -3.351  1.00 20.00     0.021 C 
HETATM    9  C7  UNL     1     -34.738  15.324  -3.670  1.00 20.00     0.007 C 
ENDBRANCH   6   8
TORSDOF 1
ENDMDL
