MODEL 1
REMARK VINA RESULT:      -5.7      0.000      0.000
REMARK  2 active torsions:
REMARK  status: ('A' for Active; 'I' for Inactive)
REMARK    1  A    between atoms: C5_5  and  C7_7 
REMARK    2  A    between atoms: C6_6  and  O8_8 
ROOT
HETATM    1  C1  UNL     1     -33.594   7.139   6.027  1.00 20.00     0.003 C 
HETATM    2  C2  UNL     1     -33.333   7.940   4.753  1.00 20.00     0.014 C 
HETATM    3  C3  UNL     1     -34.599   6.018   5.790  1.00 20.00     0.032 C 
HETATM    4  C4  UNL     1     -33.909   5.913   3.360  1.00 20.00     0.045 C 
HETATM    5  C5  UNL     1     -32.891   7.037   3.593  1.00 20.00     0.096 C 
HETATM    6  C6  UNL     1     -34.167   5.114   4.638  1.00 20.00     0.118 C 
ENDROOT
BRANCH   5   7
HETATM    7  C7  UNL     1     -32.689   7.854   2.319  1.00 20.00     0.391 C 
HETATM    8  F9  UNL     1     -33.236   9.071   2.462  1.00 20.00    -0.171 F 
HETATM    9  F10 UNL     1     -31.379   7.994   2.065  1.00 20.00    -0.171 F 
HETATM   10  F11 UNL     1     -33.269   7.236   1.280  1.00 20.00    -0.171 F 
ENDBRANCH   5   7
BRANCH   6  11
HETATM   11  O8  UNL     1     -35.174   4.137   4.395  1.00 20.00    -0.396 OA
HETATM   12  H22 UNL     1     -35.836   4.557   3.824  1.00 20.00     0.210 HD
ENDBRANCH   6  11
TORSDOF 2
ENDMDL
MODEL 2
REMARK VINA RESULT:      -5.7      0.004      1.140
REMARK  2 active torsions:
REMARK  status: ('A' for Active; 'I' for Inactive)
REMARK    1  A    between atoms: C5_5  and  C7_7 
REMARK    2  A    between atoms: C6_6  and  O8_8 
ROOT
HETATM    1  C1  UNL     1     -33.595   7.139   6.026  1.00 20.00     0.003 C 
HETATM    2  C2  UNL     1     -33.335   7.939   4.750  1.00 20.00     0.014 C 
HETATM    3  C3  UNL     1     -34.599   6.017   5.790  1.00 20.00     0.032 C 
HETATM    4  C4  UNL     1     -33.912   5.912   3.359  1.00 20.00     0.045 C 
HETATM    5  C5  UNL     1     -32.894   7.036   3.591  1.00 20.00     0.096 C 
HETATM    6  C6  UNL     1     -34.169   5.113   4.637  1.00 20.00     0.118 C 
ENDROOT
BRANCH   5   7
HETATM    7  C7  UNL     1     -32.694   7.852   2.317  1.00 20.00     0.391 C 
HETATM    8  F9  UNL     1     -33.277   7.235   1.278  1.00 20.00    -0.171 F 
HETATM    9  F10 UNL     1     -33.239   9.070   2.459  1.00 20.00    -0.171 F 
HETATM   10  F11 UNL     1     -31.384   7.991   2.061  1.00 20.00    -0.171 F 
ENDBRANCH   5   7
BRANCH   6  11
HETATM   11  O8  UNL     1     -35.176   4.136   4.396  1.00 20.00    -0.396 OA
HETATM   12  H22 UNL     1     -35.912   4.596   3.963  1.00 20.00     0.210 HD
ENDBRANCH   6  11
TORSDOF 2
ENDMDL
MODEL 3
REMARK VINA RESULT:      -5.7      0.004      1.141
REMARK  2 active torsions:
REMARK  status: ('A' for Active; 'I' for Inactive)
REMARK    1  A    between atoms: C5_5  and  C7_7 
REMARK    2  A    between atoms: C6_6  and  O8_8 
ROOT
HETATM    1  C1  UNL     1     -33.594   7.139   6.027  1.00 20.00     0.003 C 
HETATM    2  C2  UNL     1     -33.333   7.939   4.752  1.00 20.00     0.014 C 
HETATM    3  C3  UNL     1     -34.600   6.019   5.791  1.00 20.00     0.032 C 
HETATM    4  C4  UNL     1     -33.913   5.913   3.360  1.00 20.00     0.045 C 
HETATM    5  C5  UNL     1     -32.894   7.036   3.592  1.00 20.00     0.096 C 
HETATM    6  C6  UNL     1     -34.171   5.115   4.638  1.00 20.00     0.118 C 
ENDROOT
BRANCH   5   7
HETATM    7  C7  UNL     1     -32.692   7.853   2.318  1.00 20.00     0.391 C 
HETATM    8  F9  UNL     1     -31.382   7.990   2.062  1.00 20.00    -0.171 F 
HETATM    9  F10 UNL     1     -33.275   7.236   1.278  1.00 20.00    -0.171 F 
HETATM   10  F11 UNL     1     -33.237   9.070   2.461  1.00 20.00    -0.171 F 
ENDBRANCH   5   7
BRANCH   6  11
HETATM   11  O8  UNL     1     -35.180   4.139   4.396  1.00 20.00    -0.396 OA
HETATM   12  H22 UNL     1     -34.768   3.438   3.867  1.00 20.00     0.210 HD
ENDBRANCH   6  11
TORSDOF 2
ENDMDL
MODEL 4
REMARK VINA RESULT:      -5.7      1.321      2.190
REMARK  2 active torsions:
REMARK  status: ('A' for Active; 'I' for Inactive)
REMARK    1  A    between atoms: C5_5  and  C7_7 
REMARK    2  A    between atoms: C6_6  and  O8_8 
ROOT
HETATM    1  C1  UNL     1     -33.766   4.688   2.998  1.00 20.00     0.003 C 
HETATM    2  C2  UNL     1     -32.778   5.766   2.555  1.00 20.00     0.014 C 
HETATM    3  C3  UNL     1     -34.059   4.775   4.492  1.00 20.00     0.032 C 
HETATM    4  C4  UNL     1     -33.545   7.250   4.449  1.00 20.00     0.045 C 
HETATM    5  C5  UNL     1     -33.255   7.171   2.945  1.00 20.00     0.096 C 
HETATM    6  C6  UNL     1     -34.535   6.171   4.889  1.00 20.00     0.118 C 
ENDROOT
BRANCH   5   7
HETATM    7  C7  UNL     1     -32.225   8.223   2.538  1.00 20.00     0.391 C 
HETATM    8  F9  UNL     1     -31.426   8.510   3.577  1.00 20.00    -0.171 F 
HETATM    9  F10 UNL     1     -31.472   7.763   1.526  1.00 20.00    -0.171 F 
HETATM   10  F11 UNL     1     -32.845   9.345   2.142  1.00 20.00    -0.171 F 
ENDBRANCH   5   7
BRANCH   6  11
HETATM   11  O8  UNL     1     -34.711   6.231   6.300  1.00 20.00    -0.396 OA
HETATM   12  H22 UNL     1     -34.902   7.157   6.517  1.00 20.00     0.210 HD
ENDBRANCH   6  11
TORSDOF 2
ENDMDL
MODEL 5
REMARK VINA RESULT:      -5.7      1.322      2.378
REMARK  2 active torsions:
REMARK  status: ('A' for Active; 'I' for Inactive)
REMARK    1  A    between atoms: C5_5  and  C7_7 
REMARK    2  A    between atoms: C6_6  and  O8_8 
ROOT
HETATM    1  C1  UNL     1     -33.766   4.687   3.002  1.00 20.00     0.003 C 
HETATM    2  C2  UNL     1     -32.778   5.763   2.557  1.00 20.00     0.014 C 
HETATM    3  C3  UNL     1     -34.059   4.776   4.495  1.00 20.00     0.032 C 
HETATM    4  C4  UNL     1     -33.543   7.251   4.448  1.00 20.00     0.045 C 
HETATM    5  C5  UNL     1     -33.253   7.170   2.944  1.00 20.00     0.096 C 
HETATM    6  C6  UNL     1     -34.533   6.173   4.890  1.00 20.00     0.118 C 
ENDROOT
BRANCH   5   7
HETATM    7  C7  UNL     1     -32.224   8.220   2.536  1.00 20.00     0.391 C 
HETATM    8  F9  UNL     1     -31.473   7.759   1.524  1.00 20.00    -0.171 F 
HETATM    9  F10 UNL     1     -32.843   9.343   2.140  1.00 20.00    -0.171 F 
HETATM   10  F11 UNL     1     -31.424   8.509   3.574  1.00 20.00    -0.171 F 
ENDBRANCH   5   7
BRANCH   6  11
HETATM   11  O8  UNL     1     -34.709   6.235   6.301  1.00 20.00    -0.396 OA
HETATM   12  H22 UNL     1     -35.529   5.757   6.501  1.00 20.00     0.210 HD
ENDBRANCH   6  11
TORSDOF 2
ENDMDL
MODEL 6
REMARK VINA RESULT:      -5.6      3.026      3.866
REMARK  2 active torsions:
REMARK  status: ('A' for Active; 'I' for Inactive)
REMARK    1  A    between atoms: C5_5  and  C7_7 
REMARK    2  A    between atoms: C6_6  and  O8_8 
ROOT
HETATM    1  C1  UNL     1     -32.387   8.474   5.092  1.00 20.00     0.003 C 
HETATM    2  C2  UNL     1     -33.220   7.207   5.281  1.00 20.00     0.014 C 
HETATM    3  C3  UNL     1     -31.559   8.416   3.814  1.00 20.00     0.032 C 
HETATM    4  C4  UNL     1     -33.263   6.860   2.780  1.00 20.00     0.045 C 
HETATM    5  C5  UNL     1     -34.105   6.919   4.061  1.00 20.00     0.096 C 
HETATM    6  C6  UNL     1     -32.432   8.130   2.594  1.00 20.00     0.118 C 
ENDROOT
BRANCH   5   7
HETATM    7  C7  UNL     1     -34.885   5.622   4.254  1.00 20.00     0.391 C 
HETATM    8  F9  UNL     1     -34.240   4.604   3.663  1.00 20.00    -0.171 F 
HETATM    9  F10 UNL     1     -35.014   5.352   5.563  1.00 20.00    -0.171 F 
HETATM   10  F11 UNL     1     -36.107   5.735   3.712  1.00 20.00    -0.171 F 
ENDBRANCH   5   7
BRANCH   6  11
HETATM   11  O8  UNL     1     -31.609   7.997   1.440  1.00 20.00    -0.396 OA
HETATM   12  H22 UNL     1     -30.955   7.310   1.642  1.00 20.00     0.210 HD
ENDBRANCH   6  11
TORSDOF 2
ENDMDL
MODEL 7
REMARK VINA RESULT:      -5.1      3.178      4.235
REMARK  2 active torsions:
REMARK  status: ('A' for Active; 'I' for Inactive)
REMARK    1  A    between atoms: C5_5  and  C7_7 
REMARK    2  A    between atoms: C6_6  and  O8_8 
ROOT
HETATM    1  C1  UNL     1     -32.702   7.170   1.907  1.00 20.00     0.003 C 
HETATM    2  C2  UNL     1     -33.901   6.447   2.518  1.00 20.00     0.014 C 
HETATM    3  C3  UNL     1     -32.259   8.347   2.768  1.00 20.00     0.032 C 
HETATM    4  C4  UNL     1     -33.183   7.196   4.820  1.00 20.00     0.045 C 
HETATM    5  C5  UNL     1     -33.626   6.005   3.961  1.00 20.00     0.096 C 
HETATM    6  C6  UNL     1     -31.982   7.917   4.207  1.00 20.00     0.118 C 
ENDROOT
BRANCH   5   7
HETATM    7  C7  UNL     1     -34.857   5.333   4.564  1.00 20.00     0.391 C 
HETATM    8  F9  UNL     1     -35.968   5.778   3.957  1.00 20.00    -0.171 F 
HETATM    9  F10 UNL     1     -34.780   4.003   4.406  1.00 20.00    -0.171 F 
HETATM   10  F11 UNL     1     -34.937   5.611   5.874  1.00 20.00    -0.171 F 
ENDBRANCH   5   7
BRANCH   6  11
HETATM   11  O8  UNL     1     -31.659   9.059   4.992  1.00 20.00    -0.396 OA
HETATM   12  H22 UNL     1     -32.172   9.799   4.632  1.00 20.00     0.210 HD
ENDBRANCH   6  11
TORSDOF 2
ENDMDL
MODEL 8
REMARK VINA RESULT:      -4.7     11.279     12.184
REMARK  2 active torsions:
REMARK  status: ('A' for Active; 'I' for Inactive)
REMARK    1  A    between atoms: C5_5  and  C7_7 
REMARK    2  A    between atoms: C6_6  and  O8_8 
ROOT
HETATM    1  C1  UNL     1     -33.650  15.514  -6.286  1.00 20.00     0.003 C 
HETATM    2  C2  UNL     1     -33.421  16.190  -4.936  1.00 20.00     0.014 C 
HETATM    3  C3  UNL     1     -34.194  14.100  -6.122  1.00 20.00     0.032 C 
HETATM    4  C4  UNL     1     -35.230  14.756  -3.910  1.00 20.00     0.045 C 
HETATM    5  C5  UNL     1     -34.690  16.183  -4.073  1.00 20.00     0.096 C 
HETATM    6  C6  UNL     1     -35.458  14.083  -5.264  1.00 20.00     0.118 C 
ENDROOT
BRANCH   5   7
HETATM    7  C7  UNL     1     -34.420  16.815  -2.710  1.00 20.00     0.391 C 
HETATM    8  F9  UNL     1     -34.627  18.140  -2.768  1.00 20.00    -0.171 F 
HETATM    9  F10 UNL     1     -35.239  16.289  -1.787  1.00 20.00    -0.171 F 
HETATM   10  F11 UNL     1     -33.149  16.590  -2.342  1.00 20.00    -0.171 F 
ENDBRANCH   5   7
BRANCH   6  11
HETATM   11  O8  UNL     1     -35.880  12.738  -5.064  1.00 20.00    -0.396 OA
HETATM   12  H22 UNL     1     -36.589  12.765  -4.401  1.00 20.00     0.210 HD
ENDBRANCH   6  11
TORSDOF 2
ENDMDL
MODEL 9
REMARK VINA RESULT:      -4.5      1.924      2.697
REMARK  2 active torsions:
REMARK  status: ('A' for Active; 'I' for Inactive)
REMARK    1  A    between atoms: C5_5  and  C7_7 
REMARK    2  A    between atoms: C6_6  and  O8_8 
ROOT
HETATM    1  C1  UNL     1     -34.943   4.857   5.476  1.00 20.00     0.003 C 
HETATM    2  C2  UNL     1     -34.327   4.709   4.087  1.00 20.00     0.014 C 
HETATM    3  C3  UNL     1     -34.140   5.815   6.348  1.00 20.00     0.032 C 
HETATM    4  C4  UNL     1     -33.336   7.024   4.278  1.00 20.00     0.045 C 
HETATM    5  C5  UNL     1     -34.147   6.067   3.395  1.00 20.00     0.096 C 
HETATM    6  C6  UNL     1     -33.956   7.170   5.668  1.00 20.00     0.118 C 
ENDROOT
BRANCH   5   7
HETATM    7  C7  UNL     1     -33.481   5.895   2.032  1.00 20.00     0.391 C 
HETATM    8  F9  UNL     1     -32.540   6.836   1.858  1.00 20.00    -0.171 F 
HETATM    9  F10 UNL     1     -32.906   4.685   1.950  1.00 20.00    -0.171 F 
HETATM   10  F11 UNL     1     -34.395   6.009   1.056  1.00 20.00    -0.171 F 
ENDBRANCH   5   7
BRANCH   6  11
HETATM   11  O8  UNL     1     -33.129   8.001   6.475  1.00 20.00    -0.396 OA
HETATM   12  H22 UNL     1     -32.300   8.126   5.987  1.00 20.00     0.210 HD
ENDBRANCH   6  11
TORSDOF 2
ENDMDL
