MODEL 1
REMARK VINA RESULT:      -3.8      0.000      0.000
REMARK  0 active torsions:
REMARK  status: ('A' for Active; 'I' for Inactive)
ROOT
HETATM    1  C1  UNL     1     -35.245  16.117  -2.916  1.00 20.00     0.132 C 
HETATM    2  C2  UNL     1     -35.193  14.267  -4.914  1.00 20.00     0.064 C 
HETATM    3  C3  UNL     1     -33.864  14.813  -4.408  1.00 20.00     0.128 C 
HETATM    4  C4  UNL     1     -36.339  15.284  -4.860  1.00 20.00     0.051 C 
HETATM    5  C5  UNL     1     -35.199  16.878  -1.629  1.00 20.00     0.099 C 
HETATM    6  C6  UNL     1     -33.082  15.661  -5.399  1.00 20.00     0.040 C 
HETATM    7  C7  UNL     1     -37.678  14.525  -4.914  1.00 20.00     0.040 C 
HETATM    8  C8  UNL     1     -36.317  16.287  -6.020  1.00 20.00     0.040 C 
HETATM    9  N9  UNL     1     -36.327  16.035  -3.604  1.00 20.00    -0.261 NA
HETATM   10  O10 UNL     1     -34.041  15.559  -3.191  1.00 20.00    -0.333 OA
ENDROOT
TORSDOF 0
ENDMDL
MODEL 2
REMARK VINA RESULT:      -3.7      1.525      1.785
REMARK  0 active torsions:
REMARK  status: ('A' for Active; 'I' for Inactive)
ROOT
HETATM    1  C1  UNL     1     -34.136  16.075  -3.987  1.00 20.00     0.132 C 
HETATM    2  C2  UNL     1     -34.232  14.707  -6.339  1.00 20.00     0.064 C 
HETATM    3  C3  UNL     1     -33.359  15.952  -6.270  1.00 20.00     0.128 C 
HETATM    4  C4  UNL     1     -35.487  14.782  -5.460  1.00 20.00     0.051 C 
HETATM    5  C5  UNL     1     -33.798  16.671  -2.657  1.00 20.00     0.099 C 
HETATM    6  C6  UNL     1     -33.817  17.124  -7.126  1.00 20.00     0.040 C 
HETATM    7  C7  UNL     1     -36.010  13.354  -5.221  1.00 20.00     0.040 C 
HETATM    8  C8  UNL     1     -36.619  15.603  -6.088  1.00 20.00     0.040 C 
HETATM    9  N9  UNL     1     -35.184  15.349  -4.146  1.00 20.00    -0.261 NA
HETATM   10  O10 UNL     1     -33.200  16.399  -4.913  1.00 20.00    -0.333 OA
ENDROOT
TORSDOF 0
ENDMDL
MODEL 3
REMARK VINA RESULT:      -3.7      1.846      3.413
REMARK  0 active torsions:
REMARK  status: ('A' for Active; 'I' for Inactive)
ROOT
HETATM    1  C1  UNL     1     -34.293  16.289  -6.072  1.00 20.00     0.132 C 
HETATM    2  C2  UNL     1     -34.291  14.612  -3.926  1.00 20.00     0.064 C 
HETATM    3  C3  UNL     1     -34.732  14.053  -5.272  1.00 20.00     0.128 C 
HETATM    4  C4  UNL     1     -34.645  16.091  -3.726  1.00 20.00     0.051 C 
HETATM    5  C5  UNL     1     -34.013  17.060  -7.323  1.00 20.00     0.099 C 
HETATM    6  C6  UNL     1     -36.197  13.655  -5.370  1.00 20.00     0.040 C 
HETATM    7  C7  UNL     1     -33.758  16.665  -2.606  1.00 20.00     0.040 C 
HETATM    8  C8  UNL     1     -36.110  16.317  -3.332  1.00 20.00     0.040 C 
HETATM    9  N9  UNL     1     -34.368  16.873  -4.930  1.00 20.00    -0.261 NA
HETATM   10  O10 UNL     1     -34.423  14.966  -6.339  1.00 20.00    -0.333 OA
ENDROOT
TORSDOF 0
ENDMDL
MODEL 4
REMARK VINA RESULT:      -3.7     11.830     12.356
REMARK  0 active torsions:
REMARK  status: ('A' for Active; 'I' for Inactive)
ROOT
HETATM    1  C1  UNL     1     -33.356   7.303   5.270  1.00 20.00     0.132 C 
HETATM    2  C2  UNL     1     -32.902   5.770   3.066  1.00 20.00     0.064 C 
HETATM    3  C3  UNL     1     -32.377   7.199   3.065  1.00 20.00     0.128 C 
HETATM    4  C4  UNL     1     -34.207   5.591   3.851  1.00 20.00     0.051 C 
HETATM    5  C5  UNL     1     -33.296   8.071   6.552  1.00 20.00     0.099 C 
HETATM    6  C6  UNL     1     -33.038   8.140   2.068  1.00 20.00     0.040 C 
HETATM    7  C7  UNL     1     -34.376   4.101   4.199  1.00 20.00     0.040 C 
HETATM    8  C8  UNL     1     -35.450   6.040   3.073  1.00 20.00     0.040 C 
HETATM    9  N9  UNL     1     -34.171   6.322   5.118  1.00 20.00    -0.261 NA
HETATM   10  O10 UNL     1     -32.454   7.780   4.378  1.00 20.00    -0.333 OA
ENDROOT
TORSDOF 0
ENDMDL
MODEL 5
REMARK VINA RESULT:      -3.7      1.364      2.984
REMARK  0 active torsions:
REMARK  status: ('A' for Active; 'I' for Inactive)
ROOT
HETATM    1  C1  UNL     1     -35.381  16.570  -2.485  1.00 20.00     0.132 C 
HETATM    2  C2  UNL     1     -35.565  16.265  -5.185  1.00 20.00     0.064 C 
HETATM    3  C3  UNL     1     -36.854  16.452  -4.396  1.00 20.00     0.128 C 
HETATM    4  C4  UNL     1     -34.472  15.512  -4.415  1.00 20.00     0.051 C 
HETATM    5  C5  UNL     1     -35.320  17.054  -1.071  1.00 20.00     0.099 C 
HETATM    6  C6  UNL     1     -37.785  15.249  -4.364  1.00 20.00     0.040 C 
HETATM    7  C7  UNL     1     -33.112  15.803  -5.075  1.00 20.00     0.040 C 
HETATM    8  C8  UNL     1     -34.677  13.992  -4.400  1.00 20.00     0.040 C 
HETATM    9  N9  UNL     1     -34.381  15.975  -3.030  1.00 20.00    -0.261 NA
HETATM   10  O10 UNL     1     -36.579  16.866  -3.046  1.00 20.00    -0.333 OA
ENDROOT
TORSDOF 0
ENDMDL
MODEL 6
REMARK VINA RESULT:      -3.7      1.685      2.775
REMARK  0 active torsions:
REMARK  status: ('A' for Active; 'I' for Inactive)
ROOT
HETATM    1  C1  UNL     1     -34.341  16.271  -6.198  1.00 20.00     0.132 C 
HETATM    2  C2  UNL     1     -34.825  15.422  -3.656  1.00 20.00     0.064 C 
HETATM    3  C3  UNL     1     -33.377  15.503  -4.121  1.00 20.00     0.128 C 
HETATM    4  C4  UNL     1     -35.813  15.059  -4.771  1.00 20.00     0.051 C 
HETATM    5  C5  UNL     1     -34.005  17.021  -7.447  1.00 20.00     0.099 C 
HETATM    6  C6  UNL     1     -32.653  14.170  -4.249  1.00 20.00     0.040 C 
HETATM    7  C7  UNL     1     -37.229  15.477  -4.334  1.00 20.00     0.040 C 
HETATM    8  C8  UNL     1     -35.840  13.561  -5.095  1.00 20.00     0.040 C 
HETATM    9  N9  UNL     1     -35.516  15.789  -6.004  1.00 20.00    -0.261 NA
HETATM   10  O10 UNL     1     -33.272  16.214  -5.366  1.00 20.00    -0.333 OA
ENDROOT
TORSDOF 0
ENDMDL
MODEL 7
REMARK VINA RESULT:      -3.7      1.762      3.348
REMARK  0 active torsions:
REMARK  status: ('A' for Active; 'I' for Inactive)
ROOT
HETATM    1  C1  UNL     1     -36.182  15.019  -5.163  1.00 20.00     0.132 C 
HETATM    2  C2  UNL     1     -33.955  16.542  -5.530  1.00 20.00     0.064 C 
HETATM    3  C3  UNL     1     -34.661  15.998  -6.764  1.00 20.00     0.128 C 
HETATM    4  C4  UNL     1     -34.042  15.618  -4.309  1.00 20.00     0.051 C 
HETATM    5  C5  UNL     1     -37.563  14.458  -5.040  1.00 20.00     0.099 C 
HETATM    6  C6  UNL     1     -33.882  14.964  -7.563  1.00 20.00     0.040 C 
HETATM    7  C7  UNL     1     -33.750  16.442  -3.042  1.00 20.00     0.040 C 
HETATM    8  C8  UNL     1     -33.046  14.453  -4.357  1.00 20.00     0.040 C 
HETATM    9  N9  UNL     1     -35.387  15.064  -4.155  1.00 20.00    -0.261 NA
HETATM   10  O10 UNL     1     -35.949  15.455  -6.426  1.00 20.00    -0.333 OA
ENDROOT
TORSDOF 0
ENDMDL
MODEL 8
REMARK VINA RESULT:      -3.6      2.330      3.787
REMARK  0 active torsions:
REMARK  status: ('A' for Active; 'I' for Inactive)
ROOT
HETATM    1  C1  UNL     1     -34.698  14.189  -6.642  1.00 20.00     0.132 C 
HETATM    2  C2  UNL     1     -33.298  16.292  -5.628  1.00 20.00     0.064 C 
HETATM    3  C3  UNL     1     -33.546  15.094  -4.722  1.00 20.00     0.128 C 
HETATM    4  C4  UNL     1     -34.428  16.554  -6.630  1.00 20.00     0.051 C 
HETATM    5  C5  UNL     1     -35.171  12.899  -7.233  1.00 20.00     0.099 C 
HETATM    6  C6  UNL     1     -34.463  15.347  -3.534  1.00 20.00     0.040 C 
HETATM    7  C7  UNL     1     -33.883  17.428  -7.774  1.00 20.00     0.040 C 
HETATM    8  C8  UNL     1     -35.631  17.278  -6.014  1.00 20.00     0.040 C 
HETATM    9  N9  UNL     1     -34.902  15.310  -7.235  1.00 20.00    -0.261 NA
HETATM   10  O10 UNL     1     -34.049  13.974  -5.471  1.00 20.00    -0.333 OA
ENDROOT
TORSDOF 0
ENDMDL
MODEL 9
REMARK VINA RESULT:      -3.6      1.672      3.162
REMARK  0 active torsions:
REMARK  status: ('A' for Active; 'I' for Inactive)
ROOT
HETATM    1  C1  UNL     1     -35.244  14.610  -5.170  1.00 20.00     0.132 C 
HETATM    2  C2  UNL     1     -33.301  16.507  -4.964  1.00 20.00     0.064 C 
HETATM    3  C3  UNL     1     -33.672  15.723  -3.712  1.00 20.00     0.128 C 
HETATM    4  C4  UNL     1     -34.477  16.734  -5.922  1.00 20.00     0.051 C 
HETATM    5  C5  UNL     1     -36.058  13.361  -5.292  1.00 20.00     0.099 C 
HETATM    6  C6  UNL     1     -34.342  16.527  -2.608  1.00 20.00     0.040 C 
HETATM    7  C7  UNL     1     -33.920  17.076  -7.316  1.00 20.00     0.040 C 
HETATM    8  C8  UNL     1     -35.401  17.878  -5.488  1.00 20.00     0.040 C 
HETATM    9  N9  UNL     1     -35.284  15.524  -6.071  1.00 20.00    -0.261 NA
HETATM   10  O10 UNL     1     -34.501  14.593  -4.036  1.00 20.00    -0.333 OA
ENDROOT
TORSDOF 0
ENDMDL
