MODEL 1
REMARK VINA RESULT:      -5.4      0.000      0.000
REMARK  1 active torsions:
REMARK  status: ('A' for Active; 'I' for Inactive)
REMARK    1  A    between atoms: C1_1  and  C3_3 
ROOT
HETATM    1  C2  UNL     1     -34.941   6.350   3.403  1.00 20.00     0.067 A 
HETATM    2  C3  UNL     1     -33.701   6.812   4.143  1.00 20.00     0.083 A 
HETATM    3  C4  UNL     1     -33.885   5.341   3.768  1.00 20.00     0.132 A 
HETATM    4  C5  UNL     1     -33.880   7.250   5.577  1.00 20.00     0.030 C 
HETATM    5 CL8  UNL     1     -32.951   4.638   2.442  1.00 20.00    -0.100 Cl
HETATM    6 CL9  UNL     1     -34.279   4.150   5.008  1.00 20.00    -0.100 Cl
ENDROOT
BRANCH   2   7
HETATM    7  C1  UNL     1     -32.735   7.581   3.363  1.00 20.00     0.184 C 
HETATM    8  O6  UNL     1     -33.061   7.795   2.162  1.00 20.00    -0.647 OA
HETATM    9  O7  UNL     1     -31.700   7.930   3.996  1.00 20.00    -0.647 OA
ENDBRANCH   2   7
TORSDOF 1
ENDMDL
MODEL 2
REMARK VINA RESULT:      -4.6      2.865      3.667
REMARK  1 active torsions:
REMARK  status: ('A' for Active; 'I' for Inactive)
REMARK    1  A    between atoms: C1_1  and  C3_3 
ROOT
HETATM    1  C2  UNL     1     -34.595   6.904   3.334  1.00 20.00     0.067 A 
HETATM    2  C3  UNL     1     -33.797   5.650   3.636  1.00 20.00     0.083 A 
HETATM    3  C4  UNL     1     -33.324   7.016   4.133  1.00 20.00     0.132 A 
HETATM    4  C5  UNL     1     -33.094   4.987   2.476  1.00 20.00     0.030 C 
HETATM    5 CL8  UNL     1     -33.483   7.446   5.841  1.00 20.00    -0.100 Cl
HETATM    6 CL9  UNL     1     -31.943   7.809   3.374  1.00 20.00    -0.100 Cl
ENDROOT
BRANCH   2   7
HETATM    7  C1  UNL     1     -34.373   4.745   4.627  1.00 20.00     0.184 C 
HETATM    8  O6  UNL     1     -35.085   5.297   5.512  1.00 20.00    -0.647 OA
HETATM    9  O7  UNL     1     -34.079   3.527   4.466  1.00 20.00    -0.647 OA
ENDBRANCH   2   7
TORSDOF 1
ENDMDL
MODEL 3
REMARK VINA RESULT:      -4.2     12.101     13.129
REMARK  1 active torsions:
REMARK  status: ('A' for Active; 'I' for Inactive)
REMARK    1  A    between atoms: C1_1  and  C3_3 
ROOT
HETATM    1  C2  UNL     1     -36.165  16.144  -5.730  1.00 20.00     0.067 A 
HETATM    2  C3  UNL     1     -35.800  14.717  -6.089  1.00 20.00     0.083 A 
HETATM    3  C4  UNL     1     -34.826  15.600  -5.309  1.00 20.00     0.132 A 
HETATM    4  C5  UNL     1     -35.542  14.421  -7.548  1.00 20.00     0.030 C 
HETATM    5 CL8  UNL     1     -34.573  15.333  -3.580  1.00 20.00    -0.100 Cl
HETATM    6 CL9  UNL     1     -33.389  16.252  -6.098  1.00 20.00    -0.100 Cl
ENDROOT
BRANCH   2   7
HETATM    7  C1  UNL     1     -36.491  13.669  -5.344  1.00 20.00     0.184 C 
HETATM    8  O6  UNL     1     -37.647  13.970  -4.937  1.00 20.00    -0.647 OA
HETATM    9  O7  UNL     1     -35.836  12.598  -5.205  1.00 20.00    -0.647 OA
ENDBRANCH   2   7
TORSDOF 1
ENDMDL
MODEL 4
REMARK VINA RESULT:      -4.1     12.102     12.730
REMARK  1 active torsions:
REMARK  status: ('A' for Active; 'I' for Inactive)
REMARK    1  A    between atoms: C1_1  and  C3_3 
ROOT
HETATM    1  C2  UNL     1     -34.034  14.388  -4.399  1.00 20.00     0.067 A 
HETATM    2  C3  UNL     1     -35.470  14.768  -4.701  1.00 20.00     0.083 A 
HETATM    3  C4  UNL     1     -34.331  15.231  -5.609  1.00 20.00     0.132 A 
HETATM    4  C5  UNL     1     -36.132  15.751  -3.764  1.00 20.00     0.030 C 
HETATM    5 CL8  UNL     1     -34.095  14.479  -7.192  1.00 20.00    -0.100 Cl
HETATM    6 CL9  UNL     1     -33.806  16.915  -5.589  1.00 20.00    -0.100 Cl
ENDROOT
BRANCH   2   7
HETATM    7  C1  UNL     1     -36.328  13.697  -5.202  1.00 20.00     0.184 C 
HETATM    8  O6  UNL     1     -35.804  12.548  -5.213  1.00 20.00    -0.647 OA
HETATM    9  O7  UNL     1     -37.481  14.065  -5.558  1.00 20.00    -0.647 OA
ENDBRANCH   2   7
TORSDOF 1
ENDMDL
MODEL 5
REMARK VINA RESULT:      -4.0     11.877     12.804
REMARK  1 active torsions:
REMARK  status: ('A' for Active; 'I' for Inactive)
REMARK    1  A    between atoms: C1_1  and  C3_3 
ROOT
HETATM    1  C2  UNL     1     -35.426  15.236  -4.237  1.00 20.00     0.067 A 
HETATM    2  C3  UNL     1     -35.219  14.854  -5.689  1.00 20.00     0.083 A 
HETATM    3  C4  UNL     1     -34.052  15.358  -4.839  1.00 20.00     0.132 A 
HETATM    4  C5  UNL     1     -35.834  15.757  -6.732  1.00 20.00     0.030 C 
HETATM    5 CL8  UNL     1     -32.819  14.230  -4.264  1.00 20.00    -0.100 Cl
HETATM    6 CL9  UNL     1     -33.404  16.979  -5.089  1.00 20.00    -0.100 Cl
ENDROOT
BRANCH   2   7
HETATM    7  C1  UNL     1     -35.255  13.426  -5.990  1.00 20.00     0.184 C 
HETATM    8  O6  UNL     1     -34.584  13.071  -7.000  1.00 20.00    -0.647 OA
HETATM    9  O7  UNL     1     -35.953  12.734  -5.198  1.00 20.00    -0.647 OA
ENDBRANCH   2   7
TORSDOF 1
ENDMDL
MODEL 6
REMARK VINA RESULT:      -4.0      2.039      2.829
REMARK  1 active torsions:
REMARK  status: ('A' for Active; 'I' for Inactive)
REMARK    1  A    between atoms: C1_1  and  C3_3 
ROOT
HETATM    1  C2  UNL     1     -34.719   7.452   3.855  1.00 20.00     0.067 A 
HETATM    2  C3  UNL     1     -33.406   6.779   3.504  1.00 20.00     0.083 A 
HETATM    3  C4  UNL     1     -34.004   6.646   4.905  1.00 20.00     0.132 A 
HETATM    4  C5  UNL     1     -32.213   7.677   3.278  1.00 20.00     0.030 C 
HETATM    5 CL8  UNL     1     -34.760   5.130   5.409  1.00 20.00    -0.100 Cl
HETATM    6 CL9  UNL     1     -33.288   7.515   6.263  1.00 20.00    -0.100 Cl
ENDROOT
BRANCH   2   7
HETATM    7  C1  UNL     1     -33.495   5.613   2.630  1.00 20.00     0.184 C 
HETATM    8  O6  UNL     1     -32.611   4.731   2.817  1.00 20.00    -0.647 OA
HETATM    9  O7  UNL     1     -34.447   5.643   1.801  1.00 20.00    -0.647 OA
ENDBRANCH   2   7
TORSDOF 1
ENDMDL
MODEL 7
REMARK VINA RESULT:      -3.9     12.477     12.976
REMARK  1 active torsions:
REMARK  status: ('A' for Active; 'I' for Inactive)
REMARK    1  A    between atoms: C1_1  and  C3_3 
ROOT
HETATM    1  C2  UNL     1     -33.970  14.516  -5.359  1.00 20.00     0.067 A 
HETATM    2  C3  UNL     1     -35.388  14.789  -4.898  1.00 20.00     0.083 A 
HETATM    3  C4  UNL     1     -34.847  15.422  -6.181  1.00 20.00     0.132 A 
HETATM    4  C5  UNL     1     -35.557  15.634  -3.657  1.00 20.00     0.030 C 
HETATM    5 CL8  UNL     1     -35.371  14.819  -7.759  1.00 20.00    -0.100 Cl
HETATM    6 CL9  UNL     1     -34.445  17.138  -6.225  1.00 20.00    -0.100 Cl
ENDROOT
BRANCH   2   7
HETATM    7  C1  UNL     1     -36.337  13.689  -5.048  1.00 20.00     0.184 C 
HETATM    8  O6  UNL     1     -37.552  14.003  -4.909  1.00 20.00    -0.647 OA
HETATM    9  O7  UNL     1     -35.813  12.568  -5.296  1.00 20.00    -0.647 OA
ENDBRANCH   2   7
TORSDOF 1
ENDMDL
MODEL 8
REMARK VINA RESULT:      -3.9      1.835      2.480
REMARK  1 active torsions:
REMARK  status: ('A' for Active; 'I' for Inactive)
REMARK    1  A    between atoms: C1_1  and  C3_3 
ROOT
HETATM    1  C2  UNL     1     -34.922   6.155   3.113  1.00 20.00     0.067 A 
HETATM    2  C3  UNL     1     -34.187   5.956   4.424  1.00 20.00     0.083 A 
HETATM    3  C4  UNL     1     -33.446   5.863   3.089  1.00 20.00     0.132 A 
HETATM    4  C5  UNL     1     -34.495   4.698   5.200  1.00 20.00     0.030 C 
HETATM    5 CL8  UNL     1     -32.376   7.173   2.574  1.00 20.00    -0.100 Cl
HETATM    6 CL9  UNL     1     -32.926   4.297   2.467  1.00 20.00    -0.100 Cl
ENDROOT
BRANCH   2   7
HETATM    7  C1  UNL     1     -33.965   7.156   5.226  1.00 20.00     0.184 C 
HETATM    8  O6  UNL     1     -33.390   6.964   6.333  1.00 20.00    -0.647 OA
HETATM    9  O7  UNL     1     -34.380   8.227   4.702  1.00 20.00    -0.647 OA
ENDBRANCH   2   7
TORSDOF 1
ENDMDL
MODEL 9
REMARK VINA RESULT:      -3.9     11.748     12.548
REMARK  1 active torsions:
REMARK  status: ('A' for Active; 'I' for Inactive)
REMARK    1  A    between atoms: C1_1  and  C3_3 
ROOT
HETATM    1  C2  UNL     1     -35.050  16.204  -5.308  1.00 20.00     0.067 A 
HETATM    2  C3  UNL     1     -34.852  14.750  -4.928  1.00 20.00     0.083 A 
HETATM    3  C4  UNL     1     -35.719  15.671  -4.069  1.00 20.00     0.132 A 
HETATM    4  C5  UNL     1     -33.479  14.346  -4.446  1.00 20.00     0.030 C 
HETATM    5 CL8  UNL     1     -37.481  15.524  -4.107  1.00 20.00    -0.100 Cl
HETATM    6 CL9  UNL     1     -35.134  16.243  -2.507  1.00 20.00    -0.100 Cl
ENDROOT
BRANCH   2   7
HETATM    7  C1  UNL     1     -35.545  13.768  -5.758  1.00 20.00     0.184 C 
HETATM    8  O6  UNL     1     -35.848  12.689  -5.176  1.00 20.00    -0.647 OA
HETATM    9  O7  UNL     1     -35.747  14.130  -6.950  1.00 20.00    -0.647 OA
ENDBRANCH   2   7
TORSDOF 1
ENDMDL
