MODEL 1
REMARK VINA RESULT:      -3.5      0.000      0.000
REMARK  1 active torsions:
REMARK  status: ('A' for Active; 'I' for Inactive)
REMARK    1  A    between atoms: C3_3  and  C5_5 
ROOT
HETATM    1  C1  UNL     1     -34.935  15.454  -3.835  1.00 20.00     0.065 A 
HETATM    2  C2  UNL     1     -33.311  16.224  -5.514  1.00 20.00     0.069 A 
HETATM    3  C3  UNL     1     -35.095  14.811  -5.043  1.00 20.00     0.026 A 
HETATM    4  C4  UNL     1     -34.154  15.256  -6.015  1.00 20.00     0.031 A 
HETATM    5  S7  UNL     1     -33.655  16.591  -3.877  1.00 20.00    -0.111 SA
HETATM    6 BR8  UNL     1     -34.082  14.592  -7.779  1.00 20.00    -0.050 Br
ENDROOT
BRANCH   3   7
HETATM    7  C5  UNL     1     -36.116  13.810  -5.233  1.00 20.00     0.271 C 
HETATM    8  O6  UNL     1     -35.887  12.591  -5.257  1.00 20.00    -0.301 OA
ENDBRANCH   3   7
TORSDOF 1
ENDMDL
MODEL 2
REMARK VINA RESULT:      -3.4     12.406     12.824
REMARK  1 active torsions:
REMARK  status: ('A' for Active; 'I' for Inactive)
REMARK    1  A    between atoms: C3_3  and  C5_5 
ROOT
HETATM    1  C1  UNL     1     -33.518   6.164   2.361  1.00 20.00     0.065 A 
HETATM    2  C2  UNL     1     -32.548   7.970   3.720  1.00 20.00     0.069 A 
HETATM    3  C3  UNL     1     -33.944   6.113   3.670  1.00 20.00     0.026 A 
HETATM    4  C4  UNL     1     -33.383   7.159   4.457  1.00 20.00     0.031 A 
HETATM    5  S7  UNL     1     -32.444   7.469   2.086  1.00 20.00    -0.111 SA
HETATM    6 BR8  UNL     1     -33.747   7.396   6.293  1.00 20.00    -0.050 Br
ENDROOT
BRANCH   3   7
HETATM    7  C5  UNL     1     -34.856   5.093   4.125  1.00 20.00     0.271 C 
HETATM    8  O6  UNL     1     -34.500   3.952   4.460  1.00 20.00    -0.301 OA
ENDBRANCH   3   7
TORSDOF 1
ENDMDL
MODEL 3
REMARK VINA RESULT:      -3.4      5.747      6.530
REMARK  1 active torsions:
REMARK  status: ('A' for Active; 'I' for Inactive)
REMARK    1  A    between atoms: C3_3  and  C5_5 
ROOT
HETATM    1  C1  UNL     1     -33.304  17.388  -2.245  1.00 20.00     0.065 A 
HETATM    2  C2  UNL     1     -35.477  16.950  -1.179  1.00 20.00     0.069 A 
HETATM    3  C3  UNL     1     -33.381  17.936  -0.984  1.00 20.00     0.026 A 
HETATM    4  C4  UNL     1     -34.639  17.682  -0.365  1.00 20.00     0.031 A 
HETATM    5  S7  UNL     1     -34.745  16.572  -2.681  1.00 20.00    -0.111 SA
HETATM    6 BR8  UNL     1     -35.094  18.284   1.363  1.00 20.00    -0.050 Br
ENDROOT
BRANCH   3   7
HETATM    7  C5  UNL     1     -32.278  18.669  -0.413  1.00 20.00     0.271 C 
HETATM    8  O6  UNL     1     -31.113  18.243  -0.383  1.00 20.00    -0.301 OA
ENDBRANCH   3   7
TORSDOF 1
ENDMDL
MODEL 4
REMARK VINA RESULT:      -3.3      5.517      6.261
REMARK  1 active torsions:
REMARK  status: ('A' for Active; 'I' for Inactive)
REMARK    1  A    between atoms: C3_3  and  C5_5 
ROOT
HETATM    1  C1  UNL     1     -34.134  18.506   0.716  1.00 20.00     0.065 A 
HETATM    2  C2  UNL     1     -35.536  17.052  -0.688  1.00 20.00     0.069 A 
HETATM    3  C3  UNL     1     -33.514  18.178  -0.469  1.00 20.00     0.026 A 
HETATM    4  C4  UNL     1     -34.326  17.337  -1.284  1.00 20.00     0.031 A 
HETATM    5  S7  UNL     1     -35.689  17.799   0.846  1.00 20.00    -0.111 SA
HETATM    6 BR8  UNL     1     -33.796  16.693  -2.975  1.00 20.00    -0.050 Br
ENDROOT
BRANCH   3   7
HETATM    7  C5  UNL     1     -32.196  18.666  -0.789  1.00 20.00     0.271 C 
HETATM    8  O6  UNL     1     -31.154  18.199  -0.304  1.00 20.00    -0.301 OA
ENDBRANCH   3   7
TORSDOF 1
ENDMDL
MODEL 5
REMARK VINA RESULT:      -3.3      1.982      2.197
REMARK  1 active torsions:
REMARK  status: ('A' for Active; 'I' for Inactive)
REMARK    1  A    between atoms: C3_3  and  C5_5 
ROOT
HETATM    1  C1  UNL     1     -36.946  15.701  -4.094  1.00 20.00     0.065 A 
HETATM    2  C2  UNL     1     -34.802  16.426  -3.130  1.00 20.00     0.069 A 
HETATM    3  C3  UNL     1     -35.890  14.947  -4.556  1.00 20.00     0.026 A 
HETATM    4  C4  UNL     1     -34.648  15.366  -3.998  1.00 20.00     0.031 A 
HETATM    5  S7  UNL     1     -36.439  16.910  -2.992  1.00 20.00    -0.111 SA
HETATM    6 BR8  UNL     1     -32.994  14.558  -4.408  1.00 20.00    -0.050 Br
ENDROOT
BRANCH   3   7
HETATM    7  C5  UNL     1     -36.089  13.871  -5.495  1.00 20.00     0.271 C 
HETATM    8  O6  UNL     1     -35.954  12.672  -5.204  1.00 20.00    -0.301 OA
ENDBRANCH   3   7
TORSDOF 1
ENDMDL
MODEL 6
REMARK VINA RESULT:      -3.3      6.765      7.370
REMARK  1 active torsions:
REMARK  status: ('A' for Active; 'I' for Inactive)
REMARK    1  A    between atoms: C3_3  and  C5_5 
ROOT
HETATM    1  C1  UNL     1     -33.179  19.020   1.742  1.00 20.00     0.065 A 
HETATM    2  C2  UNL     1     -35.392  18.012   1.373  1.00 20.00     0.069 A 
HETATM    3  C3  UNL     1     -33.310  18.513   0.469  1.00 20.00     0.026 A 
HETATM    4  C4  UNL     1     -34.592  17.930   0.254  1.00 20.00     0.031 A 
HETATM    5  S7  UNL     1     -34.597  18.791   2.675  1.00 20.00    -0.111 SA
HETATM    6 BR8  UNL     1     -35.120  17.138  -1.375  1.00 20.00    -0.050 Br
ENDROOT
BRANCH   3   7
HETATM    7  C5  UNL     1     -32.236  18.598  -0.489  1.00 20.00     0.271 C 
HETATM    8  O6  UNL     1     -31.060  18.294  -0.232  1.00 20.00    -0.301 OA
ENDBRANCH   3   7
TORSDOF 1
ENDMDL
MODEL 7
REMARK VINA RESULT:      -3.3     12.521     12.863
REMARK  1 active torsions:
REMARK  status: ('A' for Active; 'I' for Inactive)
REMARK    1  A    between atoms: C3_3  and  C5_5 
ROOT
HETATM    1  C1  UNL     1     -34.467   5.383   4.583  1.00 20.00     0.065 A 
HETATM    2  C2  UNL     1     -33.453   7.494   5.331  1.00 20.00     0.069 A 
HETATM    3  C3  UNL     1     -33.671   5.947   3.611  1.00 20.00     0.026 A 
HETATM    4  C4  UNL     1     -33.083   7.170   4.044  1.00 20.00     0.031 A 
HETATM    5  S7  UNL     1     -34.504   6.326   6.011  1.00 20.00    -0.111 SA
HETATM    6 BR8  UNL     1     -31.935   8.215   2.972  1.00 20.00    -0.050 Br
ENDROOT
BRANCH   3   7
HETATM    7  C5  UNL     1     -33.495   5.319   2.325  1.00 20.00     0.271 C 
HETATM    8  O6  UNL     1     -32.837   4.282   2.151  1.00 20.00    -0.301 OA
ENDBRANCH   3   7
TORSDOF 1
ENDMDL
MODEL 8
REMARK VINA RESULT:      -3.3      3.040      3.575
REMARK  1 active torsions:
REMARK  status: ('A' for Active; 'I' for Inactive)
REMARK    1  A    between atoms: C3_3  and  C5_5 
ROOT
HETATM    1  C1  UNL     1     -35.386  13.952  -5.408  1.00 20.00     0.065 A 
HETATM    2  C2  UNL     1     -36.762  15.439  -4.012  1.00 20.00     0.069 A 
HETATM    3  C3  UNL     1     -34.625  14.675  -4.516  1.00 20.00     0.026 A 
HETATM    4  C4  UNL     1     -35.421  15.535  -3.706  1.00 20.00     0.031 A 
HETATM    5  S7  UNL     1     -37.054  14.313  -5.269  1.00 20.00    -0.111 SA
HETATM    6 BR8  UNL     1     -34.713  16.671  -2.378  1.00 20.00    -0.050 Br
ENDROOT
BRANCH   3   7
HETATM    7  C5  UNL     1     -33.192  14.528  -4.458  1.00 20.00     0.271 C 
HETATM    8  O6  UNL     1     -32.622  13.479  -4.118  1.00 20.00    -0.301 OA
ENDBRANCH   3   7
TORSDOF 1
ENDMDL
MODEL 9
REMARK VINA RESULT:      -3.3      2.311      2.528
REMARK  1 active torsions:
REMARK  status: ('A' for Active; 'I' for Inactive)
REMARK    1  A    between atoms: C3_3  and  C5_5 
ROOT
HETATM    1  C1  UNL     1     -35.040  15.048  -6.911  1.00 20.00     0.065 A 
HETATM    2  C2  UNL     1     -33.860  16.874  -5.761  1.00 20.00     0.069 A 
HETATM    3  C3  UNL     1     -35.182  14.974  -5.544  1.00 20.00     0.026 A 
HETATM    4  C4  UNL     1     -34.500  16.032  -4.877  1.00 20.00     0.031 A 
HETATM    5  S7  UNL     1     -34.086  16.387  -7.388  1.00 20.00    -0.111 SA
HETATM    6 BR8  UNL     1     -34.478  16.244  -3.003  1.00 20.00    -0.050 Br
ENDROOT
BRANCH   3   7
HETATM    7  C5  UNL     1     -35.948  13.922  -4.922  1.00 20.00     0.271 C 
HETATM    8  O6  UNL     1     -35.889  12.732  -5.268  1.00 20.00    -0.301 OA
ENDBRANCH   3   7
TORSDOF 1
ENDMDL
