MODEL 1
REMARK VINA RESULT:      -5.7      0.000      0.000
REMARK  5 active torsions:
REMARK  status: ('A' for Active; 'I' for Inactive)
REMARK    1  A    between atoms: C1_1  and  C8_8 
REMARK    2  A    between atoms: C4_4  and  C6_6 
REMARK    3  A    between atoms: C5_5  and  C8_8 
REMARK    4  A    between atoms: C6_6  and  C7_7 
REMARK    5  A    between atoms: C7_7  and  C8_8 
ROOT
HETATM    1  C8  UNL     1     -33.863   6.492   3.507  1.00 20.00     0.072 C 
ENDROOT
BRANCH   1   2
HETATM    2  C1  UNL     1     -33.538   5.018   3.270  1.00 20.00     0.223 C 
HETATM    3  O9  UNL     1     -32.814   4.650   2.347  1.00 20.00    -0.279 OA
HETATM    4 CL10 UNL     1     -34.300   3.968   4.432  1.00 20.00    -0.043 Cl
ENDBRANCH   1   2
BRANCH   1   5
HETATM    5  C5  UNL     1     -34.420   6.679   4.929  1.00 20.00     0.009 C 
HETATM    6  C3  UNL     1     -33.470   7.447   5.840  1.00 20.00     0.006 C 
ENDBRANCH   1   5
BRANCH   1   7
HETATM    7  C7  UNL     1     -32.590   7.342   3.319  1.00 20.00     0.013 C 
BRANCH   7   8
HETATM    8  C6  UNL     1     -32.498   7.958   1.918  1.00 20.00     0.000 C 
BRANCH   8   9
HETATM    9  C4  UNL     1     -32.247   9.468   1.939  1.00 20.00    -0.005 C 
HETATM   10  C2  UNL     1     -32.616  10.163   0.637  1.00 20.00     0.005 C 
ENDBRANCH   8   9
ENDBRANCH   7   8
ENDBRANCH   1   7
TORSDOF 5
ENDMDL
MODEL 2
REMARK VINA RESULT:      -5.6      1.291      1.291
REMARK  5 active torsions:
REMARK  status: ('A' for Active; 'I' for Inactive)
REMARK    1  A    between atoms: C1_1  and  C8_8 
REMARK    2  A    between atoms: C4_4  and  C6_6 
REMARK    3  A    between atoms: C5_5  and  C8_8 
REMARK    4  A    between atoms: C6_6  and  C7_7 
REMARK    5  A    between atoms: C7_7  and  C8_8 
ROOT
HETATM    1  C8  UNL     1     -34.125   6.185   3.916  1.00 20.00     0.072 C 
ENDROOT
BRANCH   1   2
HETATM    2  C1  UNL     1     -33.900   4.696   3.654  1.00 20.00     0.223 C 
HETATM    3  O9  UNL     1     -34.448   3.826   4.327  1.00 20.00    -0.279 OA
HETATM    4 CL10 UNL     1     -32.807   4.406   2.329  1.00 20.00    -0.043 Cl
ENDBRANCH   1   2
BRANCH   1   5
HETATM    5  C5  UNL     1     -34.373   6.416   5.417  1.00 20.00     0.009 C 
HETATM    6  C3  UNL     1     -33.500   7.522   5.996  1.00 20.00     0.006 C 
ENDBRANCH   1   5
BRANCH   1   7
HETATM    7  C7  UNL     1     -32.894   6.987   3.450  1.00 20.00     0.013 C 
BRANCH   7   8
HETATM    8  C6  UNL     1     -33.200   7.883   2.245  1.00 20.00     0.000 C 
BRANCH   8   9
HETATM    9  C4  UNL     1     -32.053   8.836   1.895  1.00 20.00    -0.005 C 
HETATM   10  C2  UNL     1     -32.490  10.031   1.061  1.00 20.00     0.005 C 
ENDBRANCH   8   9
ENDBRANCH   7   8
ENDBRANCH   1   7
TORSDOF 5
ENDMDL
MODEL 3
REMARK VINA RESULT:      -5.4      1.792      2.495
REMARK  5 active torsions:
REMARK  status: ('A' for Active; 'I' for Inactive)
REMARK    1  A    between atoms: C1_1  and  C8_8 
REMARK    2  A    between atoms: C4_4  and  C6_6 
REMARK    3  A    between atoms: C5_5  and  C8_8 
REMARK    4  A    between atoms: C6_6  and  C7_7 
REMARK    5  A    between atoms: C7_7  and  C8_8 
ROOT
HETATM    1  C8  UNL     1     -33.171   6.665   3.822  1.00 20.00     0.072 C 
ENDROOT
BRANCH   1   2
HETATM    2  C1  UNL     1     -33.866   6.725   5.181  1.00 20.00     0.223 C 
HETATM    3  O9  UNL     1     -33.789   7.712   5.910  1.00 20.00    -0.279 OA
HETATM    4 CL10 UNL     1     -34.746   5.268   5.551  1.00 20.00    -0.043 Cl
ENDBRANCH   1   2
BRANCH   1   5
HETATM    5  C5  UNL     1     -33.893   5.653   2.915  1.00 20.00     0.009 C 
HETATM    6  C3  UNL     1     -32.978   4.532   2.436  1.00 20.00     0.006 C 
ENDBRANCH   1   5
BRANCH   1   7
HETATM    7  C7  UNL     1     -33.180   8.063   3.171  1.00 20.00     0.013 C 
BRANCH   7   8
HETATM    8  C6  UNL     1     -31.847   8.402   2.495  1.00 20.00     0.000 C 
BRANCH   8   9
HETATM    9  C4  UNL     1     -32.014   8.961   1.079  1.00 20.00    -0.005 C 
HETATM   10  C2  UNL     1     -32.691  10.323   1.040  1.00 20.00     0.005 C 
ENDBRANCH   8   9
ENDBRANCH   7   8
ENDBRANCH   1   7
TORSDOF 5
ENDMDL
MODEL 4
REMARK VINA RESULT:      -5.2      1.867      2.559
REMARK  5 active torsions:
REMARK  status: ('A' for Active; 'I' for Inactive)
REMARK    1  A    between atoms: C1_1  and  C8_8 
REMARK    2  A    between atoms: C4_4  and  C6_6 
REMARK    3  A    between atoms: C5_5  and  C8_8 
REMARK    4  A    between atoms: C6_6  and  C7_7 
REMARK    5  A    between atoms: C7_7  and  C8_8 
ROOT
HETATM    1  C8  UNL     1     -33.180   6.585   3.523  1.00 20.00     0.072 C 
ENDROOT
BRANCH   1   2
HETATM    2  C1  UNL     1     -34.191   6.498   4.665  1.00 20.00     0.223 C 
HETATM    3  O9  UNL     1     -35.219   5.829   4.576  1.00 20.00    -0.279 OA
HETATM    4 CL10 UNL     1     -33.717   7.436   6.055  1.00 20.00    -0.043 Cl
ENDBRANCH   1   2
BRANCH   1   5
HETATM    5  C5  UNL     1     -33.608   5.651   2.378  1.00 20.00     0.009 C 
HETATM    6  C3  UNL     1     -32.873   4.316   2.400  1.00 20.00     0.006 C 
ENDBRANCH   1   5
BRANCH   1   7
HETATM    7  C7  UNL     1     -33.090   8.039   3.018  1.00 20.00     0.013 C 
BRANCH   7   8
HETATM    8  C6  UNL     1     -31.775   8.323   2.282  1.00 20.00     0.000 C 
BRANCH   8   9
HETATM    9  C4  UNL     1     -31.976   9.041   0.945  1.00 20.00    -0.005 C 
HETATM   10  C2  UNL     1     -32.765  10.336   1.063  1.00 20.00     0.005 C 
ENDBRANCH   8   9
ENDBRANCH   7   8
ENDBRANCH   1   7
TORSDOF 5
ENDMDL
MODEL 5
REMARK VINA RESULT:      -5.1      2.269      4.497
REMARK  5 active torsions:
REMARK  status: ('A' for Active; 'I' for Inactive)
REMARK    1  A    between atoms: C1_1  and  C8_8 
REMARK    2  A    between atoms: C4_4  and  C6_6 
REMARK    3  A    between atoms: C5_5  and  C8_8 
REMARK    4  A    between atoms: C6_6  and  C7_7 
REMARK    5  A    between atoms: C7_7  and  C8_8 
ROOT
HETATM    1  C8  UNL     1     -32.954   7.743   2.789  1.00 20.00     0.072 C 
ENDROOT
BRANCH   1   2
HETATM    2  C1  UNL     1     -32.112   8.040   4.030  1.00 20.00     0.223 C 
HETATM    3  O9  UNL     1     -30.934   8.382   3.952  1.00 20.00    -0.279 OA
HETATM    4 CL10 UNL     1     -33.006   7.837   5.511  1.00 20.00    -0.043 Cl
ENDBRANCH   1   2
BRANCH   1   5
HETATM    5  C5  UNL     1     -32.236   8.274   1.536  1.00 20.00     0.009 C 
HETATM    6  C3  UNL     1     -32.644   9.699   1.181  1.00 20.00     0.006 C 
ENDBRANCH   1   5
BRANCH   1   7
HETATM    7  C7  UNL     1     -33.183   6.224   2.667  1.00 20.00     0.013 C 
BRANCH   7   8
HETATM    8  C6  UNL     1     -34.510   5.779   3.292  1.00 20.00     0.000 C 
BRANCH   8   9
HETATM    9  C4  UNL     1     -34.362   4.580   4.233  1.00 20.00    -0.005 C 
HETATM   10  C2  UNL     1     -34.631   4.917   5.692  1.00 20.00     0.005 C 
ENDBRANCH   8   9
ENDBRANCH   7   8
ENDBRANCH   1   7
TORSDOF 5
ENDMDL
MODEL 6
REMARK VINA RESULT:      -5.0      1.346      1.504
REMARK  5 active torsions:
REMARK  status: ('A' for Active; 'I' for Inactive)
REMARK    1  A    between atoms: C1_1  and  C8_8 
REMARK    2  A    between atoms: C4_4  and  C6_6 
REMARK    3  A    between atoms: C5_5  and  C8_8 
REMARK    4  A    between atoms: C6_6  and  C7_7 
REMARK    5  A    between atoms: C7_7  and  C8_8 
ROOT
HETATM    1  C8  UNL     1     -33.225   7.482   3.597  1.00 20.00     0.072 C 
ENDROOT
BRANCH   1   2
HETATM    2  C1  UNL     1     -33.416   6.159   2.857  1.00 20.00     0.223 C 
HETATM    3  O9  UNL     1     -32.606   5.239   2.947  1.00 20.00    -0.279 OA
HETATM    4 CL10 UNL     1     -34.875   6.126   1.906  1.00 20.00    -0.043 Cl
ENDBRANCH   1   2
BRANCH   1   5
HETATM    5  C5  UNL     1     -33.285   7.241   5.115  1.00 20.00     0.009 C 
HETATM    6  C3  UNL     1     -34.403   6.287   5.518  1.00 20.00     0.006 C 
ENDBRANCH   1   5
BRANCH   1   7
HETATM    7  C7  UNL     1     -31.868   8.103   3.210  1.00 20.00     0.013 C 
BRANCH   7   8
HETATM    8  C6  UNL     1     -31.758   8.380   1.706  1.00 20.00     0.000 C 
BRANCH   8   9
HETATM    9  C4  UNL     1     -32.546   9.615   1.261  1.00 20.00    -0.005 C 
HETATM   10  C2  UNL     1     -33.021   9.544  -0.183  1.00 20.00     0.005 C 
ENDBRANCH   8   9
ENDBRANCH   7   8
ENDBRANCH   1   7
TORSDOF 5
ENDMDL
MODEL 7
REMARK VINA RESULT:      -4.8      2.721      4.539
REMARK  5 active torsions:
REMARK  status: ('A' for Active; 'I' for Inactive)
REMARK    1  A    between atoms: C1_1  and  C8_8 
REMARK    2  A    between atoms: C4_4  and  C6_6 
REMARK    3  A    between atoms: C5_5  and  C8_8 
REMARK    4  A    between atoms: C6_6  and  C7_7 
REMARK    5  A    between atoms: C7_7  and  C8_8 
ROOT
HETATM    1  C8  UNL     1     -33.200   7.151   2.660  1.00 20.00     0.072 C 
ENDROOT
BRANCH   1   2
HETATM    2  C1  UNL     1     -32.180   8.264   2.424  1.00 20.00     0.223 C 
HETATM    3  O9  UNL     1     -31.236   8.456   3.188  1.00 20.00    -0.279 OA
HETATM    4 CL10 UNL     1     -32.518   9.191   0.988  1.00 20.00    -0.043 Cl
ENDBRANCH   1   2
BRANCH   1   5
HETATM    5  C5  UNL     1     -32.468   5.830   2.955  1.00 20.00     0.009 C 
HETATM    6  C3  UNL     1     -33.150   4.623   2.323  1.00 20.00     0.006 C 
ENDBRANCH   1   5
BRANCH   1   7
HETATM    7  C7  UNL     1     -34.116   7.527   3.842  1.00 20.00     0.013 C 
BRANCH   7   8
HETATM    8  C6  UNL     1     -33.504   7.159   5.198  1.00 20.00     0.000 C 
BRANCH   8   9
HETATM    9  C4  UNL     1     -34.439   6.322   6.075  1.00 20.00    -0.005 C 
HETATM   10  C2  UNL     1     -34.703   4.929   5.524  1.00 20.00     0.005 C 
ENDBRANCH   8   9
ENDBRANCH   7   8
ENDBRANCH   1   7
TORSDOF 5
ENDMDL
MODEL 8
REMARK VINA RESULT:      -4.7      2.859      4.403
REMARK  5 active torsions:
REMARK  status: ('A' for Active; 'I' for Inactive)
REMARK    1  A    between atoms: C1_1  and  C8_8 
REMARK    2  A    between atoms: C4_4  and  C6_6 
REMARK    3  A    between atoms: C5_5  and  C8_8 
REMARK    4  A    between atoms: C6_6  and  C7_7 
REMARK    5  A    between atoms: C7_7  and  C8_8 
ROOT
HETATM    1  C8  UNL     1     -32.109   7.714   2.499  1.00 20.00     0.072 C 
ENDROOT
BRANCH   1   2
HETATM    2  C1  UNL     1     -31.959   8.730   1.367  1.00 20.00     0.223 C 
HETATM    3  O9  UNL     1     -31.119   8.598   0.480  1.00 20.00    -0.279 OA
HETATM    4 CL10 UNL     1     -33.089  10.050   1.496  1.00 20.00    -0.043 Cl
ENDBRANCH   1   2
BRANCH   1   5
HETATM    5  C5  UNL     1     -31.464   8.267   3.782  1.00 20.00     0.009 C 
HETATM    6  C3  UNL     1     -32.424   8.287   4.965  1.00 20.00     0.006 C 
ENDBRANCH   1   5
BRANCH   1   7
HETATM    7  C7  UNL     1     -33.603   7.420   2.739  1.00 20.00     0.013 C 
BRANCH   7   8
HETATM    8  C6  UNL     1     -33.877   5.929   2.968  1.00 20.00     0.000 C 
BRANCH   8   9
HETATM    9  C4  UNL     1     -35.037   5.671   3.934  1.00 20.00    -0.005 C 
HETATM   10  C2  UNL     1     -34.586   5.310   5.341  1.00 20.00     0.005 C 
ENDBRANCH   8   9
ENDBRANCH   7   8
ENDBRANCH   1   7
TORSDOF 5
ENDMDL
MODEL 9
REMARK VINA RESULT:      -4.5      1.485      3.964
REMARK  5 active torsions:
REMARK  status: ('A' for Active; 'I' for Inactive)
REMARK    1  A    between atoms: C1_1  and  C8_8 
REMARK    2  A    between atoms: C4_4  and  C6_6 
REMARK    3  A    between atoms: C5_5  and  C8_8 
REMARK    4  A    between atoms: C6_6  and  C7_7 
REMARK    5  A    between atoms: C7_7  and  C8_8 
ROOT
HETATM    1  C8  UNL     1     -32.484   7.216   2.745  1.00 20.00     0.072 C 
ENDROOT
BRANCH   1   2
HETATM    2  C1  UNL     1     -33.463   6.097   2.396  1.00 20.00     0.223 C 
HETATM    3  O9  UNL     1     -34.586   6.327   1.953  1.00 20.00    -0.279 OA
HETATM    4 CL10 UNL     1     -32.806   4.512   2.698  1.00 20.00    -0.043 Cl
ENDBRANCH   1   2
BRANCH   1   5
HETATM    5  C5  UNL     1     -32.781   8.454   1.880  1.00 20.00     0.009 C 
HETATM    6  C3  UNL     1     -31.615   8.836   0.976  1.00 20.00     0.006 C 
ENDBRANCH   1   5
BRANCH   1   7
HETATM    7  C7  UNL     1     -32.609   7.570   4.240  1.00 20.00     0.013 C 
BRANCH   7   8
HETATM    8  C6  UNL     1     -34.033   7.370   4.773  1.00 20.00     0.000 C 
BRANCH   8   9
HETATM    9  C4  UNL     1     -34.096   6.454   5.998  1.00 20.00    -0.005 C 
HETATM   10  C2  UNL     1     -34.657   5.073   5.696  1.00 20.00     0.005 C 
ENDBRANCH   8   9
ENDBRANCH   7   8
ENDBRANCH   1   7
TORSDOF 5
ENDMDL
