MODEL 1
REMARK VINA RESULT:      -4.6      0.000      0.000
REMARK  2 active torsions:
REMARK  status: ('A' for Active; 'I' for Inactive)
REMARK    1  A    between atoms: C3_3  and  C4_4 
REMARK    2  A    between atoms: C4_4  and  C5_5 
ROOT
HETATM    1  C1  UNL     1     -32.317   7.883   2.607  1.00 20.00     0.012 C 
HETATM    2  C2  UNL     1     -32.913   6.856   2.784  1.00 20.00    -0.117 C 
HETATM    3  C3  UNL     1     -33.640   5.596   2.999  1.00 20.00     0.094 C 
ENDROOT
BRANCH   3   4
HETATM    4  C4  UNL     1     -34.848   5.771   3.923  1.00 20.00     0.027 C 
BRANCH   4   5
HETATM    5  C5  UNL     1     -34.543   5.670   5.417  1.00 20.00     0.115 C 
HETATM    6 CL6  UNL     1     -33.922   7.200   6.077  1.00 20.00    -0.130 Cl
ENDBRANCH   4   5
ENDBRANCH   3   4
TORSDOF 2
ENDMDL
MODEL 2
REMARK VINA RESULT:      -4.5      1.929      2.330
REMARK  2 active torsions:
REMARK  status: ('A' for Active; 'I' for Inactive)
REMARK    1  A    between atoms: C3_3  and  C4_4 
REMARK    2  A    between atoms: C4_4  and  C5_5 
ROOT
HETATM    1  C1  UNL     1     -32.551   7.527   3.181  1.00 20.00     0.012 C 
HETATM    2  C2  UNL     1     -33.036   7.461   4.277  1.00 20.00    -0.117 C 
HETATM    3  C3  UNL     1     -33.628   7.384   5.621  1.00 20.00     0.094 C 
ENDROOT
BRANCH   3   4
HETATM    4  C4  UNL     1     -34.424   6.093   5.833  1.00 20.00     0.027 C 
BRANCH   4   5
HETATM    5  C5  UNL     1     -34.955   5.441   4.557  1.00 20.00     0.115 C 
HETATM    6 CL6  UNL     1     -34.166   3.882   4.226  1.00 20.00    -0.130 Cl
ENDBRANCH   4   5
ENDBRANCH   3   4
TORSDOF 2
ENDMDL
MODEL 3
REMARK VINA RESULT:      -4.4      2.191      2.979
REMARK  2 active torsions:
REMARK  status: ('A' for Active; 'I' for Inactive)
REMARK    1  A    between atoms: C3_3  and  C4_4 
REMARK    2  A    between atoms: C4_4  and  C5_5 
ROOT
HETATM    1  C1  UNL     1     -33.647   7.594   6.021  1.00 20.00     0.012 C 
HETATM    2  C2  UNL     1     -34.098   6.494   5.859  1.00 20.00    -0.117 C 
HETATM    3  C3  UNL     1     -34.652   5.146   5.664  1.00 20.00     0.094 C 
ENDROOT
BRANCH   3   4
HETATM    4  C4  UNL     1     -34.450   4.634   4.235  1.00 20.00     0.027 C 
BRANCH   4   5
HETATM    5  C5  UNL     1     -34.439   5.715   3.154  1.00 20.00     0.115 C 
HETATM    6 CL6  UNL     1     -32.787   6.187   2.697  1.00 20.00    -0.130 Cl
ENDBRANCH   4   5
ENDBRANCH   3   4
TORSDOF 2
ENDMDL
MODEL 4
REMARK VINA RESULT:      -4.4      1.985      3.387
REMARK  2 active torsions:
REMARK  status: ('A' for Active; 'I' for Inactive)
REMARK    1  A    between atoms: C3_3  and  C4_4 
REMARK    2  A    between atoms: C4_4  and  C5_5 
ROOT
HETATM    1  C1  UNL     1     -34.392   4.066   4.451  1.00 20.00     0.012 C 
HETATM    2  C2  UNL     1     -34.415   5.070   5.109  1.00 20.00    -0.117 C 
HETATM    3  C3  UNL     1     -34.448   6.297   5.918  1.00 20.00     0.094 C 
ENDROOT
BRANCH   3   4
HETATM    4  C4  UNL     1     -33.505   7.376   5.377  1.00 20.00     0.027 C 
BRANCH   4   5
HETATM    5  C5  UNL     1     -33.300   7.359   3.862  1.00 20.00     0.115 C 
HETATM    6 CL6  UNL     1     -31.731   8.050   3.392  1.00 20.00    -0.130 Cl
ENDBRANCH   4   5
ENDBRANCH   3   4
TORSDOF 2
ENDMDL
MODEL 5
REMARK VINA RESULT:      -4.4      2.772      4.113
REMARK  2 active torsions:
REMARK  status: ('A' for Active; 'I' for Inactive)
REMARK    1  A    between atoms: C3_3  and  C4_4 
REMARK    2  A    between atoms: C4_4  and  C5_5 
ROOT
HETATM    1  C1  UNL     1     -33.751   7.251   5.696  1.00 20.00     0.012 C 
HETATM    2  C2  UNL     1     -33.454   7.239   4.533  1.00 20.00    -0.117 C 
HETATM    3  C3  UNL     1     -33.094   7.222   3.108  1.00 20.00     0.094 C 
ENDROOT
BRANCH   3   4
HETATM    4  C4  UNL     1     -31.966   8.204   2.781  1.00 20.00     0.027 C 
BRANCH   4   5
HETATM    5  C5  UNL     1     -31.958   8.728   1.346  1.00 20.00     0.115 C 
HETATM    6 CL6  UNL     1     -32.707  10.336   1.217  1.00 20.00    -0.130 Cl
ENDBRANCH   4   5
ENDBRANCH   3   4
TORSDOF 2
ENDMDL
MODEL 6
REMARK VINA RESULT:      -4.4      1.819      3.100
REMARK  2 active torsions:
REMARK  status: ('A' for Active; 'I' for Inactive)
REMARK    1  A    between atoms: C3_3  and  C4_4 
REMARK    2  A    between atoms: C4_4  and  C5_5 
ROOT
HETATM    1  C1  UNL     1     -34.001   7.108   6.076  1.00 20.00     0.012 C 
HETATM    2  C2  UNL     1     -34.130   6.569   5.011  1.00 20.00    -0.117 C 
HETATM    3  C3  UNL     1     -34.291   5.908   3.708  1.00 20.00     0.094 C 
ENDROOT
BRANCH   3   4
HETATM    4  C4  UNL     1     -33.115   6.182   2.766  1.00 20.00     0.027 C 
BRANCH   4   5
HETATM    5  C5  UNL     1     -32.835   7.659   2.490  1.00 20.00     0.115 C 
HETATM    6 CL6  UNL     1     -31.409   8.246   3.377  1.00 20.00    -0.130 Cl
ENDBRANCH   4   5
ENDBRANCH   3   4
TORSDOF 2
ENDMDL
MODEL 7
REMARK VINA RESULT:      -4.3      1.621      1.673
REMARK  2 active torsions:
REMARK  status: ('A' for Active; 'I' for Inactive)
REMARK    1  A    between atoms: C3_3  and  C4_4 
REMARK    2  A    between atoms: C4_4  and  C5_5 
ROOT
HETATM    1  C1  UNL     1     -31.800   8.369   2.479  1.00 20.00     0.012 C 
HETATM    2  C2  UNL     1     -32.637   7.630   2.921  1.00 20.00    -0.117 C 
HETATM    3  C3  UNL     1     -33.662   6.723   3.458  1.00 20.00     0.094 C 
ENDROOT
BRANCH   3   4
HETATM    4  C4  UNL     1     -33.931   6.964   4.946  1.00 20.00     0.027 C 
BRANCH   4   5
HETATM    5  C5  UNL     1     -34.452   5.752   5.716  1.00 20.00     0.115 C 
HETATM    6 CL6  UNL     1     -34.507   4.291   4.704  1.00 20.00    -0.130 Cl
ENDBRANCH   4   5
ENDBRANCH   3   4
TORSDOF 2
ENDMDL
MODEL 8
REMARK VINA RESULT:      -4.3      2.060      3.554
REMARK  2 active torsions:
REMARK  status: ('A' for Active; 'I' for Inactive)
REMARK    1  A    between atoms: C3_3  and  C4_4 
REMARK    2  A    between atoms: C4_4  and  C5_5 
ROOT
HETATM    1  C1  UNL     1     -34.720   4.948   5.798  1.00 20.00     0.012 C 
HETATM    2  C2  UNL     1     -34.247   6.018   5.528  1.00 20.00    -0.117 C 
HETATM    3  C3  UNL     1     -33.670   7.330   5.201  1.00 20.00     0.094 C 
ENDROOT
BRANCH   3   4
HETATM    4  C4  UNL     1     -32.917   7.319   3.868  1.00 20.00     0.027 C 
BRANCH   4   5
HETATM    5  C5  UNL     1     -33.590   6.525   2.749  1.00 20.00     0.115 C 
HETATM    6 CL6  UNL     1     -32.921   4.885   2.596  1.00 20.00    -0.130 Cl
ENDBRANCH   4   5
ENDBRANCH   3   4
TORSDOF 2
ENDMDL
MODEL 9
REMARK VINA RESULT:      -4.3      1.234      2.139
REMARK  2 active torsions:
REMARK  status: ('A' for Active; 'I' for Inactive)
REMARK    1  A    between atoms: C3_3  and  C4_4 
REMARK    2  A    between atoms: C4_4  and  C5_5 
ROOT
HETATM    1  C1  UNL     1     -32.096   9.279   0.695  1.00 20.00     0.012 C 
HETATM    2  C2  UNL     1     -32.094   8.673   1.732  1.00 20.00    -0.117 C 
HETATM    3  C3  UNL     1     -32.089   7.935   3.003  1.00 20.00     0.094 C 
ENDROOT
BRANCH   3   4
HETATM    4  C4  UNL     1     -32.964   6.680   2.951  1.00 20.00     0.027 C 
BRANCH   4   5
HETATM    5  C5  UNL     1     -34.061   6.609   4.011  1.00 20.00     0.115 C 
HETATM    6 CL6  UNL     1     -33.557   7.350   5.547  1.00 20.00    -0.130 Cl
ENDBRANCH   4   5
ENDBRANCH   3   4
TORSDOF 2
ENDMDL
