MODEL 1
REMARK VINA RESULT:      -5.0      0.000      0.000
REMARK  1 active torsions:
REMARK  status: ('A' for Active; 'I' for Inactive)
REMARK    1  A    between atoms: C2_2  and  C3_3 
ROOT
HETATM    1  C3  UNL     1     -33.737   6.659   4.235  1.00 20.00     0.101 C 
HETATM    2  C4  UNL     1     -33.583   7.285   5.411  1.00 20.00     0.288 C 
HETATM    3  F5  UNL     1     -32.688   8.290   5.544  1.00 20.00    -0.171 F 
HETATM    4  F6  UNL     1     -34.321   6.925   6.484  1.00 20.00    -0.171 F 
HETATM    5 CL7  UNL     1     -32.760   7.169   2.892  1.00 20.00    -0.079 Cl
ENDROOT
BRANCH   1   6
HETATM    6  C2  UNL     1     -34.689   5.577   4.058  1.00 20.00     0.019 C 
HETATM    7  C1  UNL     1     -34.579   4.320   4.505  1.00 20.00     0.013 C 
ENDBRANCH   1   6
TORSDOF 1
ENDMDL
MODEL 2
REMARK VINA RESULT:      -5.0      2.071      2.331
REMARK  1 active torsions:
REMARK  status: ('A' for Active; 'I' for Inactive)
REMARK    1  A    between atoms: C2_2  and  C3_3 
ROOT
HETATM    1  C3  UNL     1     -33.796   6.719   4.511  1.00 20.00     0.101 C 
HETATM    2  C4  UNL     1     -33.004   7.133   3.512  1.00 20.00     0.288 C 
HETATM    3  F5  UNL     1     -32.120   8.137   3.707  1.00 20.00    -0.171 F 
HETATM    4  F6  UNL     1     -33.074   6.555   2.293  1.00 20.00    -0.171 F 
HETATM    5 CL7  UNL     1     -33.659   7.502   6.056  1.00 20.00    -0.079 Cl
ENDROOT
BRANCH   1   6
HETATM    6  C2  UNL     1     -34.757   5.644   4.337  1.00 20.00     0.019 C 
HETATM    7  C1  UNL     1     -34.553   4.335   4.533  1.00 20.00     0.013 C 
ENDBRANCH   1   6
TORSDOF 1
ENDMDL
MODEL 3
REMARK VINA RESULT:      -5.0      2.840      3.468
REMARK  1 active torsions:
REMARK  status: ('A' for Active; 'I' for Inactive)
REMARK    1  A    between atoms: C2_2  and  C3_3 
ROOT
HETATM    1  C3  UNL     1     -33.893   5.735   3.989  1.00 20.00     0.101 C 
HETATM    2  C4  UNL     1     -33.132   5.691   2.886  1.00 20.00     0.288 C 
HETATM    3  F5  UNL     1     -32.919   4.520   2.244  1.00 20.00    -0.171 F 
HETATM    4  F6  UNL     1     -32.565   6.815   2.396  1.00 20.00    -0.171 F 
HETATM    5 CL7  UNL     1     -34.595   4.256   4.570  1.00 20.00    -0.079 Cl
ENDROOT
BRANCH   1   6
HETATM    6  C2  UNL     1     -34.142   6.974   4.703  1.00 20.00     0.019 C 
HETATM    7  C1  UNL     1     -33.665   7.328   5.903  1.00 20.00     0.013 C 
ENDBRANCH   1   6
TORSDOF 1
ENDMDL
MODEL 4
REMARK VINA RESULT:      -5.0      2.550      3.058
REMARK  1 active torsions:
REMARK  status: ('A' for Active; 'I' for Inactive)
REMARK    1  A    between atoms: C2_2  and  C3_3 
ROOT
HETATM    1  C3  UNL     1     -33.613   6.122   3.646  1.00 20.00     0.101 C 
HETATM    2  C4  UNL     1     -33.586   4.832   3.285  1.00 20.00     0.288 C 
HETATM    3  F5  UNL     1     -32.930   4.443   2.168  1.00 20.00    -0.171 F 
HETATM    4  F6  UNL     1     -34.214   3.895   4.030  1.00 20.00    -0.171 F 
HETATM    5 CL7  UNL     1     -32.786   7.279   2.647  1.00 20.00    -0.079 Cl
ENDROOT
BRANCH   1   6
HETATM    6  C2  UNL     1     -34.308   6.574   4.838  1.00 20.00     0.019 C 
HETATM    7  C1  UNL     1     -33.785   7.230   5.882  1.00 20.00     0.013 C 
ENDBRANCH   1   6
TORSDOF 1
ENDMDL
MODEL 5
REMARK VINA RESULT:      -5.0      2.321      3.091
REMARK  1 active torsions:
REMARK  status: ('A' for Active; 'I' for Inactive)
REMARK    1  A    between atoms: C2_2  and  C3_3 
ROOT
HETATM    1  C3  UNL     1     -34.050   6.177   4.636  1.00 20.00     0.101 C 
HETATM    2  C4  UNL     1     -34.490   4.961   4.988  1.00 20.00     0.288 C 
HETATM    3  F5  UNL     1     -34.794   4.685   6.277  1.00 20.00    -0.171 F 
HETATM    4  F6  UNL     1     -34.639   3.988   4.062  1.00 20.00    -0.171 F 
HETATM    5 CL7  UNL     1     -33.880   7.386   5.872  1.00 20.00    -0.079 Cl
ENDROOT
BRANCH   1   6
HETATM    6  C2  UNL     1     -33.716   6.507   3.262  1.00 20.00     0.019 C 
HETATM    7  C1  UNL     1     -32.652   7.197   2.830  1.00 20.00     0.013 C 
ENDBRANCH   1   6
TORSDOF 1
ENDMDL
MODEL 6
REMARK VINA RESULT:      -4.9      1.610      2.615
REMARK  1 active torsions:
REMARK  status: ('A' for Active; 'I' for Inactive)
REMARK    1  A    between atoms: C2_2  and  C3_3 
ROOT
HETATM    1  C3  UNL     1     -33.822   6.673   4.158  1.00 20.00     0.101 C 
HETATM    2  C4  UNL     1     -33.599   7.220   5.362  1.00 20.00     0.288 C 
HETATM    3  F5  UNL     1     -34.460   7.011   6.383  1.00 20.00    -0.171 F 
HETATM    4  F6  UNL     1     -32.509   7.989   5.577  1.00 20.00    -0.171 F 
HETATM    5 CL7  UNL     1     -35.241   5.694   3.945  1.00 20.00    -0.079 Cl
ENDROOT
BRANCH   1   6
HETATM    6  C2  UNL     1     -32.918   6.877   3.040  1.00 20.00     0.019 C 
HETATM    7  C1  UNL     1     -32.666   8.026   2.401  1.00 20.00     0.013 C 
ENDBRANCH   1   6
TORSDOF 1
ENDMDL
MODEL 7
REMARK VINA RESULT:      -4.9      2.655      3.507
REMARK  1 active torsions:
REMARK  status: ('A' for Active; 'I' for Inactive)
REMARK    1  A    between atoms: C2_2  and  C3_3 
ROOT
HETATM    1  C3  UNL     1     -33.518   6.962   4.045  1.00 20.00     0.101 C 
HETATM    2  C4  UNL     1     -34.446   6.174   3.485  1.00 20.00     0.288 C 
HETATM    3  F5  UNL     1     -35.498   5.728   4.208  1.00 20.00    -0.171 F 
HETATM    4  F6  UNL     1     -34.348   5.811   2.187  1.00 20.00    -0.171 F 
HETATM    5 CL7  UNL     1     -33.699   7.395   5.718  1.00 20.00    -0.079 Cl
ENDROOT
BRANCH   1   6
HETATM    6  C2  UNL     1     -32.376   7.459   3.298  1.00 20.00     0.019 C 
HETATM    7  C1  UNL     1     -32.387   8.346   2.295  1.00 20.00     0.013 C 
ENDBRANCH   1   6
TORSDOF 1
ENDMDL
MODEL 8
REMARK VINA RESULT:      -4.8      1.630      2.623
REMARK  1 active torsions:
REMARK  status: ('A' for Active; 'I' for Inactive)
REMARK    1  A    between atoms: C2_2  and  C3_3 
ROOT
HETATM    1  C3  UNL     1     -33.745   6.422   4.133  1.00 20.00     0.101 C 
HETATM    2  C4  UNL     1     -34.093   6.586   5.417  1.00 20.00     0.288 C 
HETATM    3  F5  UNL     1     -34.568   5.546   6.140  1.00 20.00    -0.171 F 
HETATM    4  F6  UNL     1     -33.974   7.793   6.014  1.00 20.00    -0.171 F 
HETATM    5 CL7  UNL     1     -33.919   4.846   3.423  1.00 20.00    -0.079 Cl
ENDROOT
BRANCH   1   6
HETATM    6  C2  UNL     1     -33.231   7.516   3.329  1.00 20.00     0.019 C 
HETATM    7  C1  UNL     1     -31.954   7.898   3.201  1.00 20.00     0.013 C 
ENDBRANCH   1   6
TORSDOF 1
ENDMDL
MODEL 9
REMARK VINA RESULT:      -4.7      2.154      2.671
REMARK  1 active torsions:
REMARK  status: ('A' for Active; 'I' for Inactive)
REMARK    1  A    between atoms: C2_2  and  C3_3 
ROOT
HETATM    1  C3  UNL     1     -33.266   7.035   3.766  1.00 20.00     0.101 C 
HETATM    2  C4  UNL     1     -32.219   7.732   3.303  1.00 20.00     0.288 C 
HETATM    3  F5  UNL     1     -31.851   7.641   2.005  1.00 20.00    -0.171 F 
HETATM    4  F6  UNL     1     -31.514   8.540   4.124  1.00 20.00    -0.171 F 
HETATM    5 CL7  UNL     1     -34.135   6.013   2.661  1.00 20.00    -0.079 Cl
ENDROOT
BRANCH   1   6
HETATM    6  C2  UNL     1     -33.689   7.109   5.153  1.00 20.00     0.019 C 
HETATM    7  C1  UNL     1     -34.374   6.188   5.843  1.00 20.00     0.013 C 
ENDBRANCH   1   6
TORSDOF 1
ENDMDL
