MODEL 1
REMARK VINA RESULT:      -6.3      0.000      0.000
REMARK  0 active torsions:
REMARK  status: ('A' for Active; 'I' for Inactive)
ROOT
HETATM    1  C1  UNL     1     -33.771   6.250   5.067  1.00 20.00     0.288 C 
HETATM    2  C2  UNL     1     -33.298   6.990   3.795  1.00 20.00     0.288 C 
HETATM    3  C3  UNL     1     -34.659   5.377   4.150  1.00 20.00     0.343 C 
HETATM    4  C4  UNL     1     -33.694   5.729   2.991  1.00 20.00     0.343 C 
HETATM    5  F5  UNL     1     -34.427   7.003   5.978  1.00 20.00    -0.240 F 
HETATM    6  F6  UNL     1     -33.993   8.112   3.489  1.00 20.00    -0.240 F 
HETATM    7  F7  UNL     1     -35.930   5.813   3.993  1.00 20.00    -0.196 F 
HETATM    8  F8  UNL     1     -34.731   4.068   4.475  1.00 20.00    -0.196 F 
HETATM    9  F9  UNL     1     -34.276   5.957   1.793  1.00 20.00    -0.196 F 
HETATM   10  F10 UNL     1     -32.696   4.841   2.781  1.00 20.00    -0.196 F 
ENDROOT
TORSDOF 0
ENDMDL
MODEL 2
REMARK VINA RESULT:      -6.0      0.811      2.779
REMARK  0 active torsions:
REMARK  status: ('A' for Active; 'I' for Inactive)
ROOT
HETATM    1  C1  UNL     1     -33.539   7.272   3.649  1.00 20.00     0.288 C 
HETATM    2  C2  UNL     1     -34.207   6.743   4.939  1.00 20.00     0.288 C 
HETATM    3  C3  UNL     1     -33.781   5.876   3.029  1.00 20.00     0.343 C 
HETATM    4  C4  UNL     1     -34.921   5.689   4.060  1.00 20.00     0.343 C 
HETATM    5  F5  UNL     1     -32.246   7.647   3.767  1.00 20.00    -0.240 F 
HETATM    6  F6  UNL     1     -33.357   6.240   5.865  1.00 20.00    -0.240 F 
HETATM    7  F7  UNL     1     -32.751   5.007   3.145  1.00 20.00    -0.196 F 
HETATM    8  F8  UNL     1     -34.158   5.868   1.731  1.00 20.00    -0.196 F 
HETATM    9  F9  UNL     1     -35.028   4.453   4.596  1.00 20.00    -0.196 F 
HETATM   10  F10 UNL     1     -36.154   6.037   3.626  1.00 20.00    -0.196 F 
ENDROOT
TORSDOF 0
ENDMDL
MODEL 3
REMARK VINA RESULT:      -5.7      1.237      2.818
REMARK  0 active torsions:
REMARK  status: ('A' for Active; 'I' for Inactive)
ROOT
HETATM    1  C1  UNL     1     -34.131   7.107   5.513  1.00 20.00     0.288 C 
HETATM    2  C2  UNL     1     -34.612   5.639   5.562  1.00 20.00     0.288 C 
HETATM    3  C3  UNL     1     -33.736   6.860   4.038  1.00 20.00     0.343 C 
HETATM    4  C4  UNL     1     -34.768   5.706   4.024  1.00 20.00     0.343 C 
HETATM    5  F5  UNL     1     -33.117   7.423   6.348  1.00 20.00    -0.240 F 
HETATM    6  F6  UNL     1     -33.697   4.747   6.010  1.00 20.00    -0.240 F 
HETATM    7  F7  UNL     1     -32.451   6.487   3.840  1.00 20.00    -0.196 F 
HETATM    8  F8  UNL     1     -33.985   7.878   3.185  1.00 20.00    -0.196 F 
HETATM    9  F9  UNL     1     -34.396   4.596   3.348  1.00 20.00    -0.196 F 
HETATM   10  F10 UNL     1     -36.002   6.040   3.582  1.00 20.00    -0.196 F 
ENDROOT
TORSDOF 0
ENDMDL
MODEL 4
REMARK VINA RESULT:      -5.5      1.008      2.729
REMARK  0 active torsions:
REMARK  status: ('A' for Active; 'I' for Inactive)
ROOT
HETATM    1  C1  UNL     1     -32.665   6.512   3.364  1.00 20.00     0.288 C 
HETATM    2  C2  UNL     1     -33.728   5.543   2.797  1.00 20.00     0.288 C 
HETATM    3  C3  UNL     1     -33.752   7.033   4.333  1.00 20.00     0.343 C 
HETATM    4  C4  UNL     1     -34.477   5.677   4.144  1.00 20.00     0.343 C 
HETATM    5  F5  UNL     1     -32.171   7.418   2.493  1.00 20.00    -0.240 F 
HETATM    6  F6  UNL     1     -34.403   5.996   1.714  1.00 20.00    -0.240 F 
HETATM    7  F7  UNL     1     -34.437   8.117   3.902  1.00 20.00    -0.196 F 
HETATM    8  F8  UNL     1     -33.337   7.304   5.589  1.00 20.00    -0.196 F 
HETATM    9  F9  UNL     1     -35.824   5.741   4.062  1.00 20.00    -0.196 F 
HETATM   10  F10 UNL     1     -34.183   4.732   5.065  1.00 20.00    -0.196 F 
ENDROOT
TORSDOF 0
ENDMDL
MODEL 5
REMARK VINA RESULT:      -5.4      1.091      1.805
REMARK  0 active torsions:
REMARK  status: ('A' for Active; 'I' for Inactive)
ROOT
HETATM    1  C1  UNL     1     -33.896   5.410   5.139  1.00 20.00     0.288 C 
HETATM    2  C2  UNL     1     -33.472   6.883   5.339  1.00 20.00     0.288 C 
HETATM    3  C3  UNL     1     -34.384   5.811   3.728  1.00 20.00     0.343 C 
HETATM    4  C4  UNL     1     -33.401   7.006   3.799  1.00 20.00     0.343 C 
HETATM    5  F5  UNL     1     -34.847   4.950   5.982  1.00 20.00    -0.240 F 
HETATM    6  F6  UNL     1     -34.395   7.672   5.939  1.00 20.00    -0.240 F 
HETATM    7  F7  UNL     1     -35.692   6.145   3.643  1.00 20.00    -0.196 F 
HETATM    8  F8  UNL     1     -34.144   4.913   2.747  1.00 20.00    -0.196 F 
HETATM    9  F9  UNL     1     -33.856   8.168   3.282  1.00 20.00    -0.196 F 
HETATM   10  F10 UNL     1     -32.183   6.784   3.257  1.00 20.00    -0.196 F 
ENDROOT
TORSDOF 0
ENDMDL
MODEL 6
REMARK VINA RESULT:      -5.3      1.002      2.581
REMARK  0 active torsions:
REMARK  status: ('A' for Active; 'I' for Inactive)
ROOT
HETATM    1  C1  UNL     1     -34.020   4.788   4.258  1.00 20.00     0.288 C 
HETATM    2  C2  UNL     1     -33.814   5.809   5.400  1.00 20.00     0.288 C 
HETATM    3  C3  UNL     1     -34.566   5.954   3.402  1.00 20.00     0.343 C 
HETATM    4  C4  UNL     1     -33.767   6.914   4.318  1.00 20.00     0.343 C 
HETATM    5  F5  UNL     1     -34.892   3.787   4.513  1.00 20.00    -0.240 F 
HETATM    6  F6  UNL     1     -34.840   5.907   6.279  1.00 20.00    -0.240 F 
HETATM    7  F7  UNL     1     -35.909   6.113   3.432  1.00 20.00    -0.196 F 
HETATM    8  F8  UNL     1     -34.201   5.947   2.101  1.00 20.00    -0.196 F 
HETATM    9  F9  UNL     1     -34.387   8.072   4.634  1.00 20.00    -0.196 F 
HETATM   10  F10 UNL     1     -32.531   7.238   3.876  1.00 20.00    -0.196 F 
ENDROOT
TORSDOF 0
ENDMDL
MODEL 7
REMARK VINA RESULT:      -5.3      1.105      2.835
REMARK  0 active torsions:
REMARK  status: ('A' for Active; 'I' for Inactive)
ROOT
HETATM    1  C1  UNL     1     -34.835   5.959   3.880  1.00 20.00     0.288 C 
HETATM    2  C2  UNL     1     -33.729   5.851   2.806  1.00 20.00     0.288 C 
HETATM    3  C3  UNL     1     -33.858   6.829   4.705  1.00 20.00     0.343 C 
HETATM    4  C4  UNL     1     -33.136   7.162   3.376  1.00 20.00     0.343 C 
HETATM    5  F5  UNL     1     -35.214   4.795   4.454  1.00 20.00    -0.240 F 
HETATM    6  F6  UNL     1     -32.929   4.764   2.908  1.00 20.00    -0.240 F 
HETATM    7  F7  UNL     1     -33.112   6.157   5.613  1.00 20.00    -0.196 F 
HETATM    8  F8  UNL     1     -34.409   7.880   5.351  1.00 20.00    -0.196 F 
HETATM    9  F9  UNL     1     -31.788   7.216   3.440  1.00 20.00    -0.196 F 
HETATM   10  F10 UNL     1     -33.547   8.296   2.764  1.00 20.00    -0.196 F 
ENDROOT
TORSDOF 0
ENDMDL
MODEL 8
REMARK VINA RESULT:      -5.1      1.039      3.249
REMARK  0 active torsions:
REMARK  status: ('A' for Active; 'I' for Inactive)
ROOT
HETATM    1  C1  UNL     1     -33.374   5.545   3.290  1.00 20.00     0.288 C 
HETATM    2  C2  UNL     1     -33.584   4.595   4.492  1.00 20.00     0.288 C 
HETATM    3  C3  UNL     1     -34.543   6.395   3.841  1.00 20.00     0.343 C 
HETATM    4  C4  UNL     1     -34.247   5.782   5.232  1.00 20.00     0.343 C 
HETATM    5  F5  UNL     1     -33.567   5.001   2.068  1.00 20.00    -0.240 F 
HETATM    6  F6  UNL     1     -34.396   3.537   4.255  1.00 20.00    -0.240 F 
HETATM    7  F7  UNL     1     -35.761   6.101   3.330  1.00 20.00    -0.196 F 
HETATM    8  F8  UNL     1     -34.391   7.734   3.747  1.00 20.00    -0.196 F 
HETATM    9  F9  UNL     1     -35.330   5.475   5.979  1.00 20.00    -0.196 F 
HETATM   10  F10 UNL     1     -33.419   6.507   6.018  1.00 20.00    -0.196 F 
ENDROOT
TORSDOF 0
ENDMDL
MODEL 9
REMARK VINA RESULT:      -5.1      1.255      3.275
REMARK  0 active torsions:
REMARK  status: ('A' for Active; 'I' for Inactive)
ROOT
HETATM    1  C1  UNL     1     -33.113   5.431   3.305  1.00 20.00     0.288 C 
HETATM    2  C2  UNL     1     -34.396   5.770   4.097  1.00 20.00     0.288 C 
HETATM    3  C3  UNL     1     -32.872   6.952   3.170  1.00 20.00     0.343 C 
HETATM    4  C4  UNL     1     -33.752   7.137   4.431  1.00 20.00     0.343 C 
HETATM    5  F5  UNL     1     -33.297   4.760   2.146  1.00 20.00    -0.240 F 
HETATM    6  F6  UNL     1     -35.530   5.833   3.359  1.00 20.00    -0.240 F 
HETATM    7  F7  UNL     1     -33.358   7.516   2.041  1.00 20.00    -0.196 F 
HETATM    8  F8  UNL     1     -31.588   7.355   3.288  1.00 20.00    -0.196 F 
HETATM    9  F9  UNL     1     -34.586   8.199   4.412  1.00 20.00    -0.196 F 
HETATM   10  F10 UNL     1     -33.078   7.187   5.603  1.00 20.00    -0.196 F 
ENDROOT
TORSDOF 0
ENDMDL
