MODEL 1
REMARK VINA RESULT:      -4.5      0.000      0.000
REMARK  2 active torsions:
REMARK  status: ('A' for Active; 'I' for Inactive)
REMARK    1  A    between atoms: C1_1  and  C5_5 
REMARK    2  A    between atoms: C5_5  and  C6_6 
ROOT
HETATM    1  C5  UNL     1     -33.056   5.993   3.152  1.00 20.00     0.104 C 
ENDROOT
BRANCH   1   2
HETATM    2  C1  UNL     1     -32.690   7.423   2.787  1.00 20.00     0.219 C 
HETATM    3  O7  UNL     1     -33.252   8.015   1.870  1.00 20.00    -0.280 OA
HETATM    4 CL8  UNL     1     -31.436   8.083   3.796  1.00 20.00    -0.044 Cl
ENDBRANCH   1   2
BRANCH   1   5
HETATM    5  C6  UNL     1     -34.226   5.855   4.155  1.00 20.00    -0.044 C 
HETATM    6  C2  UNL     1     -35.569   6.209   3.497  1.00 20.00     0.015 C 
HETATM    7  C3  UNL     1     -34.283   4.387   4.623  1.00 20.00     0.015 C 
HETATM    8  C4  UNL     1     -34.015   6.748   5.389  1.00 20.00     0.015 C 
ENDBRANCH   1   5
TORSDOF 2
ENDMDL
MODEL 2
REMARK VINA RESULT:      -4.5      0.064      1.517
REMARK  2 active torsions:
REMARK  status: ('A' for Active; 'I' for Inactive)
REMARK    1  A    between atoms: C1_1  and  C5_5 
REMARK    2  A    between atoms: C5_5  and  C6_6 
ROOT
HETATM    1  C5  UNL     1     -33.067   5.996   3.172  1.00 20.00     0.104 C 
ENDROOT
BRANCH   1   2
HETATM    2  C1  UNL     1     -32.698   7.424   2.800  1.00 20.00     0.219 C 
HETATM    3  O7  UNL     1     -33.264   8.016   1.886  1.00 20.00    -0.280 OA
HETATM    4 CL8  UNL     1     -31.433   8.081   3.798  1.00 20.00    -0.044 Cl
ENDBRANCH   1   2
BRANCH   1   5
HETATM    5  C6  UNL     1     -34.210   5.867   4.207  1.00 20.00    -0.044 C 
HETATM    6  C2  UNL     1     -34.011   6.838   5.381  1.00 20.00     0.015 C 
HETATM    7  C3  UNL     1     -35.535   6.217   3.501  1.00 20.00     0.015 C 
HETATM    8  C4  UNL     1     -34.316   4.431   4.748  1.00 20.00     0.015 C 
ENDBRANCH   1   5
TORSDOF 2
ENDMDL
MODEL 3
REMARK VINA RESULT:      -4.4      0.093      1.551
REMARK  2 active torsions:
REMARK  status: ('A' for Active; 'I' for Inactive)
REMARK    1  A    between atoms: C1_1  and  C5_5 
REMARK    2  A    between atoms: C5_5  and  C6_6 
ROOT
HETATM    1  C5  UNL     1     -33.015   6.002   3.243  1.00 20.00     0.104 C 
ENDROOT
BRANCH   1   2
HETATM    2  C1  UNL     1     -32.673   7.423   2.826  1.00 20.00     0.219 C 
HETATM    3  O7  UNL     1     -33.252   7.977   1.896  1.00 20.00    -0.280 OA
HETATM    4 CL8  UNL     1     -31.418   8.133   3.800  1.00 20.00    -0.044 Cl
ENDBRANCH   1   2
BRANCH   1   5
HETATM    5  C6  UNL     1     -34.222   5.876   4.203  1.00 20.00    -0.044 C 
HETATM    6  C2  UNL     1     -34.326   4.458   4.784  1.00 20.00     0.015 C 
HETATM    7  C3  UNL     1     -34.012   6.866   5.365  1.00 20.00     0.015 C 
HETATM    8  C4  UNL     1     -35.540   6.233   3.496  1.00 20.00     0.015 C 
ENDBRANCH   1   5
TORSDOF 2
ENDMDL
MODEL 4
REMARK VINA RESULT:      -4.4      1.317      2.037
REMARK  2 active torsions:
REMARK  status: ('A' for Active; 'I' for Inactive)
REMARK    1  A    between atoms: C1_1  and  C5_5 
REMARK    2  A    between atoms: C5_5  and  C6_6 
ROOT
HETATM    1  C5  UNL     1     -32.992   6.093   3.154  1.00 20.00     0.104 C 
ENDROOT
BRANCH   1   2
HETATM    2  C1  UNL     1     -32.477   7.524   3.130  1.00 20.00     0.219 C 
HETATM    3  O7  UNL     1     -31.808   7.981   4.053  1.00 20.00    -0.280 OA
HETATM    4 CL8  UNL     1     -32.934   8.386   1.690  1.00 20.00    -0.044 Cl
ENDBRANCH   1   2
BRANCH   1   5
HETATM    5  C6  UNL     1     -34.187   5.846   4.104  1.00 20.00    -0.044 C 
HETATM    6  C2  UNL     1     -34.051   6.667   5.396  1.00 20.00     0.015 C 
HETATM    7  C3  UNL     1     -35.473   6.288   3.378  1.00 20.00     0.015 C 
HETATM    8  C4  UNL     1     -34.321   4.356   4.461  1.00 20.00     0.015 C 
ENDBRANCH   1   5
TORSDOF 2
ENDMDL
MODEL 5
REMARK VINA RESULT:      -4.3      2.480      3.321
REMARK  2 active torsions:
REMARK  status: ('A' for Active; 'I' for Inactive)
REMARK    1  A    between atoms: C1_1  and  C5_5 
REMARK    2  A    between atoms: C5_5  and  C6_6 
ROOT
HETATM    1  C5  UNL     1     -34.890   6.039   3.876  1.00 20.00     0.104 C 
ENDROOT
BRANCH   1   2
HETATM    2  C1  UNL     1     -34.445   5.804   5.311  1.00 20.00     0.219 C 
HETATM    3  O7  UNL     1     -34.480   4.687   5.820  1.00 20.00    -0.280 OA
HETATM    4 CL8  UNL     1     -33.897   7.256   6.099  1.00 20.00    -0.044 Cl
ENDBRANCH   1   2
BRANCH   1   5
HETATM    5  C6  UNL     1     -33.750   6.031   2.831  1.00 20.00    -0.044 C 
HETATM    6  C2  UNL     1     -33.018   4.681   2.814  1.00 20.00     0.015 C 
HETATM    7  C3  UNL     1     -34.375   6.266   1.441  1.00 20.00     0.015 C 
HETATM    8  C4  UNL     1     -32.735   7.155   3.100  1.00 20.00     0.015 C 
ENDBRANCH   1   5
TORSDOF 2
ENDMDL
MODEL 6
REMARK VINA RESULT:      -4.1      2.821      4.572
REMARK  2 active torsions:
REMARK  status: ('A' for Active; 'I' for Inactive)
REMARK    1  A    between atoms: C1_1  and  C5_5 
REMARK    2  A    between atoms: C5_5  and  C6_6 
ROOT
HETATM    1  C5  UNL     1     -33.317   8.527   1.943  1.00 20.00     0.104 C 
ENDROOT
BRANCH   1   2
HETATM    2  C1  UNL     1     -32.461   7.675   2.867  1.00 20.00     0.219 C 
HETATM    3  O7  UNL     1     -31.624   8.177   3.612  1.00 20.00    -0.280 OA
HETATM    4 CL8  UNL     1     -32.813   5.975   2.742  1.00 20.00    -0.044 Cl
ENDBRANCH   1   2
BRANCH   1   5
HETATM    5  C6  UNL     1     -32.531   9.306   0.861  1.00 20.00    -0.044 C 
HETATM    6  C2  UNL     1     -33.287   9.318  -0.476  1.00 20.00     0.015 C 
HETATM    7  C3  UNL     1     -32.369  10.761   1.344  1.00 20.00     0.015 C 
HETATM    8  C4  UNL     1     -31.130   8.709   0.648  1.00 20.00     0.015 C 
ENDBRANCH   1   5
TORSDOF 2
ENDMDL
MODEL 7
REMARK VINA RESULT:      -4.0      2.802      4.571
REMARK  2 active torsions:
REMARK  status: ('A' for Active; 'I' for Inactive)
REMARK    1  A    between atoms: C1_1  and  C5_5 
REMARK    2  A    between atoms: C5_5  and  C6_6 
ROOT
HETATM    1  C5  UNL     1     -33.326   8.461   1.885  1.00 20.00     0.104 C 
ENDROOT
BRANCH   1   2
HETATM    2  C1  UNL     1     -32.484   7.637   2.846  1.00 20.00     0.219 C 
HETATM    3  O7  UNL     1     -31.662   8.162   3.592  1.00 20.00    -0.280 OA
HETATM    4 CL8  UNL     1     -32.826   5.934   2.760  1.00 20.00    -0.044 Cl
ENDBRANCH   1   2
BRANCH   1   5
HETATM    5  C6  UNL     1     -32.518   9.314   0.878  1.00 20.00    -0.044 C 
HETATM    6  C2  UNL     1     -31.123   8.718   0.635  1.00 20.00     0.015 C 
HETATM    7  C3  UNL     1     -33.284   9.324  -0.460  1.00 20.00     0.015 C 
HETATM    8  C4  UNL     1     -32.373  10.766   1.363  1.00 20.00     0.015 C 
ENDBRANCH   1   5
TORSDOF 2
ENDMDL
MODEL 8
REMARK VINA RESULT:      -4.0      2.591      3.612
REMARK  2 active torsions:
REMARK  status: ('A' for Active; 'I' for Inactive)
REMARK    1  A    between atoms: C1_1  and  C5_5 
REMARK    2  A    between atoms: C5_5  and  C6_6 
ROOT
HETATM    1  C5  UNL     1     -34.046   7.656   3.896  1.00 20.00     0.104 C 
ENDROOT
BRANCH   1   2
HETATM    2  C1  UNL     1     -33.979   6.888   5.206  1.00 20.00     0.219 C 
HETATM    3  O7  UNL     1     -33.414   7.351   6.194  1.00 20.00    -0.280 OA
HETATM    4 CL8  UNL     1     -34.775   5.343   5.130  1.00 20.00    -0.044 Cl
ENDBRANCH   1   2
BRANCH   1   5
HETATM    5  C6  UNL     1     -32.787   7.538   3.005  1.00 20.00    -0.044 C 
HETATM    6  C2  UNL     1     -31.533   8.031   3.744  1.00 20.00     0.015 C 
HETATM    7  C3  UNL     1     -32.592   6.051   2.650  1.00 20.00     0.015 C 
HETATM    8  C4  UNL     1     -32.950   8.330   1.697  1.00 20.00     0.015 C 
ENDBRANCH   1   5
TORSDOF 2
ENDMDL
MODEL 9
REMARK VINA RESULT:      -4.0      2.603      3.605
REMARK  2 active torsions:
REMARK  status: ('A' for Active; 'I' for Inactive)
REMARK    1  A    between atoms: C1_1  and  C5_5 
REMARK    2  A    between atoms: C5_5  and  C6_6 
ROOT
HETATM    1  C5  UNL     1     -34.036   7.658   3.918  1.00 20.00     0.104 C 
ENDROOT
BRANCH   1   2
HETATM    2  C1  UNL     1     -33.987   6.894   5.232  1.00 20.00     0.219 C 
HETATM    3  O7  UNL     1     -33.440   7.362   6.227  1.00 20.00    -0.280 OA
HETATM    4 CL8  UNL     1     -34.778   5.347   5.148  1.00 20.00    -0.044 Cl
ENDBRANCH   1   2
BRANCH   1   5
HETATM    5  C6  UNL     1     -32.787   7.492   3.021  1.00 20.00    -0.044 C 
HETATM    6  C2  UNL     1     -32.573   6.022   2.630  1.00 20.00     0.015 C 
HETATM    7  C3  UNL     1     -33.012   8.312   1.735  1.00 20.00     0.015 C 
HETATM    8  C4  UNL     1     -31.522   8.022   3.717  1.00 20.00     0.015 C 
ENDBRANCH   1   5
TORSDOF 2
ENDMDL
