MODEL 1
REMARK VINA RESULT:      -5.4      0.000      0.000
REMARK  4 active torsions:
REMARK  status: ('A' for Active; 'I' for Inactive)
REMARK    1  A    between atoms: C3_3  and  C4_4 
REMARK    2  A    between atoms: C4_4  and  C5_5 
REMARK    3  A    between atoms: C5_5  and  C6_6 
REMARK    4  A    between atoms: C6_6  and  C7_7 
ROOT
HETATM    1  C1  UNL     1     -32.248   8.604   1.822  1.00 20.00    -0.176 C 
HETATM    2  C2  UNL     1     -32.234   9.468   0.855  1.00 20.00     0.091 C 
HETATM    3  C3  UNL     1     -32.262   7.738   2.795  1.00 20.00     0.066 C 
ENDROOT
BRANCH   3   4
HETATM    4  C4  UNL     1     -32.898   6.380   2.723  1.00 20.00     0.017 C 
BRANCH   4   5
HETATM    5  C5  UNL     1     -34.265   6.369   3.409  1.00 20.00     0.002 C 
BRANCH   5   6
HETATM    6  C6  UNL     1     -34.466   5.091   4.226  1.00 20.00     0.015 C 
BRANCH   6   7
HETATM    7  C7  UNL     1     -34.609   5.406   5.709  1.00 20.00     0.114 C 
HETATM    8 CL8  UNL     1     -34.000   7.040   6.060  1.00 20.00    -0.130 Cl
ENDBRANCH   6   7
ENDBRANCH   5   6
ENDBRANCH   4   5
ENDBRANCH   3   4
TORSDOF 4
ENDMDL
MODEL 2
REMARK VINA RESULT:      -5.3      1.439      1.625
REMARK  4 active torsions:
REMARK  status: ('A' for Active; 'I' for Inactive)
REMARK    1  A    between atoms: C3_3  and  C4_4 
REMARK    2  A    between atoms: C4_4  and  C5_5 
REMARK    3  A    between atoms: C5_5  and  C6_6 
REMARK    4  A    between atoms: C6_6  and  C7_7 
ROOT
HETATM    1  C1  UNL     1     -32.337   9.187   1.439  1.00 20.00    -0.176 C 
HETATM    2  C2  UNL     1     -32.605  10.302   0.831  1.00 20.00     0.091 C 
HETATM    3  C3  UNL     1     -32.068   8.068   2.047  1.00 20.00     0.066 C 
ENDROOT
BRANCH   3   4
HETATM    4  C4  UNL     1     -32.230   7.834   3.521  1.00 20.00     0.017 C 
BRANCH   4   5
HETATM    5  C5  UNL     1     -33.552   7.131   3.831  1.00 20.00     0.002 C 
BRANCH   5   6
HETATM    6  C6  UNL     1     -33.826   7.103   5.336  1.00 20.00     0.015 C 
BRANCH   6   7
HETATM    7  C7  UNL     1     -34.476   5.789   5.750  1.00 20.00     0.114 C 
HETATM    8 CL8  UNL     1     -34.575   4.680   4.363  1.00 20.00    -0.130 Cl
ENDBRANCH   6   7
ENDBRANCH   5   6
ENDBRANCH   4   5
ENDBRANCH   3   4
TORSDOF 4
ENDMDL
MODEL 3
REMARK VINA RESULT:      -5.3      1.753      3.948
REMARK  4 active torsions:
REMARK  status: ('A' for Active; 'I' for Inactive)
REMARK    1  A    between atoms: C3_3  and  C4_4 
REMARK    2  A    between atoms: C4_4  and  C5_5 
REMARK    3  A    between atoms: C5_5  and  C6_6 
REMARK    4  A    between atoms: C6_6  and  C7_7 
ROOT
HETATM    1  C1  UNL     1     -34.150   6.445   5.876  1.00 20.00    -0.176 C 
HETATM    2  C2  UNL     1     -33.719   7.627   6.194  1.00 20.00     0.091 C 
HETATM    3  C3  UNL     1     -34.583   5.259   5.557  1.00 20.00     0.066 C 
ENDROOT
BRANCH   3   4
HETATM    4  C4  UNL     1     -34.462   4.640   4.196  1.00 20.00     0.017 C 
BRANCH   4   5
HETATM    5  C5  UNL     1     -34.396   5.708   3.103  1.00 20.00     0.002 C 
BRANCH   5   6
HETATM    6  C6  UNL     1     -32.948   6.060   2.756  1.00 20.00     0.015 C 
BRANCH   6   7
HETATM    7  C7  UNL     1     -32.798   7.549   2.474  1.00 20.00     0.114 C 
HETATM    8 CL8  UNL     1     -31.461   8.231   3.429  1.00 20.00    -0.130 Cl
ENDBRANCH   6   7
ENDBRANCH   5   6
ENDBRANCH   4   5
ENDBRANCH   3   4
TORSDOF 4
ENDMDL
MODEL 4
REMARK VINA RESULT:      -5.2      2.473      4.942
REMARK  4 active torsions:
REMARK  status: ('A' for Active; 'I' for Inactive)
REMARK    1  A    between atoms: C3_3  and  C4_4 
REMARK    2  A    between atoms: C4_4  and  C5_5 
REMARK    3  A    between atoms: C5_5  and  C6_6 
REMARK    4  A    between atoms: C6_6  and  C7_7 
ROOT
HETATM    1  C1  UNL     1     -34.511   5.559   4.537  1.00 20.00    -0.176 C 
HETATM    2  C2  UNL     1     -34.639   5.038   5.718  1.00 20.00     0.091 C 
HETATM    3  C3  UNL     1     -34.383   6.082   3.351  1.00 20.00     0.066 C 
ENDROOT
BRANCH   3   4
HETATM    4  C4  UNL     1     -33.074   6.348   2.668  1.00 20.00     0.017 C 
BRANCH   4   5
HETATM    5  C5  UNL     1     -32.531   7.733   3.024  1.00 20.00     0.002 C 
BRANCH   5   6
HETATM    6  C6  UNL     1     -31.814   8.371   1.833  1.00 20.00     0.015 C 
BRANCH   6   7
HETATM    7  C7  UNL     1     -32.581   9.581   1.315  1.00 20.00     0.114 C 
HETATM    8 CL8  UNL     1     -33.057   9.335  -0.381  1.00 20.00    -0.130 Cl
ENDBRANCH   6   7
ENDBRANCH   5   6
ENDBRANCH   4   5
ENDBRANCH   3   4
TORSDOF 4
ENDMDL
MODEL 5
REMARK VINA RESULT:      -5.2      2.402      4.799
REMARK  4 active torsions:
REMARK  status: ('A' for Active; 'I' for Inactive)
REMARK    1  A    between atoms: C3_3  and  C4_4 
REMARK    2  A    between atoms: C4_4  and  C5_5 
REMARK    3  A    between atoms: C5_5  and  C6_6 
REMARK    4  A    between atoms: C6_6  and  C7_7 
ROOT
HETATM    1  C1  UNL     1     -34.388   5.671   5.208  1.00 20.00    -0.176 C 
HETATM    2  C2  UNL     1     -34.666   4.454   4.854  1.00 20.00     0.091 C 
HETATM    3  C3  UNL     1     -34.109   6.892   5.565  1.00 20.00     0.066 C 
ENDROOT
BRANCH   3   4
HETATM    4  C4  UNL     1     -33.027   7.736   4.957  1.00 20.00     0.017 C 
BRANCH   4   5
HETATM    5  C5  UNL     1     -32.907   7.489   3.453  1.00 20.00     0.002 C 
BRANCH   5   6
HETATM    6  C6  UNL     1     -31.762   8.303   2.846  1.00 20.00     0.015 C 
BRANCH   6   7
HETATM    7  C7  UNL     1     -32.055   8.665   1.396  1.00 20.00     0.114 C 
HETATM    8 CL8  UNL     1     -32.654  10.336   1.281  1.00 20.00    -0.130 Cl
ENDBRANCH   6   7
ENDBRANCH   5   6
ENDBRANCH   4   5
ENDBRANCH   3   4
TORSDOF 4
ENDMDL
MODEL 6
REMARK VINA RESULT:      -4.9      1.454      1.859
REMARK  4 active torsions:
REMARK  status: ('A' for Active; 'I' for Inactive)
REMARK    1  A    between atoms: C3_3  and  C4_4 
REMARK    2  A    between atoms: C4_4  and  C5_5 
REMARK    3  A    between atoms: C5_5  and  C6_6 
REMARK    4  A    between atoms: C6_6  and  C7_7 
ROOT
HETATM    1  C1  UNL     1     -32.533   9.072   0.838  1.00 20.00    -0.176 C 
HETATM    2  C2  UNL     1     -32.890   9.468  -0.344  1.00 20.00     0.091 C 
HETATM    3  C3  UNL     1     -32.174   8.677   2.026  1.00 20.00     0.066 C 
ENDROOT
BRANCH   3   4
HETATM    4  C4  UNL     1     -32.611   7.394   2.670  1.00 20.00     0.017 C 
BRANCH   4   5
HETATM    5  C5  UNL     1     -32.716   7.541   4.189  1.00 20.00     0.002 C 
BRANCH   5   6
HETATM    6  C6  UNL     1     -34.050   7.002   4.708  1.00 20.00     0.015 C 
BRANCH   6   7
HETATM    7  C7  UNL     1     -34.575   5.885   3.815  1.00 20.00     0.114 C 
HETATM    8 CL8  UNL     1     -34.414   4.311   4.629  1.00 20.00    -0.130 Cl
ENDBRANCH   6   7
ENDBRANCH   5   6
ENDBRANCH   4   5
ENDBRANCH   3   4
TORSDOF 4
ENDMDL
MODEL 7
REMARK VINA RESULT:      -4.7      1.910      2.315
REMARK  4 active torsions:
REMARK  status: ('A' for Active; 'I' for Inactive)
REMARK    1  A    between atoms: C3_3  and  C4_4 
REMARK    2  A    between atoms: C4_4  and  C5_5 
REMARK    3  A    between atoms: C5_5  and  C6_6 
REMARK    4  A    between atoms: C6_6  and  C7_7 
ROOT
HETATM    1  C1  UNL     1     -32.348   7.985   3.483  1.00 20.00    -0.176 C 
HETATM    2  C2  UNL     1     -32.184   8.041   2.197  1.00 20.00     0.091 C 
HETATM    3  C3  UNL     1     -32.511   7.929   4.774  1.00 20.00     0.066 C 
ENDROOT
BRANCH   3   4
HETATM    4  C4  UNL     1     -33.678   7.284   5.462  1.00 20.00     0.017 C 
BRANCH   4   5
HETATM    5  C5  UNL     1     -34.508   6.449   4.486  1.00 20.00     0.002 C 
BRANCH   5   6
HETATM    6  C6  UNL     1     -34.800   5.058   5.054  1.00 20.00     0.015 C 
BRANCH   6   7
HETATM    7  C7  UNL     1     -34.069   3.980   4.265  1.00 20.00     0.114 C 
HETATM    8 CL8  UNL     1     -33.286   4.682   2.831  1.00 20.00    -0.130 Cl
ENDBRANCH   6   7
ENDBRANCH   5   6
ENDBRANCH   4   5
ENDBRANCH   3   4
TORSDOF 4
ENDMDL
MODEL 8
REMARK VINA RESULT:      -4.4      2.195      4.290
REMARK  4 active torsions:
REMARK  status: ('A' for Active; 'I' for Inactive)
REMARK    1  A    between atoms: C3_3  and  C4_4 
REMARK    2  A    between atoms: C4_4  and  C5_5 
REMARK    3  A    between atoms: C5_5  and  C6_6 
REMARK    4  A    between atoms: C6_6  and  C7_7 
ROOT
HETATM    1  C1  UNL     1     -34.343   5.838   5.749  1.00 20.00    -0.176 C 
HETATM    2  C2  UNL     1     -34.713   4.612   5.541  1.00 20.00     0.091 C 
HETATM    3  C3  UNL     1     -33.973   7.068   5.960  1.00 20.00     0.066 C 
ENDROOT
BRANCH   3   4
HETATM    4  C4  UNL     1     -32.929   7.796   5.166  1.00 20.00     0.017 C 
BRANCH   4   5
HETATM    5  C5  UNL     1     -33.397   8.049   3.732  1.00 20.00     0.002 C 
BRANCH   5   6
HETATM    6  C6  UNL     1     -32.697   7.112   2.746  1.00 20.00     0.015 C 
BRANCH   6   7
HETATM    7  C7  UNL     1     -33.629   5.994   2.297  1.00 20.00     0.114 C 
HETATM    8 CL8  UNL     1     -32.856   4.409   2.529  1.00 20.00    -0.130 Cl
ENDBRANCH   6   7
ENDBRANCH   5   6
ENDBRANCH   4   5
ENDBRANCH   3   4
TORSDOF 4
ENDMDL
MODEL 9
REMARK VINA RESULT:      -4.3      1.448      4.120
REMARK  4 active torsions:
REMARK  status: ('A' for Active; 'I' for Inactive)
REMARK    1  A    between atoms: C3_3  and  C4_4 
REMARK    2  A    between atoms: C4_4  and  C5_5 
REMARK    3  A    between atoms: C5_5  and  C6_6 
REMARK    4  A    between atoms: C6_6  and  C7_7 
ROOT
HETATM    1  C1  UNL     1     -34.398   4.599   4.949  1.00 20.00    -0.176 C 
HETATM    2  C2  UNL     1     -34.845   5.060   6.077  1.00 20.00     0.091 C 
HETATM    3  C3  UNL     1     -33.950   4.136   3.818  1.00 20.00     0.066 C 
ENDROOT
BRANCH   3   4
HETATM    4  C4  UNL     1     -33.391   4.978   2.709  1.00 20.00     0.017 C 
BRANCH   4   5
HETATM    5  C5  UNL     1     -33.523   6.469   3.020  1.00 20.00     0.002 C 
BRANCH   5   6
HETATM    6  C6  UNL     1     -32.196   7.200   2.811  1.00 20.00     0.015 C 
BRANCH   6   7
HETATM    7  C7  UNL     1     -31.950   8.217   3.918  1.00 20.00     0.114 C 
HETATM    8 CL8  UNL     1     -32.911   7.813   5.358  1.00 20.00    -0.130 Cl
ENDBRANCH   6   7
ENDBRANCH   5   6
ENDBRANCH   4   5
ENDBRANCH   3   4
TORSDOF 4
ENDMDL
