MODEL 1
REMARK VINA RESULT:      -4.4      0.000      0.000
REMARK  5 active torsions:
REMARK  status: ('A' for Active; 'I' for Inactive)
REMARK    1  A    between atoms: C1_1  and  C2_2 
REMARK    2  A    between atoms: C1_1  and  C3_3 
REMARK    3  A    between atoms: C2_2  and  P11_11 
REMARK    4  A    between atoms: C8_8  and  P11_11 
REMARK    5  A    between atoms: C9_9  and  P11_11 
ROOT
HETATM    1  O10 UNL     1     -35.139   6.559   2.581  1.00 20.00    -0.317 OA
HETATM    2  P11 UNL     1     -33.938   6.349   3.463  1.00 20.00     0.105 P 
ENDROOT
BRANCH   2   3
HETATM    3  C2  UNL     1     -32.538   7.378   3.428  1.00 20.00     0.096 C 
BRANCH   3   4
HETATM    4  C1  UNL     1     -32.384   8.175   2.413  1.00 20.00    -0.141 C 
BRANCH   4   5
HETATM    5  C3  UNL     1     -32.220   8.974   1.394  1.00 20.00     0.026 C 
HETATM    6  C4  UNL     1     -32.953  10.279   1.272  1.00 20.00     0.030 C 
HETATM    7  C5  UNL     1     -31.287   8.649   0.263  1.00 20.00     0.030 C 
ENDBRANCH   4   5
ENDBRANCH   3   4
ENDBRANCH   2   3
BRANCH   2   8
HETATM    8  C8  UNL     1     -33.254   4.706   3.225  1.00 20.00     0.073 C 
HETATM    9  C6  UNL     1     -33.859   3.687   4.168  1.00 20.00     0.013 C 
ENDBRANCH   2   8
BRANCH   2  10
HETATM   10  C9  UNL     1     -34.413   6.346   5.195  1.00 20.00     0.073 C 
HETATM   11  C7  UNL     1     -33.644   7.368   6.006  1.00 20.00     0.013 C 
ENDBRANCH   2  10
TORSDOF 5
ENDMDL
MODEL 2
REMARK VINA RESULT:      -4.4      0.008      1.083
REMARK  5 active torsions:
REMARK  status: ('A' for Active; 'I' for Inactive)
REMARK    1  A    between atoms: C1_1  and  C2_2 
REMARK    2  A    between atoms: C1_1  and  C3_3 
REMARK    3  A    between atoms: C2_2  and  P11_11 
REMARK    4  A    between atoms: C8_8  and  P11_11 
REMARK    5  A    between atoms: C9_9  and  P11_11 
ROOT
HETATM    1  O10 UNL     1     -35.136   6.552   2.576  1.00 20.00    -0.317 OA
HETATM    2  P11 UNL     1     -33.935   6.342   3.459  1.00 20.00     0.105 P 
ENDROOT
BRANCH   2   3
HETATM    3  C2  UNL     1     -32.536   7.373   3.426  1.00 20.00     0.096 C 
BRANCH   3   4
HETATM    4  C1  UNL     1     -32.379   8.167   2.409  1.00 20.00    -0.141 C 
BRANCH   4   5
HETATM    5  C3  UNL     1     -32.215   8.968   1.392  1.00 20.00     0.026 C 
HETATM    6  C4  UNL     1     -31.281   8.644   0.260  1.00 20.00     0.030 C 
HETATM    7  C5  UNL     1     -32.945  10.273   1.272  1.00 20.00     0.030 C 
ENDBRANCH   4   5
ENDBRANCH   3   4
ENDBRANCH   2   3
BRANCH   2   8
HETATM    8  C8  UNL     1     -33.251   4.700   3.223  1.00 20.00     0.073 C 
HETATM    9  C6  UNL     1     -33.851   3.682   4.171  1.00 20.00     0.013 C 
ENDBRANCH   2   8
BRANCH   2  10
HETATM   10  C9  UNL     1     -34.412   6.340   5.190  1.00 20.00     0.073 C 
HETATM   11  C7  UNL     1     -33.648   7.366   6.001  1.00 20.00     0.013 C 
ENDBRANCH   2  10
TORSDOF 5
ENDMDL
MODEL 3
REMARK VINA RESULT:      -4.2     11.029     11.824
REMARK  5 active torsions:
REMARK  status: ('A' for Active; 'I' for Inactive)
REMARK    1  A    between atoms: C1_1  and  C2_2 
REMARK    2  A    between atoms: C1_1  and  C3_3 
REMARK    3  A    between atoms: C2_2  and  P11_11 
REMARK    4  A    between atoms: C8_8  and  P11_11 
REMARK    5  A    between atoms: C9_9  and  P11_11 
ROOT
HETATM    1  O10 UNL     1     -35.154  13.285  -4.567  1.00 20.00    -0.317 OA
HETATM    2  P11 UNL     1     -34.692  14.650  -5.001  1.00 20.00     0.105 P 
ENDROOT
BRANCH   2   3
HETATM    3  C2  UNL     1     -33.410  15.518  -4.212  1.00 20.00     0.096 C 
BRANCH   3   4
HETATM    4  C1  UNL     1     -33.698  16.218  -3.156  1.00 20.00    -0.141 C 
BRANCH   4   5
HETATM    5  C3  UNL     1     -33.981  16.927  -2.097  1.00 20.00     0.026 C 
HETATM    6  C4  UNL     1     -32.999  17.887  -1.488  1.00 20.00     0.030 C 
HETATM    7  C5  UNL     1     -35.310  16.838  -1.404  1.00 20.00     0.030 C 
ENDBRANCH   4   5
ENDBRANCH   3   4
ENDBRANCH   2   3
BRANCH   2   8
HETATM    8  C8  UNL     1     -36.057  15.817  -4.988  1.00 20.00     0.073 C 
HETATM    9  C6  UNL     1     -37.274  15.274  -4.268  1.00 20.00     0.013 C 
ENDBRANCH   2   8
BRANCH   2  10
HETATM   10  C9  UNL     1     -34.187  14.632  -6.724  1.00 20.00     0.073 C 
HETATM   11  C7  UNL     1     -34.793  13.476  -7.491  1.00 20.00     0.013 C 
ENDBRANCH   2  10
TORSDOF 5
ENDMDL
MODEL 4
REMARK VINA RESULT:      -4.2     10.983     11.751
REMARK  5 active torsions:
REMARK  status: ('A' for Active; 'I' for Inactive)
REMARK    1  A    between atoms: C1_1  and  C2_2 
REMARK    2  A    between atoms: C1_1  and  C3_3 
REMARK    3  A    between atoms: C2_2  and  P11_11 
REMARK    4  A    between atoms: C8_8  and  P11_11 
REMARK    5  A    between atoms: C9_9  and  P11_11 
ROOT
HETATM    1  O10 UNL     1     -32.759  13.847  -4.238  1.00 20.00    -0.317 OA
HETATM    2  P11 UNL     1     -33.861  14.733  -4.756  1.00 20.00     0.105 P 
ENDROOT
BRANCH   2   3
HETATM    3  C2  UNL     1     -35.116  15.382  -3.745  1.00 20.00     0.096 C 
BRANCH   3   4
HETATM    4  C1  UNL     1     -34.777  16.170  -2.769  1.00 20.00    -0.141 C 
BRANCH   4   5
HETATM    5  C3  UNL     1     -34.428  16.963  -1.792  1.00 20.00     0.026 C 
HETATM    6  C4  UNL     1     -35.335  17.248  -0.629  1.00 20.00     0.030 C 
HETATM    7  C5  UNL     1     -33.095  17.651  -1.755  1.00 20.00     0.030 C 
ENDBRANCH   4   5
ENDBRANCH   3   4
ENDBRANCH   2   3
BRANCH   2   8
HETATM    8  C8  UNL     1     -34.765  13.916  -6.074  1.00 20.00     0.073 C 
HETATM    9  C6  UNL     1     -36.156  13.497  -5.647  1.00 20.00     0.013 C 
ENDBRANCH   2   8
BRANCH   2  10
HETATM   10  C9  UNL     1     -33.182  16.185  -5.566  1.00 20.00     0.073 C 
HETATM   11  C7  UNL     1     -34.172  16.836  -6.508  1.00 20.00     0.013 C 
ENDBRANCH   2  10
TORSDOF 5
ENDMDL
MODEL 5
REMARK VINA RESULT:      -4.2     11.076     11.907
REMARK  5 active torsions:
REMARK  status: ('A' for Active; 'I' for Inactive)
REMARK    1  A    between atoms: C1_1  and  C2_2 
REMARK    2  A    between atoms: C1_1  and  C3_3 
REMARK    3  A    between atoms: C2_2  and  P11_11 
REMARK    4  A    between atoms: C8_8  and  P11_11 
REMARK    5  A    between atoms: C9_9  and  P11_11 
ROOT
HETATM    1  O10 UNL     1     -33.491  13.611  -4.237  1.00 20.00    -0.317 OA
HETATM    2  P11 UNL     1     -34.296  14.787  -4.723  1.00 20.00     0.105 P 
ENDROOT
BRANCH   2   3
HETATM    3  C2  UNL     1     -35.434  15.640  -3.725  1.00 20.00     0.096 C 
BRANCH   3   4
HETATM    4  C1  UNL     1     -34.980  16.322  -2.717  1.00 20.00    -0.141 C 
BRANCH   4   5
HETATM    5  C3  UNL     1     -34.519  17.012  -1.709  1.00 20.00     0.026 C 
HETATM    6  C4  UNL     1     -33.139  17.605  -1.706  1.00 20.00     0.030 C 
HETATM    7  C5  UNL     1     -35.334  17.268  -0.474  1.00 20.00     0.030 C 
ENDBRANCH   4   5
ENDBRANCH   3   4
ENDBRANCH   2   3
BRANCH   2   8
HETATM    8  C8  UNL     1     -35.260  14.341  -6.170  1.00 20.00     0.073 C 
HETATM    9  C6  UNL     1     -34.456  13.545  -7.177  1.00 20.00     0.013 C 
ENDBRANCH   2   8
BRANCH   2  10
HETATM   10  C9  UNL     1     -33.219  16.086  -5.336  1.00 20.00     0.073 C 
HETATM   11  C7  UNL     1     -33.962  17.106  -6.172  1.00 20.00     0.013 C 
ENDBRANCH   2  10
TORSDOF 5
ENDMDL
MODEL 6
REMARK VINA RESULT:      -3.9     11.325     11.972
REMARK  5 active torsions:
REMARK  status: ('A' for Active; 'I' for Inactive)
REMARK    1  A    between atoms: C1_1  and  C2_2 
REMARK    2  A    between atoms: C1_1  and  C3_3 
REMARK    3  A    between atoms: C2_2  and  P11_11 
REMARK    4  A    between atoms: C8_8  and  P11_11 
REMARK    5  A    between atoms: C9_9  and  P11_11 
ROOT
HETATM    1  O10 UNL     1     -35.818  16.698  -5.580  1.00 20.00    -0.317 OA
HETATM    2  P11 UNL     1     -34.916  15.517  -5.338  1.00 20.00     0.105 P 
ENDROOT
BRANCH   2   3
HETATM    3  C2  UNL     1     -33.684  15.493  -4.113  1.00 20.00     0.096 C 
BRANCH   3   4
HETATM    4  C1  UNL     1     -33.852  16.231  -3.056  1.00 20.00    -0.141 C 
BRANCH   4   5
HETATM    5  C3  UNL     1     -34.012  16.975  -1.995  1.00 20.00     0.026 C 
HETATM    6  C4  UNL     1     -32.932  17.885  -1.484  1.00 20.00     0.030 C 
HETATM    7  C5  UNL     1     -35.288  16.979  -1.205  1.00 20.00     0.030 C 
ENDBRANCH   4   5
ENDBRANCH   3   4
ENDBRANCH   2   3
BRANCH   2   8
HETATM    8  C8  UNL     1     -34.025  15.082  -6.835  1.00 20.00     0.073 C 
HETATM    9  C6  UNL     1     -34.368  13.691  -7.327  1.00 20.00     0.013 C 
ENDBRANCH   2   8
BRANCH   2  10
HETATM   10  C9  UNL     1     -35.879  14.041  -4.993  1.00 20.00     0.073 C 
HETATM   11  C7  UNL     1     -37.370  14.294  -5.070  1.00 20.00     0.013 C 
ENDBRANCH   2  10
TORSDOF 5
ENDMDL
MODEL 7
REMARK VINA RESULT:      -3.8     11.025     12.017
REMARK  5 active torsions:
REMARK  status: ('A' for Active; 'I' for Inactive)
REMARK    1  A    between atoms: C1_1  and  C2_2 
REMARK    2  A    between atoms: C1_1  and  C3_3 
REMARK    3  A    between atoms: C2_2  and  P11_11 
REMARK    4  A    between atoms: C8_8  and  P11_11 
REMARK    5  A    between atoms: C9_9  and  P11_11 
ROOT
HETATM    1  O10 UNL     1     -37.056  15.704  -4.155  1.00 20.00    -0.317 OA
HETATM    2  P11 UNL     1     -35.729  15.272  -4.719  1.00 20.00     0.105 P 
ENDROOT
BRANCH   2   3
HETATM    3  C2  UNL     1     -34.226  15.462  -3.868  1.00 20.00     0.096 C 
BRANCH   3   4
HETATM    4  C1  UNL     1     -34.201  16.236  -2.825  1.00 20.00    -0.141 C 
BRANCH   4   5
HETATM    5  C3  UNL     1     -34.180  17.019  -1.781  1.00 20.00     0.026 C 
HETATM    6  C4  UNL     1     -35.337  17.118  -0.828  1.00 20.00     0.030 C 
HETATM    7  C5  UNL     1     -32.997  17.883  -1.451  1.00 20.00     0.030 C 
ENDBRANCH   4   5
ENDBRANCH   3   4
ENDBRANCH   2   3
BRANCH   2   8
HETATM    8  C8  UNL     1     -35.419  16.068  -6.298  1.00 20.00     0.073 C 
HETATM    9  C6  UNL     1     -34.033  16.672  -6.379  1.00 20.00     0.013 C 
ENDBRANCH   2   8
BRANCH   2  10
HETATM   10  C9  UNL     1     -35.755  13.527  -5.140  1.00 20.00     0.073 C 
HETATM   11  C7  UNL     1     -35.497  13.284  -6.612  1.00 20.00     0.013 C 
ENDBRANCH   2  10
TORSDOF 5
ENDMDL
MODEL 8
REMARK VINA RESULT:      -3.8     11.148     12.185
REMARK  5 active torsions:
REMARK  status: ('A' for Active; 'I' for Inactive)
REMARK    1  A    between atoms: C1_1  and  C2_2 
REMARK    2  A    between atoms: C1_1  and  C3_3 
REMARK    3  A    between atoms: C2_2  and  P11_11 
REMARK    4  A    between atoms: C8_8  and  P11_11 
REMARK    5  A    between atoms: C9_9  and  P11_11 
ROOT
HETATM    1  O10 UNL     1     -35.943  12.896  -5.152  1.00 20.00    -0.317 OA
HETATM    2  P11 UNL     1     -36.277  14.352  -5.341  1.00 20.00     0.105 P 
ENDROOT
BRANCH   2   3
HETATM    3  C2  UNL     1     -36.808  15.384  -4.048  1.00 20.00     0.096 C 
BRANCH   3   4
HETATM    4  C1  UNL     1     -35.909  15.921  -3.279  1.00 20.00    -0.141 C 
BRANCH   4   5
HETATM    5  C3  UNL     1     -35.011  16.460  -2.500  1.00 20.00     0.026 C 
HETATM    6  C4  UNL     1     -35.357  17.034  -1.155  1.00 20.00     0.030 C 
HETATM    7  C5  UNL     1     -33.563  16.548  -2.886  1.00 20.00     0.030 C 
ENDBRANCH   4   5
ENDBRANCH   3   4
ENDBRANCH   2   3
BRANCH   2   8
HETATM    8  C8  UNL     1     -37.552  14.554  -6.589  1.00 20.00     0.073 C 
HETATM    9  C6  UNL     1     -37.417  15.860  -7.345  1.00 20.00     0.013 C 
ENDBRANCH   2   8
BRANCH   2  10
HETATM   10  C9  UNL     1     -34.880  15.239  -6.038  1.00 20.00     0.073 C 
HETATM   11  C7  UNL     1     -34.066  14.381  -6.984  1.00 20.00     0.013 C 
ENDBRANCH   2  10
TORSDOF 5
ENDMDL
MODEL 9
REMARK VINA RESULT:      -3.6     11.379     12.042
REMARK  5 active torsions:
REMARK  status: ('A' for Active; 'I' for Inactive)
REMARK    1  A    between atoms: C1_1  and  C2_2 
REMARK    2  A    between atoms: C1_1  and  C3_3 
REMARK    3  A    between atoms: C2_2  and  P11_11 
REMARK    4  A    between atoms: C8_8  and  P11_11 
REMARK    5  A    between atoms: C9_9  and  P11_11 
ROOT
HETATM    1  O10 UNL     1     -35.277  16.912  -5.998  1.00 20.00    -0.317 OA
HETATM    2  P11 UNL     1     -35.699  15.799  -5.076  1.00 20.00     0.105 P 
ENDROOT
BRANCH   2   3
HETATM    3  C2  UNL     1     -36.401  16.073  -3.511  1.00 20.00     0.096 C 
BRANCH   3   4
HETATM    4  C1  UNL     1     -35.644  16.552  -2.570  1.00 20.00    -0.141 C 
BRANCH   4   5
HETATM    5  C3  UNL     1     -34.877  17.034  -1.630  1.00 20.00     0.026 C 
HETATM    6  C4  UNL     1     -35.387  17.320  -0.247  1.00 20.00     0.030 C 
HETATM    7  C5  UNL     1     -33.425  17.338  -1.858  1.00 20.00     0.030 C 
ENDBRANCH   4   5
ENDBRANCH   3   4
ENDBRANCH   2   3
BRANCH   2   8
HETATM    8  C8  UNL     1     -34.319  14.704  -4.730  1.00 20.00     0.073 C 
HETATM    9  C6  UNL     1     -32.980  15.369  -4.968  1.00 20.00     0.013 C 
ENDBRANCH   2   8
BRANCH   2  10
HETATM   10  C9  UNL     1     -36.884  14.719  -5.884  1.00 20.00     0.073 C 
HETATM   11  C7  UNL     1     -38.189  14.622  -5.123  1.00 20.00     0.013 C 
ENDBRANCH   2  10
TORSDOF 5
ENDMDL
