MODEL 1
REMARK VINA RESULT:      -5.2      0.000      0.000
REMARK  2 active torsions:
REMARK  status: ('A' for Active; 'I' for Inactive)
REMARK    1  A    between atoms: C1_1  and  C5_5 
REMARK    2  A    between atoms: C4_4  and  C5_5 
ROOT
HETATM    1  C1  UNL     1     -34.044   6.259   4.490  1.00 20.00     0.164 C 
HETATM    2  C2  UNL     1     -34.525   5.072   4.874  1.00 20.00     0.301 C 
HETATM    3  F7  UNL     1     -34.172   7.298   5.349  1.00 20.00    -0.205 F 
HETATM    4  F8  UNL     1     -35.106   4.946   6.085  1.00 20.00    -0.170 F 
HETATM    5  F9  UNL     1     -34.433   3.997   4.064  1.00 20.00    -0.170 F 
ENDROOT
BRANCH   1   6
HETATM    6  C5  UNL     1     -33.386   6.520   3.168  1.00 20.00     0.110 C 
BRANCH   6   7
HETATM    7  C4  UNL     1     -32.912   7.931   2.983  1.00 20.00     0.151 A 
HETATM    8  C3  UNL     1     -31.895   8.278   1.932  1.00 20.00     0.200 A 
HETATM    9  O6  UNL     1     -31.536   8.144   3.316  1.00 20.00    -0.381 OA
ENDBRANCH   6   7
ENDBRANCH   1   6
TORSDOF 2
ENDMDL
MODEL 2
REMARK VINA RESULT:      -5.2      1.024      1.840
REMARK  2 active torsions:
REMARK  status: ('A' for Active; 'I' for Inactive)
REMARK    1  A    between atoms: C1_1  and  C5_5 
REMARK    2  A    between atoms: C4_4  and  C5_5 
ROOT
HETATM    1  C1  UNL     1     -34.217   5.952   4.255  1.00 20.00     0.164 C 
HETATM    2  C2  UNL     1     -34.435   5.830   5.567  1.00 20.00     0.301 C 
HETATM    3  F7  UNL     1     -34.300   4.834   3.496  1.00 20.00    -0.205 F 
HETATM    4  F8  UNL     1     -34.735   4.621   6.086  1.00 20.00    -0.170 F 
HETATM    5  F9  UNL     1     -34.364   6.905   6.380  1.00 20.00    -0.170 F 
ENDROOT
BRANCH   1   6
HETATM    6  C5  UNL     1     -33.870   7.240   3.568  1.00 20.00     0.110 C 
BRANCH   6   7
HETATM    7  C4  UNL     1     -32.523   7.244   2.909  1.00 20.00     0.151 A 
HETATM    8  C3  UNL     1     -31.510   8.312   3.216  1.00 20.00     0.200 A 
HETATM    9  O6  UNL     1     -32.302   8.343   2.018  1.00 20.00    -0.381 OA
ENDBRANCH   6   7
ENDBRANCH   1   6
TORSDOF 2
ENDMDL
MODEL 3
REMARK VINA RESULT:      -5.1      1.431      1.658
REMARK  2 active torsions:
REMARK  status: ('A' for Active; 'I' for Inactive)
REMARK    1  A    between atoms: C1_1  and  C5_5 
REMARK    2  A    between atoms: C4_4  and  C5_5 
ROOT
HETATM    1  C1  UNL     1     -33.227   7.210   4.072  1.00 20.00     0.164 C 
HETATM    2  C2  UNL     1     -34.263   6.510   4.547  1.00 20.00     0.301 C 
HETATM    3  F7  UNL     1     -32.429   7.838   4.967  1.00 20.00    -0.205 F 
HETATM    4  F8  UNL     1     -34.473   6.446   5.878  1.00 20.00    -0.170 F 
HETATM    5  F9  UNL     1     -35.099   5.863   3.708  1.00 20.00    -0.170 F 
ENDROOT
BRANCH   1   6
HETATM    6  C5  UNL     1     -32.899   7.358   2.616  1.00 20.00     0.110 C 
BRANCH   6   7
HETATM    7  C4  UNL     1     -32.042   8.545   2.294  1.00 20.00     0.151 A 
HETATM    8  C3  UNL     1     -32.403   9.486   1.178  1.00 20.00     0.200 A 
HETATM    9  O6  UNL     1     -31.389   8.480   1.022  1.00 20.00    -0.381 OA
ENDBRANCH   6   7
ENDBRANCH   1   6
TORSDOF 2
ENDMDL
MODEL 4
REMARK VINA RESULT:      -4.9      2.746      4.361
REMARK  2 active torsions:
REMARK  status: ('A' for Active; 'I' for Inactive)
REMARK    1  A    between atoms: C1_1  and  C5_5 
REMARK    2  A    between atoms: C4_4  and  C5_5 
ROOT
HETATM    1  C1  UNL     1     -33.105   7.205   3.155  1.00 20.00     0.164 C 
HETATM    2  C2  UNL     1     -32.015   7.951   2.947  1.00 20.00     0.301 C 
HETATM    3  F7  UNL     1     -33.697   6.641   2.076  1.00 20.00    -0.205 F 
HETATM    4  F8  UNL     1     -31.543   8.110   1.693  1.00 20.00    -0.170 F 
HETATM    5  F9  UNL     1     -31.379   8.544   3.979  1.00 20.00    -0.170 F 
ENDROOT
BRANCH   1   6
HETATM    6  C5  UNL     1     -33.723   6.963   4.500  1.00 20.00     0.110 C 
BRANCH   6   7
HETATM    7  C4  UNL     1     -34.735   5.857   4.524  1.00 20.00     0.151 A 
HETATM    8  C3  UNL     1     -34.660   4.756   5.545  1.00 20.00     0.200 A 
HETATM    9  O6  UNL     1     -34.211   4.565   4.194  1.00 20.00    -0.381 OA
ENDBRANCH   6   7
ENDBRANCH   1   6
TORSDOF 2
ENDMDL
MODEL 5
REMARK VINA RESULT:      -4.7      2.688      4.128
REMARK  2 active torsions:
REMARK  status: ('A' for Active; 'I' for Inactive)
REMARK    1  A    between atoms: C1_1  and  C5_5 
REMARK    2  A    between atoms: C4_4  and  C5_5 
ROOT
HETATM    1  C1  UNL     1     -32.946   7.225   3.793  1.00 20.00     0.164 C 
HETATM    2  C2  UNL     1     -32.138   7.941   3.005  1.00 20.00     0.301 C 
HETATM    3  F7  UNL     1     -33.043   7.588   5.093  1.00 20.00    -0.205 F 
HETATM    4  F8  UNL     1     -31.460   8.989   3.519  1.00 20.00    -0.170 F 
HETATM    5  F9  UNL     1     -31.994   7.630   1.700  1.00 20.00    -0.170 F 
ENDROOT
BRANCH   1   6
HETATM    6  C5  UNL     1     -33.742   6.039   3.336  1.00 20.00     0.110 C 
BRANCH   6   7
HETATM    7  C4  UNL     1     -34.819   5.614   4.289  1.00 20.00     0.151 A 
HETATM    8  C3  UNL     1     -34.485   4.919   5.580  1.00 20.00     0.200 A 
HETATM    9  O6  UNL     1     -34.960   4.196   4.433  1.00 20.00    -0.381 OA
ENDBRANCH   6   7
ENDBRANCH   1   6
TORSDOF 2
ENDMDL
MODEL 6
REMARK VINA RESULT:      -4.7      3.912      5.302
REMARK  2 active torsions:
REMARK  status: ('A' for Active; 'I' for Inactive)
REMARK    1  A    between atoms: C1_1  and  C5_5 
REMARK    2  A    between atoms: C4_4  and  C5_5 
ROOT
HETATM    1  C1  UNL     1     -31.967   8.967   1.193  1.00 20.00     0.164 C 
HETATM    2  C2  UNL     1     -32.747   9.954   0.742  1.00 20.00     0.301 C 
HETATM    3  F7  UNL     1     -31.079   8.422   0.330  1.00 20.00    -0.205 F 
HETATM    4  F8  UNL     1     -32.623  10.374  -0.535  1.00 20.00    -0.170 F 
HETATM    5  F9  UNL     1     -33.656  10.538   1.550  1.00 20.00    -0.170 F 
ENDROOT
BRANCH   1   6
HETATM    6  C5  UNL     1     -32.020   8.414   2.586  1.00 20.00     0.110 C 
BRANCH   6   7
HETATM    7  C4  UNL     1     -33.221   7.562   2.866  1.00 20.00     0.151 A 
HETATM    8  C3  UNL     1     -33.479   7.007   4.240  1.00 20.00     0.200 A 
HETATM    9  O6  UNL     1     -32.921   6.200   3.191  1.00 20.00    -0.381 OA
ENDBRANCH   6   7
ENDBRANCH   1   6
TORSDOF 2
ENDMDL
MODEL 7
REMARK VINA RESULT:      -4.5      3.192      4.480
REMARK  2 active torsions:
REMARK  status: ('A' for Active; 'I' for Inactive)
REMARK    1  A    between atoms: C1_1  and  C5_5 
REMARK    2  A    between atoms: C4_4  and  C5_5 
ROOT
HETATM    1  C1  UNL     1     -32.253   7.892   2.778  1.00 20.00     0.164 C 
HETATM    2  C2  UNL     1     -32.406   8.661   1.696  1.00 20.00     0.301 C 
HETATM    3  F7  UNL     1     -31.351   8.286   3.708  1.00 20.00    -0.205 F 
HETATM    4  F8  UNL     1     -31.678   9.790   1.568  1.00 20.00    -0.170 F 
HETATM    5  F9  UNL     1     -33.286   8.323   0.729  1.00 20.00    -0.170 F 
ENDROOT
BRANCH   1   6
HETATM    6  C5  UNL     1     -33.000   6.615   3.024  1.00 20.00     0.110 C 
BRANCH   6   7
HETATM    7  C4  UNL     1     -34.166   6.753   3.957  1.00 20.00     0.151 A 
HETATM    8  C3  UNL     1     -34.528   5.655   4.918  1.00 20.00     0.200 A 
HETATM    9  O6  UNL     1     -35.249   5.855   3.691  1.00 20.00    -0.381 OA
ENDBRANCH   6   7
ENDBRANCH   1   6
TORSDOF 2
ENDMDL
MODEL 8
REMARK VINA RESULT:      -4.4      2.314      3.382
REMARK  2 active torsions:
REMARK  status: ('A' for Active; 'I' for Inactive)
REMARK    1  A    between atoms: C1_1  and  C5_5 
REMARK    2  A    between atoms: C4_4  and  C5_5 
ROOT
HETATM    1  C1  UNL     1     -34.103   4.809   3.843  1.00 20.00     0.164 C 
HETATM    2  C2  UNL     1     -33.350   5.126   2.785  1.00 20.00     0.301 C 
HETATM    3  F7  UNL     1     -34.296   3.496   4.108  1.00 20.00    -0.205 F 
HETATM    4  F8  UNL     1     -32.809   4.145   2.032  1.00 20.00    -0.170 F 
HETATM    5  F9  UNL     1     -33.122   6.416   2.463  1.00 20.00    -0.170 F 
ENDROOT
BRANCH   1   6
HETATM    6  C5  UNL     1     -34.760   5.810   4.746  1.00 20.00     0.110 C 
BRANCH   6   7
HETATM    7  C4  UNL     1     -33.855   6.380   5.797  1.00 20.00     0.151 A 
HETATM    8  C3  UNL     1     -34.003   7.802   6.263  1.00 20.00     0.200 A 
HETATM    9  O6  UNL     1     -32.981   7.414   5.331  1.00 20.00    -0.381 OA
ENDBRANCH   6   7
ENDBRANCH   1   6
TORSDOF 2
ENDMDL
MODEL 9
REMARK VINA RESULT:      -4.1      3.450      4.870
REMARK  2 active torsions:
REMARK  status: ('A' for Active; 'I' for Inactive)
REMARK    1  A    between atoms: C1_1  and  C5_5 
REMARK    2  A    between atoms: C4_4  and  C5_5 
ROOT
HETATM    1  C1  UNL     1     -32.559   8.715   1.900  1.00 20.00     0.164 C 
HETATM    2  C2  UNL     1     -31.935   9.081   0.777  1.00 20.00     0.301 C 
HETATM    3  F7  UNL     1     -33.667   9.405   2.259  1.00 20.00    -0.205 F 
HETATM    4  F8  UNL     1     -32.422  10.104   0.044  1.00 20.00    -0.170 F 
HETATM    5  F9  UNL     1     -30.823   8.436   0.365  1.00 20.00    -0.170 F 
ENDROOT
BRANCH   1   6
HETATM    6  C5  UNL     1     -32.108   7.600   2.797  1.00 20.00     0.110 C 
BRANCH   6   7
HETATM    7  C4  UNL     1     -33.216   6.722   3.296  1.00 20.00     0.151 A 
HETATM    8  C3  UNL     1     -33.248   5.253   2.977  1.00 20.00     0.200 A 
HETATM    9  O6  UNL     1     -34.067   6.199   2.270  1.00 20.00    -0.381 OA
ENDBRANCH   6   7
ENDBRANCH   1   6
TORSDOF 2
ENDMDL
