MODEL 1
REMARK VINA RESULT:      -5.3      0.000      0.000
REMARK  4 active torsions:
REMARK  status: ('A' for Active; 'I' for Inactive)
REMARK    1  A    between atoms: C1_1  and  C5_5 
REMARK    2  A    between atoms: C1_1  and  C8_8 
REMARK    3  A    between atoms: C6_6  and  C8_8 
REMARK    4  A    between atoms: C7_7  and  C8_8 
ROOT
HETATM    1  C8  UNL     1     -33.666   7.354   3.665  1.00 20.00     0.054 C 
ENDROOT
BRANCH   1   2
HETATM    2  C1  UNL     1     -32.397   7.931   3.030  1.00 20.00     0.130 C 
HETATM    3  O9  UNL     1     -31.355   8.068   3.671  1.00 20.00    -0.298 OA
BRANCH   2   4
HETATM    4  C5  UNL     1     -32.491   8.303   1.558  1.00 20.00     0.074 C 
HETATM    5  C2  UNL     1     -32.507   9.806   1.335  1.00 20.00     0.013 C 
ENDBRANCH   2   4
ENDBRANCH   1   2
BRANCH   1   6
HETATM    6  C6  UNL     1     -33.516   7.174   5.185  1.00 20.00     0.007 C 
HETATM    7  C3  UNL     1     -34.448   6.101   5.737  1.00 20.00     0.006 C 
ENDBRANCH   1   6
BRANCH   1   8
HETATM    8  C7  UNL     1     -34.070   6.052   2.952  1.00 20.00     0.007 C 
HETATM    9  C4  UNL     1     -32.946   5.038   2.778  1.00 20.00     0.006 C 
ENDBRANCH   1   8
TORSDOF 4
ENDMDL
MODEL 2
REMARK VINA RESULT:      -5.1      1.181      3.841
REMARK  4 active torsions:
REMARK  status: ('A' for Active; 'I' for Inactive)
REMARK    1  A    between atoms: C1_1  and  C5_5 
REMARK    2  A    between atoms: C1_1  and  C8_8 
REMARK    3  A    between atoms: C6_6  and  C8_8 
REMARK    4  A    between atoms: C7_7  and  C8_8 
ROOT
HETATM    1  C8  UNL     1     -33.588   7.244   3.418  1.00 20.00     0.054 C 
ENDROOT
BRANCH   1   2
HETATM    2  C1  UNL     1     -33.844   6.947   4.899  1.00 20.00     0.130 C 
HETATM    3  O9  UNL     1     -33.209   7.507   5.792  1.00 20.00    -0.298 OA
BRANCH   2   4
HETATM    4  C5  UNL     1     -34.943   5.939   5.201  1.00 20.00     0.074 C 
HETATM    5  C2  UNL     1     -34.409   4.665   5.835  1.00 20.00     0.013 C 
ENDBRANCH   2   4
ENDBRANCH   1   2
BRANCH   1   6
HETATM    6  C6  UNL     1     -33.962   6.052   2.521  1.00 20.00     0.007 C 
HETATM    7  C3  UNL     1     -32.913   4.945   2.558  1.00 20.00     0.006 C 
ENDBRANCH   1   6
BRANCH   1   8
HETATM    8  C7  UNL     1     -32.135   7.705   3.213  1.00 20.00     0.007 C 
HETATM    9  C4  UNL     1     -31.884   8.498   1.937  1.00 20.00     0.006 C 
ENDBRANCH   1   8
TORSDOF 4
ENDMDL
MODEL 3
REMARK VINA RESULT:      -5.1      0.468      2.137
REMARK  4 active torsions:
REMARK  status: ('A' for Active; 'I' for Inactive)
REMARK    1  A    between atoms: C1_1  and  C5_5 
REMARK    2  A    between atoms: C1_1  and  C8_8 
REMARK    3  A    between atoms: C6_6  and  C8_8 
REMARK    4  A    between atoms: C7_7  and  C8_8 
ROOT
HETATM    1  C8  UNL     1     -32.853   6.829   3.773  1.00 20.00     0.054 C 
ENDROOT
BRANCH   1   2
HETATM    2  C1  UNL     1     -32.110   7.991   3.104  1.00 20.00     0.130 C 
HETATM    3  O9  UNL     1     -31.228   8.620   3.688  1.00 20.00    -0.298 OA
BRANCH   2   4
HETATM    4  C5  UNL     1     -32.510   8.306   1.670  1.00 20.00     0.074 C 
HETATM    5  C2  UNL     1     -32.437   9.791   1.357  1.00 20.00     0.013 C 
ENDBRANCH   2   4
ENDBRANCH   1   2
BRANCH   1   6
HETATM    6  C6  UNL     1     -33.691   6.028   2.763  1.00 20.00     0.007 C 
HETATM    7  C3  UNL     1     -33.144   4.621   2.541  1.00 20.00     0.006 C 
ENDBRANCH   1   6
BRANCH   1   8
HETATM    8  C7  UNL     1     -33.687   7.346   4.957  1.00 20.00     0.007 C 
HETATM    9  C4  UNL     1     -34.363   6.264   5.789  1.00 20.00     0.006 C 
ENDBRANCH   1   8
TORSDOF 4
ENDMDL
MODEL 4
REMARK VINA RESULT:      -4.9      1.869      4.136
REMARK  4 active torsions:
REMARK  status: ('A' for Active; 'I' for Inactive)
REMARK    1  A    between atoms: C1_1  and  C5_5 
REMARK    2  A    between atoms: C1_1  and  C8_8 
REMARK    3  A    between atoms: C6_6  and  C8_8 
REMARK    4  A    between atoms: C7_7  and  C8_8 
ROOT
HETATM    1  C8  UNL     1     -33.581   7.377   3.508  1.00 20.00     0.054 C 
ENDROOT
BRANCH   1   2
HETATM    2  C1  UNL     1     -34.413   6.091   3.462  1.00 20.00     0.130 C 
HETATM    3  O9  UNL     1     -35.643   6.113   3.506  1.00 20.00    -0.298 OA
BRANCH   2   4
HETATM    4  C5  UNL     1     -33.633   4.791   3.335  1.00 20.00     0.074 C 
HETATM    5  C2  UNL     1     -33.995   3.786   4.416  1.00 20.00     0.013 C 
ENDBRANCH   2   4
ENDBRANCH   1   2
BRANCH   1   6
HETATM    6  C6  UNL     1     -32.496   7.396   2.419  1.00 20.00     0.007 C 
HETATM    7  C3  UNL     1     -32.188   8.808   1.931  1.00 20.00     0.006 C 
ENDBRANCH   1   6
BRANCH   1   8
HETATM    8  C7  UNL     1     -33.006   7.586   4.920  1.00 20.00     0.007 C 
HETATM    9  C4  UNL     1     -33.930   7.172   6.059  1.00 20.00     0.006 C 
ENDBRANCH   1   8
TORSDOF 4
ENDMDL
MODEL 5
REMARK VINA RESULT:      -4.8      1.242      3.680
REMARK  4 active torsions:
REMARK  status: ('A' for Active; 'I' for Inactive)
REMARK    1  A    between atoms: C1_1  and  C5_5 
REMARK    2  A    between atoms: C1_1  and  C8_8 
REMARK    3  A    between atoms: C6_6  and  C8_8 
REMARK    4  A    between atoms: C7_7  and  C8_8 
ROOT
HETATM    1  C8  UNL     1     -32.925   6.935   3.408  1.00 20.00     0.054 C 
ENDROOT
BRANCH   1   2
HETATM    2  C1  UNL     1     -33.628   6.952   4.770  1.00 20.00     0.130 C 
HETATM    3  O9  UNL     1     -33.239   7.669   5.692  1.00 20.00    -0.298 OA
BRANCH   2   4
HETATM    4  C5  UNL     1     -34.846   6.051   4.908  1.00 20.00     0.074 C 
HETATM    5  C2  UNL     1     -34.569   4.821   5.756  1.00 20.00     0.013 C 
ENDBRANCH   2   4
ENDBRANCH   1   2
BRANCH   1   6
HETATM    6  C6  UNL     1     -32.827   8.343   2.796  1.00 20.00     0.007 C 
HETATM    7  C3  UNL     1     -31.822   8.410   1.651  1.00 20.00     0.006 C 
ENDBRANCH   1   6
BRANCH   1   8
HETATM    8  C7  UNL     1     -33.613   5.928   2.470  1.00 20.00     0.007 C 
HETATM    9  C4  UNL     1     -32.936   4.567   2.379  1.00 20.00     0.006 C 
ENDBRANCH   1   8
TORSDOF 4
ENDMDL
MODEL 6
REMARK VINA RESULT:      -4.8      1.633      4.079
REMARK  4 active torsions:
REMARK  status: ('A' for Active; 'I' for Inactive)
REMARK    1  A    between atoms: C1_1  and  C5_5 
REMARK    2  A    between atoms: C1_1  and  C8_8 
REMARK    3  A    between atoms: C6_6  and  C8_8 
REMARK    4  A    between atoms: C7_7  and  C8_8 
ROOT
HETATM    1  C8  UNL     1     -33.560   7.330   3.453  1.00 20.00     0.054 C 
ENDROOT
BRANCH   1   2
HETATM    2  C1  UNL     1     -33.789   5.821   3.325  1.00 20.00     0.130 C 
HETATM    3  O9  UNL     1     -33.040   5.105   2.660  1.00 20.00    -0.298 OA
BRANCH   2   4
HETATM    4  C5  UNL     1     -34.979   5.255   4.085  1.00 20.00     0.074 C 
HETATM    5  C2  UNL     1     -34.563   4.367   5.245  1.00 20.00     0.013 C 
ENDBRANCH   2   4
ENDBRANCH   1   2
BRANCH   1   6
HETATM    6  C6  UNL     1     -32.872   7.913   2.207  1.00 20.00     0.007 C 
HETATM    7  C3  UNL     1     -31.539   8.577   2.536  1.00 20.00     0.006 C 
ENDBRANCH   1   6
BRANCH   1   8
HETATM    8  C7  UNL     1     -32.797   7.643   4.751  1.00 20.00     0.007 C 
HETATM    9  C4  UNL     1     -33.640   7.604   6.019  1.00 20.00     0.006 C 
ENDBRANCH   1   8
TORSDOF 4
ENDMDL
MODEL 7
REMARK VINA RESULT:      -4.6      1.707      3.635
REMARK  4 active torsions:
REMARK  status: ('A' for Active; 'I' for Inactive)
REMARK    1  A    between atoms: C1_1  and  C5_5 
REMARK    2  A    between atoms: C1_1  and  C8_8 
REMARK    3  A    between atoms: C6_6  and  C8_8 
REMARK    4  A    between atoms: C7_7  and  C8_8 
ROOT
HETATM    1  C8  UNL     1     -33.016   6.908   3.545  1.00 20.00     0.054 C 
ENDROOT
BRANCH   1   2
HETATM    2  C1  UNL     1     -33.553   5.498   3.279  1.00 20.00     0.130 C 
HETATM    3  O9  UNL     1     -32.973   4.713   2.529  1.00 20.00    -0.298 OA
BRANCH   2   4
HETATM    4  C5  UNL     1     -34.829   5.116   4.014  1.00 20.00     0.074 C 
HETATM    5  C2  UNL     1     -34.559   4.322   5.281  1.00 20.00     0.013 C 
ENDBRANCH   2   4
ENDBRANCH   1   2
BRANCH   1   6
HETATM    6  C6  UNL     1     -33.904   7.682   4.533  1.00 20.00     0.007 C 
HETATM    7  C3  UNL     1     -33.398   7.583   5.969  1.00 20.00     0.006 C 
ENDBRANCH   1   6
BRANCH   1   8
HETATM    8  C7  UNL     1     -32.815   7.657   2.217  1.00 20.00     0.007 C 
HETATM    9  C4  UNL     1     -31.728   8.724   2.237  1.00 20.00     0.006 C 
ENDBRANCH   1   8
TORSDOF 4
ENDMDL
MODEL 8
REMARK VINA RESULT:      -4.5      1.470      1.765
REMARK  4 active torsions:
REMARK  status: ('A' for Active; 'I' for Inactive)
REMARK    1  A    between atoms: C1_1  and  C5_5 
REMARK    2  A    between atoms: C1_1  and  C8_8 
REMARK    3  A    between atoms: C6_6  and  C8_8 
REMARK    4  A    between atoms: C7_7  and  C8_8 
ROOT
HETATM    1  C8  UNL     1     -33.964   6.837   4.139  1.00 20.00     0.054 C 
ENDROOT
BRANCH   1   2
HETATM    2  C1  UNL     1     -32.886   6.804   3.050  1.00 20.00     0.130 C 
HETATM    3  O9  UNL     1     -32.747   5.835   2.304  1.00 20.00    -0.298 OA
BRANCH   2   4
HETATM    4  C5  UNL     1     -32.015   8.046   2.930  1.00 20.00     0.074 C 
HETATM    5  C2  UNL     1     -32.143   8.720   1.574  1.00 20.00     0.013 C 
ENDBRANCH   2   4
ENDBRANCH   1   2
BRANCH   1   6
HETATM    6  C6  UNL     1     -33.354   6.819   5.550  1.00 20.00     0.007 C 
HETATM    7  C3  UNL     1     -33.890   7.944   6.429  1.00 20.00     0.006 C 
ENDBRANCH   1   6
BRANCH   1   8
HETATM    8  C7  UNL     1     -34.976   5.700   3.917  1.00 20.00     0.007 C 
HETATM    9  C4  UNL     1     -34.710   4.435   4.723  1.00 20.00     0.006 C 
ENDBRANCH   1   8
TORSDOF 4
ENDMDL
MODEL 9
REMARK VINA RESULT:      -4.4      1.599      2.396
REMARK  4 active torsions:
REMARK  status: ('A' for Active; 'I' for Inactive)
REMARK    1  A    between atoms: C1_1  and  C5_5 
REMARK    2  A    between atoms: C1_1  and  C8_8 
REMARK    3  A    between atoms: C6_6  and  C8_8 
REMARK    4  A    between atoms: C7_7  and  C8_8 
ROOT
HETATM    1  C8  UNL     1     -33.310   6.505   4.010  1.00 20.00     0.054 C 
ENDROOT
BRANCH   1   2
HETATM    2  C1  UNL     1     -33.032   7.084   2.618  1.00 20.00     0.130 C 
HETATM    3  O9  UNL     1     -33.628   6.683   1.618  1.00 20.00    -0.298 OA
BRANCH   2   4
HETATM    4  C5  UNL     1     -31.997   8.196   2.548  1.00 20.00     0.074 C 
HETATM    5  C2  UNL     1     -32.201   9.110   1.351  1.00 20.00     0.013 C 
ENDBRANCH   2   4
ENDBRANCH   1   2
BRANCH   1   6
HETATM    6  C6  UNL     1     -34.651   5.754   4.060  1.00 20.00     0.007 C 
HETATM    7  C3  UNL     1     -34.484   4.296   4.477  1.00 20.00     0.006 C 
ENDBRANCH   1   6
BRANCH   1   8
HETATM    8  C7  UNL     1     -33.212   7.613   5.073  1.00 20.00     0.007 C 
HETATM    9  C4  UNL     1     -33.973   7.336   6.364  1.00 20.00     0.006 C 
ENDBRANCH   1   8
TORSDOF 4
ENDMDL
