MODEL 1
REMARK VINA RESULT:      -3.6      0.000      0.000
REMARK  2 active torsions:
REMARK  status: ('A' for Active; 'I' for Inactive)
REMARK    1  A    between atoms: C2_2  and  C3_3 
REMARK    2  A    between atoms: C2_2  and  N4_4 
ROOT
HETATM    1  C1  UNL     1     -32.840   6.915   2.718  1.00 20.00     0.157 C 
HETATM    2  N4  UNL     1     -33.336   5.902   3.043  1.00 20.00    -0.274 NA
HETATM    3  S5  UNL     1     -32.145   8.276   2.267  1.00 20.00    -0.055 SA
ENDROOT
BRANCH   2   4
HETATM    4  C2  UNL     1     -34.651   6.033   3.673  1.00 20.00     0.165 C 
BRANCH   4   5
HETATM    5  C3  UNL     1     -34.541   5.754   5.162  1.00 20.00     0.136 C 
HETATM    6 CL6  UNL     1     -33.925   7.175   6.041  1.00 20.00    -0.129 Cl
ENDBRANCH   4   5
ENDBRANCH   2   4
TORSDOF 2
ENDMDL
MODEL 2
REMARK VINA RESULT:      -3.5      1.560      1.560
REMARK  2 active torsions:
REMARK  status: ('A' for Active; 'I' for Inactive)
REMARK    1  A    between atoms: C2_2  and  C3_3 
REMARK    2  A    between atoms: C2_2  and  N4_4 
ROOT
HETATM    1  C1  UNL     1     -32.865   7.381   2.929  1.00 20.00     0.157 C 
HETATM    2  N4  UNL     1     -33.441   6.576   3.561  1.00 20.00    -0.274 NA
HETATM    3  S5  UNL     1     -32.080   8.454   2.052  1.00 20.00    -0.055 SA
ENDROOT
BRANCH   2   4
HETATM    4  C2  UNL     1     -33.818   7.004   4.909  1.00 20.00     0.165 C 
BRANCH   4   5
HETATM    5  C3  UNL     1     -34.470   5.851   5.653  1.00 20.00     0.136 C 
HETATM    6 CL6  UNL     1     -34.543   4.388   4.642  1.00 20.00    -0.129 Cl
ENDBRANCH   4   5
ENDBRANCH   2   4
TORSDOF 2
ENDMDL
MODEL 3
REMARK VINA RESULT:      -3.5      1.393      1.458
REMARK  2 active torsions:
REMARK  status: ('A' for Active; 'I' for Inactive)
REMARK    1  A    between atoms: C2_2  and  C3_3 
REMARK    2  A    between atoms: C2_2  and  N4_4 
ROOT
HETATM    1  C1  UNL     1     -32.570   7.879   2.341  1.00 20.00     0.157 C 
HETATM    2  N4  UNL     1     -32.745   6.920   2.996  1.00 20.00    -0.274 NA
HETATM    3  S5  UNL     1     -32.312   9.166   1.438  1.00 20.00    -0.055 SA
ENDROOT
BRANCH   2   4
HETATM    4  C2  UNL     1     -33.749   7.070   4.052  1.00 20.00     0.165 C 
BRANCH   4   5
HETATM    5  C3  UNL     1     -34.686   5.874   4.047  1.00 20.00     0.136 C 
HETATM    6 CL6  UNL     1     -34.632   5.004   5.599  1.00 20.00    -0.129 Cl
ENDBRANCH   4   5
ENDBRANCH   2   4
TORSDOF 2
ENDMDL
MODEL 4
REMARK VINA RESULT:      -3.4      1.111      1.195
REMARK  2 active torsions:
REMARK  status: ('A' for Active; 'I' for Inactive)
REMARK    1  A    between atoms: C2_2  and  C3_3 
REMARK    2  A    between atoms: C2_2  and  N4_4 
ROOT
HETATM    1  C1  UNL     1     -32.435   8.037   2.438  1.00 20.00     0.157 C 
HETATM    2  N4  UNL     1     -32.586   7.294   3.335  1.00 20.00    -0.274 NA
HETATM    3  S5  UNL     1     -32.214   9.061   1.237  1.00 20.00    -0.055 SA
ENDROOT
BRANCH   2   4
HETATM    4  C2  UNL     1     -33.518   6.196   3.076  1.00 20.00     0.165 C 
BRANCH   4   5
HETATM    5  C3  UNL     1     -34.489   6.058   4.236  1.00 20.00     0.136 C 
HETATM    6 CL6  UNL     1     -33.938   6.986   5.653  1.00 20.00    -0.129 Cl
ENDBRANCH   4   5
ENDBRANCH   2   4
TORSDOF 2
ENDMDL
MODEL 5
REMARK VINA RESULT:      -3.4      3.281      4.090
REMARK  2 active torsions:
REMARK  status: ('A' for Active; 'I' for Inactive)
REMARK    1  A    between atoms: C2_2  and  C3_3 
REMARK    2  A    between atoms: C2_2  and  N4_4 
ROOT
HETATM    1  C1  UNL     1     -33.224   7.219   4.034  1.00 20.00     0.157 C 
HETATM    2  N4  UNL     1     -32.825   7.268   2.930  1.00 20.00    -0.274 NA
HETATM    3  S5  UNL     1     -33.781   7.130   5.523  1.00 20.00    -0.055 SA
ENDROOT
BRANCH   2   4
HETATM    4  C2  UNL     1     -31.885   8.358   2.662  1.00 20.00     0.165 C 
BRANCH   4   5
HETATM    5  C3  UNL     1     -32.037   8.830   1.226  1.00 20.00     0.136 C 
HETATM    6 CL6  UNL     1     -32.691  10.484   1.156  1.00 20.00    -0.129 Cl
ENDBRANCH   4   5
ENDBRANCH   2   4
TORSDOF 2
ENDMDL
MODEL 6
REMARK VINA RESULT:      -3.3      3.671      4.490
REMARK  2 active torsions:
REMARK  status: ('A' for Active; 'I' for Inactive)
REMARK    1  A    between atoms: C2_2  and  C3_3 
REMARK    2  A    between atoms: C2_2  and  N4_4 
ROOT
HETATM    1  C1  UNL     1     -32.744   7.198   2.923  1.00 20.00     0.157 C 
HETATM    2  N4  UNL     1     -32.053   8.146   2.866  1.00 20.00    -0.274 NA
HETATM    3  S5  UNL     1     -33.681   5.914   3.029  1.00 20.00    -0.055 SA
ENDROOT
BRANCH   2   4
HETATM    4  C2  UNL     1     -31.690   8.564   1.510  1.00 20.00     0.165 C 
BRANCH   4   5
HETATM    5  C3  UNL     1     -32.540   9.751   1.091  1.00 20.00     0.136 C 
HETATM    6 CL6  UNL     1     -33.225   9.513  -0.536  1.00 20.00    -0.129 Cl
ENDBRANCH   4   5
ENDBRANCH   2   4
TORSDOF 2
ENDMDL
MODEL 7
REMARK VINA RESULT:      -3.3      3.186      3.931
REMARK  2 active torsions:
REMARK  status: ('A' for Active; 'I' for Inactive)
REMARK    1  A    between atoms: C2_2  and  C3_3 
REMARK    2  A    between atoms: C2_2  and  N4_4 
ROOT
HETATM    1  C1  UNL     1     -33.633   6.253   3.307  1.00 20.00     0.157 C 
HETATM    2  N4  UNL     1     -32.757   6.642   2.628  1.00 20.00    -0.274 NA
HETATM    3  S5  UNL     1     -34.820   5.701   4.215  1.00 20.00    -0.055 SA
ENDROOT
BRANCH   2   4
HETATM    4  C2  UNL     1     -32.409   8.051   2.817  1.00 20.00     0.165 C 
BRANCH   4   5
HETATM    5  C3  UNL     1     -31.937   8.647   1.502  1.00 20.00     0.136 C 
HETATM    6 CL6  UNL     1     -32.697  10.229   1.199  1.00 20.00    -0.129 Cl
ENDBRANCH   4   5
ENDBRANCH   2   4
TORSDOF 2
ENDMDL
MODEL 8
REMARK VINA RESULT:      -3.2      3.301      3.929
REMARK  2 active torsions:
REMARK  status: ('A' for Active; 'I' for Inactive)
REMARK    1  A    between atoms: C2_2  and  C3_3 
REMARK    2  A    between atoms: C2_2  and  N4_4 
ROOT
HETATM    1  C1  UNL     1     -34.095   6.313   4.230  1.00 20.00     0.157 C 
HETATM    2  N4  UNL     1     -33.658   7.317   3.805  1.00 20.00    -0.274 NA
HETATM    3  S5  UNL     1     -34.703   4.966   4.825  1.00 20.00    -0.055 SA
ENDROOT
BRANCH   2   4
HETATM    4  C2  UNL     1     -32.716   7.159   2.695  1.00 20.00     0.165 C 
BRANCH   4   5
HETATM    5  C3  UNL     1     -31.874   8.414   2.550  1.00 20.00     0.136 C 
HETATM    6 CL6  UNL     1     -31.769   8.930   0.849  1.00 20.00    -0.129 Cl
ENDBRANCH   4   5
ENDBRANCH   2   4
TORSDOF 2
ENDMDL
MODEL 9
REMARK VINA RESULT:      -3.0      3.056      3.498
REMARK  2 active torsions:
REMARK  status: ('A' for Active; 'I' for Inactive)
REMARK    1  A    between atoms: C2_2  and  C3_3 
REMARK    2  A    between atoms: C2_2  and  N4_4 
ROOT
HETATM    1  C1  UNL     1     -34.346   5.516   5.320  1.00 20.00     0.157 C 
HETATM    2  N4  UNL     1     -34.340   6.506   5.952  1.00 20.00    -0.274 NA
HETATM    3  S5  UNL     1     -34.373   4.162   4.481  1.00 20.00    -0.055 SA
ENDROOT
BRANCH   2   4
HETATM    4  C2  UNL     1     -33.373   7.513   5.511  1.00 20.00     0.165 C 
BRANCH   4   5
HETATM    5  C3  UNL     1     -33.230   7.465   4.000  1.00 20.00     0.136 C 
HETATM    6 CL6  UNL     1     -31.649   8.099   3.480  1.00 20.00    -0.129 Cl
ENDBRANCH   4   5
ENDBRANCH   2   4
TORSDOF 2
ENDMDL
