MODEL 1
REMARK VINA RESULT:      -5.7      0.000      0.000
REMARK  3 active torsions:
REMARK  status: ('A' for Active; 'I' for Inactive)
REMARK    1  A    between atoms: C2_2  and  O5_5 
REMARK    2  A    between atoms: C3_3  and  C4_4 
REMARK    3  A    between atoms: C3_3  and  O5_5 
ROOT
HETATM    1  C3  UNL     1     -33.613   5.654   3.051  1.00 20.00     0.454 C 
HETATM    2  F6  UNL     1     -34.332   5.997   1.955  1.00 20.00    -0.166 F 
HETATM    3  F7  UNL     1     -32.893   4.548   2.748  1.00 20.00    -0.166 F 
ENDROOT
BRANCH   1   4
HETATM    4  C4  UNL     1     -34.540   5.360   4.196  1.00 20.00     0.484 C 
HETATM    5  F8  UNL     1     -34.605   4.033   4.433  1.00 20.00    -0.163 F 
HETATM    6  F9  UNL     1     -34.123   5.963   5.329  1.00 20.00    -0.163 F 
HETATM    7  F10 UNL     1     -35.791   5.794   3.933  1.00 20.00    -0.163 F 
ENDBRANCH   1   4
BRANCH   1   8
HETATM    8  O5  UNL     1     -32.729   6.716   3.386  1.00 20.00    -0.319 OA
BRANCH   8   9
HETATM    9  C2  UNL     1     -33.040   7.921   2.702  1.00 20.00     0.170 C 
HETATM   10  C1  UNL     1     -31.828   8.364   1.910  1.00 20.00     0.033 C 
ENDBRANCH   8   9
ENDBRANCH   1   8
TORSDOF 3
ENDMDL
MODEL 2
REMARK VINA RESULT:      -5.7      0.561      1.322
REMARK  3 active torsions:
REMARK  status: ('A' for Active; 'I' for Inactive)
REMARK    1  A    between atoms: C2_2  and  O5_5 
REMARK    2  A    between atoms: C3_3  and  C4_4 
REMARK    3  A    between atoms: C3_3  and  O5_5 
ROOT
HETATM    1  C3  UNL     1     -33.716   6.023   3.094  1.00 20.00     0.454 C 
HETATM    2  F6  UNL     1     -34.403   6.038   1.926  1.00 20.00    -0.166 F 
HETATM    3  F7  UNL     1     -32.582   5.307   2.901  1.00 20.00    -0.166 F 
ENDROOT
BRANCH   1   4
HETATM    4  C4  UNL     1     -34.549   5.378   4.166  1.00 20.00     0.484 C 
HETATM    5  F8  UNL     1     -35.853   5.690   4.013  1.00 20.00    -0.163 F 
HETATM    6  F9  UNL     1     -34.438   4.034   4.127  1.00 20.00    -0.163 F 
HETATM    7  F10 UNL     1     -34.166   5.790   5.393  1.00 20.00    -0.163 F 
ENDBRANCH   1   4
BRANCH   1   8
HETATM    8  O5  UNL     1     -33.377   7.354   3.460  1.00 20.00    -0.319 OA
BRANCH   8   9
HETATM    9  C2  UNL     1     -32.069   7.717   3.044  1.00 20.00     0.170 C 
HETATM   10  C1  UNL     1     -32.169   8.599   1.817  1.00 20.00     0.033 C 
ENDBRANCH   8   9
ENDBRANCH   1   8
TORSDOF 3
ENDMDL
MODEL 3
REMARK VINA RESULT:      -5.4      1.243      1.952
REMARK  3 active torsions:
REMARK  status: ('A' for Active; 'I' for Inactive)
REMARK    1  A    between atoms: C2_2  and  O5_5 
REMARK    2  A    between atoms: C3_3  and  C4_4 
REMARK    3  A    between atoms: C3_3  and  O5_5 
ROOT
HETATM    1  C3  UNL     1     -33.742   6.898   4.317  1.00 20.00     0.454 C 
HETATM    2  F6  UNL     1     -33.233   7.238   5.525  1.00 20.00    -0.166 F 
HETATM    3  F7  UNL     1     -34.564   7.898   3.916  1.00 20.00    -0.166 F 
ENDROOT
BRANCH   1   4
HETATM    4  C4  UNL     1     -34.519   5.617   4.434  1.00 20.00     0.484 C 
HETATM    5  F8  UNL     1     -33.912   4.623   3.752  1.00 20.00    -0.163 F 
HETATM    6  F9  UNL     1     -34.628   5.229   5.722  1.00 20.00    -0.163 F 
HETATM    7  F10 UNL     1     -35.767   5.757   3.937  1.00 20.00    -0.163 F 
ENDBRANCH   1   4
BRANCH   1   8
HETATM    8  O5  UNL     1     -32.682   6.754   3.381  1.00 20.00    -0.319 OA
BRANCH   8   9
HETATM    9  C2  UNL     1     -31.891   7.928   3.269  1.00 20.00     0.170 C 
HETATM   10  C1  UNL     1     -31.981   8.449   1.850  1.00 20.00     0.033 C 
ENDBRANCH   8   9
ENDBRANCH   1   8
TORSDOF 3
ENDMDL
MODEL 4
REMARK VINA RESULT:      -5.3      1.271      1.942
REMARK  3 active torsions:
REMARK  status: ('A' for Active; 'I' for Inactive)
REMARK    1  A    between atoms: C2_2  and  O5_5 
REMARK    2  A    between atoms: C3_3  and  C4_4 
REMARK    3  A    between atoms: C3_3  and  O5_5 
ROOT
HETATM    1  C3  UNL     1     -34.491   5.967   4.126  1.00 20.00     0.454 C 
HETATM    2  F6  UNL     1     -35.816   5.884   3.855  1.00 20.00    -0.166 F 
HETATM    3  F7  UNL     1     -33.871   4.948   3.483  1.00 20.00    -0.166 F 
ENDROOT
BRANCH   1   4
HETATM    4  C4  UNL     1     -34.266   5.848   5.606  1.00 20.00     0.484 C 
HETATM    5  F8  UNL     1     -35.421   6.016   6.283  1.00 20.00    -0.163 F 
HETATM    6  F9  UNL     1     -33.770   4.635   5.928  1.00 20.00    -0.163 F 
HETATM    7  F10 UNL     1     -33.392   6.781   6.042  1.00 20.00    -0.163 F 
ENDBRANCH   1   4
BRANCH   1   8
HETATM    8  O5  UNL     1     -33.988   7.206   3.643  1.00 20.00    -0.319 OA
BRANCH   8   9
HETATM    9  C2  UNL     1     -32.851   7.043   2.806  1.00 20.00     0.170 C 
HETATM   10  C1  UNL     1     -31.803   8.063   3.196  1.00 20.00     0.033 C 
ENDBRANCH   8   9
ENDBRANCH   1   8
TORSDOF 3
ENDMDL
MODEL 5
REMARK VINA RESULT:      -5.1      3.787      4.990
REMARK  3 active torsions:
REMARK  status: ('A' for Active; 'I' for Inactive)
REMARK    1  A    between atoms: C2_2  and  O5_5 
REMARK    2  A    between atoms: C3_3  and  C4_4 
REMARK    3  A    between atoms: C3_3  and  O5_5 
ROOT
HETATM    1  C3  UNL     1     -32.095   8.867   1.553  1.00 20.00     0.454 C 
HETATM    2  F6  UNL     1     -31.588   9.353   2.711  1.00 20.00    -0.166 F 
HETATM    3  F7  UNL     1     -31.062   8.410   0.806  1.00 20.00    -0.166 F 
ENDROOT
BRANCH   1   4
HETATM    4  C4  UNL     1     -32.814   9.959   0.813  1.00 20.00     0.484 C 
HETATM    5  F8  UNL     1     -33.336   9.494  -0.341  1.00 20.00    -0.163 F 
HETATM    6  F9  UNL     1     -33.825  10.464   1.551  1.00 20.00    -0.163 F 
HETATM    7  F10 UNL     1     -31.977  10.974   0.509  1.00 20.00    -0.163 F 
ENDBRANCH   1   4
BRANCH   1   8
HETATM    8  O5  UNL     1     -32.981   7.793   1.840  1.00 20.00    -0.319 OA
BRANCH   8   9
HETATM    9  C2  UNL     1     -32.853   7.321   3.173  1.00 20.00     0.170 C 
HETATM   10  C1  UNL     1     -33.873   6.228   3.409  1.00 20.00     0.033 C 
ENDBRANCH   8   9
ENDBRANCH   1   8
TORSDOF 3
ENDMDL
MODEL 6
REMARK VINA RESULT:      -5.1      1.761      3.424
REMARK  3 active torsions:
REMARK  status: ('A' for Active; 'I' for Inactive)
REMARK    1  A    between atoms: C2_2  and  O5_5 
REMARK    2  A    between atoms: C3_3  and  C4_4 
REMARK    3  A    between atoms: C3_3  and  O5_5 
ROOT
HETATM    1  C3  UNL     1     -33.718   6.017   2.808  1.00 20.00     0.454 C 
HETATM    2  F6  UNL     1     -32.831   4.993   2.828  1.00 20.00    -0.166 F 
HETATM    3  F7  UNL     1     -34.164   6.157   1.536  1.00 20.00    -0.166 F 
ENDROOT
BRANCH   1   4
HETATM    4  C4  UNL     1     -33.044   7.283   3.254  1.00 20.00     0.484 C 
HETATM    5  F8  UNL     1     -31.702   7.141   3.244  1.00 20.00    -0.163 F 
HETATM    6  F9  UNL     1     -33.357   8.314   2.442  1.00 20.00    -0.163 F 
HETATM    7  F10 UNL     1     -33.415   7.616   4.509  1.00 20.00    -0.163 F 
ENDBRANCH   1   4
BRANCH   1   8
HETATM    8  O5  UNL     1     -34.813   5.709   3.661  1.00 20.00    -0.319 OA
BRANCH   8   9
HETATM    9  C2  UNL     1     -34.567   4.573   4.477  1.00 20.00     0.170 C 
HETATM   10  C1  UNL     1     -34.590   4.996   5.930  1.00 20.00     0.033 C 
ENDBRANCH   8   9
ENDBRANCH   1   8
TORSDOF 3
ENDMDL
MODEL 7
REMARK VINA RESULT:      -5.0      2.029      3.755
REMARK  3 active torsions:
REMARK  status: ('A' for Active; 'I' for Inactive)
REMARK    1  A    between atoms: C2_2  and  O5_5 
REMARK    2  A    between atoms: C3_3  and  C4_4 
REMARK    3  A    between atoms: C3_3  and  O5_5 
ROOT
HETATM    1  C3  UNL     1     -33.181   6.592   2.875  1.00 20.00     0.454 C 
HETATM    2  F6  UNL     1     -32.380   5.501   2.810  1.00 20.00    -0.166 F 
HETATM    3  F7  UNL     1     -34.146   6.456   1.934  1.00 20.00    -0.166 F 
ENDROOT
BRANCH   1   4
HETATM    4  C4  UNL     1     -32.377   7.831   2.604  1.00 20.00     0.484 C 
HETATM    5  F8  UNL     1     -33.185   8.883   2.354  1.00 20.00    -0.163 F 
HETATM    6  F9  UNL     1     -31.599   8.149   3.660  1.00 20.00    -0.163 F 
HETATM    7  F10 UNL     1     -31.572   7.665   1.532  1.00 20.00    -0.163 F 
ENDBRANCH   1   4
BRANCH   1   8
HETATM    8  O5  UNL     1     -33.782   6.660   4.161  1.00 20.00    -0.319 OA
BRANCH   8   9
HETATM    9  C2  UNL     1     -34.881   5.770   4.298  1.00 20.00     0.170 C 
HETATM   10  C1  UNL     1     -34.609   4.825   5.448  1.00 20.00     0.033 C 
ENDBRANCH   8   9
ENDBRANCH   1   8
TORSDOF 3
ENDMDL
MODEL 8
REMARK VINA RESULT:      -5.0      2.841      4.288
REMARK  3 active torsions:
REMARK  status: ('A' for Active; 'I' for Inactive)
REMARK    1  A    between atoms: C2_2  and  O5_5 
REMARK    2  A    between atoms: C3_3  and  C4_4 
REMARK    3  A    between atoms: C3_3  and  O5_5 
ROOT
HETATM    1  C3  UNL     1     -32.248   7.821   2.776  1.00 20.00     0.454 C 
HETATM    2  F6  UNL     1     -31.237   8.116   3.628  1.00 20.00    -0.166 F 
HETATM    3  F7  UNL     1     -32.120   6.522   2.413  1.00 20.00    -0.166 F 
ENDROOT
BRANCH   1   4
HETATM    4  C4  UNL     1     -32.163   8.700   1.561  1.00 20.00     0.484 C 
HETATM    5  F8  UNL     1     -33.240   8.526   0.766  1.00 20.00    -0.163 F 
HETATM    6  F9  UNL     1     -32.109  10.004   1.906  1.00 20.00    -0.163 F 
HETATM    7  F10 UNL     1     -31.062   8.419   0.832  1.00 20.00    -0.163 F 
ENDBRANCH   1   4
BRANCH   1   8
HETATM    8  O5  UNL     1     -33.492   8.005   3.438  1.00 20.00    -0.319 OA
BRANCH   8   9
HETATM    9  C2  UNL     1     -33.863   6.882   4.225  1.00 20.00     0.170 C 
HETATM   10  C1  UNL     1     -33.758   7.251   5.690  1.00 20.00     0.033 C 
ENDBRANCH   8   9
ENDBRANCH   1   8
TORSDOF 3
ENDMDL
MODEL 9
REMARK VINA RESULT:      -5.0      1.570      2.388
REMARK  3 active torsions:
REMARK  status: ('A' for Active; 'I' for Inactive)
REMARK    1  A    between atoms: C2_2  and  O5_5 
REMARK    2  A    between atoms: C3_3  and  C4_4 
REMARK    3  A    between atoms: C3_3  and  O5_5 
ROOT
HETATM    1  C3  UNL     1     -32.996   7.249   3.303  1.00 20.00     0.454 C 
HETATM    2  F6  UNL     1     -31.647   7.168   3.393  1.00 20.00    -0.166 F 
HETATM    3  F7  UNL     1     -33.472   7.630   4.513  1.00 20.00    -0.166 F 
ENDROOT
BRANCH   1   4
HETATM    4  C4  UNL     1     -33.564   5.909   2.931  1.00 20.00     0.484 C 
HETATM    5  F8  UNL     1     -32.580   5.046   2.600  1.00 20.00    -0.163 F 
HETATM    6  F9  UNL     1     -34.258   5.372   3.957  1.00 20.00    -0.163 F 
HETATM    7  F10 UNL     1     -34.398   6.009   1.874  1.00 20.00    -0.163 F 
ENDBRANCH   1   4
BRANCH   1   8
HETATM    8  O5  UNL     1     -33.346   8.225   2.330  1.00 20.00    -0.319 OA
BRANCH   8   9
HETATM    9  C2  UNL     1     -32.210   8.792   1.694  1.00 20.00     0.170 C 
HETATM   10  C1  UNL     1     -32.616  10.089   1.025  1.00 20.00     0.033 C 
ENDBRANCH   8   9
ENDBRANCH   1   8
TORSDOF 3
ENDMDL
