MODEL 1
REMARK VINA RESULT:      -6.2      0.000      0.000
REMARK  4 active torsions:
REMARK  status: ('A' for Active; 'I' for Inactive)
REMARK    1  A    between atoms: C1_1  and  C4_4 
REMARK    2  A    between atoms: C2_2  and  C8_8 
REMARK    3  A    between atoms: C8_8  and  C9_9 
REMARK    4  A    between atoms: C8_8  and  O10_10 
ROOT
HETATM    1  C8  UNL     1     -32.969   6.381   3.494  1.00 20.00     0.200 C 
ENDROOT
BRANCH   1   2
HETATM    2  C2  UNL     1     -32.879   7.527   2.577  1.00 20.00    -0.069 C 
HETATM    3  C1  UNL     1     -32.807   8.464   1.829  1.00 20.00    -0.070 C 
BRANCH   3   4
HETATM    4  C4  UNL     1     -32.724   9.576   0.941  1.00 20.00    -0.018 C 
HETATM    5  C3  UNL     1     -32.420  10.787   1.431  1.00 20.00     0.028 C 
HETATM    6  C5  UNL     1     -32.979   9.357  -0.522  1.00 20.00     0.057 C 
ENDBRANCH   3   4
ENDBRANCH   1   2
BRANCH   1   7
HETATM    7  C9  UNL     1     -34.108   6.514   4.529  1.00 20.00     0.018 C 
HETATM    8  C6  UNL     1     -33.702   7.317   5.771  1.00 20.00     0.013 C 
HETATM    9  C7  UNL     1     -34.676   5.153   4.936  1.00 20.00     0.013 C 
ENDBRANCH   1   7
BRANCH   1  10
HETATM   10  O10 UNL     1     -33.152   5.193   2.726  1.00 20.00    -0.383 OA
HETATM   11  H24 UNL     1     -33.978   5.311   2.231  1.00 20.00     0.211 HD
ENDBRANCH   1  10
TORSDOF 4
ENDMDL
MODEL 2
REMARK VINA RESULT:      -6.1      0.072      1.112
REMARK  4 active torsions:
REMARK  status: ('A' for Active; 'I' for Inactive)
REMARK    1  A    between atoms: C1_1  and  C4_4 
REMARK    2  A    between atoms: C2_2  and  C8_8 
REMARK    3  A    between atoms: C8_8  and  C9_9 
REMARK    4  A    between atoms: C8_8  and  O10_10 
ROOT
HETATM    1  C8  UNL     1     -32.977   6.399   3.506  1.00 20.00     0.200 C 
ENDROOT
BRANCH   1   2
HETATM    2  C2  UNL     1     -32.883   7.533   2.575  1.00 20.00    -0.069 C 
HETATM    3  C1  UNL     1     -32.806   8.462   1.817  1.00 20.00    -0.070 C 
BRANCH   3   4
HETATM    4  C4  UNL     1     -32.718   9.564   0.916  1.00 20.00    -0.018 C 
HETATM    5  C3  UNL     1     -32.921   9.359  -0.394  1.00 20.00     0.028 C 
HETATM    6  C5  UNL     1     -32.401  10.924   1.463  1.00 20.00     0.057 C 
ENDBRANCH   3   4
ENDBRANCH   1   2
BRANCH   1   7
HETATM    7  C9  UNL     1     -34.126   6.540   4.528  1.00 20.00     0.018 C 
HETATM    8  C6  UNL     1     -33.712   7.294   5.798  1.00 20.00     0.013 C 
HETATM    9  C7  UNL     1     -34.744   5.188   4.889  1.00 20.00     0.013 C 
ENDBRANCH   1   7
BRANCH   1  10
HETATM   10  O10 UNL     1     -33.148   5.201   2.751  1.00 20.00    -0.383 OA
HETATM   11  H24 UNL     1     -32.668   5.329   1.919  1.00 20.00     0.211 HD
ENDBRANCH   1  10
TORSDOF 4
ENDMDL
MODEL 3
REMARK VINA RESULT:      -5.6      1.409      5.066
REMARK  4 active torsions:
REMARK  status: ('A' for Active; 'I' for Inactive)
REMARK    1  A    between atoms: C1_1  and  C4_4 
REMARK    2  A    between atoms: C2_2  and  C8_8 
REMARK    3  A    between atoms: C8_8  and  C9_9 
REMARK    4  A    between atoms: C8_8  and  O10_10 
ROOT
HETATM    1  C8  UNL     1     -32.242   8.277   1.597  1.00 20.00     0.200 C 
ENDROOT
BRANCH   1   2
HETATM    2  C2  UNL     1     -32.898   7.656   2.756  1.00 20.00    -0.069 C 
HETATM    3  C1  UNL     1     -33.432   7.147   3.705  1.00 20.00    -0.070 C 
BRANCH   3   4
HETATM    4  C4  UNL     1     -34.065   6.542   4.830  1.00 20.00    -0.018 C 
HETATM    5  C3  UNL     1     -33.931   7.104   6.041  1.00 20.00     0.028 C 
HETATM    6  C5  UNL     1     -34.866   5.290   4.625  1.00 20.00     0.057 C 
ENDBRANCH   3   4
ENDBRANCH   1   2
BRANCH   1   7
HETATM    7  C9  UNL     1     -33.052   9.443   0.989  1.00 20.00     0.018 C 
HETATM    8  C6  UNL     1     -33.144   9.380  -0.540  1.00 20.00     0.013 C 
HETATM    9  C7  UNL     1     -32.520  10.807   1.436  1.00 20.00     0.013 C 
ENDBRANCH   1   7
BRANCH   1  10
HETATM   10  O10 UNL     1     -30.953   8.741   1.994  1.00 20.00    -0.383 OA
HETATM   11  H24 UNL     1     -31.087   9.272   2.795  1.00 20.00     0.211 HD
ENDBRANCH   1  10
TORSDOF 4
ENDMDL
MODEL 4
REMARK VINA RESULT:      -5.5      1.476      2.060
REMARK  4 active torsions:
REMARK  status: ('A' for Active; 'I' for Inactive)
REMARK    1  A    between atoms: C1_1  and  C4_4 
REMARK    2  A    between atoms: C2_2  and  C8_8 
REMARK    3  A    between atoms: C8_8  and  C9_9 
REMARK    4  A    between atoms: C8_8  and  O10_10 
ROOT
HETATM    1  C8  UNL     1     -34.081   6.916   4.246  1.00 20.00     0.200 C 
ENDROOT
BRANCH   1   2
HETATM    2  C2  UNL     1     -33.404   7.698   3.201  1.00 20.00    -0.069 C 
HETATM    3  C1  UNL     1     -32.852   8.339   2.348  1.00 20.00    -0.070 C 
BRANCH   3   4
HETATM    4  C4  UNL     1     -32.199   9.099   1.333  1.00 20.00    -0.018 C 
HETATM    5  C3  UNL     1     -31.220   8.529   0.615  1.00 20.00     0.028 C 
HETATM    6  C5  UNL     1     -32.629  10.517   1.099  1.00 20.00     0.057 C 
ENDBRANCH   3   4
ENDBRANCH   1   2
BRANCH   1   7
HETATM    7  C9  UNL     1     -34.330   5.446   3.844  1.00 20.00     0.018 C 
HETATM    8  C6  UNL     1     -34.506   4.514   5.049  1.00 20.00     0.013 C 
HETATM    9  C7  UNL     1     -33.241   4.912   2.912  1.00 20.00     0.013 C 
ENDBRANCH   1   7
BRANCH   1  10
HETATM   10  O10 UNL     1     -33.294   6.964   5.435  1.00 20.00    -0.383 OA
HETATM   11  H24 UNL     1     -33.391   7.860   5.793  1.00 20.00     0.211 HD
ENDBRANCH   1  10
TORSDOF 4
ENDMDL
MODEL 5
REMARK VINA RESULT:      -4.6     10.369     11.247
REMARK  4 active torsions:
REMARK  status: ('A' for Active; 'I' for Inactive)
REMARK    1  A    between atoms: C1_1  and  C4_4 
REMARK    2  A    between atoms: C2_2  and  C8_8 
REMARK    3  A    between atoms: C8_8  and  C9_9 
REMARK    4  A    between atoms: C8_8  and  O10_10 
ROOT
HETATM    1  C8  UNL     1     -35.275  14.298  -5.184  1.00 20.00     0.200 C 
ENDROOT
BRANCH   1   2
HETATM    2  C2  UNL     1     -34.971  15.195  -4.061  1.00 20.00    -0.069 C 
HETATM    3  C1  UNL     1     -34.721  15.928  -3.142  1.00 20.00    -0.070 C 
BRANCH   3   4
HETATM    4  C4  UNL     1     -34.424  16.796  -2.050  1.00 20.00    -0.018 C 
HETATM    5  C3  UNL     1     -33.228  17.400  -1.998  1.00 20.00     0.028 C 
HETATM    6  C5  UNL     1     -35.464  17.008  -0.989  1.00 20.00     0.057 C 
ENDBRANCH   3   4
ENDBRANCH   1   2
BRANCH   1   7
HETATM    7  C9  UNL     1     -34.161  14.259  -6.254  1.00 20.00     0.018 C 
HETATM    8  C6  UNL     1     -33.574  15.642  -6.562  1.00 20.00     0.013 C 
HETATM    9  C7  UNL     1     -34.626  13.579  -7.543  1.00 20.00     0.013 C 
ENDBRANCH   1   7
BRANCH   1  10
HETATM   10  O10 UNL     1     -35.498  12.984  -4.674  1.00 20.00    -0.383 OA
HETATM   11  H24 UNL     1     -34.650  12.518  -4.735  1.00 20.00     0.211 HD
ENDBRANCH   1  10
TORSDOF 4
ENDMDL
MODEL 6
REMARK VINA RESULT:      -4.6      2.007      5.166
REMARK  4 active torsions:
REMARK  status: ('A' for Active; 'I' for Inactive)
REMARK    1  A    between atoms: C1_1  and  C4_4 
REMARK    2  A    between atoms: C2_2  and  C8_8 
REMARK    3  A    between atoms: C8_8  and  C9_9 
REMARK    4  A    between atoms: C8_8  and  O10_10 
ROOT
HETATM    1  C8  UNL     1     -32.524   9.645   1.807  1.00 20.00     0.200 C 
ENDROOT
BRANCH   1   2
HETATM    2  C2  UNL     1     -32.919   8.355   2.391  1.00 20.00    -0.069 C 
HETATM    3  C1  UNL     1     -33.240   7.299   2.866  1.00 20.00    -0.070 C 
BRANCH   3   4
HETATM    4  C4  UNL     1     -33.624   6.047   3.430  1.00 20.00    -0.018 C 
HETATM    5  C3  UNL     1     -33.235   4.911   2.831  1.00 20.00     0.028 C 
HETATM    6  C5  UNL     1     -34.455   6.037   4.679  1.00 20.00     0.057 C 
ENDBRANCH   3   4
ENDBRANCH   1   2
BRANCH   1   7
HETATM    7  C9  UNL     1     -32.027   9.530   0.349  1.00 20.00     0.018 C 
HETATM    8  C6  UNL     1     -33.168   9.386  -0.665  1.00 20.00     0.013 C 
HETATM    9  C7  UNL     1     -31.013   8.397   0.175  1.00 20.00     0.013 C 
ENDBRANCH   1   7
BRANCH   1  10
HETATM   10  O10 UNL     1     -33.638  10.535   1.868  1.00 20.00    -0.383 OA
HETATM   11  H24 UNL     1     -33.654  10.893   2.768  1.00 20.00     0.211 HD
ENDBRANCH   1  10
TORSDOF 4
ENDMDL
MODEL 7
REMARK VINA RESULT:      -4.5     10.288     11.355
REMARK  4 active torsions:
REMARK  status: ('A' for Active; 'I' for Inactive)
REMARK    1  A    between atoms: C1_1  and  C4_4 
REMARK    2  A    between atoms: C2_2  and  C8_8 
REMARK    3  A    between atoms: C8_8  and  C9_9 
REMARK    4  A    between atoms: C8_8  and  O10_10 
ROOT
HETATM    1  C8  UNL     1     -34.110  14.313  -4.764  1.00 20.00     0.200 C 
ENDROOT
BRANCH   1   2
HETATM    2  C2  UNL     1     -34.156  15.304  -3.679  1.00 20.00    -0.069 C 
HETATM    3  C1  UNL     1     -34.192  16.114  -2.792  1.00 20.00    -0.070 C 
BRANCH   3   4
HETATM    4  C4  UNL     1     -34.236  17.073  -1.738  1.00 20.00    -0.018 C 
HETATM    5  C3  UNL     1     -35.347  17.178  -0.993  1.00 20.00     0.028 C 
HETATM    6  C5  UNL     1     -33.035  17.937  -1.492  1.00 20.00     0.057 C 
ENDBRANCH   3   4
ENDBRANCH   1   2
BRANCH   1   7
HETATM    7  C9  UNL     1     -34.398  14.916  -6.156  1.00 20.00     0.018 C 
HETATM    8  C6  UNL     1     -34.353  13.877  -7.283  1.00 20.00     0.013 C 
HETATM    9  C7  UNL     1     -33.471  16.090  -6.477  1.00 20.00     0.013 C 
ENDBRANCH   1   7
BRANCH   1  10
HETATM   10  O10 UNL     1     -32.825  13.694  -4.763  1.00 20.00    -0.383 OA
HETATM   11  H24 UNL     1     -32.668  13.386  -5.669  1.00 20.00     0.211 HD
ENDBRANCH   1  10
TORSDOF 4
ENDMDL
MODEL 8
REMARK VINA RESULT:      -4.2     10.298     10.915
REMARK  4 active torsions:
REMARK  status: ('A' for Active; 'I' for Inactive)
REMARK    1  A    between atoms: C1_1  and  C4_4 
REMARK    2  A    between atoms: C2_2  and  C8_8 
REMARK    3  A    between atoms: C8_8  and  C9_9 
REMARK    4  A    between atoms: C8_8  and  O10_10 
ROOT
HETATM    1  C8  UNL     1     -36.090  15.428  -4.113  1.00 20.00     0.200 C 
ENDROOT
BRANCH   1   2
HETATM    2  C2  UNL     1     -35.534  16.157  -2.964  1.00 20.00    -0.069 C 
HETATM    3  C1  UNL     1     -35.081  16.751  -2.023  1.00 20.00    -0.070 C 
BRANCH   3   4
HETATM    4  C4  UNL     1     -34.546  17.458  -0.906  1.00 20.00    -0.018 C 
HETATM    5  C3  UNL     1     -35.309  17.644   0.181  1.00 20.00     0.028 C 
HETATM    6  C5  UNL     1     -33.139  17.975  -0.982  1.00 20.00     0.057 C 
ENDBRANCH   3   4
ENDBRANCH   1   2
BRANCH   1   7
HETATM    7  C9  UNL     1     -35.307  14.142  -4.457  1.00 20.00     0.018 C 
HETATM    8  C6  UNL     1     -33.793  14.365  -4.550  1.00 20.00     0.013 C 
HETATM    9  C7  UNL     1     -35.827  13.476  -5.733  1.00 20.00     0.013 C 
ENDBRANCH   1   7
BRANCH   1  10
HETATM   10  O10 UNL     1     -37.451  15.104  -3.835  1.00 20.00    -0.383 OA
HETATM   11  H24 UNL     1     -37.716  15.654  -3.082  1.00 20.00     0.211 HD
ENDBRANCH   1  10
TORSDOF 4
ENDMDL
MODEL 9
REMARK VINA RESULT:      -4.0     10.449     11.489
REMARK  4 active torsions:
REMARK  status: ('A' for Active; 'I' for Inactive)
REMARK    1  A    between atoms: C1_1  and  C4_4 
REMARK    2  A    between atoms: C2_2  and  C8_8 
REMARK    3  A    between atoms: C8_8  and  C9_9 
REMARK    4  A    between atoms: C8_8  and  O10_10 
ROOT
HETATM    1  C8  UNL     1     -33.409  15.743  -4.838  1.00 20.00     0.200 C 
ENDROOT
BRANCH   1   2
HETATM    2  C2  UNL     1     -33.686  16.350  -3.528  1.00 20.00    -0.069 C 
HETATM    3  C1  UNL     1     -33.912  16.844  -2.457  1.00 20.00    -0.070 C 
BRANCH   3   4
HETATM    4  C4  UNL     1     -34.184  17.431  -1.186  1.00 20.00    -0.018 C 
HETATM    5  C3  UNL     1     -35.371  17.211  -0.601  1.00 20.00     0.028 C 
HETATM    6  C5  UNL     1     -33.130  18.280  -0.539  1.00 20.00     0.057 C 
ENDBRANCH   3   4
ENDBRANCH   1   2
BRANCH   1   7
HETATM    7  C9  UNL     1     -34.623  14.997  -5.435  1.00 20.00     0.018 C 
HETATM    8  C6  UNL     1     -35.785  15.930  -5.794  1.00 20.00     0.013 C 
HETATM    9  C7  UNL     1     -35.108  13.867  -4.524  1.00 20.00     0.013 C 
ENDBRANCH   1   7
BRANCH   1  10
HETATM   10  O10 UNL     1     -32.983  16.766  -5.736  1.00 20.00    -0.383 OA
HETATM   11  H24 UNL     1     -33.659  17.460  -5.703  1.00 20.00     0.211 HD
ENDBRANCH   1  10
TORSDOF 4
ENDMDL
