MODEL 1
REMARK VINA RESULT:      -4.7      0.000      0.000
REMARK  1 active torsions:
REMARK  status: ('A' for Active; 'I' for Inactive)
REMARK    1  A    between atoms: C2_2  and  C7_7 
ROOT
HETATM    1  C1  UNL     1     -32.661   7.464   2.782  1.00 20.00    -0.110 C 
HETATM    2  C2  UNL     1     -33.394   6.754   3.417  1.00 20.00    -0.098 C 
HETATM    3  C3  UNL     1     -31.769   8.328   2.010  1.00 20.00     0.112 C 
ENDROOT
BRANCH   2   4
HETATM    4  C7  UNL     1     -34.296   5.879   4.198  1.00 20.00     0.013 C 
HETATM    5  C4  UNL     1     -34.237   6.277   5.679  1.00 20.00     0.028 C 
HETATM    6  C5  UNL     1     -33.852   4.417   4.039  1.00 20.00     0.028 C 
HETATM    7  C6  UNL     1     -35.733   6.037   3.681  1.00 20.00     0.028 C 
ENDBRANCH   2   4
TORSDOF 1
ENDMDL
MODEL 2
REMARK VINA RESULT:      -4.7      0.110      1.639
REMARK  1 active torsions:
REMARK  status: ('A' for Active; 'I' for Inactive)
REMARK    1  A    between atoms: C2_2  and  C7_7 
ROOT
HETATM    1  C1  UNL     1     -32.699   7.542   2.685  1.00 20.00    -0.110 C 
HETATM    2  C2  UNL     1     -33.401   6.818   3.338  1.00 20.00    -0.098 C 
HETATM    3  C3  UNL     1     -31.847   8.422   1.888  1.00 20.00     0.112 C 
ENDROOT
BRANCH   2   4
HETATM    4  C7  UNL     1     -34.265   5.927   4.144  1.00 20.00     0.013 C 
HETATM    5  C4  UNL     1     -35.720   6.065   3.674  1.00 20.00     0.028 C 
HETATM    6  C5  UNL     1     -34.164   6.321   5.625  1.00 20.00     0.028 C 
HETATM    7  C6  UNL     1     -33.805   4.473   3.969  1.00 20.00     0.028 C 
ENDBRANCH   2   4
TORSDOF 1
ENDMDL
MODEL 3
REMARK VINA RESULT:      -4.7      0.115      1.654
REMARK  1 active torsions:
REMARK  status: ('A' for Active; 'I' for Inactive)
REMARK    1  A    between atoms: C2_2  and  C7_7 
ROOT
HETATM    1  C1  UNL     1     -32.701   7.543   2.679  1.00 20.00    -0.110 C 
HETATM    2  C2  UNL     1     -33.401   6.818   3.333  1.00 20.00    -0.098 C 
HETATM    3  C3  UNL     1     -31.849   8.424   1.882  1.00 20.00     0.112 C 
ENDROOT
BRANCH   2   4
HETATM    4  C7  UNL     1     -34.264   5.926   4.139  1.00 20.00     0.013 C 
HETATM    5  C4  UNL     1     -33.807   4.472   3.958  1.00 20.00     0.028 C 
HETATM    6  C5  UNL     1     -35.721   6.069   3.674  1.00 20.00     0.028 C 
HETATM    7  C6  UNL     1     -34.159   6.316   5.620  1.00 20.00     0.028 C 
ENDBRANCH   2   4
TORSDOF 1
ENDMDL
MODEL 4
REMARK VINA RESULT:      -3.9      1.777      4.819
REMARK  1 active torsions:
REMARK  status: ('A' for Active; 'I' for Inactive)
REMARK    1  A    between atoms: C2_2  and  C7_7 
ROOT
HETATM    1  C1  UNL     1     -33.217   7.544   2.846  1.00 20.00    -0.110 C 
HETATM    2  C2  UNL     1     -32.857   8.283   1.969  1.00 20.00    -0.098 C 
HETATM    3  C3  UNL     1     -33.658   6.645   3.911  1.00 20.00     0.112 C 
ENDROOT
BRANCH   2   4
HETATM    4  C7  UNL     1     -32.412   9.192   0.890  1.00 20.00     0.013 C 
HETATM    5  C4  UNL     1     -33.341   9.038  -0.323  1.00 20.00     0.028 C 
HETATM    6  C5  UNL     1     -30.974   8.837   0.484  1.00 20.00     0.028 C 
HETATM    7  C6  UNL     1     -32.459  10.642   1.392  1.00 20.00     0.028 C 
ENDBRANCH   2   4
TORSDOF 1
ENDMDL
MODEL 5
REMARK VINA RESULT:      -3.9      1.775      4.818
REMARK  1 active torsions:
REMARK  status: ('A' for Active; 'I' for Inactive)
REMARK    1  A    between atoms: C2_2  and  C7_7 
ROOT
HETATM    1  C1  UNL     1     -33.217   7.557   2.857  1.00 20.00    -0.110 C 
HETATM    2  C2  UNL     1     -32.855   8.289   1.977  1.00 20.00    -0.098 C 
HETATM    3  C3  UNL     1     -33.659   6.664   3.927  1.00 20.00     0.112 C 
ENDROOT
BRANCH   2   4
HETATM    4  C7  UNL     1     -32.407   9.191   0.892  1.00 20.00     0.013 C 
HETATM    5  C4  UNL     1     -32.457  10.645   1.384  1.00 20.00     0.028 C 
HETATM    6  C5  UNL     1     -33.330   9.027  -0.323  1.00 20.00     0.028 C 
HETATM    7  C6  UNL     1     -30.968   8.834   0.494  1.00 20.00     0.028 C 
ENDBRANCH   2   4
TORSDOF 1
ENDMDL
MODEL 6
REMARK VINA RESULT:      -3.9      1.785      4.827
REMARK  1 active torsions:
REMARK  status: ('A' for Active; 'I' for Inactive)
REMARK    1  A    between atoms: C2_2  and  C7_7 
ROOT
HETATM    1  C1  UNL     1     -33.242   7.509   2.806  1.00 20.00    -0.110 C 
HETATM    2  C2  UNL     1     -32.879   8.262   1.942  1.00 20.00    -0.098 C 
HETATM    3  C3  UNL     1     -33.685   6.593   3.855  1.00 20.00     0.112 C 
ENDROOT
BRANCH   2   4
HETATM    4  C7  UNL     1     -32.431   9.188   0.879  1.00 20.00     0.013 C 
HETATM    5  C4  UNL     1     -30.979   8.863   0.497  1.00 20.00     0.028 C 
HETATM    6  C5  UNL     1     -32.517  10.633   1.391  1.00 20.00     0.028 C 
HETATM    7  C6  UNL     1     -33.333   9.027  -0.352  1.00 20.00     0.028 C 
ENDBRANCH   2   4
TORSDOF 1
ENDMDL
MODEL 7
REMARK VINA RESULT:      -3.4      1.864      2.796
REMARK  1 active torsions:
REMARK  status: ('A' for Active; 'I' for Inactive)
REMARK    1  A    between atoms: C2_2  and  C7_7 
ROOT
HETATM    1  C1  UNL     1     -32.886   9.011   0.839  1.00 20.00    -0.110 C 
HETATM    2  C2  UNL     1     -32.788   8.364   1.847  1.00 20.00    -0.098 C 
HETATM    3  C3  UNL     1     -33.007   9.796  -0.388  1.00 20.00     0.112 C 
ENDROOT
BRANCH   2   4
HETATM    4  C7  UNL     1     -32.668   7.570   3.089  1.00 20.00     0.013 C 
HETATM    5  C4  UNL     1     -31.417   8.013   3.861  1.00 20.00     0.028 C 
HETATM    6  C5  UNL     1     -32.552   6.081   2.734  1.00 20.00     0.028 C 
HETATM    7  C6  UNL     1     -33.913   7.793   3.960  1.00 20.00     0.028 C 
ENDBRANCH   2   4
TORSDOF 1
ENDMDL
MODEL 8
REMARK VINA RESULT:      -3.3     11.408     12.150
REMARK  1 active torsions:
REMARK  status: ('A' for Active; 'I' for Inactive)
REMARK    1  A    between atoms: C2_2  and  C7_7 
ROOT
HETATM    1  C1  UNL     1     -34.819  16.474  -2.196  1.00 20.00    -0.110 C 
HETATM    2  C2  UNL     1     -34.608  15.872  -3.214  1.00 20.00    -0.098 C 
HETATM    3  C3  UNL     1     -35.077  17.208  -0.958  1.00 20.00     0.112 C 
ENDROOT
BRANCH   2   4
HETATM    4  C7  UNL     1     -34.349  15.128  -4.466  1.00 20.00     0.013 C 
HETATM    5  C4  UNL     1     -32.910  14.591  -4.453  1.00 20.00     0.028 C 
HETATM    6  C5  UNL     1     -34.536  16.068  -5.666  1.00 20.00     0.028 C 
HETATM    7  C6  UNL     1     -35.333  13.955  -4.576  1.00 20.00     0.028 C 
ENDBRANCH   2   4
TORSDOF 1
ENDMDL
MODEL 9
REMARK VINA RESULT:      -3.3     11.459     12.196
REMARK  1 active torsions:
REMARK  status: ('A' for Active; 'I' for Inactive)
REMARK    1  A    between atoms: C2_2  and  C7_7 
ROOT
HETATM    1  C1  UNL     1     -34.721  16.535  -2.158  1.00 20.00    -0.110 C 
HETATM    2  C2  UNL     1     -34.527  15.932  -3.178  1.00 20.00    -0.098 C 
HETATM    3  C3  UNL     1     -34.955  17.271  -0.916  1.00 20.00     0.112 C 
ENDROOT
BRANCH   2   4
HETATM    4  C7  UNL     1     -34.290  15.189  -4.436  1.00 20.00     0.013 C 
HETATM    5  C4  UNL     1     -34.365  16.158  -5.624  1.00 20.00     0.028 C 
HETATM    6  C5  UNL     1     -35.359  14.098  -4.594  1.00 20.00     0.028 C 
HETATM    7  C6  UNL     1     -32.900  14.540  -4.390  1.00 20.00     0.028 C 
ENDBRANCH   2   4
TORSDOF 1
ENDMDL
