MODEL 1
REMARK VINA RESULT:      -6.1      0.000      0.000
REMARK  2 active torsions:
REMARK  status: ('A' for Active; 'I' for Inactive)
REMARK    1  A    between atoms: C3_3  and  C7_7 
REMARK    2  A    between atoms: C7_7  and  C8_8 
ROOT
HETATM    1  C1  UNL     1     -33.778   7.010   5.291  1.00 20.00     0.263 C 
HETATM    2  C2  UNL     1     -34.930   6.134   3.421  1.00 20.00     0.046 C 
HETATM    3  C3  UNL     1     -33.892   7.172   3.801  1.00 20.00     0.088 C 
HETATM    4  C4  UNL     1     -34.961   5.164   4.584  1.00 20.00     0.128 C 
HETATM    5  C5  UNL     1     -34.127   3.912   4.370  1.00 20.00     0.040 C 
HETATM    6  O9  UNL     1     -33.165   7.760   6.037  1.00 20.00    -0.265 OA
HETATM    7  O10 UNL     1     -34.444   5.894   5.705  1.00 20.00    -0.316 OA
ENDROOT
BRANCH   3   8
HETATM    8  C7  UNL     1     -32.548   6.971   3.123  1.00 20.00     0.014 C 
BRANCH   8   9
HETATM    9  C8  UNL     1     -31.850   8.303   2.848  1.00 20.00    -0.004 C 
HETATM   10  C6  UNL     1     -32.137   8.806   1.444  1.00 20.00     0.005 C 
ENDBRANCH   8   9
ENDBRANCH   3   8
TORSDOF 2
ENDMDL
MODEL 2
REMARK VINA RESULT:      -4.6      1.102      3.888
REMARK  2 active torsions:
REMARK  status: ('A' for Active; 'I' for Inactive)
REMARK    1  A    between atoms: C3_3  and  C7_7 
REMARK    2  A    between atoms: C7_7  and  C8_8 
ROOT
HETATM    1  C1  UNL     1     -32.706   7.615   4.509  1.00 20.00     0.263 C 
HETATM    2  C2  UNL     1     -32.186   6.791   2.354  1.00 20.00     0.046 C 
HETATM    3  C3  UNL     1     -33.061   6.505   3.559  1.00 20.00     0.088 C 
HETATM    4  C4  UNL     1     -31.789   8.246   2.493  1.00 20.00     0.128 C 
HETATM    5  C5  UNL     1     -32.641   9.202   1.673  1.00 20.00     0.040 C 
HETATM    6  O9  UNL     1     -33.061   7.684   5.677  1.00 20.00    -0.265 OA
HETATM    7  O10 UNL     1     -31.937   8.553   3.885  1.00 20.00    -0.316 OA
ENDROOT
BRANCH   3   8
HETATM    8  C7  UNL     1     -34.548   6.504   3.250  1.00 20.00     0.014 C 
BRANCH   8   9
HETATM    9  C8  UNL     1     -35.313   5.546   4.162  1.00 20.00    -0.004 C 
HETATM   10  C6  UNL     1     -34.469   4.342   4.544  1.00 20.00     0.005 C 
ENDBRANCH   8   9
ENDBRANCH   3   8
TORSDOF 2
ENDMDL
MODEL 3
REMARK VINA RESULT:      -4.3      2.052      3.519
REMARK  2 active torsions:
REMARK  status: ('A' for Active; 'I' for Inactive)
REMARK    1  A    between atoms: C3_3  and  C7_7 
REMARK    2  A    between atoms: C7_7  and  C8_8 
ROOT
HETATM    1  C1  UNL     1     -33.983   4.174   3.934  1.00 20.00     0.263 C 
HETATM    2  C2  UNL     1     -34.992   6.264   3.481  1.00 20.00     0.046 C 
HETATM    3  C3  UNL     1     -34.889   5.200   4.556  1.00 20.00     0.088 C 
HETATM    4  C4  UNL     1     -33.802   6.024   2.574  1.00 20.00     0.128 C 
HETATM    5  C5  UNL     1     -32.609   6.920   2.868  1.00 20.00     0.040 C 
HETATM    6  O9  UNL     1     -33.755   3.064   4.393  1.00 20.00    -0.265 OA
HETATM    7  O10 UNL     1     -33.431   4.655   2.784  1.00 20.00    -0.316 OA
ENDROOT
BRANCH   3   8
HETATM    8  C7  UNL     1     -34.320   5.710   5.869  1.00 20.00     0.014 C 
BRANCH   8   9
HETATM    9  C8  UNL     1     -34.346   7.236   5.940  1.00 20.00    -0.004 C 
HETATM   10  C6  UNL     1     -32.950   7.814   6.101  1.00 20.00     0.005 C 
ENDBRANCH   8   9
ENDBRANCH   3   8
TORSDOF 2
ENDMDL
MODEL 4
REMARK VINA RESULT:      -4.2     11.757     12.668
REMARK  2 active torsions:
REMARK  status: ('A' for Active; 'I' for Inactive)
REMARK    1  A    between atoms: C3_3  and  C7_7 
REMARK    2  A    between atoms: C7_7  and  C8_8 
ROOT
HETATM    1  C1  UNL     1     -36.347  13.629  -5.066  1.00 20.00     0.263 C 
HETATM    2  C2  UNL     1     -36.756  15.704  -4.006  1.00 20.00     0.046 C 
HETATM    3  C3  UNL     1     -35.640  14.878  -4.615  1.00 20.00     0.088 C 
HETATM    4  C4  UNL     1     -38.033  15.120  -4.575  1.00 20.00     0.128 C 
HETATM    5  C5  UNL     1     -38.584  15.881  -5.771  1.00 20.00     0.040 C 
HETATM    6  O9  UNL     1     -35.798  12.615  -5.471  1.00 20.00    -0.265 OA
HETATM    7  O10 UNL     1     -37.700  13.784  -4.974  1.00 20.00    -0.316 OA
ENDROOT
BRANCH   3   8
HETATM    8  C7  UNL     1     -34.937  15.558  -5.777  1.00 20.00     0.014 C 
BRANCH   8   9
HETATM    9  C8  UNL     1     -33.424  15.608  -5.569  1.00 20.00    -0.004 C 
HETATM   10  C6  UNL     1     -32.990  14.739  -4.401  1.00 20.00     0.005 C 
ENDBRANCH   8   9
ENDBRANCH   3   8
TORSDOF 2
ENDMDL
MODEL 5
REMARK VINA RESULT:      -4.2     11.607     13.009
REMARK  2 active torsions:
REMARK  status: ('A' for Active; 'I' for Inactive)
REMARK    1  A    between atoms: C3_3  and  C7_7 
REMARK    2  A    between atoms: C7_7  and  C8_8 
ROOT
HETATM    1  C1  UNL     1     -35.742  13.843  -5.525  1.00 20.00     0.263 C 
HETATM    2  C2  UNL     1     -35.729  16.208  -5.505  1.00 20.00     0.046 C 
HETATM    3  C3  UNL     1     -35.668  15.009  -4.578  1.00 20.00     0.088 C 
HETATM    4  C4  UNL     1     -35.346  15.671  -6.869  1.00 20.00     0.128 C 
HETATM    5  C5  UNL     1     -33.887  15.893  -7.235  1.00 20.00     0.040 C 
HETATM    6  O9  UNL     1     -35.885  12.675  -5.194  1.00 20.00    -0.265 OA
HETATM    7  O10 UNL     1     -35.614  14.264  -6.816  1.00 20.00    -0.316 OA
ENDROOT
BRANCH   3   8
HETATM    8  C7  UNL     1     -34.405  14.950  -3.736  1.00 20.00     0.014 C 
BRANCH   8   9
HETATM    9  C8  UNL     1     -33.926  16.347  -3.341  1.00 20.00    -0.004 C 
HETATM   10  C6  UNL     1     -34.481  16.769  -1.991  1.00 20.00     0.005 C 
ENDBRANCH   8   9
ENDBRANCH   3   8
TORSDOF 2
ENDMDL
MODEL 6
REMARK VINA RESULT:      -4.2     11.465     12.355
REMARK  2 active torsions:
REMARK  status: ('A' for Active; 'I' for Inactive)
REMARK    1  A    between atoms: C3_3  and  C7_7 
REMARK    2  A    between atoms: C7_7  and  C8_8 
ROOT
HETATM    1  C1  UNL     1     -33.613  14.166  -4.505  1.00 20.00     0.263 C 
HETATM    2  C2  UNL     1     -35.834  14.980  -4.518  1.00 20.00     0.046 C 
HETATM    3  C3  UNL     1     -34.539  15.066  -3.734  1.00 20.00     0.088 C 
HETATM    4  C4  UNL     1     -35.433  14.465  -5.886  1.00 20.00     0.128 C 
HETATM    5  C5  UNL     1     -35.269  15.555  -6.934  1.00 20.00     0.040 C 
HETATM    6  O9  UNL     1     -32.503  13.814  -4.136  1.00 20.00    -0.265 OA
HETATM    7  O10 UNL     1     -34.178  13.800  -5.692  1.00 20.00    -0.316 OA
ENDROOT
BRANCH   3   8
HETATM    8  C7  UNL     1     -33.976  16.473  -3.635  1.00 20.00     0.014 C 
BRANCH   8   9
HETATM    9  C8  UNL     1     -33.773  16.898  -2.180  1.00 20.00    -0.004 C 
HETATM   10  C6  UNL     1     -35.085  16.917  -1.414  1.00 20.00     0.005 C 
ENDBRANCH   8   9
ENDBRANCH   3   8
TORSDOF 2
ENDMDL
MODEL 7
REMARK VINA RESULT:      -4.1      1.105      1.671
REMARK  2 active torsions:
REMARK  status: ('A' for Active; 'I' for Inactive)
REMARK    1  A    between atoms: C3_3  and  C7_7 
REMARK    2  A    between atoms: C7_7  and  C8_8 
ROOT
HETATM    1  C1  UNL     1     -33.793   7.070   5.543  1.00 20.00     0.263 C 
HETATM    2  C2  UNL     1     -35.225   6.038   3.968  1.00 20.00     0.046 C 
HETATM    3  C3  UNL     1     -34.182   7.132   4.091  1.00 20.00     0.088 C 
HETATM    4  C4  UNL     1     -35.003   5.145   5.172  1.00 20.00     0.128 C 
HETATM    5  C5  UNL     1     -34.167   3.909   4.881  1.00 20.00     0.040 C 
HETATM    6  O9  UNL     1     -33.089   7.886   6.119  1.00 20.00    -0.265 OA
HETATM    7  O10 UNL     1     -34.324   5.962   6.135  1.00 20.00    -0.316 OA
ENDROOT
BRANCH   3   8
HETATM    8  C7  UNL     1     -32.974   6.930   3.192  1.00 20.00     0.014 C 
BRANCH   8   9
HETATM    9  C8  UNL     1     -33.305   6.039   1.995  1.00 20.00    -0.004 C 
HETATM   10  C6  UNL     1     -32.750   4.636   2.171  1.00 20.00     0.005 C 
ENDBRANCH   8   9
ENDBRANCH   3   8
TORSDOF 2
ENDMDL
MODEL 8
REMARK VINA RESULT:      -4.0     12.020     12.819
REMARK  2 active torsions:
REMARK  status: ('A' for Active; 'I' for Inactive)
REMARK    1  A    between atoms: C3_3  and  C7_7 
REMARK    2  A    between atoms: C7_7  and  C8_8 
ROOT
HETATM    1  C1  UNL     1     -33.644  16.570  -5.039  1.00 20.00     0.263 C 
HETATM    2  C2  UNL     1     -33.807  14.372  -4.182  1.00 20.00     0.046 C 
HETATM    3  C3  UNL     1     -33.876  15.825  -3.754  1.00 20.00     0.088 C 
HETATM    4  C4  UNL     1     -34.030  14.392  -5.681  1.00 20.00     0.128 C 
HETATM    5  C5  UNL     1     -35.461  14.092  -6.098  1.00 20.00     0.040 C 
HETATM    6  O9  UNL     1     -33.458  17.775  -5.132  1.00 20.00    -0.265 OA
HETATM    7  O10 UNL     1     -33.680  15.717  -6.103  1.00 20.00    -0.316 OA
ENDROOT
BRANCH   3   8
HETATM    8  C7  UNL     1     -35.204  16.216  -3.128  1.00 20.00     0.014 C 
BRANCH   8   9
HETATM    9  C8  UNL     1     -35.021  16.745  -1.705  1.00 20.00    -0.004 C 
HETATM   10  C6  UNL     1     -33.653  17.377  -1.513  1.00 20.00     0.005 C 
ENDBRANCH   8   9
ENDBRANCH   3   8
TORSDOF 2
ENDMDL
MODEL 9
REMARK VINA RESULT:      -4.0     11.710     12.794
REMARK  2 active torsions:
REMARK  status: ('A' for Active; 'I' for Inactive)
REMARK    1  A    between atoms: C3_3  and  C7_7 
REMARK    2  A    between atoms: C7_7  and  C8_8 
ROOT
HETATM    1  C1  UNL     1     -35.897  13.699  -4.843  1.00 20.00     0.263 C 
HETATM    2  C2  UNL     1     -35.290  15.664  -3.676  1.00 20.00     0.046 C 
HETATM    3  C3  UNL     1     -34.695  14.532  -4.490  1.00 20.00     0.088 C 
HETATM    4  C4  UNL     1     -36.763  15.672  -4.028  1.00 20.00     0.128 C 
HETATM    5  C5  UNL     1     -37.141  16.692  -5.090  1.00 20.00     0.040 C 
HETATM    6  O9  UNL     1     -35.861  12.594  -5.364  1.00 20.00    -0.265 OA
HETATM    7  O10 UNL     1     -37.048  14.353  -4.513  1.00 20.00    -0.316 OA
ENDROOT
BRANCH   3   8
HETATM    8  C7  UNL     1     -33.964  14.994  -5.739  1.00 20.00     0.014 C 
BRANCH   8   9
HETATM    9  C8  UNL     1     -33.444  16.423  -5.591  1.00 20.00    -0.004 C 
HETATM   10  C6  UNL     1     -33.882  17.302  -6.750  1.00 20.00     0.005 C 
ENDBRANCH   8   9
ENDBRANCH   3   8
TORSDOF 2
ENDMDL
