MODEL 1
REMARK VINA RESULT:      -4.1      0.000      0.000
REMARK  0 active torsions:
REMARK  status: ('A' for Active; 'I' for Inactive)
ROOT
HETATM    1  C1  UNL     1     -35.150   5.460   4.202  1.00 20.00     0.134 C 
HETATM    2  C2  UNL     1     -33.764   7.358   3.679  1.00 20.00     0.134 C 
HETATM    3  C3  UNL     1     -34.559   5.453   5.611  1.00 20.00     0.183 C 
HETATM    4  C4  UNL     1     -33.204   7.307   5.099  1.00 20.00     0.183 C 
HETATM    5  N5  UNL     1     -34.236   6.049   3.217  1.00 20.00    -0.224 NA
HETATM    6  O6  UNL     1     -34.178   6.773   5.996  1.00 20.00    -0.389 OA
HETATM    7 CL7  UNL     1     -32.922   4.962   2.757  1.00 20.00    -0.022 Cl
ENDROOT
TORSDOF 0
ENDMDL
MODEL 2
REMARK VINA RESULT:      -3.8      2.346      3.047
REMARK  0 active torsions:
REMARK  status: ('A' for Active; 'I' for Inactive)
ROOT
HETATM    1  C1  UNL     1     -33.625   7.313   3.274  1.00 20.00     0.134 C 
HETATM    2  C2  UNL     1     -35.058   5.659   4.279  1.00 20.00     0.134 C 
HETATM    3  C3  UNL     1     -32.621   6.207   2.956  1.00 20.00     0.183 C 
HETATM    4  C4  UNL     1     -34.021   4.592   3.938  1.00 20.00     0.183 C 
HETATM    5  N5  UNL     1     -34.461   6.989   4.436  1.00 20.00    -0.224 NA
HETATM    6  O6  UNL     1     -33.294   4.963   2.767  1.00 20.00    -0.389 OA
HETATM    7 CL7  UNL     1     -33.615   7.191   5.974  1.00 20.00    -0.022 Cl
ENDROOT
TORSDOF 0
ENDMDL
MODEL 3
REMARK VINA RESULT:      -3.5      1.562      1.886
REMARK  0 active torsions:
REMARK  status: ('A' for Active; 'I' for Inactive)
ROOT
HETATM    1  C1  UNL     1     -34.690   6.362   5.329  1.00 20.00     0.134 C 
HETATM    2  C2  UNL     1     -34.304   6.127   2.964  1.00 20.00     0.134 C 
HETATM    3  C3  UNL     1     -33.295   6.967   5.468  1.00 20.00     0.183 C 
HETATM    4  C4  UNL     1     -32.918   6.737   3.157  1.00 20.00     0.183 C 
HETATM    5  N5  UNL     1     -34.795   5.462   4.175  1.00 20.00    -0.224 NA
HETATM    6  O6  UNL     1     -32.922   7.638   4.264  1.00 20.00    -0.389 OA
HETATM    7 CL7  UNL     1     -34.043   3.888   4.455  1.00 20.00    -0.022 Cl
ENDROOT
TORSDOF 0
ENDMDL
MODEL 4
REMARK VINA RESULT:      -3.3      1.730      2.345
REMARK  0 active torsions:
REMARK  status: ('A' for Active; 'I' for Inactive)
ROOT
HETATM    1  C1  UNL     1     -33.325   5.952   3.231  1.00 20.00     0.134 C 
HETATM    2  C2  UNL     1     -34.190   5.820   5.474  1.00 20.00     0.134 C 
HETATM    3  C3  UNL     1     -32.968   7.415   3.486  1.00 20.00     0.183 C 
HETATM    4  C4  UNL     1     -33.813   7.285   5.678  1.00 20.00     0.183 C 
HETATM    5  N5  UNL     1     -34.443   5.498   4.066  1.00 20.00    -0.224 NA
HETATM    6  O6  UNL     1     -32.686   7.624   4.870  1.00 20.00    -0.389 OA
HETATM    7 CL7  UNL     1     -36.012   6.074   3.495  1.00 20.00    -0.022 Cl
ENDROOT
TORSDOF 0
ENDMDL
MODEL 5
REMARK VINA RESULT:      -3.1     12.780     13.363
REMARK  0 active torsions:
REMARK  status: ('A' for Active; 'I' for Inactive)
ROOT
HETATM    1  C1  UNL     1     -33.798  14.530  -5.046  1.00 20.00     0.134 C 
HETATM    2  C2  UNL     1     -34.385  13.748  -7.247  1.00 20.00     0.134 C 
HETATM    3  C3  UNL     1     -35.131  13.992  -4.531  1.00 20.00     0.183 C 
HETATM    4  C4  UNL     1     -35.704  13.228  -6.681  1.00 20.00     0.183 C 
HETATM    5  N5  UNL     1     -33.849  14.873  -6.472  1.00 20.00    -0.224 NA
HETATM    6  O6  UNL     1     -35.548  12.870  -5.308  1.00 20.00    -0.389 OA
HETATM    7 CL7  UNL     1     -34.689  16.394  -6.789  1.00 20.00    -0.022 Cl
ENDROOT
TORSDOF 0
ENDMDL
MODEL 6
REMARK VINA RESULT:      -2.9     12.423     12.889
REMARK  0 active torsions:
REMARK  status: ('A' for Active; 'I' for Inactive)
ROOT
HETATM    1  C1  UNL     1     -33.436  16.147  -4.625  1.00 20.00     0.134 C 
HETATM    2  C2  UNL     1     -35.728  15.416  -4.715  1.00 20.00     0.134 C 
HETATM    3  C3  UNL     1     -33.004  14.686  -4.516  1.00 20.00     0.183 C 
HETATM    4  C4  UNL     1     -35.244  13.972  -4.604  1.00 20.00     0.183 C 
HETATM    5  N5  UNL     1     -34.792  16.368  -4.109  1.00 20.00    -0.224 NA
HETATM    6  O6  UNL     1     -33.944  13.840  -5.177  1.00 20.00    -0.389 OA
HETATM    7 CL7  UNL     1     -34.866  16.384  -2.344  1.00 20.00    -0.022 Cl
ENDROOT
TORSDOF 0
ENDMDL
MODEL 7
REMARK VINA RESULT:      -2.9     12.761     13.504
REMARK  0 active torsions:
REMARK  status: ('A' for Active; 'I' for Inactive)
ROOT
HETATM    1  C1  UNL     1     -35.564  14.586  -7.312  1.00 20.00     0.134 C 
HETATM    2  C2  UNL     1     -35.545  15.239  -4.995  1.00 20.00     0.134 C 
HETATM    3  C3  UNL     1     -35.174  13.172  -6.887  1.00 20.00     0.183 C 
HETATM    4  C4  UNL     1     -35.155  13.811  -4.623  1.00 20.00     0.183 C 
HETATM    5  N5  UNL     1     -35.118  15.600  -6.351  1.00 20.00    -0.224 NA
HETATM    6  O6  UNL     1     -35.675  12.890  -5.581  1.00 20.00    -0.389 OA
HETATM    7 CL7  UNL     1     -33.389  15.947  -6.463  1.00 20.00    -0.022 Cl
ENDROOT
TORSDOF 0
ENDMDL
MODEL 8
REMARK VINA RESULT:      -2.9      1.960      2.518
REMARK  0 active torsions:
REMARK  status: ('A' for Active; 'I' for Inactive)
ROOT
HETATM    1  C1  UNL     1     -32.555   7.476   4.509  1.00 20.00     0.134 C 
HETATM    2  C2  UNL     1     -33.175   5.852   2.844  1.00 20.00     0.134 C 
HETATM    3  C3  UNL     1     -33.984   7.432   5.044  1.00 20.00     0.183 C 
HETATM    4  C4  UNL     1     -34.590   5.844   3.417  1.00 20.00     0.183 C 
HETATM    5  N5  UNL     1     -32.479   7.120   3.088  1.00 20.00    -0.224 NA
HETATM    6  O6  UNL     1     -34.562   6.148   4.811  1.00 20.00    -0.389 OA
HETATM    7 CL7  UNL     1     -33.015   8.420   2.019  1.00 20.00    -0.022 Cl
ENDROOT
TORSDOF 0
ENDMDL
MODEL 9
REMARK VINA RESULT:      -2.9     12.714     13.475
REMARK  0 active torsions:
REMARK  status: ('A' for Active; 'I' for Inactive)
ROOT
HETATM    1  C1  UNL     1     -34.356  13.883  -6.784  1.00 20.00     0.134 C 
HETATM    2  C2  UNL     1     -33.515  14.411  -4.591  1.00 20.00     0.134 C 
HETATM    3  C3  UNL     1     -34.193  15.352  -7.169  1.00 20.00     0.183 C 
HETATM    4  C4  UNL     1     -33.371  15.867  -5.026  1.00 20.00     0.183 C 
HETATM    5  N5  UNL     1     -34.558  13.703  -5.342  1.00 20.00    -0.224 NA
HETATM    6  O6  UNL     1     -33.125  15.943  -6.430  1.00 20.00    -0.389 OA
HETATM    7 CL7  UNL     1     -36.192  14.116  -4.815  1.00 20.00    -0.022 Cl
ENDROOT
TORSDOF 0
ENDMDL
