MODEL 1
REMARK VINA RESULT:      -5.9      0.000      0.000
REMARK  3 active torsions:
REMARK  status: ('A' for Active; 'I' for Inactive)
REMARK    1  A    between atoms: C2_2  and  C3_3 
REMARK    2  A    between atoms: C2_2  and  C4_4 
REMARK    3  A    between atoms: C3_3  and  O5_5 
ROOT
HETATM    1  C2  UNL     1     -33.499   5.775   3.713  1.00 20.00     0.379 C 
HETATM    2  F6  UNL     1     -33.711   5.554   2.385  1.00 20.00    -0.231 F 
ENDROOT
BRANCH   1   3
HETATM    3  C3  UNL     1     -33.158   7.241   3.893  1.00 20.00     0.393 C 
HETATM    4  F7  UNL     1     -32.941   7.493   5.208  1.00 20.00    -0.172 F 
HETATM    5  F8  UNL     1     -34.194   8.017   3.491  1.00 20.00    -0.172 F 
BRANCH   3   6
HETATM    6  O5  UNL     1     -31.992   7.594   3.159  1.00 20.00    -0.329 OA
HETATM    7  C1  UNL     1     -32.266   8.493   2.095  1.00 20.00     0.208 C 
ENDBRANCH   3   6
ENDBRANCH   1   3
BRANCH   1   8
HETATM    8  C4  UNL     1     -34.741   5.337   4.458  1.00 20.00     0.426 C 
HETATM    9  F9  UNL     1     -34.830   3.988   4.473  1.00 20.00    -0.168 F 
HETATM   10  F10 UNL     1     -35.862   5.811   3.876  1.00 20.00    -0.168 F 
HETATM   11  F11 UNL     1     -34.724   5.763   5.739  1.00 20.00    -0.168 F 
ENDBRANCH   1   8
TORSDOF 3
ENDMDL
MODEL 2
REMARK VINA RESULT:      -5.7      1.144      2.152
REMARK  3 active torsions:
REMARK  status: ('A' for Active; 'I' for Inactive)
REMARK    1  A    between atoms: C2_2  and  C3_3 
REMARK    2  A    between atoms: C2_2  and  C4_4 
REMARK    3  A    between atoms: C3_3  and  O5_5 
ROOT
HETATM    1  C2  UNL     1     -33.727   4.867   4.140  1.00 20.00     0.379 C 
HETATM    2  F6  UNL     1     -34.262   3.634   3.916  1.00 20.00    -0.231 F 
ENDROOT
BRANCH   1   3
HETATM    3  C3  UNL     1     -33.284   5.432   2.805  1.00 20.00     0.393 C 
HETATM    4  F7  UNL     1     -34.360   5.938   2.152  1.00 20.00    -0.172 F 
HETATM    5  F8  UNL     1     -32.758   4.451   2.032  1.00 20.00    -0.172 F 
BRANCH   3   6
HETATM    6  O5  UNL     1     -32.322   6.466   2.975  1.00 20.00    -0.329 OA
HETATM    7  C1  UNL     1     -32.725   7.690   2.378  1.00 20.00     0.208 C 
ENDBRANCH   3   6
ENDBRANCH   1   3
BRANCH   1   8
HETATM    8  C4  UNL     1     -34.773   5.703   4.845  1.00 20.00     0.426 C 
HETATM    9  F9  UNL     1     -35.127   5.127   6.015  1.00 20.00    -0.168 F 
HETATM   10  F10 UNL     1     -35.891   5.829   4.101  1.00 20.00    -0.168 F 
HETATM   11  F11 UNL     1     -34.312   6.942   5.118  1.00 20.00    -0.168 F 
ENDBRANCH   1   8
TORSDOF 3
ENDMDL
MODEL 3
REMARK VINA RESULT:      -5.7      1.070      2.154
REMARK  3 active torsions:
REMARK  status: ('A' for Active; 'I' for Inactive)
REMARK    1  A    between atoms: C2_2  and  C3_3 
REMARK    2  A    between atoms: C2_2  and  C4_4 
REMARK    3  A    between atoms: C3_3  and  O5_5 
ROOT
HETATM    1  C2  UNL     1     -33.955   6.987   4.274  1.00 20.00     0.379 C 
HETATM    2  F6  UNL     1     -33.000   7.236   5.214  1.00 20.00    -0.231 F 
ENDROOT
BRANCH   1   3
HETATM    3  C3  UNL     1     -33.274   6.930   2.921  1.00 20.00     0.393 C 
HETATM    4  F7  UNL     1     -34.029   6.191   2.070  1.00 20.00    -0.172 F 
HETATM    5  F8  UNL     1     -32.065   6.327   3.029  1.00 20.00    -0.172 F 
BRANCH   3   6
HETATM    6  O5  UNL     1     -33.105   8.232   2.373  1.00 20.00    -0.329 OA
HETATM    7  C1  UNL     1     -31.786   8.456   1.895  1.00 20.00     0.208 C 
ENDBRANCH   3   6
ENDBRANCH   1   3
BRANCH   1   8
HETATM    8  C4  UNL     1     -34.660   5.706   4.662  1.00 20.00     0.426 C 
HETATM    9  F9  UNL     1     -35.879   5.644   4.081  1.00 20.00    -0.168 F 
HETATM   10  F10 UNL     1     -34.844   5.624   5.996  1.00 20.00    -0.168 F 
HETATM   11  F11 UNL     1     -33.962   4.619   4.270  1.00 20.00    -0.168 F 
ENDBRANCH   1   8
TORSDOF 3
ENDMDL
MODEL 4
REMARK VINA RESULT:      -5.6      1.243      2.026
REMARK  3 active torsions:
REMARK  status: ('A' for Active; 'I' for Inactive)
REMARK    1  A    between atoms: C2_2  and  C3_3 
REMARK    2  A    between atoms: C2_2  and  C4_4 
REMARK    3  A    between atoms: C3_3  and  O5_5 
ROOT
HETATM    1  C2  UNL     1     -33.880   7.144   4.094  1.00 20.00     0.379 C 
HETATM    2  F6  UNL     1     -33.540   6.914   5.394  1.00 20.00    -0.231 F 
ENDROOT
BRANCH   1   3
HETATM    3  C3  UNL     1     -32.622   7.542   3.347  1.00 20.00     0.393 C 
HETATM    4  F7  UNL     1     -32.023   6.429   2.854  1.00 20.00    -0.172 F 
HETATM    5  F8  UNL     1     -31.746   8.141   4.189  1.00 20.00    -0.172 F 
BRANCH   3   6
HETATM    6  O5  UNL     1     -32.917   8.421   2.269  1.00 20.00    -0.329 OA
HETATM    7  C1  UNL     1     -31.793   8.658   1.434  1.00 20.00     0.208 C 
ENDBRANCH   3   6
ENDBRANCH   1   3
BRANCH   1   8
HETATM    8  C4  UNL     1     -34.541   5.892   3.561  1.00 20.00     0.426 C 
HETATM    9  F9  UNL     1     -34.463   5.855   2.212  1.00 20.00    -0.168 F 
HETATM   10  F10 UNL     1     -35.848   5.843   3.892  1.00 20.00    -0.168 F 
HETATM   11  F11 UNL     1     -33.948   4.778   4.039  1.00 20.00    -0.168 F 
ENDBRANCH   1   8
TORSDOF 3
ENDMDL
MODEL 5
REMARK VINA RESULT:      -5.3      1.855      3.667
REMARK  3 active torsions:
REMARK  status: ('A' for Active; 'I' for Inactive)
REMARK    1  A    between atoms: C2_2  and  C3_3 
REMARK    2  A    between atoms: C2_2  and  C4_4 
REMARK    3  A    between atoms: C3_3  and  O5_5 
ROOT
HETATM    1  C2  UNL     1     -33.471   6.240   2.668  1.00 20.00     0.379 C 
HETATM    2  F6  UNL     1     -32.581   5.209   2.724  1.00 20.00    -0.231 F 
ENDROOT
BRANCH   1   3
HETATM    3  C3  UNL     1     -34.491   6.036   3.771  1.00 20.00     0.393 C 
HETATM    4  F7  UNL     1     -35.740   6.147   3.252  1.00 20.00    -0.172 F 
HETATM    5  F8  UNL     1     -34.354   6.993   4.720  1.00 20.00    -0.172 F 
BRANCH   3   6
HETATM    6  O5  UNL     1     -34.355   4.753   4.370  1.00 20.00    -0.329 OA
HETATM    7  C1  UNL     1     -34.522   4.788   5.780  1.00 20.00     0.208 C 
ENDBRANCH   3   6
ENDBRANCH   1   3
BRANCH   1   8
HETATM    8  C4  UNL     1     -32.690   7.530   2.784  1.00 20.00     0.426 C 
HETATM    9  F9  UNL     1     -31.773   7.617   1.795  1.00 20.00    -0.168 F 
HETATM   10  F10 UNL     1     -32.029   7.606   3.957  1.00 20.00    -0.168 F 
HETATM   11  F11 UNL     1     -33.499   8.607   2.691  1.00 20.00    -0.168 F 
ENDBRANCH   1   8
TORSDOF 3
ENDMDL
MODEL 6
REMARK VINA RESULT:      -5.3      1.904      3.906
REMARK  3 active torsions:
REMARK  status: ('A' for Active; 'I' for Inactive)
REMARK    1  A    between atoms: C2_2  and  C3_3 
REMARK    2  A    between atoms: C2_2  and  C4_4 
REMARK    3  A    between atoms: C3_3  and  O5_5 
ROOT
HETATM    1  C2  UNL     1     -33.121   6.955   3.809  1.00 20.00     0.379 C 
HETATM    2  F6  UNL     1     -34.051   7.706   4.464  1.00 20.00    -0.231 F 
ENDROOT
BRANCH   1   3
HETATM    3  C3  UNL     1     -33.845   5.823   3.108  1.00 20.00     0.393 C 
HETATM    4  F7  UNL     1     -32.973   4.812   2.871  1.00 20.00    -0.172 F 
HETATM    5  F8  UNL     1     -34.323   6.242   1.911  1.00 20.00    -0.172 F 
BRANCH   3   6
HETATM    6  O5  UNL     1     -34.919   5.328   3.898  1.00 20.00    -0.329 OA
HETATM    7  C1  UNL     1     -34.489   4.402   4.885  1.00 20.00     0.208 C 
ENDBRANCH   3   6
ENDBRANCH   1   3
BRANCH   1   8
HETATM    8  C4  UNL     1     -32.361   7.871   2.876  1.00 20.00     0.426 C 
HETATM    9  F9  UNL     1     -31.401   8.542   3.551  1.00 20.00    -0.168 F 
HETATM   10  F10 UNL     1     -33.174   8.788   2.310  1.00 20.00    -0.168 F 
HETATM   11  F11 UNL     1     -31.761   7.179   1.885  1.00 20.00    -0.168 F 
ENDBRANCH   1   8
TORSDOF 3
ENDMDL
MODEL 7
REMARK VINA RESULT:      -5.3      1.719      3.322
REMARK  3 active torsions:
REMARK  status: ('A' for Active; 'I' for Inactive)
REMARK    1  A    between atoms: C2_2  and  C3_3 
REMARK    2  A    between atoms: C2_2  and  C4_4 
REMARK    3  A    between atoms: C3_3  and  O5_5 
ROOT
HETATM    1  C2  UNL     1     -33.974   5.871   5.294  1.00 20.00     0.379 C 
HETATM    2  F6  UNL     1     -34.836   5.712   6.337  1.00 20.00    -0.231 F 
ENDROOT
BRANCH   1   3
HETATM    3  C3  UNL     1     -34.613   5.260   4.063  1.00 20.00     0.393 C 
HETATM    4  F7  UNL     1     -35.897   5.685   3.967  1.00 20.00    -0.172 F 
HETATM    5  F8  UNL     1     -34.633   3.909   4.167  1.00 20.00    -0.172 F 
BRANCH   3   6
HETATM    6  O5  UNL     1     -33.916   5.631   2.880  1.00 20.00    -0.329 OA
HETATM    7  C1  UNL     1     -32.875   4.724   2.551  1.00 20.00     0.208 C 
ENDBRANCH   3   6
ENDBRANCH   1   3
BRANCH   1   8
HETATM    8  C4  UNL     1     -33.676   7.349   5.163  1.00 20.00     0.426 C 
HETATM    9  F9  UNL     1     -33.844   7.971   6.351  1.00 20.00    -0.168 F 
HETATM   10  F10 UNL     1     -34.500   7.944   4.275  1.00 20.00    -0.168 F 
HETATM   11  F11 UNL     1     -32.405   7.563   4.761  1.00 20.00    -0.168 F 
ENDBRANCH   1   8
TORSDOF 3
ENDMDL
MODEL 8
REMARK VINA RESULT:      -5.2      2.015      3.089
REMARK  3 active torsions:
REMARK  status: ('A' for Active; 'I' for Inactive)
REMARK    1  A    between atoms: C2_2  and  C3_3 
REMARK    2  A    between atoms: C2_2  and  C4_4 
REMARK    3  A    between atoms: C3_3  and  O5_5 
ROOT
HETATM    1  C2  UNL     1     -34.158   4.599   3.779  1.00 20.00     0.379 C 
HETATM    2  F6  UNL     1     -33.337   3.955   4.656  1.00 20.00    -0.231 F 
ENDROOT
BRANCH   1   3
HETATM    3  C3  UNL     1     -34.890   5.687   4.538  1.00 20.00     0.393 C 
HETATM    4  F7  UNL     1     -35.139   5.262   5.802  1.00 20.00    -0.172 F 
HETATM    5  F8  UNL     1     -36.083   5.949   3.950  1.00 20.00    -0.172 F 
BRANCH   3   6
HETATM    6  O5  UNL     1     -34.121   6.882   4.598  1.00 20.00    -0.329 OA
HETATM    7  C1  UNL     1     -33.756   7.231   5.925  1.00 20.00     0.208 C 
ENDBRANCH   3   6
ENDBRANCH   1   3
BRANCH   1   8
HETATM    8  C4  UNL     1     -33.306   5.111   2.639  1.00 20.00     0.426 C 
HETATM    9  F9  UNL     1     -32.809   4.079   1.920  1.00 20.00    -0.168 F 
HETATM   10  F10 UNL     1     -32.258   5.832   3.087  1.00 20.00    -0.168 F 
HETATM   11  F11 UNL     1     -34.020   5.891   1.799  1.00 20.00    -0.168 F 
ENDBRANCH   1   8
TORSDOF 3
ENDMDL
MODEL 9
REMARK VINA RESULT:      -4.9      2.168      4.147
REMARK  3 active torsions:
REMARK  status: ('A' for Active; 'I' for Inactive)
REMARK    1  A    between atoms: C2_2  and  C3_3 
REMARK    2  A    between atoms: C2_2  and  C4_4 
REMARK    3  A    between atoms: C3_3  and  O5_5 
ROOT
HETATM    1  C2  UNL     1     -31.842   7.819   3.011  1.00 20.00     0.379 C 
HETATM    2  F6  UNL     1     -31.183   8.644   3.873  1.00 20.00    -0.231 F 
ENDROOT
BRANCH   1   3
HETATM    3  C3  UNL     1     -33.116   7.356   3.690  1.00 20.00     0.393 C 
HETATM    4  F7  UNL     1     -33.392   6.085   3.307  1.00 20.00    -0.172 F 
HETATM    5  F8  UNL     1     -34.158   8.136   3.312  1.00 20.00    -0.172 F 
BRANCH   3   6
HETATM    6  O5  UNL     1     -32.989   7.393   5.106  1.00 20.00    -0.329 OA
HETATM    7  C1  UNL     1     -34.072   6.758   5.768  1.00 20.00     0.208 C 
ENDBRANCH   3   6
ENDBRANCH   1   3
BRANCH   1   8
HETATM    8  C4  UNL     1     -32.072   8.582   1.725  1.00 20.00     0.426 C 
HETATM    9  F9  UNL     1     -33.174   8.121   1.094  1.00 20.00    -0.168 F 
HETATM   10  F10 UNL     1     -31.033   8.448   0.875  1.00 20.00    -0.168 F 
HETATM   11  F11 UNL     1     -32.252   9.900   1.959  1.00 20.00    -0.168 F 
ENDBRANCH   1   8
TORSDOF 3
ENDMDL
