MODEL 1
REMARK VINA RESULT:      -4.1      0.000      0.000
REMARK  0 active torsions:
REMARK  status: ('A' for Active; 'I' for Inactive)
REMARK       I    between atoms: C2_2  and  N4_4 
ROOT
HETATM    1  C1  UNL     1     -33.780   6.599   3.327  1.00 20.00     0.166 C 
HETATM    2  C2  UNL     1     -34.552   4.920   4.501  1.00 20.00     0.240 C 
HETATM    3  C3  UNL     1     -34.641   5.284   5.949  1.00 20.00     0.119 C 
HETATM    4  N4  UNL     1     -34.730   5.989   3.650  1.00 20.00    -0.200 NA
HETATM    5  O5  UNL     1     -34.339   3.751   4.198  1.00 20.00    -0.272 OA
HETATM    6  S6  UNL     1     -32.514   7.448   2.867  1.00 20.00    -0.055 SA
ENDROOT
TORSDOF 0
ENDMDL
MODEL 2
REMARK VINA RESULT:      -3.5      2.806      3.074
REMARK  0 active torsions:
REMARK  status: ('A' for Active; 'I' for Inactive)
REMARK       I    between atoms: C2_2  and  N4_4 
ROOT
HETATM    1  C1  UNL     1     -32.230   8.432   2.175  1.00 20.00     0.166 C 
HETATM    2  C2  UNL     1     -33.176   7.001   3.536  1.00 20.00     0.240 C 
HETATM    3  C3  UNL     1     -33.545   5.747   2.811  1.00 20.00     0.119 C 
HETATM    4  N4  UNL     1     -32.065   7.632   3.019  1.00 20.00    -0.200 NA
HETATM    5  O5  UNL     1     -33.860   7.353   4.492  1.00 20.00    -0.272 OA
HETATM    6  S6  UNL     1     -32.416   9.522   1.029  1.00 20.00    -0.055 SA
ENDROOT
TORSDOF 0
ENDMDL
MODEL 3
REMARK VINA RESULT:      -3.5      4.121      5.040
REMARK  0 active torsions:
REMARK  status: ('A' for Active; 'I' for Inactive)
REMARK       I    between atoms: C2_2  and  N4_4 
ROOT
HETATM    1  C1  UNL     1     -32.626   7.553   2.789  1.00 20.00     0.166 C 
HETATM    2  C2  UNL     1     -31.904   9.012   1.325  1.00 20.00     0.240 C 
HETATM    3  C3  UNL     1     -32.884  10.130   1.165  1.00 20.00     0.119 C 
HETATM    4  N4  UNL     1     -31.902   8.455   2.586  1.00 20.00    -0.200 NA
HETATM    5  O5  UNL     1     -31.209   8.694   0.366  1.00 20.00    -0.272 OA
HETATM    6  S6  UNL     1     -33.596   6.329   3.101  1.00 20.00    -0.055 SA
ENDROOT
TORSDOF 0
ENDMDL
MODEL 4
REMARK VINA RESULT:      -3.3      3.147      3.819
REMARK  0 active torsions:
REMARK  status: ('A' for Active; 'I' for Inactive)
REMARK       I    between atoms: C2_2  and  N4_4 
ROOT
HETATM    1  C1  UNL     1     -33.688   6.114   3.319  1.00 20.00     0.166 C 
HETATM    2  C2  UNL     1     -32.419   7.721   2.544  1.00 20.00     0.240 C 
HETATM    3  C3  UNL     1     -31.527   8.255   3.619  1.00 20.00     0.119 C 
HETATM    4  N4  UNL     1     -32.730   6.387   2.696  1.00 20.00    -0.200 NA
HETATM    5  O5  UNL     1     -32.785   8.478   1.651  1.00 20.00    -0.272 OA
HETATM    6  S6  UNL     1     -34.979   5.706   4.157  1.00 20.00    -0.055 SA
ENDROOT
TORSDOF 0
ENDMDL
MODEL 5
REMARK VINA RESULT:      -3.2     12.256     12.539
REMARK  0 active torsions:
REMARK  status: ('A' for Active; 'I' for Inactive)
REMARK       I    between atoms: C2_2  and  N4_4 
ROOT
HETATM    1  C1  UNL     1     -34.436  14.576  -4.111  1.00 20.00     0.166 C 
HETATM    2  C2  UNL     1     -35.932  13.477  -5.272  1.00 20.00     0.240 C 
HETATM    3  C3  UNL     1     -35.522  13.380  -6.706  1.00 20.00     0.119 C 
HETATM    4  N4  UNL     1     -34.871  13.522  -4.394  1.00 20.00    -0.200 NA
HETATM    5  O5  UNL     1     -37.128  13.506  -5.001  1.00 20.00    -0.272 OA
HETATM    6  S6  UNL     1     -33.822  15.988  -3.705  1.00 20.00    -0.055 SA
ENDROOT
TORSDOF 0
ENDMDL
MODEL 6
REMARK VINA RESULT:      -3.1     12.810     13.090
REMARK  0 active torsions:
REMARK  status: ('A' for Active; 'I' for Inactive)
REMARK       I    between atoms: C2_2  and  N4_4 
ROOT
HETATM    1  C1  UNL     1     -37.773  14.549  -5.564  1.00 20.00     0.166 C 
HETATM    2  C2  UNL     1     -35.926  13.423  -5.229  1.00 20.00     0.240 C 
HETATM    3  C3  UNL     1     -34.980  14.201  -4.371  1.00 20.00     0.119 C 
HETATM    4  N4  UNL     1     -37.253  13.682  -4.966  1.00 20.00    -0.200 NA
HETATM    5  O5  UNL     1     -35.465  12.649  -6.062  1.00 20.00    -0.272 OA
HETATM    6  S6  UNL     1     -38.510  15.717  -6.357  1.00 20.00    -0.055 SA
ENDROOT
TORSDOF 0
ENDMDL
MODEL 7
REMARK VINA RESULT:      -3.1      1.808      1.865
REMARK  0 active torsions:
REMARK  status: ('A' for Active; 'I' for Inactive)
REMARK       I    between atoms: C2_2  and  N4_4 
ROOT
HETATM    1  C1  UNL     1     -34.033   5.567   3.345  1.00 20.00     0.166 C 
HETATM    2  C2  UNL     1     -34.520   6.004   5.434  1.00 20.00     0.240 C 
HETATM    3  C3  UNL     1     -33.796   7.226   5.901  1.00 20.00     0.119 C 
HETATM    4  N4  UNL     1     -34.821   6.020   4.089  1.00 20.00    -0.200 NA
HETATM    5  O5  UNL     1     -34.780   5.124   6.248  1.00 20.00    -0.272 OA
HETATM    6  S6  UNL     1     -32.989   4.962   2.306  1.00 20.00    -0.055 SA
ENDROOT
TORSDOF 0
ENDMDL
MODEL 8
REMARK VINA RESULT:      -3.0      2.849      3.620
REMARK  0 active torsions:
REMARK  status: ('A' for Active; 'I' for Inactive)
REMARK       I    between atoms: C2_2  and  N4_4 
ROOT
HETATM    1  C1  UNL     1     -34.199   6.105   4.201  1.00 20.00     0.166 C 
HETATM    2  C2  UNL     1     -32.785   7.644   3.548  1.00 20.00     0.240 C 
HETATM    3  C3  UNL     1     -32.602   7.599   2.065  1.00 20.00     0.119 C 
HETATM    4  N4  UNL     1     -34.036   7.244   3.964  1.00 20.00    -0.200 NA
HETATM    5  O5  UNL     1     -31.848   8.018   4.247  1.00 20.00    -0.272 OA
HETATM    6  S6  UNL     1     -34.455   4.568   4.531  1.00 20.00    -0.055 SA
ENDROOT
TORSDOF 0
ENDMDL
MODEL 9
REMARK VINA RESULT:      -3.0     12.408     12.640
REMARK  0 active torsions:
REMARK  status: ('A' for Active; 'I' for Inactive)
REMARK       I    between atoms: C2_2  and  N4_4 
ROOT
HETATM    1  C1  UNL     1     -35.610  13.691  -5.951  1.00 20.00     0.166 C 
HETATM    2  C2  UNL     1     -34.268  14.117  -4.275  1.00 20.00     0.240 C 
HETATM    3  C3  UNL     1     -34.682  15.370  -3.572  1.00 20.00     0.119 C 
HETATM    4  N4  UNL     1     -35.317  13.429  -4.845  1.00 20.00    -0.200 NA
HETATM    5  O5  UNL     1     -33.079  13.814  -4.289  1.00 20.00    -0.272 OA
HETATM    6  S6  UNL     1     -36.034  14.019  -7.451  1.00 20.00    -0.055 SA
ENDROOT
TORSDOF 0
ENDMDL
