MODEL 1
REMARK VINA RESULT:      -5.6      0.000      0.000
REMARK  0 active torsions:
REMARK  status: ('A' for Active; 'I' for Inactive)
ROOT
HETATM    1  C1  UNL     1     -32.407   8.740   1.501  1.00 20.00     0.014 C 
HETATM    2  C2  UNL     1     -32.781   7.935   2.309  1.00 20.00    -0.091 C 
HETATM    3  C3  UNL     1     -34.564   5.657   5.488  1.00 20.00     0.000 C 
HETATM    4  C4  UNL     1     -35.302   5.677   4.149  1.00 20.00     0.003 C 
HETATM    5  C5  UNL     1     -33.903   6.991   5.798  1.00 20.00     0.003 C 
HETATM    6  C6  UNL     1     -34.747   6.698   3.150  1.00 20.00     0.039 C 
HETATM    7  C7  UNL     1     -32.890   7.415   4.728  1.00 20.00     0.039 C 
HETATM    8  C8  UNL     1     -33.240   6.947   3.300  1.00 20.00     0.099 C 
HETATM    9 CL9  UNL     1     -32.343   5.430   2.914  1.00 20.00    -0.105 Cl
ENDROOT
TORSDOF 0
ENDMDL
MODEL 2
REMARK VINA RESULT:      -4.9      1.633      2.157
REMARK  0 active torsions:
REMARK  status: ('A' for Active; 'I' for Inactive)
ROOT
HETATM    1  C1  UNL     1     -32.172   8.037   2.052  1.00 20.00     0.014 C 
HETATM    2  C2  UNL     1     -32.887   7.314   2.689  1.00 20.00    -0.091 C 
HETATM    3  C3  UNL     1     -34.765   4.472   5.310  1.00 20.00     0.000 C 
HETATM    4  C4  UNL     1     -34.580   5.893   5.844  1.00 20.00     0.003 C 
HETATM    5  C5  UNL     1     -33.603   4.033   4.434  1.00 20.00     0.003 C 
HETATM    6  C6  UNL     1     -33.690   6.775   4.962  1.00 20.00     0.039 C 
HETATM    7  C7  UNL     1     -33.393   4.949   3.222  1.00 20.00     0.039 C 
HETATM    8  C8  UNL     1     -33.764   6.426   3.470  1.00 20.00     0.099 C 
HETATM    9 CL9  UNL     1     -35.433   6.748   2.863  1.00 20.00    -0.105 Cl
ENDROOT
TORSDOF 0
ENDMDL
MODEL 3
REMARK VINA RESULT:      -4.2     11.214     12.278
REMARK  0 active torsions:
REMARK  status: ('A' for Active; 'I' for Inactive)
ROOT
HETATM    1  C1  UNL     1     -34.344  16.609  -2.405  1.00 20.00     0.014 C 
HETATM    2  C2  UNL     1     -34.234  15.897  -3.364  1.00 20.00    -0.091 C 
HETATM    3  C3  UNL     1     -34.563  13.635  -7.004  1.00 20.00     0.000 C 
HETATM    4  C4  UNL     1     -33.916  15.016  -7.101  1.00 20.00     0.003 C 
HETATM    5  C5  UNL     1     -35.699  13.603  -5.994  1.00 20.00     0.003 C 
HETATM    6  C6  UNL     1     -34.056  15.857  -5.828  1.00 20.00     0.039 C 
HETATM    7  C7  UNL     1     -35.250  13.994  -4.581  1.00 20.00     0.039 C 
HETATM    8  C8  UNL     1     -34.100  15.022  -4.542  1.00 20.00     0.099 C 
HETATM    9 CL9  UNL     1     -32.523  14.172  -4.328  1.00 20.00    -0.105 Cl
ENDROOT
TORSDOF 0
ENDMDL
MODEL 4
REMARK VINA RESULT:      -4.1      1.452      1.915
REMARK  0 active torsions:
REMARK  status: ('A' for Active; 'I' for Inactive)
ROOT
HETATM    1  C1  UNL     1     -32.270   8.763   1.459  1.00 20.00     0.014 C 
HETATM    2  C2  UNL     1     -32.721   8.000   2.269  1.00 20.00    -0.091 C 
HETATM    3  C3  UNL     1     -34.758   4.979   4.549  1.00 20.00     0.000 C 
HETATM    4  C4  UNL     1     -33.426   4.587   3.909  1.00 20.00     0.003 C 
HETATM    5  C5  UNL     1     -35.559   5.926   3.670  1.00 20.00     0.003 C 
HETATM    6  C6  UNL     1     -32.886   5.623   2.917  1.00 20.00     0.039 C 
HETATM    7  C7  UNL     1     -34.808   7.225   3.354  1.00 20.00     0.039 C 
HETATM    8  C8  UNL     1     -33.276   7.065   3.262  1.00 20.00     0.099 C 
HETATM    9 CL9  UNL     1     -32.516   7.530   4.831  1.00 20.00    -0.105 Cl
ENDROOT
TORSDOF 0
ENDMDL
MODEL 5
REMARK VINA RESULT:      -3.9     11.423     12.336
REMARK  0 active torsions:
REMARK  status: ('A' for Active; 'I' for Inactive)
ROOT
HETATM    1  C1  UNL     1     -34.652  13.582  -7.170  1.00 20.00     0.014 C 
HETATM    2  C2  UNL     1     -34.324  14.231  -6.216  1.00 20.00    -0.091 C 
HETATM    3  C3  UNL     1     -33.676  17.097  -3.078  1.00 20.00     0.000 C 
HETATM    4  C4  UNL     1     -34.770  16.054  -2.851  1.00 20.00     0.003 C 
HETATM    5  C5  UNL     1     -33.601  17.542  -4.530  1.00 20.00     0.003 C 
HETATM    6  C6  UNL     1     -35.111  15.231  -4.099  1.00 20.00     0.039 C 
HETATM    7  C7  UNL     1     -33.328  16.381  -5.495  1.00 20.00     0.039 C 
HETATM    8  C8  UNL     1     -33.921  15.029  -5.045  1.00 20.00     0.099 C 
HETATM    9 CL9  UNL     1     -32.655  14.051  -4.213  1.00 20.00    -0.105 Cl
ENDROOT
TORSDOF 0
ENDMDL
MODEL 6
REMARK VINA RESULT:      -3.9     11.670     12.259
REMARK  0 active torsions:
REMARK  status: ('A' for Active; 'I' for Inactive)
ROOT
HETATM    1  C1  UNL     1     -34.710  14.943  -3.973  1.00 20.00     0.014 C 
HETATM    2  C2  UNL     1     -34.642  15.912  -3.267  1.00 20.00    -0.091 C 
HETATM    3  C3  UNL     1     -34.199  18.855  -0.166  1.00 20.00     0.000 C 
HETATM    4  C4  UNL     1     -32.954  18.518  -0.987  1.00 20.00     0.003 C 
HETATM    5  C5  UNL     1     -35.074  17.636   0.074  1.00 20.00     0.003 C 
HETATM    6  C6  UNL     1     -33.123  17.296  -1.897  1.00 20.00     0.039 C 
HETATM    7  C7  UNL     1     -35.553  16.981  -1.227  1.00 20.00     0.039 C 
HETATM    8  C8  UNL     1     -34.559  17.100  -2.401  1.00 20.00     0.099 C 
HETATM    9 CL9  UNL     1     -35.017  18.492  -3.454  1.00 20.00    -0.105 Cl
ENDROOT
TORSDOF 0
ENDMDL
MODEL 7
REMARK VINA RESULT:      -3.8     11.523     12.196
REMARK  0 active torsions:
REMARK  status: ('A' for Active; 'I' for Inactive)
ROOT
HETATM    1  C1  UNL     1     -32.802  17.896  -1.368  1.00 20.00     0.014 C 
HETATM    2  C2  UNL     1     -33.447  17.365  -2.230  1.00 20.00    -0.091 C 
HETATM    3  C3  UNL     1     -35.775  14.840  -4.814  1.00 20.00     0.000 C 
HETATM    4  C4  UNL     1     -36.543  15.725  -3.833  1.00 20.00     0.003 C 
HETATM    5  C5  UNL     1     -34.478  14.316  -4.220  1.00 20.00     0.003 C 
HETATM    6  C6  UNL     1     -35.654  16.405  -2.785  1.00 20.00     0.039 C 
HETATM    7  C7  UNL     1     -33.528  15.437  -3.782  1.00 20.00     0.039 C 
HETATM    8  C8  UNL     1     -34.238  16.714  -3.288  1.00 20.00     0.099 C 
HETATM    9 CL9  UNL     1     -34.331  17.921  -4.626  1.00 20.00    -0.105 Cl
ENDROOT
TORSDOF 0
ENDMDL
MODEL 8
REMARK VINA RESULT:      -3.8     11.558     12.303
REMARK  0 active torsions:
REMARK  status: ('A' for Active; 'I' for Inactive)
ROOT
HETATM    1  C1  UNL     1     -34.021  14.070  -7.918  1.00 20.00     0.014 C 
HETATM    2  C2  UNL     1     -34.356  14.382  -6.808  1.00 20.00    -0.091 C 
HETATM    3  C3  UNL     1     -35.086  16.145  -2.957  1.00 20.00     0.000 C 
HETATM    4  C4  UNL     1     -36.029  16.542  -4.092  1.00 20.00     0.003 C 
HETATM    5  C5  UNL     1     -33.657  15.955  -3.438  1.00 20.00     0.003 C 
HETATM    6  C6  UNL     1     -35.564  16.076  -5.476  1.00 20.00     0.039 C 
HETATM    7  C7  UNL     1     -33.533  14.882  -4.527  1.00 20.00     0.039 C 
HETATM    8  C8  UNL     1     -34.766  14.766  -5.447  1.00 20.00     0.099 C 
HETATM    9 CL9  UNL     1     -35.834  13.429  -4.875  1.00 20.00    -0.105 Cl
ENDROOT
TORSDOF 0
ENDMDL
MODEL 9
REMARK VINA RESULT:      -3.7     11.483     12.627
REMARK  0 active torsions:
REMARK  status: ('A' for Active; 'I' for Inactive)
ROOT
HETATM    1  C1  UNL     1     -33.402  17.390  -1.700  1.00 20.00     0.014 C 
HETATM    2  C2  UNL     1     -33.816  16.911  -2.720  1.00 20.00    -0.091 C 
HETATM    3  C3  UNL     1     -34.585  14.829  -6.400  1.00 20.00     0.000 C 
HETATM    4  C4  UNL     1     -34.963  14.112  -5.104  1.00 20.00     0.003 C 
HETATM    5  C5  UNL     1     -33.314  15.649  -6.252  1.00 20.00     0.003 C 
HETATM    6  C6  UNL     1     -34.438  14.799  -3.839  1.00 20.00     0.039 C 
HETATM    7  C7  UNL     1     -33.419  16.717  -5.156  1.00 20.00     0.039 C 
HETATM    8  C8  UNL     1     -34.324  16.323  -3.971  1.00 20.00     0.099 C 
HETATM    9 CL9  UNL     1     -35.970  17.027  -4.195  1.00 20.00    -0.105 Cl
ENDROOT
TORSDOF 0
ENDMDL
