MODEL 1
REMARK VINA RESULT:      -5.1      0.000      0.000
REMARK  2 active torsions:
REMARK  status: ('A' for Active; 'I' for Inactive)
REMARK    1  A    between atoms: C1_1  and  C2_2 
REMARK    2  A    between atoms: C1_1  and  C3_3 
ROOT
HETATM    1  C1  UNL     1     -33.766   6.763   4.508  1.00 20.00     0.245 C 
HETATM    2  O4  UNL     1     -33.535   7.416   5.524  1.00 20.00    -0.287 OA
ENDROOT
BRANCH   1   3
HETATM    3  C2  UNL     1     -33.175   7.084   3.155  1.00 20.00     0.202 C 
HETATM    4 CL8  UNL     1     -31.725   8.084   3.326  1.00 20.00    -0.122 Cl
ENDBRANCH   1   3
BRANCH   1   5
HETATM    5  C3  UNL     1     -34.680   5.571   4.556  1.00 20.00     0.452 C 
HETATM    6  F5  UNL     1     -34.114   4.478   3.985  1.00 20.00    -0.163 F 
HETATM    7  F6  UNL     1     -35.845   5.803   3.900  1.00 20.00    -0.163 F 
HETATM    8  F7  UNL     1     -35.007   5.225   5.827  1.00 20.00    -0.163 F 
ENDBRANCH   1   5
TORSDOF 2
ENDMDL
MODEL 2
REMARK VINA RESULT:      -5.1      0.012      1.334
REMARK  2 active torsions:
REMARK  status: ('A' for Active; 'I' for Inactive)
REMARK    1  A    between atoms: C1_1  and  C2_2 
REMARK    2  A    between atoms: C1_1  and  C3_3 
ROOT
HETATM    1  C1  UNL     1     -33.767   6.768   4.517  1.00 20.00     0.245 C 
HETATM    2  O4  UNL     1     -33.533   7.414   5.537  1.00 20.00    -0.287 OA
ENDROOT
BRANCH   1   3
HETATM    3  C2  UNL     1     -33.181   7.100   3.164  1.00 20.00     0.202 C 
HETATM    4 CL8  UNL     1     -31.721   8.084   3.338  1.00 20.00    -0.122 Cl
ENDBRANCH   1   3
BRANCH   1   5
HETATM    5  C3  UNL     1     -34.678   5.573   4.560  1.00 20.00     0.452 C 
HETATM    6  F5  UNL     1     -35.840   5.803   3.899  1.00 20.00    -0.163 F 
HETATM    7  F6  UNL     1     -35.005   5.235   5.832  1.00 20.00    -0.163 F 
HETATM    8  F7  UNL     1     -34.113   4.477   3.994  1.00 20.00    -0.163 F 
ENDBRANCH   1   5
TORSDOF 2
ENDMDL
MODEL 3
REMARK VINA RESULT:      -5.1      0.034      1.340
REMARK  2 active torsions:
REMARK  status: ('A' for Active; 'I' for Inactive)
REMARK    1  A    between atoms: C1_1  and  C2_2 
REMARK    2  A    between atoms: C1_1  and  C3_3 
ROOT
HETATM    1  C1  UNL     1     -33.749   6.777   4.531  1.00 20.00     0.245 C 
HETATM    2  O4  UNL     1     -33.498   7.408   5.556  1.00 20.00    -0.287 OA
ENDROOT
BRANCH   1   3
HETATM    3  C2  UNL     1     -33.181   7.122   3.175  1.00 20.00     0.202 C 
HETATM    4 CL8  UNL     1     -31.713   8.097   3.341  1.00 20.00    -0.122 Cl
ENDBRANCH   1   3
BRANCH   1   5
HETATM    5  C3  UNL     1     -34.668   5.588   4.571  1.00 20.00     0.452 C 
HETATM    6  F5  UNL     1     -35.006   5.255   5.841  1.00 20.00    -0.163 F 
HETATM    7  F6  UNL     1     -34.098   4.491   4.010  1.00 20.00    -0.163 F 
HETATM    8  F7  UNL     1     -35.828   5.813   3.901  1.00 20.00    -0.163 F 
ENDBRANCH   1   5
TORSDOF 2
ENDMDL
MODEL 4
REMARK VINA RESULT:      -4.9      1.542      1.942
REMARK  2 active torsions:
REMARK  status: ('A' for Active; 'I' for Inactive)
REMARK    1  A    between atoms: C1_1  and  C2_2 
REMARK    2  A    between atoms: C1_1  and  C3_3 
ROOT
HETATM    1  C1  UNL     1     -33.593   5.878   3.482  1.00 20.00     0.245 C 
HETATM    2  O4  UNL     1     -33.083   5.095   2.682  1.00 20.00    -0.287 OA
ENDROOT
BRANCH   1   3
HETATM    3  C2  UNL     1     -33.115   7.297   3.685  1.00 20.00     0.202 C 
HETATM    4 CL8  UNL     1     -32.319   7.904   2.226  1.00 20.00    -0.122 Cl
ENDBRANCH   1   3
BRANCH   1   5
HETATM    5  C3  UNL     1     -34.757   5.452   4.332  1.00 20.00     0.452 C 
HETATM    6  F5  UNL     1     -35.939   5.860   3.807  1.00 20.00    -0.163 F 
HETATM    7  F6  UNL     1     -34.681   5.967   5.585  1.00 20.00    -0.163 F 
HETATM    8  F7  UNL     1     -34.829   4.104   4.465  1.00 20.00    -0.163 F 
ENDBRANCH   1   5
TORSDOF 2
ENDMDL
MODEL 5
REMARK VINA RESULT:      -4.9      2.723      3.133
REMARK  2 active torsions:
REMARK  status: ('A' for Active; 'I' for Inactive)
REMARK    1  A    between atoms: C1_1  and  C2_2 
REMARK    2  A    between atoms: C1_1  and  C3_3 
ROOT
HETATM    1  C1  UNL     1     -34.202   4.935   4.041  1.00 20.00     0.245 C 
HETATM    2  O4  UNL     1     -34.184   3.751   4.375  1.00 20.00    -0.287 OA
ENDROOT
BRANCH   1   3
HETATM    3  C2  UNL     1     -34.958   6.005   4.794  1.00 20.00     0.202 C 
HETATM    4 CL8  UNL     1     -33.878   6.881   5.890  1.00 20.00    -0.122 Cl
ENDBRANCH   1   3
BRANCH   1   5
HETATM    5  C3  UNL     1     -33.450   5.399   2.826  1.00 20.00     0.452 C 
HETATM    6  F5  UNL     1     -34.270   5.990   1.921  1.00 20.00    -0.163 F 
HETATM    7  F6  UNL     1     -32.834   4.370   2.191  1.00 20.00    -0.163 F 
HETATM    8  F7  UNL     1     -32.487   6.305   3.133  1.00 20.00    -0.163 F 
ENDBRANCH   1   5
TORSDOF 2
ENDMDL
MODEL 6
REMARK VINA RESULT:      -4.8      2.800      3.292
REMARK  2 active torsions:
REMARK  status: ('A' for Active; 'I' for Inactive)
REMARK    1  A    between atoms: C1_1  and  C2_2 
REMARK    2  A    between atoms: C1_1  and  C3_3 
ROOT
HETATM    1  C1  UNL     1     -33.883   6.893   4.539  1.00 20.00     0.245 C 
HETATM    2  O4  UNL     1     -33.863   7.357   5.678  1.00 20.00    -0.287 OA
ENDROOT
BRANCH   1   3
HETATM    3  C2  UNL     1     -34.897   5.878   4.066  1.00 20.00     0.202 C 
HETATM    4 CL8  UNL     1     -34.423   4.245   4.556  1.00 20.00    -0.122 Cl
ENDBRANCH   1   3
BRANCH   1   5
HETATM    5  C3  UNL     1     -32.866   7.324   3.520  1.00 20.00     0.452 C 
HETATM    6  F5  UNL     1     -32.386   6.272   2.811  1.00 20.00    -0.163 F 
HETATM    7  F6  UNL     1     -31.801   7.934   4.098  1.00 20.00    -0.163 F 
HETATM    8  F7  UNL     1     -33.381   8.202   2.621  1.00 20.00    -0.163 F 
ENDBRANCH   1   5
TORSDOF 2
ENDMDL
MODEL 7
REMARK VINA RESULT:      -4.8      2.803      3.247
REMARK  2 active torsions:
REMARK  status: ('A' for Active; 'I' for Inactive)
REMARK    1  A    between atoms: C1_1  and  C2_2 
REMARK    2  A    between atoms: C1_1  and  C3_3 
ROOT
HETATM    1  C1  UNL     1     -33.882   6.898   4.537  1.00 20.00     0.245 C 
HETATM    2  O4  UNL     1     -33.865   7.362   5.676  1.00 20.00    -0.287 OA
ENDROOT
BRANCH   1   3
HETATM    3  C2  UNL     1     -34.894   5.882   4.063  1.00 20.00     0.202 C 
HETATM    4 CL8  UNL     1     -34.429   4.251   4.570  1.00 20.00    -0.122 Cl
ENDBRANCH   1   3
BRANCH   1   5
HETATM    5  C3  UNL     1     -32.862   7.329   3.520  1.00 20.00     0.452 C 
HETATM    6  F5  UNL     1     -31.800   7.941   4.100  1.00 20.00    -0.163 F 
HETATM    7  F6  UNL     1     -33.384   8.203   2.623  1.00 20.00    -0.163 F 
HETATM    8  F7  UNL     1     -32.373   6.281   2.809  1.00 20.00    -0.163 F 
ENDBRANCH   1   5
TORSDOF 2
ENDMDL
MODEL 8
REMARK VINA RESULT:      -4.6      1.422      1.799
REMARK  2 active torsions:
REMARK  status: ('A' for Active; 'I' for Inactive)
REMARK    1  A    between atoms: C1_1  and  C2_2 
REMARK    2  A    between atoms: C1_1  and  C3_3 
ROOT
HETATM    1  C1  UNL     1     -33.605   6.651   4.404  1.00 20.00     0.245 C 
HETATM    2  O4  UNL     1     -33.007   7.466   5.105  1.00 20.00    -0.287 OA
ENDROOT
BRANCH   1   3
HETATM    3  C2  UNL     1     -33.391   6.511   2.915  1.00 20.00     0.202 C 
HETATM    4 CL8  UNL     1     -32.920   4.856   2.503  1.00 20.00    -0.122 Cl
ENDBRANCH   1   3
BRANCH   1   5
HETATM    5  C3  UNL     1     -34.617   5.718   5.009  1.00 20.00     0.452 C 
HETATM    6  F5  UNL     1     -35.740   5.634   4.254  1.00 20.00    -0.163 F 
HETATM    7  F6  UNL     1     -34.999   6.123   6.246  1.00 20.00    -0.163 F 
HETATM    8  F7  UNL     1     -34.136   4.455   5.140  1.00 20.00    -0.163 F 
ENDBRANCH   1   5
TORSDOF 2
ENDMDL
MODEL 9
REMARK VINA RESULT:      -4.6      3.094      3.506
REMARK  2 active torsions:
REMARK  status: ('A' for Active; 'I' for Inactive)
REMARK    1  A    between atoms: C1_1  and  C2_2 
REMARK    2  A    between atoms: C1_1  and  C3_3 
ROOT
HETATM    1  C1  UNL     1     -33.641   5.894   3.371  1.00 20.00     0.245 C 
HETATM    2  O4  UNL     1     -33.106   5.058   2.645  1.00 20.00    -0.287 OA
ENDROOT
BRANCH   1   3
HETATM    3  C2  UNL     1     -34.948   5.662   4.093  1.00 20.00     0.202 C 
HETATM    4 CL8  UNL     1     -34.665   4.941   5.684  1.00 20.00    -0.122 Cl
ENDBRANCH   1   3
BRANCH   1   5
HETATM    5  C3  UNL     1     -33.005   7.238   3.589  1.00 20.00     0.452 C 
HETATM    6  F5  UNL     1     -33.696   8.228   2.972  1.00 20.00    -0.163 F 
HETATM    7  F6  UNL     1     -31.737   7.279   3.107  1.00 20.00    -0.163 F 
HETATM    8  F7  UNL     1     -32.936   7.567   4.904  1.00 20.00    -0.163 F 
ENDBRANCH   1   5
TORSDOF 2
ENDMDL
