MODEL 1
REMARK VINA RESULT:      -5.3      0.000      0.000
REMARK  3 active torsions:
REMARK  status: ('A' for Active; 'I' for Inactive)
REMARK    1  A    between atoms: C3_3  and  C4_4 
REMARK    2  A    between atoms: C4_4  and  O10_10 
REMARK    3  A    between atoms: C7_7  and  O10_10 
ROOT
HETATM    1  C1  UNL     1     -33.644   7.045   4.889  1.00 20.00     0.105 C 
HETATM    2  C2  UNL     1     -33.535   5.778   2.859  1.00 20.00     0.042 C 
HETATM    3  C3  UNL     1     -33.210   6.884   3.542  1.00 20.00     0.110 C 
HETATM    4  N8  UNL     1     -33.998   7.179   5.986  1.00 20.00    -0.191 NA
ENDROOT
BRANCH   3   5
HETATM    5  C4  UNL     1     -32.394   7.917   2.844  1.00 20.00     0.303 C 
HETATM    6  O9  UNL     1     -31.249   8.218   3.149  1.00 20.00    -0.258 OA
BRANCH   5   7
HETATM    7  O10 UNL     1     -33.120   8.459   1.828  1.00 20.00    -0.312 OA
BRANCH   7   8
HETATM    8  C7  UNL     1     -32.408   9.358   0.969  1.00 20.00     0.124 C 
HETATM    9  C5  UNL     1     -32.885   9.168  -0.462  1.00 20.00     0.040 C 
HETATM   10  C6  UNL     1     -32.621  10.785   1.453  1.00 20.00     0.040 C 
ENDBRANCH   7   8
ENDBRANCH   5   7
ENDBRANCH   3   5
TORSDOF 3
ENDMDL
MODEL 2
REMARK VINA RESULT:      -5.2      1.609      2.249
REMARK  3 active torsions:
REMARK  status: ('A' for Active; 'I' for Inactive)
REMARK    1  A    between atoms: C3_3  and  C4_4 
REMARK    2  A    between atoms: C4_4  and  O10_10 
REMARK    3  A    between atoms: C7_7  and  O10_10 
ROOT
HETATM    1  C1  UNL     1     -34.007   6.735   5.444  1.00 20.00     0.105 C 
HETATM    2  C2  UNL     1     -34.795   4.624   4.629  1.00 20.00     0.042 C 
HETATM    3  C3  UNL     1     -34.099   5.750   4.419  1.00 20.00     0.110 C 
HETATM    4  N8  UNL     1     -33.933   7.540   6.277  1.00 20.00    -0.191 NA
ENDROOT
BRANCH   3   5
HETATM    5  C4  UNL     1     -33.442   5.923   3.093  1.00 20.00     0.303 C 
HETATM    6  O9  UNL     1     -32.958   5.012   2.436  1.00 20.00    -0.258 OA
BRANCH   5   7
HETATM    7  O10 UNL     1     -33.469   7.237   2.740  1.00 20.00    -0.312 OA
BRANCH   7   8
HETATM    8  C7  UNL     1     -32.218   7.790   2.313  1.00 20.00     0.124 C 
HETATM    9  C5  UNL     1     -32.478   8.906   1.314  1.00 20.00     0.040 C 
HETATM   10  C6  UNL     1     -31.450   8.285   3.530  1.00 20.00     0.040 C 
ENDBRANCH   7   8
ENDBRANCH   5   7
ENDBRANCH   3   5
TORSDOF 3
ENDMDL
MODEL 3
REMARK VINA RESULT:      -5.1      2.539      4.613
REMARK  3 active torsions:
REMARK  status: ('A' for Active; 'I' for Inactive)
REMARK    1  A    between atoms: C3_3  and  C4_4 
REMARK    2  A    between atoms: C4_4  and  O10_10 
REMARK    3  A    between atoms: C7_7  and  O10_10 
ROOT
HETATM    1  C1  UNL     1     -32.486   8.733   1.426  1.00 20.00     0.105 C 
HETATM    2  C2  UNL     1     -31.343   8.318   3.490  1.00 20.00     0.042 C 
HETATM    3  C3  UNL     1     -32.266   7.946   2.594  1.00 20.00     0.110 C 
HETATM    4  N8  UNL     1     -32.667   9.373   0.475  1.00 20.00    -0.191 NA
ENDROOT
BRANCH   3   5
HETATM    5  C4  UNL     1     -33.039   6.702   2.867  1.00 20.00     0.303 C 
HETATM    6  O9  UNL     1     -32.830   5.625   2.327  1.00 20.00    -0.258 OA
BRANCH   5   7
HETATM    7  O10 UNL     1     -33.996   6.957   3.800  1.00 20.00    -0.312 OA
BRANCH   7   8
HETATM    8  C7  UNL     1     -33.800   6.333   5.075  1.00 20.00     0.124 C 
HETATM    9  C5  UNL     1     -33.914   7.383   6.169  1.00 20.00     0.040 C 
HETATM   10  C6  UNL     1     -34.823   5.220   5.249  1.00 20.00     0.040 C 
ENDBRANCH   7   8
ENDBRANCH   5   7
ENDBRANCH   3   5
TORSDOF 3
ENDMDL
MODEL 4
REMARK VINA RESULT:      -4.8      1.403      1.754
REMARK  3 active torsions:
REMARK  status: ('A' for Active; 'I' for Inactive)
REMARK    1  A    between atoms: C3_3  and  C4_4 
REMARK    2  A    between atoms: C4_4  and  O10_10 
REMARK    3  A    between atoms: C7_7  and  O10_10 
ROOT
HETATM    1  C1  UNL     1     -33.185   5.579   3.004  1.00 20.00     0.105 C 
HETATM    2  C2  UNL     1     -33.720   7.195   4.690  1.00 20.00     0.042 C 
HETATM    3  C3  UNL     1     -33.100   6.897   3.540  1.00 20.00     0.110 C 
HETATM    4  N8  UNL     1     -33.251   4.506   2.567  1.00 20.00    -0.191 NA
ENDROOT
BRANCH   3   5
HETATM    5  C4  UNL     1     -32.335   7.980   2.861  1.00 20.00     0.303 C 
HETATM    6  O9  UNL     1     -31.216   8.347   3.189  1.00 20.00    -0.258 OA
BRANCH   5   7
HETATM    7  O10 UNL     1     -33.073   8.483   1.834  1.00 20.00    -0.312 OA
BRANCH   7   8
HETATM    8  C7  UNL     1     -32.395   9.413   0.981  1.00 20.00     0.124 C 
HETATM    9  C5  UNL     1     -32.875   9.223  -0.449  1.00 20.00     0.040 C 
HETATM   10  C6  UNL     1     -32.650  10.827   1.481  1.00 20.00     0.040 C 
ENDBRANCH   7   8
ENDBRANCH   5   7
ENDBRANCH   3   5
TORSDOF 3
ENDMDL
MODEL 5
REMARK VINA RESULT:      -4.8      1.165      1.192
REMARK  3 active torsions:
REMARK  status: ('A' for Active; 'I' for Inactive)
REMARK    1  A    between atoms: C3_3  and  C4_4 
REMARK    2  A    between atoms: C4_4  and  O10_10 
REMARK    3  A    between atoms: C7_7  and  O10_10 
ROOT
HETATM    1  C1  UNL     1     -34.127   5.804   4.346  1.00 20.00     0.105 C 
HETATM    2  C2  UNL     1     -33.041   5.288   2.274  1.00 20.00     0.042 C 
HETATM    3  C3  UNL     1     -33.280   6.165   3.259  1.00 20.00     0.110 C 
HETATM    4  N8  UNL     1     -34.817   5.514   5.232  1.00 20.00    -0.191 NA
ENDROOT
BRANCH   3   5
HETATM    5  C4  UNL     1     -32.637   7.506   3.166  1.00 20.00     0.303 C 
HETATM    6  O9  UNL     1     -31.931   7.997   4.035  1.00 20.00    -0.258 OA
BRANCH   5   7
HETATM    7  O10 UNL     1     -32.957   8.082   1.975  1.00 20.00    -0.312 OA
BRANCH   7   8
HETATM    8  C7  UNL     1     -32.090   9.138   1.546  1.00 20.00     0.124 C 
HETATM    9  C5  UNL     1     -31.193   8.627   0.430  1.00 20.00     0.040 C 
HETATM   10  C6  UNL     1     -32.931  10.325   1.097  1.00 20.00     0.040 C 
ENDBRANCH   7   8
ENDBRANCH   5   7
ENDBRANCH   3   5
TORSDOF 3
ENDMDL
MODEL 6
REMARK VINA RESULT:      -4.7      2.401      4.522
REMARK  3 active torsions:
REMARK  status: ('A' for Active; 'I' for Inactive)
REMARK    1  A    between atoms: C3_3  and  C4_4 
REMARK    2  A    between atoms: C4_4  and  O10_10 
REMARK    3  A    between atoms: C7_7  and  O10_10 
ROOT
HETATM    1  C1  UNL     1     -32.900   9.309  -0.021  1.00 20.00     0.105 C 
HETATM    2  C2  UNL     1     -32.501  10.898   1.727  1.00 20.00     0.042 C 
HETATM    3  C3  UNL     1     -32.529   9.622   1.319  1.00 20.00     0.110 C 
HETATM    4  N8  UNL     1     -33.202   9.051  -1.111  1.00 20.00    -0.191 NA
ENDROOT
BRANCH   3   5
HETATM    5  C4  UNL     1     -32.166   8.569   2.307  1.00 20.00     0.303 C 
HETATM    6  O9  UNL     1     -31.166   8.593   3.010  1.00 20.00    -0.258 OA
BRANCH   5   7
HETATM    7  O10 UNL     1     -33.115   7.592   2.301  1.00 20.00    -0.312 OA
BRANCH   7   8
HETATM    8  C7  UNL     1     -33.013   6.623   3.350  1.00 20.00     0.124 C 
HETATM    9  C5  UNL     1     -33.928   7.028   4.496  1.00 20.00     0.040 C 
HETATM   10  C6  UNL     1     -33.370   5.250   2.799  1.00 20.00     0.040 C 
ENDBRANCH   7   8
ENDBRANCH   5   7
ENDBRANCH   3   5
TORSDOF 3
ENDMDL
MODEL 7
REMARK VINA RESULT:      -4.6      1.667      2.441
REMARK  3 active torsions:
REMARK  status: ('A' for Active; 'I' for Inactive)
REMARK    1  A    between atoms: C3_3  and  C4_4 
REMARK    2  A    between atoms: C4_4  and  O10_10 
REMARK    3  A    between atoms: C7_7  and  O10_10 
ROOT
HETATM    1  C1  UNL     1     -34.533   5.248   5.171  1.00 20.00     0.105 C 
HETATM    2  C2  UNL     1     -33.748   7.493   5.462  1.00 20.00     0.042 C 
HETATM    3  C3  UNL     1     -33.969   6.449   4.651  1.00 20.00     0.110 C 
HETATM    4  N8  UNL     1     -34.992   4.269   5.592  1.00 20.00    -0.191 NA
ENDROOT
BRANCH   3   5
HETATM    5  C4  UNL     1     -33.604   6.596   3.214  1.00 20.00     0.303 C 
HETATM    6  O9  UNL     1     -33.465   5.663   2.436  1.00 20.00    -0.258 OA
BRANCH   5   7
HETATM    7  O10 UNL     1     -33.454   7.915   2.916  1.00 20.00    -0.312 OA
BRANCH   7   8
HETATM    8  C7  UNL     1     -32.268   8.255   2.188  1.00 20.00     0.124 C 
HETATM    9  C5  UNL     1     -32.518   9.524   1.388  1.00 20.00     0.040 C 
HETATM   10  C6  UNL     1     -31.112   8.419   3.164  1.00 20.00     0.040 C 
ENDBRANCH   7   8
ENDBRANCH   5   7
ENDBRANCH   3   5
TORSDOF 3
ENDMDL
MODEL 8
REMARK VINA RESULT:      -4.2      9.811     10.476
REMARK  3 active torsions:
REMARK  status: ('A' for Active; 'I' for Inactive)
REMARK    1  A    between atoms: C3_3  and  C4_4 
REMARK    2  A    between atoms: C4_4  and  O10_10 
REMARK    3  A    between atoms: C7_7  and  O10_10 
ROOT
HETATM    1  C1  UNL     1     -36.688  13.971  -5.209  1.00 20.00     0.105 C 
HETATM    2  C2  UNL     1     -34.842  13.746  -6.720  1.00 20.00     0.042 C 
HETATM    3  C3  UNL     1     -35.289  13.980  -5.478  1.00 20.00     0.110 C 
HETATM    4  N8  UNL     1     -37.827  13.967  -4.987  1.00 20.00    -0.191 NA
ENDROOT
BRANCH   3   5
HETATM    5  C4  UNL     1     -34.279  14.244  -4.415  1.00 20.00     0.303 C 
HETATM    6  O9  UNL     1     -33.213  13.654  -4.310  1.00 20.00    -0.258 OA
BRANCH   5   7
HETATM    7  O10 UNL     1     -34.730  15.234  -3.596  1.00 20.00    -0.312 OA
BRANCH   7   8
HETATM    8  C7  UNL     1     -33.776  16.252  -3.272  1.00 20.00     0.124 C 
HETATM    9  C5  UNL     1     -33.691  17.242  -4.423  1.00 20.00     0.040 C 
HETATM   10  C6  UNL     1     -34.188  16.928  -1.973  1.00 20.00     0.040 C 
ENDBRANCH   7   8
ENDBRANCH   5   7
ENDBRANCH   3   5
TORSDOF 3
ENDMDL
MODEL 9
REMARK VINA RESULT:      -4.2      9.933     10.587
REMARK  3 active torsions:
REMARK  status: ('A' for Active; 'I' for Inactive)
REMARK    1  A    between atoms: C3_3  and  C4_4 
REMARK    2  A    between atoms: C4_4  and  O10_10 
REMARK    3  A    between atoms: C7_7  and  O10_10 
ROOT
HETATM    1  C1  UNL     1     -35.308  13.759  -4.839  1.00 20.00     0.105 C 
HETATM    2  C2  UNL     1     -33.208  14.778  -4.301  1.00 20.00     0.042 C 
HETATM    3  C3  UNL     1     -34.547  14.839  -4.307  1.00 20.00     0.110 C 
HETATM    4  N8  UNL     1     -35.931  12.881  -5.273  1.00 20.00    -0.191 NA
ENDROOT
BRANCH   3   5
HETATM    5  C4  UNL     1     -35.189  16.060  -3.745  1.00 20.00     0.303 C 
HETATM    6  O9  UNL     1     -35.736  16.925  -4.415  1.00 20.00    -0.258 OA
BRANCH   5   7
HETATM    7  O10 UNL     1     -35.070  16.054  -2.389  1.00 20.00    -0.312 OA
BRANCH   7   8
HETATM    8  C7  UNL     1     -34.783  17.321  -1.787  1.00 20.00     0.124 C 
HETATM    9  C5  UNL     1     -35.395  17.365  -0.395  1.00 20.00     0.040 C 
HETATM   10  C6  UNL     1     -33.276  17.528  -1.750  1.00 20.00     0.040 C 
ENDBRANCH   7   8
ENDBRANCH   5   7
ENDBRANCH   3   5
TORSDOF 3
ENDMDL
