MODEL 1
REMARK VINA RESULT:      -5.2      0.000      0.000
REMARK  1 active torsions:
REMARK  status: ('A' for Active; 'I' for Inactive)
REMARK    1  A    between atoms: C7_7  and  O8_8 
ROOT
HETATM    1  C1  UNL     1     -34.068   5.305   5.543  1.00 20.00    -0.025 C 
HETATM    2  C2  UNL     1     -34.074   6.644   5.478  1.00 20.00    -0.023 C 
HETATM    3  C3  UNL     1     -35.492   5.890   3.813  1.00 20.00     0.019 C 
HETATM    4  C4  UNL     1     -33.328   5.087   3.203  1.00 20.00     0.041 C 
HETATM    5  C5  UNL     1     -34.486   4.793   4.185  1.00 20.00     0.011 C 
HETATM    6  C6  UNL     1     -34.496   7.024   4.075  1.00 20.00     0.037 C 
HETATM    7  C7  UNL     1     -33.373   6.635   3.087  1.00 20.00     0.126 C 
ENDROOT
BRANCH   7   8
HETATM    8  O8  UNL     1     -32.129   7.224   3.416  1.00 20.00    -0.395 OA
HETATM    9  H18 UNL     1     -31.931   7.879   2.726  1.00 20.00     0.210 HD
ENDBRANCH   7   8
TORSDOF 1
ENDMDL
MODEL 2
REMARK VINA RESULT:      -5.0      1.232      1.802
REMARK  1 active torsions:
REMARK  status: ('A' for Active; 'I' for Inactive)
REMARK    1  A    between atoms: C7_7  and  O8_8 
ROOT
HETATM    1  C1  UNL     1     -33.706   4.438   3.963  1.00 20.00    -0.025 C 
HETATM    2  C2  UNL     1     -34.334   4.722   5.114  1.00 20.00    -0.023 C 
HETATM    3  C3  UNL     1     -35.369   5.971   3.466  1.00 20.00     0.019 C 
HETATM    4  C4  UNL     1     -33.134   6.803   3.569  1.00 20.00     0.041 C 
HETATM    5  C5  UNL     1     -33.945   5.602   3.030  1.00 20.00     0.011 C 
HETATM    6  C6  UNL     1     -34.991   6.075   4.947  1.00 20.00     0.037 C 
HETATM    7  C7  UNL     1     -33.896   7.163   4.873  1.00 20.00     0.126 C 
ENDROOT
BRANCH   7   8
HETATM    8  O8  UNL     1     -33.043   7.154   6.002  1.00 20.00    -0.395 OA
HETATM    9  H18 UNL     1     -32.606   6.285   6.024  1.00 20.00     0.210 HD
ENDBRANCH   7   8
TORSDOF 1
ENDMDL
MODEL 3
REMARK VINA RESULT:      -4.8      1.145      1.598
REMARK  1 active torsions:
REMARK  status: ('A' for Active; 'I' for Inactive)
REMARK    1  A    between atoms: C7_7  and  O8_8 
ROOT
HETATM    1  C1  UNL     1     -33.894   6.571   5.313  1.00 20.00    -0.025 C 
HETATM    2  C2  UNL     1     -33.531   7.031   4.107  1.00 20.00    -0.023 C 
HETATM    3  C3  UNL     1     -35.604   6.040   3.845  1.00 20.00     0.019 C 
HETATM    4  C4  UNL     1     -34.139   4.265   4.478  1.00 20.00     0.041 C 
HETATM    5  C5  UNL     1     -34.900   5.468   5.082  1.00 20.00     0.011 C 
HETATM    6  C6  UNL     1     -34.296   6.234   3.073  1.00 20.00     0.037 C 
HETATM    7  C7  UNL     1     -33.767   4.781   3.062  1.00 20.00     0.126 C 
ENDROOT
BRANCH   7   8
HETATM    8  O8  UNL     1     -32.374   4.711   2.824  1.00 20.00    -0.395 OA
HETATM    9  H18 UNL     1     -32.105   3.788   2.971  1.00 20.00     0.210 HD
ENDBRANCH   7   8
TORSDOF 1
ENDMDL
MODEL 4
REMARK VINA RESULT:      -4.3      1.614      2.733
REMARK  1 active torsions:
REMARK  status: ('A' for Active; 'I' for Inactive)
REMARK    1  A    between atoms: C7_7  and  O8_8 
ROOT
HETATM    1  C1  UNL     1     -32.866   6.125   3.160  1.00 20.00    -0.025 C 
HETATM    2  C2  UNL     1     -33.557   4.978   3.235  1.00 20.00    -0.023 C 
HETATM    3  C3  UNL     1     -35.107   6.694   3.283  1.00 20.00     0.019 C 
HETATM    4  C4  UNL     1     -33.818   6.962   5.274  1.00 20.00     0.041 C 
HETATM    5  C5  UNL     1     -33.739   7.208   3.749  1.00 20.00     0.011 C 
HETATM    6  C6  UNL     1     -34.891   5.298   3.875  1.00 20.00     0.037 C 
HETATM    7  C7  UNL     1     -34.665   5.663   5.360  1.00 20.00     0.126 C 
ENDROOT
BRANCH   7   8
HETATM    8  O8  UNL     1     -33.995   4.643   6.075  1.00 20.00    -0.395 OA
HETATM    9  H18 UNL     1     -34.627   4.283   6.721  1.00 20.00     0.210 HD
ENDBRANCH   7   8
TORSDOF 1
ENDMDL
MODEL 5
REMARK VINA RESULT:      -4.1      8.171      9.442
REMARK  1 active torsions:
REMARK  status: ('A' for Active; 'I' for Inactive)
REMARK    1  A    between atoms: C7_7  and  O8_8 
ROOT
HETATM    1  C1  UNL     1     -43.417   6.333  -1.061  1.00 20.00    -0.025 C 
HETATM    2  C2  UNL     1     -43.065   5.141  -0.557  1.00 20.00    -0.023 C 
HETATM    3  C3  UNL     1     -42.757   6.693   1.129  1.00 20.00     0.019 C 
HETATM    4  C4  UNL     1     -41.207   7.310  -0.578  1.00 20.00     0.041 C 
HETATM    5  C5  UNL     1     -42.713   7.387  -0.239  1.00 20.00     0.011 C 
HETATM    6  C6  UNL     1     -42.126   5.401   0.601  1.00 20.00     0.037 C 
HETATM    7  C7  UNL     1     -40.790   5.954   0.054  1.00 20.00     0.126 C 
ENDROOT
BRANCH   7   8
HETATM    8  O8  UNL     1     -40.192   5.092  -0.896  1.00 20.00    -0.395 OA
HETATM    9  H18 UNL     1     -40.498   4.191  -0.697  1.00 20.00     0.210 HD
ENDBRANCH   7   8
TORSDOF 1
ENDMDL
MODEL 6
REMARK VINA RESULT:      -4.1      0.963      2.110
REMARK  1 active torsions:
REMARK  status: ('A' for Active; 'I' for Inactive)
REMARK    1  A    between atoms: C7_7  and  O8_8 
ROOT
HETATM    1  C1  UNL     1     -35.549   6.091   3.689  1.00 20.00    -0.025 C 
HETATM    2  C2  UNL     1     -34.841   6.005   2.553  1.00 20.00    -0.023 C 
HETATM    3  C3  UNL     1     -33.668   4.825   4.159  1.00 20.00     0.019 C 
HETATM    4  C4  UNL     1     -33.659   7.089   4.917  1.00 20.00     0.041 C 
HETATM    5  C5  UNL     1     -34.587   5.855   4.830  1.00 20.00     0.011 C 
HETATM    6  C6  UNL     1     -33.407   5.711   2.938  1.00 20.00     0.037 C 
HETATM    7  C7  UNL     1     -32.804   6.956   3.627  1.00 20.00     0.126 C 
ENDROOT
BRANCH   7   8
HETATM    8  O8  UNL     1     -32.882   8.116   2.821  1.00 20.00    -0.395 OA
HETATM    9  H18 UNL     1     -32.787   7.830   1.897  1.00 20.00     0.210 HD
ENDBRANCH   7   8
TORSDOF 1
ENDMDL
MODEL 7
REMARK VINA RESULT:      -4.1     15.677     16.691
REMARK  1 active torsions:
REMARK  status: ('A' for Active; 'I' for Inactive)
REMARK    1  A    between atoms: C7_7  and  O8_8 
ROOT
HETATM    1  C1  UNL     1     -23.772  18.950  11.751  1.00 20.00    -0.025 C 
HETATM    2  C2  UNL     1     -22.951  18.021  11.242  1.00 20.00    -0.023 C 
HETATM    3  C3  UNL     1     -24.603  18.385   9.665  1.00 20.00     0.019 C 
HETATM    4  C4  UNL     1     -25.736  17.473  11.558  1.00 20.00     0.041 C 
HETATM    5  C5  UNL     1     -25.105  18.792  11.056  1.00 20.00     0.011 C 
HETATM    6  C6  UNL     1     -23.736  17.244  10.207  1.00 20.00     0.037 C 
HETATM    7  C7  UNL     1     -24.814  16.398  10.922  1.00 20.00     0.126 C 
ENDROOT
BRANCH   7   8
HETATM    8  O8  UNL     1     -24.267  15.529  11.895  1.00 20.00    -0.395 OA
HETATM    9  H18 UNL     1     -23.504  15.985  12.290  1.00 20.00     0.210 HD
ENDBRANCH   7   8
TORSDOF 1
ENDMDL
MODEL 8
REMARK VINA RESULT:      -4.1      8.440      9.522
REMARK  1 active torsions:
REMARK  status: ('A' for Active; 'I' for Inactive)
REMARK    1  A    between atoms: C7_7  and  O8_8 
ROOT
HETATM    1  C1  UNL     1     -41.081   5.442  -0.526  1.00 20.00    -0.025 C 
HETATM    2  C2  UNL     1     -40.708   6.628  -0.023  1.00 20.00    -0.023 C 
HETATM    3  C3  UNL     1     -42.595   5.974   1.144  1.00 20.00     0.019 C 
HETATM    4  C4  UNL     1     -43.326   6.276  -1.109  1.00 20.00     0.041 C 
HETATM    5  C5  UNL     1     -42.552   5.275  -0.221  1.00 20.00     0.011 C 
HETATM    6  C6  UNL     1     -41.930   7.250   0.618  1.00 20.00     0.037 C 
HETATM    7  C7  UNL     1     -42.935   7.645  -0.489  1.00 20.00     0.126 C 
ENDROOT
BRANCH   7   8
HETATM    8  O8  UNL     1     -42.371   8.517  -1.450  1.00 20.00    -0.395 OA
HETATM    9  H18 UNL     1     -42.446   8.078  -2.314  1.00 20.00     0.210 HD
ENDBRANCH   7   8
TORSDOF 1
ENDMDL
MODEL 9
REMARK VINA RESULT:      -4.0     15.756     16.778
REMARK  1 active torsions:
REMARK  status: ('A' for Active; 'I' for Inactive)
REMARK    1  A    between atoms: C7_7  and  O8_8 
ROOT
HETATM    1  C1  UNL     1     -24.250  18.273   9.386  1.00 20.00    -0.025 C 
HETATM    2  C2  UNL     1     -24.852  19.245  10.088  1.00 20.00    -0.023 C 
HETATM    3  C3  UNL     1     -23.244  18.324  11.471  1.00 20.00     0.019 C 
HETATM    4  C4  UNL     1     -24.807  16.564  11.073  1.00 20.00     0.041 C 
HETATM    5  C5  UNL     1     -23.644  17.316  10.386  1.00 20.00     0.011 C 
HETATM    6  C6  UNL     1     -24.646  18.935  11.554  1.00 20.00     0.037 C 
HETATM    7  C7  UNL     1     -25.469  17.680  11.926  1.00 20.00     0.126 C 
ENDROOT
BRANCH   7   8
HETATM    8  O8  UNL     1     -26.845  17.824  11.630  1.00 20.00    -0.395 OA
HETATM    9  H18 UNL     1     -27.196  16.934  11.456  1.00 20.00     0.210 HD
ENDBRANCH   7   8
TORSDOF 1
ENDMDL
