MODEL 1
REMARK VINA RESULT:      -4.7      0.000      0.000
REMARK  0 active torsions:
REMARK  status: ('A' for Active; 'I' for Inactive)
ROOT
HETATM    1  C1  UNL     1     -34.077   6.479   5.109  1.00 20.00     0.131 C 
HETATM    2  C2  UNL     1     -33.083   7.586   4.847  1.00 20.00     0.087 C 
HETATM    3  C3  UNL     1     -33.080   5.993   3.031  1.00 20.00     0.021 C 
HETATM    4  C4  UNL     1     -34.267   5.580   3.906  1.00 20.00     0.052 C 
HETATM    5  C5  UNL     1     -32.854   7.488   3.328  1.00 20.00    -0.041 C 
HETATM    6  C6  UNL     1     -34.251   4.107   4.265  1.00 20.00     0.018 C 
HETATM    7  C7  UNL     1     -33.858   8.367   2.564  1.00 20.00     0.015 C 
HETATM    8  C8  UNL     1     -31.431   7.912   2.953  1.00 20.00     0.015 C 
HETATM    9  O9  UNL     1     -34.659   6.333   6.178  1.00 20.00    -0.298 OA
ENDROOT
TORSDOF 0
ENDMDL
MODEL 2
REMARK VINA RESULT:      -4.7      1.899      3.577
REMARK  0 active torsions:
REMARK  status: ('A' for Active; 'I' for Inactive)
ROOT
HETATM    1  C1  UNL     1     -32.182   7.877   3.585  1.00 20.00     0.131 C 
HETATM    2  C2  UNL     1     -33.134   7.043   4.410  1.00 20.00     0.087 C 
HETATM    3  C3  UNL     1     -33.866   7.144   2.111  1.00 20.00     0.021 C 
HETATM    4  C4  UNL     1     -32.478   7.790   2.103  1.00 20.00     0.052 C 
HETATM    5  C5  UNL     1     -33.881   6.222   3.345  1.00 20.00    -0.041 C 
HETATM    6  C6  UNL     1     -32.461   9.143   1.420  1.00 20.00     0.018 C 
HETATM    7  C7  UNL     1     -33.152   4.897   3.061  1.00 20.00     0.015 C 
HETATM    8  C8  UNL     1     -35.317   5.918   3.784  1.00 20.00     0.015 C 
HETATM    9  O9  UNL     1     -31.276   8.545   4.069  1.00 20.00    -0.298 OA
ENDROOT
TORSDOF 0
ENDMDL
MODEL 3
REMARK VINA RESULT:      -4.6      1.852      3.587
REMARK  0 active torsions:
REMARK  status: ('A' for Active; 'I' for Inactive)
ROOT
HETATM    1  C1  UNL     1     -32.832   7.120   2.996  1.00 20.00     0.131 C 
HETATM    2  C2  UNL     1     -33.328   5.698   2.881  1.00 20.00     0.087 C 
HETATM    3  C3  UNL     1     -33.750   6.568   5.094  1.00 20.00     0.021 C 
HETATM    4  C4  UNL     1     -33.267   7.778   4.288  1.00 20.00     0.052 C 
HETATM    5  C5  UNL     1     -34.318   5.584   4.053  1.00 20.00    -0.041 C 
HETATM    6  C6  UNL     1     -32.143   8.531   4.971  1.00 20.00     0.018 C 
HETATM    7  C7  UNL     1     -35.736   5.991   3.616  1.00 20.00     0.015 C 
HETATM    8  C8  UNL     1     -34.357   4.158   4.611  1.00 20.00     0.015 C 
HETATM    9  O9  UNL     1     -32.154   7.670   2.137  1.00 20.00    -0.298 OA
ENDROOT
TORSDOF 0
ENDMDL
MODEL 4
REMARK VINA RESULT:      -4.3      1.804      2.499
REMARK  0 active torsions:
REMARK  status: ('A' for Active; 'I' for Inactive)
ROOT
HETATM    1  C1  UNL     1     -33.066   5.676   2.850  1.00 20.00     0.131 C 
HETATM    2  C2  UNL     1     -32.401   6.685   1.944  1.00 20.00     0.087 C 
HETATM    3  C3  UNL     1     -33.858   7.790   3.521  1.00 20.00     0.021 C 
HETATM    4  C4  UNL     1     -33.816   6.332   3.989  1.00 20.00     0.052 C 
HETATM    5  C5  UNL     1     -32.557   8.002   2.725  1.00 20.00    -0.041 C 
HETATM    6  C6  UNL     1     -35.195   5.740   4.203  1.00 20.00     0.018 C 
HETATM    7  C7  UNL     1     -31.359   8.228   3.663  1.00 20.00     0.015 C 
HETATM    8  C8  UNL     1     -32.683   9.198   1.777  1.00 20.00     0.015 C 
HETATM    9  O9  UNL     1     -33.001   4.464   2.675  1.00 20.00    -0.298 OA
ENDROOT
TORSDOF 0
ENDMDL
MODEL 5
REMARK VINA RESULT:      -4.1     11.416     12.576
REMARK  0 active torsions:
REMARK  status: ('A' for Active; 'I' for Inactive)
ROOT
HETATM    1  C1  UNL     1     -35.651  13.825  -5.041  1.00 20.00     0.131 C 
HETATM    2  C2  UNL     1     -34.548  14.324  -4.137  1.00 20.00     0.087 C 
HETATM    3  C3  UNL     1     -35.474  16.141  -5.431  1.00 20.00     0.021 C 
HETATM    4  C4  UNL     1     -36.404  14.955  -5.708  1.00 20.00     0.052 C 
HETATM    5  C5  UNL     1     -34.819  15.838  -4.070  1.00 20.00    -0.041 C 
HETATM    6  C6  UNL     1     -36.632  14.717  -7.187  1.00 20.00     0.018 C 
HETATM    7  C7  UNL     1     -35.767  16.176  -2.907  1.00 20.00     0.015 C 
HETATM    8  C8  UNL     1     -33.518  16.628  -3.901  1.00 20.00     0.015 C 
HETATM    9  O9  UNL     1     -35.899  12.637  -5.209  1.00 20.00    -0.298 OA
ENDROOT
TORSDOF 0
ENDMDL
MODEL 6
REMARK VINA RESULT:      -4.1     11.767     12.570
REMARK  0 active torsions:
REMARK  status: ('A' for Active; 'I' for Inactive)
ROOT
HETATM    1  C1  UNL     1     -35.670  13.834  -5.024  1.00 20.00     0.131 C 
HETATM    2  C2  UNL     1     -34.331  14.500  -5.232  1.00 20.00     0.087 C 
HETATM    3  C3  UNL     1     -36.059  16.154  -4.903  1.00 20.00     0.021 C 
HETATM    4  C4  UNL     1     -36.741  14.817  -4.599  1.00 20.00     0.052 C 
HETATM    5  C5  UNL     1     -34.557  15.912  -4.663  1.00 20.00    -0.041 C 
HETATM    6  C6  UNL     1     -38.041  14.631  -5.355  1.00 20.00     0.018 C 
HETATM    7  C7  UNL     1     -34.216  15.960  -3.164  1.00 20.00     0.015 C 
HETATM    8  C8  UNL     1     -33.709  16.951  -5.402  1.00 20.00     0.015 C 
HETATM    9  O9  UNL     1     -35.860  12.634  -5.183  1.00 20.00    -0.298 OA
ENDROOT
TORSDOF 0
ENDMDL
MODEL 7
REMARK VINA RESULT:      -4.0      1.365      2.757
REMARK  0 active torsions:
REMARK  status: ('A' for Active; 'I' for Inactive)
ROOT
HETATM    1  C1  UNL     1     -34.522   5.603   5.328  1.00 20.00     0.131 C 
HETATM    2  C2  UNL     1     -35.042   5.202   3.968  1.00 20.00     0.087 C 
HETATM    3  C3  UNL     1     -33.585   7.119   3.789  1.00 20.00     0.021 C 
HETATM    4  C4  UNL     1     -33.441   6.658   5.242  1.00 20.00     0.052 C 
HETATM    5  C5  UNL     1     -34.045   5.873   3.008  1.00 20.00    -0.041 C 
HETATM    6  C6  UNL     1     -33.635   7.782   6.241  1.00 20.00     0.018 C 
HETATM    7  C7  UNL     1     -32.862   4.938   2.703  1.00 20.00     0.015 C 
HETATM    8  C8  UNL     1     -34.721   6.270   1.692  1.00 20.00     0.015 C 
HETATM    9  O9  UNL     1     -34.936   5.124   6.377  1.00 20.00    -0.298 OA
ENDROOT
TORSDOF 0
ENDMDL
MODEL 8
REMARK VINA RESULT:      -3.9     11.396     12.467
REMARK  0 active torsions:
REMARK  status: ('A' for Active; 'I' for Inactive)
ROOT
HETATM    1  C1  UNL     1     -35.065  16.735  -1.915  1.00 20.00     0.131 C 
HETATM    2  C2  UNL     1     -35.893  16.329  -3.111  1.00 20.00     0.087 C 
HETATM    3  C3  UNL     1     -33.633  16.854  -3.780  1.00 20.00     0.021 C 
HETATM    4  C4  UNL     1     -33.595  16.863  -2.249  1.00 20.00     0.052 C 
HETATM    5  C5  UNL     1     -34.826  15.954  -4.154  1.00 20.00    -0.041 C 
HETATM    6  C6  UNL     1     -32.970  18.122  -1.681  1.00 20.00     0.018 C 
HETATM    7  C7  UNL     1     -34.456  14.464  -4.051  1.00 20.00     0.015 C 
HETATM    8  C8  UNL     1     -35.311  16.251  -5.576  1.00 20.00     0.015 C 
HETATM    9  O9  UNL     1     -35.539  16.937  -0.803  1.00 20.00    -0.298 OA
ENDROOT
TORSDOF 0
ENDMDL
MODEL 9
REMARK VINA RESULT:      -3.9      1.795      2.895
REMARK  0 active torsions:
REMARK  status: ('A' for Active; 'I' for Inactive)
ROOT
HETATM    1  C1  UNL     1     -32.612   7.550   3.883  1.00 20.00     0.131 C 
HETATM    2  C2  UNL     1     -32.303   6.519   2.824  1.00 20.00     0.087 C 
HETATM    3  C3  UNL     1     -34.089   5.755   4.259  1.00 20.00     0.021 C 
HETATM    4  C4  UNL     1     -33.862   7.213   4.667  1.00 20.00     0.052 C 
HETATM    5  C5  UNL     1     -33.574   5.651   2.811  1.00 20.00    -0.041 C 
HETATM    6  C6  UNL     1     -33.683   7.387   6.162  1.00 20.00     0.018 C 
HETATM    7  C7  UNL     1     -34.604   6.201   1.810  1.00 20.00     0.015 C 
HETATM    8  C8  UNL     1     -33.250   4.198   2.448  1.00 20.00     0.015 C 
HETATM    9  O9  UNL     1     -31.922   8.544   4.080  1.00 20.00    -0.298 OA
ENDROOT
TORSDOF 0
ENDMDL
