MODEL 1
REMARK VINA RESULT:      -4.8      0.000      0.000
REMARK  2 active torsions:
REMARK  status: ('A' for Active; 'I' for Inactive)
REMARK    1  A    between atoms: C1_1  and  C4_4 
REMARK    2  A    between atoms: C1_1  and  O8_8 
ROOT
HETATM    1  C2  UNL     1     -35.425   5.790   3.814  1.00 20.00     0.020 A 
HETATM    2  C3  UNL     1     -34.654   5.097   4.896  1.00 20.00     0.020 A 
HETATM    3  C4  UNL     1     -33.912   5.853   3.814  1.00 20.00     0.044 A 
HETATM    4  C5  UNL     1     -33.192   5.032   2.775  1.00 20.00     0.026 C 
ENDROOT
BRANCH   3   5
HETATM    5  C1  UNL     1     -33.292   7.145   4.200  1.00 20.00     0.266 C 
HETATM    6  O7  UNL     1     -33.184   7.534   5.354  1.00 20.00    -0.264 OA
BRANCH   5   7
HETATM    7  O8  UNL     1     -32.878   7.804   3.081  1.00 20.00    -0.326 OA
HETATM    8  C6  UNL     1     -31.544   8.319   3.129  1.00 20.00     0.213 C 
ENDBRANCH   5   7
ENDBRANCH   3   5
TORSDOF 2
ENDMDL
MODEL 2
REMARK VINA RESULT:      -4.6      1.171      2.035
REMARK  2 active torsions:
REMARK  status: ('A' for Active; 'I' for Inactive)
REMARK    1  A    between atoms: C1_1  and  C4_4 
REMARK    2  A    between atoms: C1_1  and  O8_8 
ROOT
HETATM    1  C2  UNL     1     -34.455   4.846   4.778  1.00 20.00     0.020 A 
HETATM    2  C3  UNL     1     -35.375   5.805   4.086  1.00 20.00     0.020 A 
HETATM    3  C4  UNL     1     -33.989   6.259   4.494  1.00 20.00     0.044 A 
HETATM    4  C5  UNL     1     -33.892   7.199   5.669  1.00 20.00     0.026 C 
ENDROOT
BRANCH   3   5
HETATM    5  C1  UNL     1     -32.992   6.433   3.408  1.00 20.00     0.266 C 
HETATM    6  O7  UNL     1     -32.830   5.637   2.494  1.00 20.00    -0.264 OA
BRANCH   5   7
HETATM    7  O8  UNL     1     -32.308   7.596   3.599  1.00 20.00    -0.326 OA
HETATM    8  C6  UNL     1     -31.994   8.328   2.410  1.00 20.00     0.213 C 
ENDBRANCH   5   7
ENDBRANCH   3   5
TORSDOF 2
ENDMDL
MODEL 3
REMARK VINA RESULT:      -4.3      1.236      1.933
REMARK  2 active torsions:
REMARK  status: ('A' for Active; 'I' for Inactive)
REMARK    1  A    between atoms: C1_1  and  C4_4 
REMARK    2  A    between atoms: C1_1  and  O8_8 
ROOT
HETATM    1  C2  UNL     1     -33.737   5.246   3.669  1.00 20.00     0.020 A 
HETATM    2  C3  UNL     1     -34.835   6.195   3.298  1.00 20.00     0.020 A 
HETATM    3  C4  UNL     1     -33.671   6.686   4.133  1.00 20.00     0.044 A 
HETATM    4  C5  UNL     1     -33.937   6.948   5.594  1.00 20.00     0.026 C 
ENDROOT
BRANCH   3   5
HETATM    5  C1  UNL     1     -32.684   7.564   3.459  1.00 20.00     0.266 C 
HETATM    6  O7  UNL     1     -31.689   8.021   4.003  1.00 20.00    -0.264 OA
BRANCH   5   7
HETATM    7  O8  UNL     1     -33.065   7.770   2.166  1.00 20.00    -0.326 OA
HETATM    8  C6  UNL     1     -32.357   8.802   1.472  1.00 20.00     0.213 C 
ENDBRANCH   5   7
ENDBRANCH   3   5
TORSDOF 2
ENDMDL
MODEL 4
REMARK VINA RESULT:      -4.0      1.375      3.054
REMARK  2 active torsions:
REMARK  status: ('A' for Active; 'I' for Inactive)
REMARK    1  A    between atoms: C1_1  and  C4_4 
REMARK    2  A    between atoms: C1_1  and  O8_8 
ROOT
HETATM    1  C2  UNL     1     -31.800   7.795   3.236  1.00 20.00     0.020 A 
HETATM    2  C3  UNL     1     -33.070   8.175   2.537  1.00 20.00     0.020 A 
HETATM    3  C4  UNL     1     -33.018   6.905   3.360  1.00 20.00     0.044 A 
HETATM    4  C5  UNL     1     -32.993   5.599   2.607  1.00 20.00     0.026 C 
ENDROOT
BRANCH   3   5
HETATM    5  C1  UNL     1     -33.731   6.919   4.662  1.00 20.00     0.266 C 
HETATM    6  O7  UNL     1     -33.441   7.655   5.594  1.00 20.00    -0.264 OA
BRANCH   5   7
HETATM    7  O8  UNL     1     -34.736   5.997   4.640  1.00 20.00    -0.326 OA
HETATM    8  C6  UNL     1     -34.692   5.014   5.680  1.00 20.00     0.213 C 
ENDBRANCH   5   7
ENDBRANCH   3   5
TORSDOF 2
ENDMDL
MODEL 5
REMARK VINA RESULT:      -4.0      1.687      3.534
REMARK  2 active torsions:
REMARK  status: ('A' for Active; 'I' for Inactive)
REMARK    1  A    between atoms: C1_1  and  C4_4 
REMARK    2  A    between atoms: C1_1  and  O8_8 
ROOT
HETATM    1  C2  UNL     1     -33.090   8.226   2.531  1.00 20.00     0.020 A 
HETATM    2  C3  UNL     1     -31.769   7.698   3.002  1.00 20.00     0.020 A 
HETATM    3  C4  UNL     1     -33.048   7.173   3.620  1.00 20.00     0.044 A 
HETATM    4  C5  UNL     1     -33.367   7.624   5.022  1.00 20.00     0.026 C 
ENDROOT
BRANCH   3   5
HETATM    5  C1  UNL     1     -33.461   5.799   3.243  1.00 20.00     0.266 C 
HETATM    6  O7  UNL     1     -32.825   5.075   2.490  1.00 20.00    -0.264 OA
BRANCH   5   7
HETATM    7  O8  UNL     1     -34.637   5.491   3.861  1.00 20.00    -0.326 OA
HETATM    8  C6  UNL     1     -34.602   4.342   4.713  1.00 20.00     0.213 C 
ENDBRANCH   5   7
ENDBRANCH   3   5
TORSDOF 2
ENDMDL
MODEL 6
REMARK VINA RESULT:      -3.8      1.361      2.763
REMARK  2 active torsions:
REMARK  status: ('A' for Active; 'I' for Inactive)
REMARK    1  A    between atoms: C1_1  and  C4_4 
REMARK    2  A    between atoms: C1_1  and  O8_8 
ROOT
HETATM    1  C2  UNL     1     -34.161   6.241   2.269  1.00 20.00     0.020 A 
HETATM    2  C3  UNL     1     -33.044   5.371   2.760  1.00 20.00     0.020 A 
HETATM    3  C4  UNL     1     -33.232   6.752   3.351  1.00 20.00     0.044 A 
HETATM    4  C5  UNL     1     -32.234   7.810   2.955  1.00 20.00     0.026 C 
ENDROOT
BRANCH   3   5
HETATM    5  C1  UNL     1     -33.781   6.824   4.728  1.00 20.00     0.266 C 
HETATM    6  O7  UNL     1     -33.354   7.572   5.597  1.00 20.00    -0.264 OA
BRANCH   5   7
HETATM    7  O8  UNL     1     -34.811   5.941   4.854  1.00 20.00    -0.326 OA
HETATM    8  C6  UNL     1     -34.633   4.925   5.847  1.00 20.00     0.213 C 
ENDBRANCH   5   7
ENDBRANCH   3   5
TORSDOF 2
ENDMDL
MODEL 7
REMARK VINA RESULT:      -3.7      2.157      4.193
REMARK  2 active torsions:
REMARK  status: ('A' for Active; 'I' for Inactive)
REMARK    1  A    between atoms: C1_1  and  C4_4 
REMARK    2  A    between atoms: C1_1  and  O8_8 
ROOT
HETATM    1  C2  UNL     1     -32.421  10.473   1.280  1.00 20.00     0.020 A 
HETATM    2  C3  UNL     1     -33.374   9.507   0.646  1.00 20.00     0.020 A 
HETATM    3  C4  UNL     1     -32.075   8.999   1.236  1.00 20.00     0.044 A 
HETATM    4  C5  UNL     1     -31.001   8.576   0.267  1.00 20.00     0.026 C 
ENDROOT
BRANCH   3   5
HETATM    5  C1  UNL     1     -32.166   8.250   2.513  1.00 20.00     0.266 C 
HETATM    6  O7  UNL     1     -31.393   8.396   3.450  1.00 20.00    -0.264 OA
BRANCH   5   7
HETATM    7  O8  UNL     1     -33.227   7.395   2.466  1.00 20.00    -0.326 OA
HETATM    8  C6  UNL     1     -33.726   6.963   3.735  1.00 20.00     0.213 C 
ENDBRANCH   5   7
ENDBRANCH   3   5
TORSDOF 2
ENDMDL
MODEL 8
REMARK VINA RESULT:      -3.6      1.444      3.725
REMARK  2 active torsions:
REMARK  status: ('A' for Active; 'I' for Inactive)
REMARK    1  A    between atoms: C1_1  and  C4_4 
REMARK    2  A    between atoms: C1_1  and  O8_8 
ROOT
HETATM    1  C2  UNL     1     -32.678   9.232   1.811  1.00 20.00     0.020 A 
HETATM    2  C3  UNL     1     -31.769   8.168   1.276  1.00 20.00     0.020 A 
HETATM    3  C4  UNL     1     -32.252   8.089   2.709  1.00 20.00     0.044 A 
HETATM    4  C5  UNL     1     -31.250   8.402   3.790  1.00 20.00     0.026 C 
ENDROOT
BRANCH   3   5
HETATM    5  C1  UNL     1     -33.276   7.060   3.016  1.00 20.00     0.266 C 
HETATM    6  O7  UNL     1     -33.606   6.170   2.245  1.00 20.00    -0.264 OA
BRANCH   5   7
HETATM    7  O8  UNL     1     -33.772   7.270   4.269  1.00 20.00    -0.326 OA
HETATM    8  C6  UNL     1     -34.412   6.143   4.875  1.00 20.00     0.213 C 
ENDBRANCH   5   7
ENDBRANCH   3   5
TORSDOF 2
ENDMDL
MODEL 9
REMARK VINA RESULT:      -3.5     11.519     12.282
REMARK  2 active torsions:
REMARK  status: ('A' for Active; 'I' for Inactive)
REMARK    1  A    between atoms: C1_1  and  C4_4 
REMARK    2  A    between atoms: C1_1  and  O8_8 
ROOT
HETATM    1  C2  UNL     1     -33.553  15.463  -5.369  1.00 20.00     0.020 A 
HETATM    2  C3  UNL     1     -33.074  14.412  -4.414  1.00 20.00     0.020 A 
HETATM    3  C4  UNL     1     -34.464  14.992  -4.254  1.00 20.00     0.044 A 
HETATM    4  C5  UNL     1     -34.685  15.938  -3.102  1.00 20.00     0.026 C 
ENDROOT
BRANCH   3   5
HETATM    5  C1  UNL     1     -35.603  14.122  -4.641  1.00 20.00     0.266 C 
HETATM    6  O7  UNL     1     -35.482  12.974  -5.043  1.00 20.00    -0.264 OA
BRANCH   5   7
HETATM    7  O8  UNL     1     -36.772  14.803  -4.475  1.00 20.00    -0.326 OA
HETATM    8  C6  UNL     1     -37.843  14.407  -5.339  1.00 20.00     0.213 C 
ENDBRANCH   5   7
ENDBRANCH   3   5
TORSDOF 2
ENDMDL
