MODEL 1
REMARK VINA RESULT:      -4.8      0.000      0.000
REMARK  1 active torsions:
REMARK  status: ('A' for Active; 'I' for Inactive)
REMARK    1  A    between atoms: C1_1  and  C3_3 
ROOT
HETATM    1  C2  UNL     1     -35.196  16.297  -5.721  1.00 20.00     0.110 C 
HETATM    2  C3  UNL     1     -35.680  15.035  -4.951  1.00 20.00     0.110 C 
HETATM    3  C4  UNL     1     -33.762  16.001  -5.238  1.00 20.00     0.310 C 
HETATM    4  C5  UNL     1     -34.379  15.162  -4.089  1.00 20.00     0.323 C 
HETATM    5  C6  UNL     1     -36.959  15.286  -4.153  1.00 20.00     0.031 C 
HETATM    6  F8  UNL     1     -33.041  17.077  -4.851  1.00 20.00    -0.200 F 
HETATM    7  F9  UNL     1     -32.991  15.307  -6.106  1.00 20.00    -0.200 F 
HETATM    8  F10 UNL     1     -33.742  14.003  -3.809  1.00 20.00    -0.198 F 
HETATM    9  F11 UNL     1     -34.510  15.823  -2.914  1.00 20.00    -0.198 F 
ENDROOT
BRANCH   2  10
HETATM   10  C1  UNL     1     -35.789  13.735  -5.807  1.00 20.00     0.233 C 
HETATM   11  O7  UNL     1     -35.900  12.628  -5.289  1.00 20.00    -0.279 OA
HETATM   12 CL12 UNL     1     -35.733  14.068  -7.512  1.00 20.00    -0.043 Cl
ENDBRANCH   2  10
TORSDOF 1
ENDMDL
MODEL 2
REMARK VINA RESULT:      -4.6      1.150      1.205
REMARK  1 active torsions:
REMARK  status: ('A' for Active; 'I' for Inactive)
REMARK    1  A    between atoms: C1_1  and  C3_3 
ROOT
HETATM    1  C2  UNL     1     -35.008  16.192  -5.827  1.00 20.00     0.110 C 
HETATM    2  C3  UNL     1     -35.988  15.436  -4.884  1.00 20.00     0.110 C 
HETATM    3  C4  UNL     1     -33.944  15.118  -5.528  1.00 20.00     0.310 C 
HETATM    4  C5  UNL     1     -34.725  14.780  -4.232  1.00 20.00     0.323 C 
HETATM    5  C6  UNL     1     -36.737  16.374  -3.938  1.00 20.00     0.031 C 
HETATM    6  F8  UNL     1     -32.685  15.576  -5.347  1.00 20.00    -0.200 F 
HETATM    7  F9  UNL     1     -33.867  14.113  -6.431  1.00 20.00    -0.200 F 
HETATM    8  F10 UNL     1     -34.828  13.465  -3.941  1.00 20.00    -0.198 F 
HETATM    9  F11 UNL     1     -34.254  15.386  -3.115  1.00 20.00    -0.198 F 
ENDROOT
BRANCH   2  10
HETATM   10  C1  UNL     1     -36.962  14.446  -5.594  1.00 20.00     0.233 C 
HETATM   11  O7  UNL     1     -37.680  13.680  -4.959  1.00 20.00    -0.279 OA
HETATM   12 CL12 UNL     1     -36.885  14.581  -7.326  1.00 20.00    -0.043 Cl
ENDBRANCH   2  10
TORSDOF 1
ENDMDL
MODEL 3
REMARK VINA RESULT:      -4.5      1.451      2.532
REMARK  1 active torsions:
REMARK  status: ('A' for Active; 'I' for Inactive)
REMARK    1  A    between atoms: C1_1  and  C3_3 
ROOT
HETATM    1  C2  UNL     1     -33.477  14.389  -4.755  1.00 20.00     0.110 C 
HETATM    2  C3  UNL     1     -34.485  14.680  -5.904  1.00 20.00     0.110 C 
HETATM    3  C4  UNL     1     -34.119  15.533  -3.947  1.00 20.00     0.310 C 
HETATM    4  C5  UNL     1     -34.654  16.108  -5.283  1.00 20.00     0.323 C 
HETATM    5  C6  UNL     1     -33.822  14.696  -7.280  1.00 20.00     0.031 C 
HETATM    6  F8  UNL     1     -33.259  16.329  -3.274  1.00 20.00    -0.200 F 
HETATM    7  F9  UNL     1     -35.071  15.153  -3.062  1.00 20.00    -0.200 F 
HETATM    8  F10 UNL     1     -35.917  16.587  -5.246  1.00 20.00    -0.198 F 
HETATM    9  F11 UNL     1     -33.887  17.083  -5.826  1.00 20.00    -0.198 F 
ENDROOT
BRANCH   2  10
HETATM   10  C1  UNL     1     -35.770  13.795  -5.901  1.00 20.00     0.233 C 
HETATM   11  O7  UNL     1     -35.877  12.815  -5.170  1.00 20.00    -0.279 OA
HETATM   12 CL12 UNL     1     -36.965  14.372  -7.024  1.00 20.00    -0.043 Cl
ENDBRANCH   2  10
TORSDOF 1
ENDMDL
MODEL 4
REMARK VINA RESULT:      -4.5      1.876      2.475
REMARK  1 active torsions:
REMARK  status: ('A' for Active; 'I' for Inactive)
REMARK    1  A    between atoms: C1_1  and  C3_3 
ROOT
HETATM    1  C2  UNL     1     -35.648  16.368  -5.565  1.00 20.00     0.110 C 
HETATM    2  C3  UNL     1     -35.118  14.961  -5.167  1.00 20.00     0.110 C 
HETATM    3  C4  UNL     1     -35.113  16.129  -6.991  1.00 20.00     0.310 C 
HETATM    4  C5  UNL     1     -34.154  15.066  -6.396  1.00 20.00     0.323 C 
HETATM    5  C6  UNL     1     -34.386  14.966  -3.825  1.00 20.00     0.031 C 
HETATM    6  F8  UNL     1     -34.514  17.190  -7.577  1.00 20.00    -0.200 F 
HETATM    7  F9  UNL     1     -36.019  15.655  -7.877  1.00 20.00    -0.200 F 
HETATM    8  F10 UNL     1     -34.010  13.939  -7.129  1.00 20.00    -0.198 F 
HETATM    9  F11 UNL     1     -32.905  15.517  -6.133  1.00 20.00    -0.198 F 
ENDROOT
BRANCH   2  10
HETATM   10  C1  UNL     1     -36.169  13.810  -5.238  1.00 20.00     0.233 C 
HETATM   11  O7  UNL     1     -35.835  12.629  -5.227  1.00 20.00    -0.279 OA
HETATM   12 CL12 UNL     1     -37.796  14.415  -5.330  1.00 20.00    -0.043 Cl
ENDBRANCH   2  10
TORSDOF 1
ENDMDL
MODEL 5
REMARK VINA RESULT:      -4.3      2.426      3.384
REMARK  1 active torsions:
REMARK  status: ('A' for Active; 'I' for Inactive)
REMARK    1  A    between atoms: C1_1  and  C3_3 
ROOT
HETATM    1  C2  UNL     1     -36.022  15.766  -5.808  1.00 20.00     0.110 C 
HETATM    2  C3  UNL     1     -34.685  14.972  -5.849  1.00 20.00     0.110 C 
HETATM    3  C4  UNL     1     -36.278  15.195  -4.399  1.00 20.00     0.310 C 
HETATM    4  C5  UNL     1     -35.293  14.048  -4.741  1.00 20.00     0.323 C 
HETATM    5  C6  UNL     1     -34.467  14.254  -7.180  1.00 20.00     0.031 C 
HETATM    6  F8  UNL     1     -37.550  14.814  -4.144  1.00 20.00    -0.200 F 
HETATM    7  F9  UNL     1     -35.898  15.993  -3.374  1.00 20.00    -0.200 F 
HETATM    8  F10 UNL     1     -34.452  13.688  -3.747  1.00 20.00    -0.198 F 
HETATM    9  F11 UNL     1     -35.883  12.910  -5.178  1.00 20.00    -0.198 F 
ENDROOT
BRANCH   2  10
HETATM   10  C1  UNL     1     -33.419  15.779  -5.423  1.00 20.00     0.233 C 
HETATM   11  O7  UNL     1     -32.357  15.224  -5.161  1.00 20.00    -0.279 OA
HETATM   12 CL12 UNL     1     -33.720  17.491  -5.378  1.00 20.00    -0.043 Cl
ENDBRANCH   2  10
TORSDOF 1
ENDMDL
MODEL 6
REMARK VINA RESULT:      -4.3      2.732      3.577
REMARK  1 active torsions:
REMARK  status: ('A' for Active; 'I' for Inactive)
REMARK    1  A    between atoms: C1_1  and  C3_3 
ROOT
HETATM    1  C2  UNL     1     -35.388  15.887  -5.270  1.00 20.00     0.110 C 
HETATM    2  C3  UNL     1     -34.270  16.496  -4.377  1.00 20.00     0.110 C 
HETATM    3  C4  UNL     1     -34.672  14.524  -5.180  1.00 20.00     0.310 C 
HETATM    4  C5  UNL     1     -33.374  15.290  -4.818  1.00 20.00     0.323 C 
HETATM    5  C6  UNL     1     -33.768  17.842  -4.897  1.00 20.00     0.031 C 
HETATM    6  F8  UNL     1     -34.627  13.810  -6.326  1.00 20.00    -0.200 F 
HETATM    7  F9  UNL     1     -35.135  13.691  -4.219  1.00 20.00    -0.200 F 
HETATM    8  F10 UNL     1     -32.621  14.730  -3.846  1.00 20.00    -0.198 F 
HETATM    9  F11 UNL     1     -32.544  15.520  -5.863  1.00 20.00    -0.198 F 
ENDROOT
BRANCH   2  10
HETATM   10  C1  UNL     1     -34.599  16.560  -2.853  1.00 20.00     0.233 C 
HETATM   11  O7  UNL     1     -35.690  16.211  -2.412  1.00 20.00    -0.279 OA
HETATM   12 CL12 UNL     1     -33.262  17.166  -1.921  1.00 20.00    -0.043 Cl
ENDBRANCH   2  10
TORSDOF 1
ENDMDL
MODEL 7
REMARK VINA RESULT:      -4.3     11.302     12.144
REMARK  1 active torsions:
REMARK  status: ('A' for Active; 'I' for Inactive)
REMARK    1  A    between atoms: C1_1  and  C3_3 
ROOT
HETATM    1  C2  UNL     1     -34.199   8.216   3.369  1.00 20.00     0.110 C 
HETATM    2  C3  UNL     1     -33.798   7.026   4.288  1.00 20.00     0.110 C 
HETATM    3  C4  UNL     1     -33.365   7.580   2.239  1.00 20.00     0.310 C 
HETATM    4  C5  UNL     1     -32.584   6.798   3.326  1.00 20.00     0.323 C 
HETATM    5  C6  UNL     1     -33.383   7.476   5.687  1.00 20.00     0.031 C 
HETATM    6  F8  UNL     1     -32.630   8.440   1.499  1.00 20.00    -0.200 F 
HETATM    7  F9  UNL     1     -34.062   6.813   1.367  1.00 20.00    -0.200 F 
HETATM    8  F10 UNL     1     -32.303   5.510   3.027  1.00 20.00    -0.198 F 
HETATM    9  F11 UNL     1     -31.416   7.370   3.702  1.00 20.00    -0.198 F 
ENDROOT
BRANCH   2  10
HETATM   10  C1  UNL     1     -34.830   5.856   4.348  1.00 20.00     0.233 C 
HETATM   11  O7  UNL     1     -35.816   5.827   3.618  1.00 20.00    -0.279 OA
HETATM   12 CL12 UNL     1     -34.399   4.665   5.539  1.00 20.00    -0.043 Cl
ENDBRANCH   2  10
TORSDOF 1
ENDMDL
MODEL 8
REMARK VINA RESULT:      -4.2      2.416      2.853
REMARK  1 active torsions:
REMARK  status: ('A' for Active; 'I' for Inactive)
REMARK    1  A    between atoms: C1_1  and  C3_3 
ROOT
HETATM    1  C2  UNL     1     -33.596  16.031  -3.603  1.00 20.00     0.110 C 
HETATM    2  C3  UNL     1     -34.972  16.013  -4.327  1.00 20.00     0.110 C 
HETATM    3  C4  UNL     1     -33.095  14.967  -4.600  1.00 20.00     0.310 C 
HETATM    4  C5  UNL     1     -34.576  14.599  -4.870  1.00 20.00     0.323 C 
HETATM    5  C6  UNL     1     -36.150  15.977  -3.354  1.00 20.00     0.031 C 
HETATM    6  F8  UNL     1     -32.337  13.980  -4.071  1.00 20.00    -0.200 F 
HETATM    7  F9  UNL     1     -32.417  15.449  -5.668  1.00 20.00    -0.200 F 
HETATM    8  F10 UNL     1     -34.888  14.356  -6.163  1.00 20.00    -0.198 F 
HETATM    9  F11 UNL     1     -35.034  13.542  -4.158  1.00 20.00    -0.198 F 
ENDROOT
BRANCH   2  10
HETATM   10  C1  UNL     1     -35.165  17.115  -5.415  1.00 20.00     0.233 C 
HETATM   11  O7  UNL     1     -36.110  17.092  -6.197  1.00 20.00    -0.279 OA
HETATM   12 CL12 UNL     1     -33.911  18.317  -5.357  1.00 20.00    -0.043 Cl
ENDBRANCH   2  10
TORSDOF 1
ENDMDL
MODEL 9
REMARK VINA RESULT:      -4.2      2.719      3.699
REMARK  1 active torsions:
REMARK  status: ('A' for Active; 'I' for Inactive)
REMARK    1  A    between atoms: C1_1  and  C3_3 
ROOT
HETATM    1  C2  UNL     1     -36.246  15.199  -4.197  1.00 20.00     0.110 C 
HETATM    2  C3  UNL     1     -35.316  16.175  -4.974  1.00 20.00     0.110 C 
HETATM    3  C4  UNL     1     -35.365  14.029  -4.678  1.00 20.00     0.310 C 
HETATM    4  C5  UNL     1     -34.875  14.942  -5.832  1.00 20.00     0.323 C 
HETATM    5  C6  UNL     1     -36.095  17.218  -5.775  1.00 20.00     0.031 C 
HETATM    6  F8  UNL     1     -36.028  12.914  -5.059  1.00 20.00    -0.200 F 
HETATM    7  F9  UNL     1     -34.404  13.634  -3.810  1.00 20.00    -0.200 F 
HETATM    8  F10 UNL     1     -33.556  14.863  -6.115  1.00 20.00    -0.198 F 
HETATM    9  F11 UNL     1     -35.531  14.771  -7.004  1.00 20.00    -0.198 F 
ENDROOT
BRANCH   2  10
HETATM   10  C1  UNL     1     -34.187  16.835  -4.124  1.00 20.00     0.233 C 
HETATM   11  O7  UNL     1     -33.286  17.487  -4.643  1.00 20.00    -0.279 OA
HETATM   12 CL12 UNL     1     -34.384  16.528  -2.424  1.00 20.00    -0.043 Cl
ENDBRANCH   2  10
TORSDOF 1
ENDMDL
