MODEL 1
REMARK VINA RESULT:      -4.4      0.000      0.000
REMARK  1 active torsions:
REMARK  status: ('A' for Active; 'I' for Inactive)
REMARK    1  A    between atoms: C4_4  and  N7_7 
ROOT
HETATM    1  C1  UNL     1     -32.127   8.861   1.825  1.00 20.00     0.163 C 
HETATM    2  N7  UNL     1     -31.788   8.387   2.858  1.00 20.00    -0.231 NA
HETATM    3  S9  UNL     1     -32.573   9.507   0.437  1.00 20.00    -0.055 SA
ENDROOT
BRANCH   2   4
HETATM    4  C4  UNL     1     -32.651   7.415   3.338  1.00 20.00     0.094 A 
HETATM    5  C2  UNL     1     -33.173   6.312   2.637  1.00 20.00     0.171 A 
HETATM    6  N6  UNL     1     -33.980   5.559   3.389  1.00 20.00    -0.183 NA
HETATM    7  N8  UNL     1     -33.968   6.190   4.576  1.00 20.00    -0.283 N 
HETATM    8  C3  UNL     1     -33.187   7.308   4.597  1.00 20.00     0.145 A 
HETATM    9  C5  UNL     1     -34.740   5.663   5.676  1.00 20.00     0.179 C 
ENDBRANCH   2   4
TORSDOF 1
ENDMDL
MODEL 2
REMARK VINA RESULT:      -3.7     11.394     11.892
REMARK  1 active torsions:
REMARK  status: ('A' for Active; 'I' for Inactive)
REMARK    1  A    between atoms: C4_4  and  N7_7 
ROOT
HETATM    1  C1  UNL     1     -38.359  14.883  -4.804  1.00 20.00     0.163 C 
HETATM    2  N7  UNL     1     -37.845  13.845  -5.061  1.00 20.00    -0.231 NA
HETATM    3  S9  UNL     1     -39.060  16.273  -4.460  1.00 20.00    -0.055 SA
ENDROOT
BRANCH   2   4
HETATM    4  C4  UNL     1     -36.473  13.925  -5.229  1.00 20.00     0.094 A 
HETATM    5  C2  UNL     1     -35.698  13.334  -6.246  1.00 20.00     0.171 A 
HETATM    6  N6  UNL     1     -34.396  13.604  -6.124  1.00 20.00    -0.183 NA
HETATM    7  N8  UNL     1     -34.345  14.373  -5.023  1.00 20.00    -0.283 N 
HETATM    8  C3  UNL     1     -35.563  14.595  -4.450  1.00 20.00     0.145 A 
HETATM    9  C5  UNL     1     -33.075  14.877  -4.559  1.00 20.00     0.179 C 
ENDBRANCH   2   4
TORSDOF 1
ENDMDL
MODEL 3
REMARK VINA RESULT:      -3.6     11.002     11.149
REMARK  1 active torsions:
REMARK  status: ('A' for Active; 'I' for Inactive)
REMARK    1  A    between atoms: C4_4  and  N7_7 
ROOT
HETATM    1  C1  UNL     1     -34.304  16.980  -1.940  1.00 20.00     0.163 C 
HETATM    2  N7  UNL     1     -33.544  16.747  -2.821  1.00 20.00    -0.231 NA
HETATM    3  S9  UNL     1     -35.317  17.301  -0.751  1.00 20.00    -0.055 SA
ENDROOT
BRANCH   2   4
HETATM    4  C4  UNL     1     -33.936  15.698  -3.637  1.00 20.00     0.094 A 
HETATM    5  C2  UNL     1     -33.106  14.808  -4.345  1.00 20.00     0.171 A 
HETATM    6  N6  UNL     1     -33.799  13.904  -5.043  1.00 20.00    -0.183 NA
HETATM    7  N8  UNL     1     -35.076  14.224  -4.774  1.00 20.00    -0.283 N 
HETATM    8  C3  UNL     1     -35.212  15.291  -3.936  1.00 20.00     0.145 A 
HETATM    9  C5  UNL     1     -36.146  13.452  -5.360  1.00 20.00     0.179 C 
ENDBRANCH   2   4
TORSDOF 1
ENDMDL
MODEL 4
REMARK VINA RESULT:      -3.5     10.719     11.627
REMARK  1 active torsions:
REMARK  status: ('A' for Active; 'I' for Inactive)
REMARK    1  A    between atoms: C4_4  and  N7_7 
ROOT
HETATM    1  C1  UNL     1     -34.239  16.566  -2.615  1.00 20.00     0.163 C 
HETATM    2  N7  UNL     1     -33.437  16.281  -3.440  1.00 20.00    -0.231 NA
HETATM    3  S9  UNL     1     -35.310  16.956  -1.498  1.00 20.00    -0.055 SA
ENDROOT
BRANCH   2   4
HETATM    4  C4  UNL     1     -33.884  15.343  -4.356  1.00 20.00     0.094 A 
HETATM    5  C2  UNL     1     -34.662  14.198  -4.099  1.00 20.00     0.171 A 
HETATM    6  N6  UNL     1     -34.926  13.496  -5.204  1.00 20.00    -0.183 NA
HETATM    7  N8  UNL     1     -34.312  14.202  -6.168  1.00 20.00    -0.283 N 
HETATM    8  C3  UNL     1     -33.674  15.318  -5.713  1.00 20.00     0.145 A 
HETATM    9  C5  UNL     1     -34.375  13.750  -7.538  1.00 20.00     0.179 C 
ENDBRANCH   2   4
TORSDOF 1
ENDMDL
MODEL 5
REMARK VINA RESULT:      -3.3      2.567      4.329
REMARK  1 active torsions:
REMARK  status: ('A' for Active; 'I' for Inactive)
REMARK    1  A    between atoms: C4_4  and  N7_7 
ROOT
HETATM    1  C1  UNL     1     -33.884   5.642   3.859  1.00 20.00     0.163 C 
HETATM    2  N7  UNL     1     -33.302   5.777   2.835  1.00 20.00    -0.231 NA
HETATM    3  S9  UNL     1     -34.670   5.449   5.233  1.00 20.00    -0.055 SA
ENDROOT
BRANCH   2   4
HETATM    4  C4  UNL     1     -32.830   7.062   2.623  1.00 20.00     0.094 A 
HETATM    5  C2  UNL     1     -31.920   7.783   3.421  1.00 20.00     0.171 A 
HETATM    6  N6  UNL     1     -31.668   9.003   2.940  1.00 20.00    -0.183 NA
HETATM    7  N8  UNL     1     -32.423   9.055   1.830  1.00 20.00    -0.283 N 
HETATM    8  C3  UNL     1     -33.138   7.918   1.595  1.00 20.00     0.145 A 
HETATM    9  C5  UNL     1     -32.417  10.247   1.015  1.00 20.00     0.179 C 
ENDBRANCH   2   4
TORSDOF 1
ENDMDL
MODEL 6
REMARK VINA RESULT:      -3.3     10.954     11.520
REMARK  1 active torsions:
REMARK  status: ('A' for Active; 'I' for Inactive)
REMARK    1  A    between atoms: C4_4  and  N7_7 
ROOT
HETATM    1  C1  UNL     1     -35.593  13.441  -6.352  1.00 20.00     0.163 C 
HETATM    2  N7  UNL     1     -35.472  13.233  -5.191  1.00 20.00    -0.231 NA
HETATM    3  S9  UNL     1     -35.755  13.709  -7.916  1.00 20.00    -0.055 SA
ENDROOT
BRANCH   2   4
HETATM    4  C4  UNL     1     -35.393  14.382  -4.421  1.00 20.00     0.094 A 
HETATM    5  C2  UNL     1     -36.423  15.303  -4.148  1.00 20.00     0.171 A 
HETATM    6  N6  UNL     1     -36.021  16.309  -3.368  1.00 20.00    -0.183 NA
HETATM    7  N8  UNL     1     -34.727  16.023  -3.144  1.00 20.00    -0.283 N 
HETATM    8  C3  UNL     1     -34.302  14.879  -3.752  1.00 20.00     0.145 A 
HETATM    9  C5  UNL     1     -33.931  16.902  -2.320  1.00 20.00     0.179 C 
ENDBRANCH   2   4
TORSDOF 1
ENDMDL
MODEL 7
REMARK VINA RESULT:      -3.3     11.031     11.460
REMARK  1 active torsions:
REMARK  status: ('A' for Active; 'I' for Inactive)
REMARK    1  A    between atoms: C4_4  and  N7_7 
ROOT
HETATM    1  C1  UNL     1     -34.618  16.344  -2.563  1.00 20.00     0.163 C 
HETATM    2  N7  UNL     1     -34.345  15.689  -3.513  1.00 20.00    -0.231 NA
HETATM    3  S9  UNL     1     -34.974  17.227  -1.283  1.00 20.00    -0.055 SA
ENDROOT
BRANCH   2   4
HETATM    4  C4  UNL     1     -35.439  15.089  -4.114  1.00 20.00     0.094 A 
HETATM    5  C2  UNL     1     -35.476  13.853  -4.786  1.00 20.00     0.171 A 
HETATM    6  N6  UNL     1     -36.692  13.558  -5.254  1.00 20.00    -0.183 NA
HETATM    7  N8  UNL     1     -37.430  14.614  -4.875  1.00 20.00    -0.283 N 
HETATM    8  C3  UNL     1     -36.727  15.559  -4.188  1.00 20.00     0.145 A 
HETATM    9  C5  UNL     1     -38.835  14.662  -5.204  1.00 20.00     0.179 C 
ENDBRANCH   2   4
TORSDOF 1
ENDMDL
MODEL 8
REMARK VINA RESULT:      -3.3      2.531      4.275
REMARK  1 active torsions:
REMARK  status: ('A' for Active; 'I' for Inactive)
REMARK    1  A    between atoms: C4_4  and  N7_7 
ROOT
HETATM    1  C1  UNL     1     -34.222   5.853   4.509  1.00 20.00     0.163 C 
HETATM    2  N7  UNL     1     -34.117   7.030   4.603  1.00 20.00    -0.231 NA
HETATM    3  S9  UNL     1     -34.370   4.270   4.392  1.00 20.00    -0.055 SA
ENDROOT
BRANCH   2   4
HETATM    4  C4  UNL     1     -33.163   7.578   3.761  1.00 20.00     0.094 A 
HETATM    5  C2  UNL     1     -31.894   8.075   4.114  1.00 20.00     0.171 A 
HETATM    6  N6  UNL     1     -31.211   8.536   3.063  1.00 20.00    -0.183 NA
HETATM    7  N8  UNL     1     -32.053   8.328   2.037  1.00 20.00    -0.283 N 
HETATM    8  C3  UNL     1     -33.235   7.755   2.402  1.00 20.00     0.145 A 
HETATM    9  C5  UNL     1     -31.659   8.704   0.700  1.00 20.00     0.179 C 
ENDBRANCH   2   4
TORSDOF 1
ENDMDL
MODEL 9
REMARK VINA RESULT:      -3.2     10.949     11.512
REMARK  1 active torsions:
REMARK  status: ('A' for Active; 'I' for Inactive)
REMARK    1  A    between atoms: C4_4  and  N7_7 
ROOT
HETATM    1  C1  UNL     1     -34.862  16.673  -2.439  1.00 20.00     0.163 C 
HETATM    2  N7  UNL     1     -35.716  16.109  -3.037  1.00 20.00    -0.231 NA
HETATM    3  S9  UNL     1     -33.722  17.439  -1.628  1.00 20.00    -0.055 SA
ENDROOT
BRANCH   2   4
HETATM    4  C4  UNL     1     -35.242  15.260  -4.024  1.00 20.00     0.094 A 
HETATM    5  C2  UNL     1     -33.950  14.711  -4.134  1.00 20.00     0.171 A 
HETATM    6  N6  UNL     1     -33.814  13.927  -5.206  1.00 20.00    -0.183 NA
HETATM    7  N8  UNL     1     -35.028  13.979  -5.779  1.00 20.00    -0.283 N 
HETATM    8  C3  UNL     1     -35.920  14.763  -5.110  1.00 20.00     0.145 A 
HETATM    9  C5  UNL     1     -35.280  13.238  -6.992  1.00 20.00     0.179 C 
ENDBRANCH   2   4
TORSDOF 1
ENDMDL
