MODEL 1
REMARK VINA RESULT:      -5.7      0.000      0.000
REMARK  0 active torsions:
REMARK  status: ('A' for Active; 'I' for Inactive)
ROOT
HETATM    1  C1  UNL     1     -34.692   5.206   5.321  1.00 20.00     0.000 C 
HETATM    2  C2  UNL     1     -34.008   6.487   5.798  1.00 20.00     0.001 C 
HETATM    3  C3  UNL     1     -34.087   4.704   4.010  1.00 20.00     0.001 C 
HETATM    4  C4  UNL     1     -34.038   7.572   4.722  1.00 20.00     0.009 C 
HETATM    5  C5  UNL     1     -34.117   5.785   2.929  1.00 20.00     0.009 C 
HETATM    6  C6  UNL     1     -31.982   7.247   3.165  1.00 20.00     0.010 A 
HETATM    7  C7  UNL     1     -32.989   8.057   2.402  1.00 20.00     0.010 A 
HETATM    8  C8  UNL     1     -33.458   7.050   3.427  1.00 20.00    -0.040 A 
ENDROOT
TORSDOF 0
ENDMDL
MODEL 2
REMARK VINA RESULT:      -5.7      1.066      1.989
REMARK  0 active torsions:
REMARK  status: ('A' for Active; 'I' for Inactive)
ROOT
HETATM    1  C1  UNL     1     -33.975   7.174   6.053  1.00 20.00     0.000 C 
HETATM    2  C2  UNL     1     -32.934   7.611   5.021  1.00 20.00     0.001 C 
HETATM    3  C3  UNL     1     -34.467   5.752   5.783  1.00 20.00     0.001 C 
HETATM    4  C4  UNL     1     -33.465   7.469   3.596  1.00 20.00     0.009 C 
HETATM    5  C5  UNL     1     -35.001   5.605   4.358  1.00 20.00     0.009 C 
HETATM    6  C6  UNL     1     -33.012   5.042   2.784  1.00 20.00     0.010 A 
HETATM    7  C7  UNL     1     -34.111   5.596   1.925  1.00 20.00     0.010 A 
HETATM    8  C8  UNL     1     -33.969   6.064   3.355  1.00 20.00    -0.040 A 
ENDROOT
TORSDOF 0
ENDMDL
MODEL 3
REMARK VINA RESULT:      -5.5      0.881      2.101
REMARK  0 active torsions:
REMARK  status: ('A' for Active; 'I' for Inactive)
ROOT
HETATM    1  C1  UNL     1     -34.516   5.855   5.200  1.00 20.00     0.000 C 
HETATM    2  C2  UNL     1     -34.603   5.583   3.698  1.00 20.00     0.001 C 
HETATM    3  C3  UNL     1     -34.041   7.280   5.483  1.00 20.00     0.001 C 
HETATM    4  C4  UNL     1     -33.278   5.875   2.998  1.00 20.00     0.009 C 
HETATM    5  C5  UNL     1     -32.714   7.577   4.786  1.00 20.00     0.009 C 
HETATM    6  C6  UNL     1     -33.213   8.397   2.371  1.00 20.00     0.010 A 
HETATM    7  C7  UNL     1     -31.793   7.910   2.387  1.00 20.00     0.010 A 
HETATM    8  C8  UNL     1     -32.812   7.279   3.308  1.00 20.00    -0.040 A 
ENDROOT
TORSDOF 0
ENDMDL
MODEL 4
REMARK VINA RESULT:      -5.1      1.087      2.973
REMARK  0 active torsions:
REMARK  status: ('A' for Active; 'I' for Inactive)
ROOT
HETATM    1  C1  UNL     1     -32.097   8.024   3.790  1.00 20.00     0.000 C 
HETATM    2  C2  UNL     1     -33.098   8.050   4.946  1.00 20.00     0.001 C 
HETATM    3  C3  UNL     1     -32.628   7.213   2.608  1.00 20.00     0.001 C 
HETATM    4  C4  UNL     1     -33.493   6.638   5.376  1.00 20.00     0.009 C 
HETATM    5  C5  UNL     1     -33.023   5.798   3.033  1.00 20.00     0.009 C 
HETATM    6  C6  UNL     1     -35.475   5.847   3.892  1.00 20.00     0.010 A 
HETATM    7  C7  UNL     1     -34.833   4.616   4.462  1.00 20.00     0.010 A 
HETATM    8  C8  UNL     1     -33.992   5.843   4.191  1.00 20.00    -0.040 A 
ENDROOT
TORSDOF 0
ENDMDL
MODEL 5
REMARK VINA RESULT:      -4.8      0.966      3.431
REMARK  0 active torsions:
REMARK  status: ('A' for Active; 'I' for Inactive)
ROOT
HETATM    1  C1  UNL     1     -32.997   7.660   2.924  1.00 20.00     0.000 C 
HETATM    2  C2  UNL     1     -33.602   6.310   2.537  1.00 20.00     0.001 C 
HETATM    3  C3  UNL     1     -32.538   7.670   4.382  1.00 20.00     0.001 C 
HETATM    4  C4  UNL     1     -34.738   5.915   3.478  1.00 20.00     0.009 C 
HETATM    5  C5  UNL     1     -33.672   7.277   5.329  1.00 20.00     0.009 C 
HETATM    6  C6  UNL     1     -33.720   4.687   5.530  1.00 20.00     0.010 A 
HETATM    7  C7  UNL     1     -35.074   5.186   5.943  1.00 20.00     0.010 A 
HETATM    8  C8  UNL     1     -34.273   5.953   4.916  1.00 20.00    -0.040 A 
ENDROOT
TORSDOF 0
ENDMDL
MODEL 6
REMARK VINA RESULT:      -4.4      0.967      2.384
REMARK  0 active torsions:
REMARK  status: ('A' for Active; 'I' for Inactive)
ROOT
HETATM    1  C1  UNL     1     -34.158   6.625   6.163  1.00 20.00     0.000 C 
HETATM    2  C2  UNL     1     -34.866   5.414   5.555  1.00 20.00     0.001 C 
HETATM    3  C3  UNL     1     -33.729   7.621   5.086  1.00 20.00     0.001 C 
HETATM    4  C4  UNL     1     -34.006   4.740   4.488  1.00 20.00     0.009 C 
HETATM    5  C5  UNL     1     -32.866   6.951   4.016  1.00 20.00     0.009 C 
HETATM    6  C6  UNL     1     -34.433   5.926   2.214  1.00 20.00     0.010 A 
HETATM    7  C7  UNL     1     -33.112   5.222   2.103  1.00 20.00     0.010 A 
HETATM    8  C8  UNL     1     -33.572   5.744   3.444  1.00 20.00    -0.040 A 
ENDROOT
TORSDOF 0
ENDMDL
MODEL 7
REMARK VINA RESULT:      -4.2      1.274      1.749
REMARK  0 active torsions:
REMARK  status: ('A' for Active; 'I' for Inactive)
ROOT
HETATM    1  C1  UNL     1     -34.000   3.767   3.812  1.00 20.00     0.000 C 
HETATM    2  C2  UNL     1     -34.288   4.429   5.160  1.00 20.00     0.001 C 
HETATM    3  C3  UNL     1     -33.091   4.638   2.944  1.00 20.00     0.001 C 
HETATM    4  C4  UNL     1     -34.868   5.831   4.983  1.00 20.00     0.009 C 
HETATM    5  C5  UNL     1     -33.668   6.042   2.762  1.00 20.00     0.009 C 
HETATM    6  C6  UNL     1     -32.901   7.515   4.760  1.00 20.00     0.010 A 
HETATM    7  C7  UNL     1     -34.113   8.172   4.167  1.00 20.00     0.010 A 
HETATM    8  C8  UNL     1     -33.968   6.669   4.103  1.00 20.00    -0.040 A 
ENDROOT
TORSDOF 0
ENDMDL
MODEL 8
REMARK VINA RESULT:      -3.7     11.611     12.993
REMARK  0 active torsions:
REMARK  status: ('A' for Active; 'I' for Inactive)
ROOT
HETATM    1  C1  UNL     1     -33.408  15.919  -5.914  1.00 20.00     0.000 C 
HETATM    2  C2  UNL     1     -33.110  14.999  -4.730  1.00 20.00     0.001 C 
HETATM    3  C3  UNL     1     -33.699  17.347  -5.452  1.00 20.00     0.001 C 
HETATM    4  C4  UNL     1     -34.237  15.030  -3.699  1.00 20.00     0.009 C 
HETATM    5  C5  UNL     1     -34.828  17.384  -4.422  1.00 20.00     0.009 C 
HETATM    6  C6  UNL     1     -33.806  17.003  -2.063  1.00 20.00     0.010 A 
HETATM    7  C7  UNL     1     -35.266  16.666  -1.972  1.00 20.00     0.010 A 
HETATM    8  C8  UNL     1     -34.527  16.451  -3.272  1.00 20.00    -0.040 A 
ENDROOT
TORSDOF 0
ENDMDL
MODEL 9
REMARK VINA RESULT:      -3.6     11.410     12.779
REMARK  0 active torsions:
REMARK  status: ('A' for Active; 'I' for Inactive)
ROOT
HETATM    1  C1  UNL     1     -34.411  13.921  -6.703  1.00 20.00     0.000 C 
HETATM    2  C2  UNL     1     -33.792  15.316  -6.789  1.00 20.00     0.001 C 
HETATM    3  C3  UNL     1     -35.376  13.809  -5.523  1.00 20.00     0.001 C 
HETATM    4  C4  UNL     1     -33.112  15.709  -5.479  1.00 20.00     0.009 C 
HETATM    5  C5  UNL     1     -34.700  14.200  -4.208  1.00 20.00     0.009 C 
HETATM    6  C6  UNL     1     -34.892  16.774  -3.913  1.00 20.00     0.010 A 
HETATM    7  C7  UNL     1     -33.759  16.313  -3.043  1.00 20.00     0.010 A 
HETATM    8  C8  UNL     1     -34.073  15.570  -4.320  1.00 20.00    -0.040 A 
ENDROOT
TORSDOF 0
ENDMDL
