MODEL 1
REMARK VINA RESULT:      -5.2      0.000      0.000
REMARK  1 active torsions:
REMARK  status: ('A' for Active; 'I' for Inactive)
REMARK    1  A    between atoms: C2_2  and  C3_3 
ROOT
HETATM    1  C1  UNL     1     -32.840   7.147   3.251  1.00 20.00    -0.019 C 
HETATM    2  C2  UNL     1     -33.633   6.775   4.272  1.00 20.00    -0.004 C 
HETATM    3  C4  UNL     1     -31.766   8.189   3.265  1.00 20.00     0.036 C 
HETATM    4  C5  UNL     1     -33.607   7.381   5.649  1.00 20.00     0.053 C 
ENDROOT
BRANCH   2   5
HETATM    5  C3  UNL     1     -34.658   5.670   4.088  1.00 20.00     0.247 C 
HETATM    6  O6  UNL     1     -35.773   5.985   3.667  1.00 20.00    -0.274 OA
HETATM    7 CL7  UNL     1     -34.245   4.005   4.458  1.00 20.00    -0.039 Cl
ENDBRANCH   2   5
TORSDOF 1
ENDMDL
MODEL 2
REMARK VINA RESULT:      -4.9      1.664      2.055
REMARK  1 active torsions:
REMARK  status: ('A' for Active; 'I' for Inactive)
REMARK    1  A    between atoms: C2_2  and  C3_3 
ROOT
HETATM    1  C1  UNL     1     -32.566   7.795   3.518  1.00 20.00    -0.019 C 
HETATM    2  C2  UNL     1     -33.447   6.811   3.772  1.00 20.00    -0.004 C 
HETATM    3  C4  UNL     1     -31.990   8.182   2.192  1.00 20.00     0.036 C 
HETATM    4  C5  UNL     1     -34.006   5.868   2.742  1.00 20.00     0.053 C 
ENDROOT
BRANCH   2   5
HETATM    5  C3  UNL     1     -33.953   6.576   5.184  1.00 20.00     0.247 C 
HETATM    6  O6  UNL     1     -33.837   7.495   5.996  1.00 20.00    -0.274 OA
HETATM    7 CL7  UNL     1     -34.684   5.041   5.622  1.00 20.00    -0.039 Cl
ENDBRANCH   2   5
TORSDOF 1
ENDMDL
MODEL 3
REMARK VINA RESULT:      -4.8      3.048      3.843
REMARK  1 active torsions:
REMARK  status: ('A' for Active; 'I' for Inactive)
REMARK    1  A    between atoms: C2_2  and  C3_3 
ROOT
HETATM    1  C1  UNL     1     -33.551   7.120   4.954  1.00 20.00    -0.019 C 
HETATM    2  C2  UNL     1     -33.205   6.994   3.660  1.00 20.00    -0.004 C 
HETATM    3  C4  UNL     1     -34.439   6.218   5.752  1.00 20.00     0.036 C 
HETATM    4  C5  UNL     1     -33.690   5.906   2.741  1.00 20.00     0.053 C 
ENDROOT
BRANCH   2   5
HETATM    5  C3  UNL     1     -32.262   7.993   3.015  1.00 20.00     0.247 C 
HETATM    6  O6  UNL     1     -31.258   8.327   3.646  1.00 20.00    -0.274 OA
HETATM    7 CL7  UNL     1     -32.603   8.631   1.415  1.00 20.00    -0.039 Cl
ENDBRANCH   2   5
TORSDOF 1
ENDMDL
MODEL 4
REMARK VINA RESULT:      -4.6      2.464      3.324
REMARK  1 active torsions:
REMARK  status: ('A' for Active; 'I' for Inactive)
REMARK    1  A    between atoms: C2_2  and  C3_3 
ROOT
HETATM    1  C1  UNL     1     -34.067   5.546   3.916  1.00 20.00    -0.019 C 
HETATM    2  C2  UNL     1     -33.541   6.739   4.246  1.00 20.00    -0.004 C 
HETATM    3  C4  UNL     1     -34.879   4.636   4.783  1.00 20.00     0.036 C 
HETATM    4  C5  UNL     1     -33.649   7.382   5.602  1.00 20.00     0.053 C 
ENDROOT
BRANCH   2   5
HETATM    5  C3  UNL     1     -32.763   7.548   3.224  1.00 20.00     0.247 C 
HETATM    6  O6  UNL     1     -33.198   7.587   2.071  1.00 20.00    -0.274 OA
HETATM    7 CL7  UNL     1     -31.301   8.400   3.690  1.00 20.00    -0.039 Cl
ENDBRANCH   2   5
TORSDOF 1
ENDMDL
MODEL 5
REMARK VINA RESULT:      -4.4      3.800      4.469
REMARK  1 active torsions:
REMARK  status: ('A' for Active; 'I' for Inactive)
REMARK    1  A    between atoms: C2_2  and  C3_3 
ROOT
HETATM    1  C1  UNL     1     -33.294   7.035   2.425  1.00 20.00    -0.019 C 
HETATM    2  C2  UNL     1     -32.346   7.983   2.528  1.00 20.00    -0.004 C 
HETATM    3  C4  UNL     1     -33.725   6.060   3.476  1.00 20.00     0.036 C 
HETATM    4  C5  UNL     1     -31.496   8.223   3.746  1.00 20.00     0.053 C 
ENDROOT
BRANCH   2   5
HETATM    5  C3  UNL     1     -32.056   8.911   1.362  1.00 20.00     0.247 C 
HETATM    6  O6  UNL     1     -31.190   8.569   0.556  1.00 20.00    -0.274 OA
HETATM    7 CL7  UNL     1     -32.947  10.414   1.181  1.00 20.00    -0.039 Cl
ENDBRANCH   2   5
TORSDOF 1
ENDMDL
MODEL 6
REMARK VINA RESULT:      -4.3      1.994      2.528
REMARK  1 active torsions:
REMARK  status: ('A' for Active; 'I' for Inactive)
REMARK    1  A    between atoms: C2_2  and  C3_3 
ROOT
HETATM    1  C1  UNL     1     -32.813   8.392   1.587  1.00 20.00    -0.019 C 
HETATM    2  C2  UNL     1     -32.499   7.860   2.782  1.00 20.00    -0.004 C 
HETATM    3  C4  UNL     1     -32.076   9.462   0.843  1.00 20.00     0.036 C 
HETATM    4  C5  UNL     1     -31.331   8.281   3.632  1.00 20.00     0.053 C 
ENDROOT
BRANCH   2   5
HETATM    5  C3  UNL     1     -33.348   6.753   3.378  1.00 20.00     0.247 C 
HETATM    6  O6  UNL     1     -33.558   5.754   2.688  1.00 20.00    -0.274 OA
HETATM    7 CL7  UNL     1     -33.992   6.905   5.005  1.00 20.00    -0.039 Cl
ENDBRANCH   2   5
TORSDOF 1
ENDMDL
MODEL 7
REMARK VINA RESULT:      -4.1      2.402      3.012
REMARK  1 active torsions:
REMARK  status: ('A' for Active; 'I' for Inactive)
REMARK    1  A    between atoms: C2_2  and  C3_3 
ROOT
HETATM    1  C1  UNL     1     -33.465   7.256   5.055  1.00 20.00    -0.019 C 
HETATM    2  C2  UNL     1     -33.819   6.298   4.180  1.00 20.00    -0.004 C 
HETATM    3  C4  UNL     1     -34.015   7.485   6.428  1.00 20.00     0.036 C 
HETATM    4  C5  UNL     1     -34.889   5.267   4.418  1.00 20.00     0.053 C 
ENDROOT
BRANCH   2   5
HETATM    5  C3  UNL     1     -33.131   6.194   2.831  1.00 20.00     0.247 C 
HETATM    6  O6  UNL     1     -33.021   5.076   2.326  1.00 20.00    -0.274 OA
HETATM    7 CL7  UNL     1     -32.527   7.635   2.029  1.00 20.00    -0.039 Cl
ENDBRANCH   2   5
TORSDOF 1
ENDMDL
MODEL 8
REMARK VINA RESULT:      -4.0      1.599      2.423
REMARK  1 active torsions:
REMARK  status: ('A' for Active; 'I' for Inactive)
REMARK    1  A    between atoms: C2_2  and  C3_3 
ROOT
HETATM    1  C1  UNL     1     -33.975   6.396   5.535  1.00 20.00    -0.019 C 
HETATM    2  C2  UNL     1     -33.716   6.147   4.239  1.00 20.00    -0.004 C 
HETATM    3  C4  UNL     1     -33.897   7.713   6.244  1.00 20.00     0.036 C 
HETATM    4  C5  UNL     1     -33.254   7.173   3.240  1.00 20.00     0.053 C 
ENDROOT
BRANCH   2   5
HETATM    5  C3  UNL     1     -33.876   4.746   3.678  1.00 20.00     0.247 C 
HETATM    6  O6  UNL     1     -34.612   3.965   4.283  1.00 20.00    -0.274 OA
HETATM    7 CL7  UNL     1     -33.039   4.277   2.207  1.00 20.00    -0.039 Cl
ENDBRANCH   2   5
TORSDOF 1
ENDMDL
MODEL 9
REMARK VINA RESULT:      -3.8      2.307      2.926
REMARK  1 active torsions:
REMARK  status: ('A' for Active; 'I' for Inactive)
REMARK    1  A    between atoms: C2_2  and  C3_3 
ROOT
HETATM    1  C1  UNL     1     -33.100   5.288   2.737  1.00 20.00    -0.019 C 
HETATM    2  C2  UNL     1     -33.811   5.582   3.840  1.00 20.00    -0.004 C 
HETATM    3  C4  UNL     1     -32.990   3.962   2.050  1.00 20.00     0.036 C 
HETATM    4  C5  UNL     1     -34.626   4.593   4.629  1.00 20.00     0.053 C 
ENDROOT
BRANCH   2   5
HETATM    5  C3  UNL     1     -33.833   6.998   4.387  1.00 20.00     0.247 C 
HETATM    6  O6  UNL     1     -33.800   7.927   3.578  1.00 20.00    -0.274 OA
HETATM    7 CL7  UNL     1     -33.915   7.281   6.117  1.00 20.00    -0.039 Cl
ENDBRANCH   2   5
TORSDOF 1
ENDMDL
