MODEL 1
REMARK VINA RESULT:      -5.0      0.000      0.000
REMARK  2 active torsions:
REMARK  status: ('A' for Active; 'I' for Inactive)
REMARK    1  A    between atoms: C1_1  and  C2_2 
REMARK    2  A    between atoms: C1_1  and  C3_3 
ROOT
HETATM    1  C3  UNL     1     -34.437   5.788   4.075  1.00 20.00     0.256 C 
HETATM    2  F4  UNL     1     -35.722   6.014   3.680  1.00 20.00    -0.207 F 
HETATM    3 CL5  UNL     1     -34.166   6.680   5.594  1.00 20.00    -0.066 Cl
HETATM    4 CL6  UNL     1     -34.251   4.040   4.363  1.00 20.00    -0.066 Cl
ENDROOT
BRANCH   1   5
HETATM    5  C1  UNL     1     -33.514   6.280   2.957  1.00 20.00     0.089 C 
BRANCH   5   6
HETATM    6  C2  UNL     1     -32.550   7.392   3.350  1.00 20.00     0.090 C 
HETATM    7 BR7  UNL     1     -32.270   8.579   1.825  1.00 20.00    -0.096 Br
ENDBRANCH   5   6
ENDBRANCH   1   5
TORSDOF 2
ENDMDL
MODEL 2
REMARK VINA RESULT:      -4.3      1.259      1.297
REMARK  2 active torsions:
REMARK  status: ('A' for Active; 'I' for Inactive)
REMARK    1  A    between atoms: C1_1  and  C2_2 
REMARK    2  A    between atoms: C1_1  and  C3_3 
ROOT
HETATM    1  C3  UNL     1     -33.878   6.899   4.122  1.00 20.00     0.256 C 
HETATM    2  F4  UNL     1     -34.694   7.884   3.649  1.00 20.00    -0.207 F 
HETATM    3 CL5  UNL     1     -33.400   7.335   5.782  1.00 20.00    -0.066 Cl
HETATM    4 CL6  UNL     1     -34.807   5.380   4.143  1.00 20.00    -0.066 Cl
ENDROOT
BRANCH   1   5
HETATM    5  C1  UNL     1     -32.667   6.810   3.190  1.00 20.00     0.089 C 
BRANCH   5   6
HETATM    6  C2  UNL     1     -31.826   8.076   3.090  1.00 20.00     0.090 C 
HETATM    7 BR7  UNL     1     -32.202   8.976   1.399  1.00 20.00    -0.096 Br
ENDBRANCH   5   6
ENDBRANCH   1   5
TORSDOF 2
ENDMDL
MODEL 3
REMARK VINA RESULT:      -4.2      1.392      1.820
REMARK  2 active torsions:
REMARK  status: ('A' for Active; 'I' for Inactive)
REMARK    1  A    between atoms: C1_1  and  C2_2 
REMARK    2  A    between atoms: C1_1  and  C3_3 
ROOT
HETATM    1  C3  UNL     1     -34.122   5.942   4.096  1.00 20.00     0.256 C 
HETATM    2  F4  UNL     1     -33.862   4.635   4.384  1.00 20.00    -0.207 F 
HETATM    3 CL5  UNL     1     -35.824   6.062   3.581  1.00 20.00    -0.066 Cl
HETATM    4 CL6  UNL     1     -33.876   6.891   5.583  1.00 20.00    -0.066 Cl
ENDROOT
BRANCH   1   5
HETATM    5  C1  UNL     1     -33.163   6.374   2.983  1.00 20.00     0.089 C 
BRANCH   5   6
HETATM    6  C2  UNL     1     -32.311   7.598   3.293  1.00 20.00     0.090 C 
HETATM    7 BR7  UNL     1     -32.206   8.735   1.710  1.00 20.00    -0.096 Br
ENDBRANCH   5   6
ENDBRANCH   1   5
TORSDOF 2
ENDMDL
MODEL 4
REMARK VINA RESULT:      -4.2      2.622      3.243
REMARK  2 active torsions:
REMARK  status: ('A' for Active; 'I' for Inactive)
REMARK    1  A    between atoms: C1_1  and  C2_2 
REMARK    2  A    between atoms: C1_1  and  C3_3 
ROOT
HETATM    1  C3  UNL     1     -33.903   5.984   2.651  1.00 20.00     0.256 C 
HETATM    2  F4  UNL     1     -34.538   5.982   1.444  1.00 20.00    -0.207 F 
HETATM    3 CL5  UNL     1     -32.893   4.520   2.742  1.00 20.00    -0.066 Cl
HETATM    4 CL6  UNL     1     -32.869   7.433   2.725  1.00 20.00    -0.066 Cl
ENDROOT
BRANCH   1   5
HETATM    5  C1  UNL     1     -34.979   5.999   3.742  1.00 20.00     0.089 C 
BRANCH   5   6
HETATM    6  C2  UNL     1     -34.494   5.642   5.141  1.00 20.00     0.090 C 
HETATM    7 BR7  UNL     1     -33.761   7.235   6.001  1.00 20.00    -0.096 Br
ENDBRANCH   5   6
ENDBRANCH   1   5
TORSDOF 2
ENDMDL
MODEL 5
REMARK VINA RESULT:      -4.1      1.375      1.780
REMARK  2 active torsions:
REMARK  status: ('A' for Active; 'I' for Inactive)
REMARK    1  A    between atoms: C1_1  and  C2_2 
REMARK    2  A    between atoms: C1_1  and  C3_3 
ROOT
HETATM    1  C3  UNL     1     -34.246   5.739   4.075  1.00 20.00     0.256 C 
HETATM    2  F4  UNL     1     -34.014   6.393   5.249  1.00 20.00    -0.207 F 
HETATM    3 CL5  UNL     1     -34.113   3.990   4.386  1.00 20.00    -0.066 Cl
HETATM    4 CL6  UNL     1     -35.901   6.131   3.546  1.00 20.00    -0.066 Cl
ENDROOT
BRANCH   1   5
HETATM    5  C1  UNL     1     -33.200   6.216   3.063  1.00 20.00     0.089 C 
BRANCH   5   6
HETATM    6  C2  UNL     1     -32.478   7.506   3.429  1.00 20.00     0.090 C 
HETATM    7 BR7  UNL     1     -32.148   8.548   1.811  1.00 20.00    -0.096 Br
ENDBRANCH   5   6
ENDBRANCH   1   5
TORSDOF 2
ENDMDL
MODEL 6
REMARK VINA RESULT:      -4.0      3.463      3.635
REMARK  2 active torsions:
REMARK  status: ('A' for Active; 'I' for Inactive)
REMARK    1  A    between atoms: C1_1  and  C2_2 
REMARK    2  A    between atoms: C1_1  and  C3_3 
ROOT
HETATM    1  C3  UNL     1     -32.785   7.265   3.149  1.00 20.00     0.256 C 
HETATM    2  F4  UNL     1     -31.645   7.489   3.864  1.00 20.00    -0.207 F 
HETATM    3 CL5  UNL     1     -32.782   8.372   1.753  1.00 20.00    -0.066 Cl
HETATM    4 CL6  UNL     1     -32.752   5.578   2.578  1.00 20.00    -0.066 Cl
ENDROOT
BRANCH   1   5
HETATM    5  C1  UNL     1     -33.975   7.526   4.077  1.00 20.00     0.089 C 
BRANCH   5   6
HETATM    6  C2  UNL     1     -33.815   7.016   5.503  1.00 20.00     0.090 C 
HETATM    7 BR7  UNL     1     -34.585   5.227   5.644  1.00 20.00    -0.096 Br
ENDBRANCH   5   6
ENDBRANCH   1   5
TORSDOF 2
ENDMDL
MODEL 7
REMARK VINA RESULT:      -4.0      3.490      3.821
REMARK  2 active torsions:
REMARK  status: ('A' for Active; 'I' for Inactive)
REMARK    1  A    between atoms: C1_1  and  C2_2 
REMARK    2  A    between atoms: C1_1  and  C3_3 
ROOT
HETATM    1  C3  UNL     1     -32.635   7.483   2.934  1.00 20.00     0.256 C 
HETATM    2  F4  UNL     1     -32.230   6.235   2.565  1.00 20.00    -0.207 F 
HETATM    3 CL5  UNL     1     -31.332   8.217   3.903  1.00 20.00    -0.066 Cl
HETATM    4 CL6  UNL     1     -32.893   8.437   1.453  1.00 20.00    -0.066 Cl
ENDROOT
BRANCH   1   5
HETATM    5  C1  UNL     1     -33.926   7.333   3.744  1.00 20.00     0.089 C 
BRANCH   5   6
HETATM    6  C2  UNL     1     -34.612   5.977   3.634  1.00 20.00     0.090 C 
HETATM    7 BR7  UNL     1     -34.594   5.096   5.376  1.00 20.00    -0.096 Br
ENDBRANCH   5   6
ENDBRANCH   1   5
TORSDOF 2
ENDMDL
MODEL 8
REMARK VINA RESULT:      -4.0      3.207      3.694
REMARK  2 active torsions:
REMARK  status: ('A' for Active; 'I' for Inactive)
REMARK    1  A    between atoms: C1_1  and  C2_2 
REMARK    2  A    between atoms: C1_1  and  C3_3 
ROOT
HETATM    1  C3  UNL     1     -32.934   7.289   3.054  1.00 20.00     0.256 C 
HETATM    2  F4  UNL     1     -33.265   7.942   1.903  1.00 20.00    -0.207 F 
HETATM    3 CL5  UNL     1     -32.669   5.573   2.653  1.00 20.00    -0.066 Cl
HETATM    4 CL6  UNL     1     -31.423   8.001   3.673  1.00 20.00    -0.066 Cl
ENDROOT
BRANCH   1   5
HETATM    5  C1  UNL     1     -34.091   7.468   4.040  1.00 20.00     0.089 C 
BRANCH   5   6
HETATM    6  C2  UNL     1     -33.829   6.964   5.453  1.00 20.00     0.090 C 
HETATM    7 BR7  UNL     1     -34.579   5.172   5.654  1.00 20.00    -0.096 Br
ENDBRANCH   5   6
ENDBRANCH   1   5
TORSDOF 2
ENDMDL
MODEL 9
REMARK VINA RESULT:      -3.9      4.718      4.943
REMARK  2 active torsions:
REMARK  status: ('A' for Active; 'I' for Inactive)
REMARK    1  A    between atoms: C1_1  and  C2_2 
REMARK    2  A    between atoms: C1_1  and  C3_3 
ROOT
HETATM    1  C3  UNL     1     -32.329   9.193   0.874  1.00 20.00     0.256 C 
HETATM    2  F4  UNL     1     -31.005   8.937   0.670  1.00 20.00    -0.207 F 
HETATM    3 CL5  UNL     1     -32.471  10.835   1.551  1.00 20.00    -0.066 Cl
HETATM    4 CL6  UNL     1     -33.151   9.121  -0.705  1.00 20.00    -0.066 Cl
ENDROOT
BRANCH   1   5
HETATM    5  C1  UNL     1     -32.864   8.134   1.841  1.00 20.00     0.089 C 
BRANCH   5   6
HETATM    6  C2  UNL     1     -32.082   7.980   3.139  1.00 20.00     0.090 C 
HETATM    7 BR7  UNL     1     -33.275   7.344   4.547  1.00 20.00    -0.096 Br
ENDBRANCH   5   6
ENDBRANCH   1   5
TORSDOF 2
ENDMDL
