MODEL 1
REMARK VINA RESULT:      -5.6      0.000      0.000
REMARK  1 active torsions:
REMARK  status: ('A' for Active; 'I' for Inactive)
REMARK    1  A    between atoms: C1_1  and  C6_6 
ROOT
HETATM    1  C2  UNL     1     -33.973   5.175   5.526  1.00 20.00     0.005 C 
HETATM    2  C3  UNL     1     -34.083   6.707   5.545  1.00 20.00     0.006 C 
HETATM    3  C4  UNL     1     -33.311   5.222   3.113  1.00 20.00     0.016 C 
HETATM    4  C5  UNL     1     -35.490   5.878   3.829  1.00 20.00     0.010 C 
HETATM    5  C6  UNL     1     -33.419   6.756   3.087  1.00 20.00     0.051 C 
HETATM    6  C7  UNL     1     -34.422   4.817   4.100  1.00 20.00    -0.013 C 
HETATM    7  C8  UNL     1     -34.536   7.042   4.111  1.00 20.00    -0.003 C 
ENDROOT
BRANCH   5   8
HETATM    8  C1  UNL     1     -32.127   7.446   3.396  1.00 20.00     0.236 C 
HETATM    9  O9  UNL     1     -31.740   8.450   2.808  1.00 20.00    -0.306 OA
ENDBRANCH   5   8
TORSDOF 1
ENDMDL
MODEL 2
REMARK VINA RESULT:      -4.8      1.765      2.443
REMARK  1 active torsions:
REMARK  status: ('A' for Active; 'I' for Inactive)
REMARK    1  A    between atoms: C1_1  and  C6_6 
ROOT
HETATM    1  C2  UNL     1     -33.259   4.480   3.284  1.00 20.00     0.005 C 
HETATM    2  C3  UNL     1     -34.419   4.767   4.249  1.00 20.00     0.006 C 
HETATM    3  C4  UNL     1     -32.673   6.912   3.215  1.00 20.00     0.016 C 
HETATM    4  C5  UNL     1     -34.720   6.087   2.306  1.00 20.00     0.010 C 
HETATM    5  C6  UNL     1     -33.830   7.243   4.173  1.00 20.00     0.051 C 
HETATM    6  C7  UNL     1     -33.234   5.734   2.396  1.00 20.00    -0.013 C 
HETATM    7  C8  UNL     1     -34.885   6.173   3.826  1.00 20.00    -0.003 C 
ENDROOT
BRANCH   5   8
HETATM    8  C1  UNL     1     -33.424   7.245   5.614  1.00 20.00     0.236 C 
HETATM    9  O9  UNL     1     -34.226   7.248   6.541  1.00 20.00    -0.306 OA
ENDBRANCH   5   8
TORSDOF 1
ENDMDL
MODEL 3
REMARK VINA RESULT:      -4.4      1.007      2.079
REMARK  1 active torsions:
REMARK  status: ('A' for Active; 'I' for Inactive)
REMARK    1  A    between atoms: C1_1  and  C6_6 
ROOT
HETATM    1  C2  UNL     1     -35.556   6.159   3.616  1.00 20.00     0.005 C 
HETATM    2  C3  UNL     1     -34.737   5.944   2.334  1.00 20.00     0.006 C 
HETATM    3  C4  UNL     1     -33.553   7.113   4.774  1.00 20.00     0.016 C 
HETATM    4  C5  UNL     1     -33.647   4.822   4.114  1.00 20.00     0.010 C 
HETATM    5  C6  UNL     1     -32.695   6.907   3.514  1.00 20.00     0.051 C 
HETATM    6  C7  UNL     1     -34.522   5.917   4.728  1.00 20.00    -0.013 C 
HETATM    7  C8  UNL     1     -33.322   5.653   2.870  1.00 20.00    -0.003 C 
ENDROOT
BRANCH   5   8
HETATM    8  C1  UNL     1     -32.671   8.100   2.611  1.00 20.00     0.236 C 
HETATM    9  O9  UNL     1     -31.723   8.379   1.885  1.00 20.00    -0.306 OA
ENDBRANCH   5   8
TORSDOF 1
ENDMDL
MODEL 4
REMARK VINA RESULT:      -4.2      2.127      3.325
REMARK  1 active torsions:
REMARK  status: ('A' for Active; 'I' for Inactive)
REMARK    1  A    between atoms: C1_1  and  C6_6 
ROOT
HETATM    1  C2  UNL     1     -32.357   6.757   3.278  1.00 20.00     0.005 C 
HETATM    2  C3  UNL     1     -33.359   5.741   2.711  1.00 20.00     0.006 C 
HETATM    3  C4  UNL     1     -33.661   6.902   5.409  1.00 20.00     0.016 C 
HETATM    4  C5  UNL     1     -34.547   7.691   3.339  1.00 20.00     0.010 C 
HETATM    5  C6  UNL     1     -34.692   5.894   4.875  1.00 20.00     0.051 C 
HETATM    6  C7  UNL     1     -33.244   7.670   4.140  1.00 20.00    -0.013 C 
HETATM    7  C8  UNL     1     -34.691   6.167   3.357  1.00 20.00    -0.003 C 
ENDROOT
BRANCH   5   8
HETATM    8  C1  UNL     1     -34.375   4.475   5.232  1.00 20.00     0.236 C 
HETATM    9  O9  UNL     1     -34.380   3.557   4.420  1.00 20.00    -0.306 OA
ENDBRANCH   5   8
TORSDOF 1
ENDMDL
MODEL 5
REMARK VINA RESULT:      -4.1     11.649     12.740
REMARK  1 active torsions:
REMARK  status: ('A' for Active; 'I' for Inactive)
REMARK    1  A    between atoms: C1_1  and  C6_6 
ROOT
HETATM    1  C2  UNL     1     -34.158  17.089  -5.295  1.00 20.00     0.005 C 
HETATM    2  C3  UNL     1     -35.570  16.757  -4.790  1.00 20.00     0.006 C 
HETATM    3  C4  UNL     1     -33.370  14.790  -4.698  1.00 20.00     0.016 C 
HETATM    4  C5  UNL     1     -34.035  16.362  -3.030  1.00 20.00     0.010 C 
HETATM    5  C6  UNL     1     -34.768  14.420  -4.173  1.00 20.00     0.051 C 
HETATM    6  C7  UNL     1     -33.257  16.285  -4.345  1.00 20.00    -0.013 C 
HETATM    7  C8  UNL     1     -35.305  15.765  -3.642  1.00 20.00    -0.003 C 
ENDROOT
BRANCH   5   8
HETATM    8  C1  UNL     1     -35.643  13.789  -5.211  1.00 20.00     0.236 C 
HETATM    9  O9  UNL     1     -35.891  12.589  -5.245  1.00 20.00    -0.306 OA
ENDBRANCH   5   8
TORSDOF 1
ENDMDL
MODEL 6
REMARK VINA RESULT:      -4.0     11.537     12.651
REMARK  1 active torsions:
REMARK  status: ('A' for Active; 'I' for Inactive)
REMARK    1  A    between atoms: C1_1  and  C6_6 
ROOT
HETATM    1  C2  UNL     1     -33.808  16.575  -4.380  1.00 20.00     0.005 C 
HETATM    2  C3  UNL     1     -34.644  15.682  -3.450  1.00 20.00     0.006 C 
HETATM    3  C4  UNL     1     -34.233  15.028  -6.301  1.00 20.00     0.016 C 
HETATM    4  C5  UNL     1     -32.932  14.360  -4.416  1.00 20.00     0.010 C 
HETATM    5  C6  UNL     1     -35.071  14.103  -5.402  1.00 20.00     0.051 C 
HETATM    6  C7  UNL     1     -33.158  15.561  -5.335  1.00 20.00    -0.013 C 
HETATM    7  C8  UNL     1     -34.408  14.270  -4.019  1.00 20.00    -0.003 C 
ENDROOT
BRANCH   5   8
HETATM    8  C1  UNL     1     -36.532  14.428  -5.414  1.00 20.00     0.236 C 
HETATM    9  O9  UNL     1     -37.393  13.685  -4.955  1.00 20.00    -0.306 OA
ENDBRANCH   5   8
TORSDOF 1
ENDMDL
MODEL 7
REMARK VINA RESULT:      -3.8      8.785      9.762
REMARK  1 active torsions:
REMARK  status: ('A' for Active; 'I' for Inactive)
REMARK    1  A    between atoms: C1_1  and  C6_6 
ROOT
HETATM    1  C2  UNL     1     -43.071   5.063  -1.112  1.00 20.00     0.005 C 
HETATM    2  C3  UNL     1     -41.545   5.225  -1.174  1.00 20.00     0.006 C 
HETATM    3  C4  UNL     1     -43.267   7.141   0.270  1.00 20.00     0.016 C 
HETATM    4  C5  UNL     1     -42.199   5.177   1.102  1.00 20.00     0.010 C 
HETATM    5  C6  UNL     1     -41.741   7.335   0.239  1.00 20.00     0.051 C 
HETATM    6  C7  UNL     1     -43.417   5.608   0.284  1.00 20.00    -0.013 C 
HETATM    7  C8  UNL     1     -41.209   5.888   0.175  1.00 20.00    -0.003 C 
ENDROOT
BRANCH   5   8
HETATM    8  C1  UNL     1     -41.276   8.199  -0.892  1.00 20.00     0.236 C 
HETATM    9  O9  UNL     1     -42.038   8.771  -1.662  1.00 20.00    -0.306 OA
ENDBRANCH   5   8
TORSDOF 1
ENDMDL
MODEL 8
REMARK VINA RESULT:      -3.8      9.076     10.281
REMARK  1 active torsions:
REMARK  status: ('A' for Active; 'I' for Inactive)
REMARK    1  A    between atoms: C1_1  and  C6_6 
ROOT
HETATM    1  C2  UNL     1     -41.807   7.885  -0.750  1.00 20.00     0.005 C 
HETATM    2  C3  UNL     1     -43.294   7.503  -0.749  1.00 20.00     0.006 C 
HETATM    3  C4  UNL     1     -41.156   5.481  -0.505  1.00 20.00     0.016 C 
HETATM    4  C5  UNL     1     -42.303   6.654   1.228  1.00 20.00     0.010 C 
HETATM    5  C6  UNL     1     -42.634   5.057  -0.491  1.00 20.00     0.051 C 
HETATM    6  C7  UNL     1     -41.186   6.850   0.202  1.00 20.00    -0.013 C 
HETATM    7  C8  UNL     1     -43.335   6.264   0.166  1.00 20.00    -0.003 C 
ENDROOT
BRANCH   5   8
HETATM    8  C1  UNL     1     -43.167   4.716  -1.848  1.00 20.00     0.236 C 
HETATM    9  O9  UNL     1     -42.838   3.711  -2.469  1.00 20.00    -0.306 OA
ENDBRANCH   5   8
TORSDOF 1
ENDMDL
MODEL 9
REMARK VINA RESULT:      -3.8     11.800     12.894
REMARK  1 active torsions:
REMARK  status: ('A' for Active; 'I' for Inactive)
REMARK    1  A    between atoms: C1_1  and  C6_6 
ROOT
HETATM    1  C2  UNL     1     -33.049  14.875  -4.463  1.00 20.00     0.005 C 
HETATM    2  C3  UNL     1     -33.199  15.533  -5.842  1.00 20.00     0.006 C 
HETATM    3  C4  UNL     1     -35.371  13.953  -4.615  1.00 20.00     0.016 C 
HETATM    4  C5  UNL     1     -34.960  16.298  -4.455  1.00 20.00     0.010 C 
HETATM    5  C6  UNL     1     -35.565  14.603  -5.995  1.00 20.00     0.051 C 
HETATM    6  C7  UNL     1     -34.470  14.966  -3.883  1.00 20.00    -0.013 C 
HETATM    7  C8  UNL     1     -34.699  15.876  -5.903  1.00 20.00    -0.003 C 
ENDROOT
BRANCH   5   8
HETATM    8  C1  UNL     1     -35.194  13.702  -7.132  1.00 20.00     0.236 C 
HETATM    9  O9  UNL     1     -34.889  12.524  -6.988  1.00 20.00    -0.306 OA
ENDBRANCH   5   8
TORSDOF 1
ENDMDL
