MODEL 1
REMARK VINA RESULT:      -4.4      0.000      0.000
REMARK  1 active torsions:
REMARK  status: ('A' for Active; 'I' for Inactive)
REMARK    1  A    between atoms: C1_1  and  C5_5 
ROOT
HETATM    1  C2  UNL     1     -34.616   6.281   3.381  1.00 20.00     0.040 C 
HETATM    2  C3  UNL     1     -33.194   6.804   3.364  1.00 20.00     0.168 C 
HETATM    3  C4  UNL     1     -33.982   6.966   5.555  1.00 20.00     0.179 C 
HETATM    4  C5  UNL     1     -34.842   5.953   4.833  1.00 20.00     0.073 C 
HETATM    5  O7  UNL     1     -32.947   7.383   4.650  1.00 20.00    -0.390 OA
ENDROOT
BRANCH   4   6
HETATM    6  C1  UNL     1     -34.332   4.550   5.117  1.00 20.00     0.237 C 
HETATM    7  O6  UNL     1     -34.311   3.656   4.279  1.00 20.00    -0.306 OA
ENDBRANCH   4   6
TORSDOF 1
ENDMDL
MODEL 2
REMARK VINA RESULT:      -4.3      1.175      2.815
REMARK  1 active torsions:
REMARK  status: ('A' for Active; 'I' for Inactive)
REMARK    1  A    between atoms: C1_1  and  C5_5 
ROOT
HETATM    1  C2  UNL     1     -35.114   5.479   4.422  1.00 20.00     0.040 C 
HETATM    2  C3  UNL     1     -34.169   4.308   4.246  1.00 20.00     0.168 C 
HETATM    3  C4  UNL     1     -33.462   6.009   2.813  1.00 20.00     0.179 C 
HETATM    4  C5  UNL     1     -34.321   6.641   3.886  1.00 20.00     0.073 C 
HETATM    5  O7  UNL     1     -33.329   4.614   3.128  1.00 20.00    -0.390 OA
ENDROOT
BRANCH   4   6
HETATM    6  C1  UNL     1     -33.438   7.199   4.989  1.00 20.00     0.237 C 
HETATM    7  O6  UNL     1     -33.808   7.328   6.150  1.00 20.00    -0.306 OA
ENDBRANCH   4   6
TORSDOF 1
ENDMDL
MODEL 3
REMARK VINA RESULT:      -4.0      1.047      3.092
REMARK  1 active torsions:
REMARK  status: ('A' for Active; 'I' for Inactive)
REMARK    1  A    between atoms: C1_1  and  C5_5 
ROOT
HETATM    1  C2  UNL     1     -34.072   6.858   5.575  1.00 20.00     0.040 C 
HETATM    2  C3  UNL     1     -34.182   5.350   5.685  1.00 20.00     0.168 C 
HETATM    3  C4  UNL     1     -35.074   5.976   3.621  1.00 20.00     0.179 C 
HETATM    4  C5  UNL     1     -34.178   7.100   4.093  1.00 20.00     0.073 C 
HETATM    5  O7  UNL     1     -34.970   4.907   4.576  1.00 20.00    -0.390 OA
ENDROOT
BRANCH   4   6
HETATM    6  C1  UNL     1     -32.804   6.962   3.461  1.00 20.00     0.237 C 
HETATM    7  O6  UNL     1     -31.948   7.839   3.506  1.00 20.00    -0.306 OA
ENDBRANCH   4   6
TORSDOF 1
ENDMDL
MODEL 4
REMARK VINA RESULT:      -4.0      1.497      2.236
REMARK  1 active torsions:
REMARK  status: ('A' for Active; 'I' for Inactive)
REMARK    1  A    between atoms: C1_1  and  C5_5 
ROOT
HETATM    1  C2  UNL     1     -34.009   7.539   4.331  1.00 20.00     0.040 C 
HETATM    2  C3  UNL     1     -33.692   6.948   5.690  1.00 20.00     0.168 C 
HETATM    3  C4  UNL     1     -34.932   5.366   4.503  1.00 20.00     0.179 C 
HETATM    4  C5  UNL     1     -34.332   6.326   3.499  1.00 20.00     0.073 C 
HETATM    5  O7  UNL     1     -34.441   5.734   5.802  1.00 20.00    -0.390 OA
ENDROOT
BRANCH   4   6
HETATM    6  C1  UNL     1     -33.046   5.745   2.937  1.00 20.00     0.237 C 
HETATM    7  O6  UNL     1     -32.927   4.574   2.593  1.00 20.00    -0.306 OA
ENDBRANCH   4   6
TORSDOF 1
ENDMDL
MODEL 5
REMARK VINA RESULT:      -3.6      1.751      3.380
REMARK  1 active torsions:
REMARK  status: ('A' for Active; 'I' for Inactive)
REMARK    1  A    between atoms: C1_1  and  C5_5 
ROOT
HETATM    1  C2  UNL     1     -33.342   5.749   2.835  1.00 20.00     0.040 C 
HETATM    2  C3  UNL     1     -34.681   5.973   3.506  1.00 20.00     0.168 C 
HETATM    3  C4  UNL     1     -33.118   7.342   4.571  1.00 20.00     0.179 C 
HETATM    4  C5  UNL     1     -32.560   6.980   3.212  1.00 20.00     0.073 C 
HETATM    5  O7  UNL     1     -34.438   6.782   4.662  1.00 20.00    -0.390 OA
ENDROOT
BRANCH   4   6
HETATM    6  C1  UNL     1     -32.862   8.091   2.220  1.00 20.00     0.237 C 
HETATM    7  O6  UNL     1     -32.001   8.816   1.735  1.00 20.00    -0.306 OA
ENDBRANCH   4   6
TORSDOF 1
ENDMDL
MODEL 6
REMARK VINA RESULT:      -3.5     12.032     12.752
REMARK  1 active torsions:
REMARK  status: ('A' for Active; 'I' for Inactive)
REMARK    1  A    between atoms: C1_1  and  C5_5 
ROOT
HETATM    1  C2  UNL     1     -34.802  15.719  -3.550  1.00 20.00     0.040 C 
HETATM    2  C3  UNL     1     -34.118  16.562  -4.607  1.00 20.00     0.168 C 
HETATM    3  C4  UNL     1     -33.179  14.426  -4.688  1.00 20.00     0.179 C 
HETATM    4  C5  UNL     1     -34.524  14.310  -4.004  1.00 20.00     0.073 C 
HETATM    5  O7  UNL     1     -33.023  15.790  -5.112  1.00 20.00    -0.390 OA
ENDROOT
BRANCH   4   6
HETATM    6  C1  UNL     1     -35.579  13.888  -5.012  1.00 20.00     0.237 C 
HETATM    7  O6  UNL     1     -35.872  12.719  -5.234  1.00 20.00    -0.306 OA
ENDBRANCH   4   6
TORSDOF 1
ENDMDL
MODEL 7
REMARK VINA RESULT:      -3.4      9.064      9.743
REMARK  1 active torsions:
REMARK  status: ('A' for Active; 'I' for Inactive)
REMARK    1  A    between atoms: C1_1  and  C5_5 
ROOT
HETATM    1  C2  UNL     1     -40.863   5.782  -0.408  1.00 20.00     0.040 C 
HETATM    2  C3  UNL     1     -42.201   5.168  -0.767  1.00 20.00     0.168 C 
HETATM    3  C4  UNL     1     -42.591   6.846   0.809  1.00 20.00     0.179 C 
HETATM    4  C5  UNL     1     -41.244   7.116   0.175  1.00 20.00     0.073 C 
HETATM    5  O7  UNL     1     -43.165   5.710   0.142  1.00 20.00    -0.390 OA
ENDROOT
BRANCH   4   6
HETATM    6  C1  UNL     1     -41.399   8.130  -0.946  1.00 20.00     0.237 C 
HETATM    7  O6  UNL     1     -42.484   8.548  -1.334  1.00 20.00    -0.306 OA
ENDBRANCH   4   6
TORSDOF 1
ENDMDL
MODEL 8
REMARK VINA RESULT:      -3.3     15.930     16.802
REMARK  1 active torsions:
REMARK  status: ('A' for Active; 'I' for Inactive)
REMARK    1  A    between atoms: C1_1  and  C5_5 
ROOT
HETATM    1  C2  UNL     1     -24.987  16.881  11.253  1.00 20.00     0.040 C 
HETATM    2  C3  UNL     1     -25.669  18.164  11.683  1.00 20.00     0.168 C 
HETATM    3  C4  UNL     1     -23.394  18.622  11.428  1.00 20.00     0.179 C 
HETATM    4  C5  UNL     1     -23.700  17.366  10.642  1.00 20.00     0.073 C 
HETATM    5  O7  UNL     1     -24.633  19.112  11.964  1.00 20.00    -0.390 OA
ENDROOT
BRANCH   4   6
HETATM    6  C1  UNL     1     -23.937  17.720   9.183  1.00 20.00     0.237 C 
HETATM    7  O6  UNL     1     -23.227  17.320   8.267  1.00 20.00    -0.306 OA
ENDBRANCH   4   6
TORSDOF 1
ENDMDL
MODEL 9
REMARK VINA RESULT:      -3.3      8.639      9.374
REMARK  1 active torsions:
REMARK  status: ('A' for Active; 'I' for Inactive)
REMARK    1  A    between atoms: C1_1  and  C5_5 
ROOT
HETATM    1  C2  UNL     1     -42.655   7.064   0.859  1.00 20.00     0.040 C 
HETATM    2  C3  UNL     1     -43.417   7.446  -0.393  1.00 20.00     0.168 C 
HETATM    3  C4  UNL     1     -41.156   7.870  -0.785  1.00 20.00     0.179 C 
HETATM    4  C5  UNL     1     -41.246   6.885   0.359  1.00 20.00     0.073 C 
HETATM    5  O7  UNL     1     -42.491   8.106  -1.261  1.00 20.00    -0.390 OA
ENDROOT
BRANCH   4   6
HETATM    6  C1  UNL     1     -41.074   5.469  -0.167  1.00 20.00     0.237 C 
HETATM    7  O6  UNL     1     -40.421   5.195  -1.167  1.00 20.00    -0.306 OA
ENDBRANCH   4   6
TORSDOF 1
ENDMDL
