MODEL 1
REMARK VINA RESULT:      -4.7      0.000      0.000
REMARK  1 active torsions:
REMARK  status: ('A' for Active; 'I' for Inactive)
REMARK    1  A    between atoms: C3_3  and  C4_4 
ROOT
HETATM    1  C1  UNL     1     -34.207   5.966   5.614  1.00 20.00     0.197 C 
HETATM    2  C2  UNL     1     -35.058   5.395   4.513  1.00 20.00     0.197 C 
HETATM    3  C3  UNL     1     -34.023   7.253   3.759  1.00 20.00     0.369 C 
HETATM    4  O5  UNL     1     -33.970   7.308   5.192  1.00 20.00    -0.351 OA
HETATM    5  O6  UNL     1     -34.487   5.964   3.337  1.00 20.00    -0.351 OA
ENDROOT
BRANCH   3   6
HETATM    6  C4  UNL     1     -32.644   7.507   3.181  1.00 20.00     0.437 C 
HETATM    7  F7  UNL     1     -31.834   8.041   4.114  1.00 20.00    -0.166 F 
HETATM    8  F8  UNL     1     -32.096   6.357   2.750  1.00 20.00    -0.166 F 
HETATM    9  F9  UNL     1     -32.719   8.358   2.143  1.00 20.00    -0.166 F 
ENDBRANCH   3   6
TORSDOF 1
ENDMDL
MODEL 2
REMARK VINA RESULT:      -4.7      0.067      1.260
REMARK  1 active torsions:
REMARK  status: ('A' for Active; 'I' for Inactive)
REMARK    1  A    between atoms: C3_3  and  C4_4 
ROOT
HETATM    1  C1  UNL     1     -34.207   5.871   5.624  1.00 20.00     0.197 C 
HETATM    2  C2  UNL     1     -35.092   5.360   4.519  1.00 20.00     0.197 C 
HETATM    3  C3  UNL     1     -34.037   7.227   3.818  1.00 20.00     0.369 C 
HETATM    4  O5  UNL     1     -33.953   7.224   5.250  1.00 20.00    -0.351 OA
HETATM    5  O6  UNL     1     -34.534   5.965   3.355  1.00 20.00    -0.351 OA
ENDROOT
BRANCH   3   6
HETATM    6  C4  UNL     1     -32.665   7.478   3.221  1.00 20.00     0.437 C 
HETATM    7  F7  UNL     1     -32.120   6.325   2.792  1.00 20.00    -0.166 F 
HETATM    8  F8  UNL     1     -32.754   8.322   2.176  1.00 20.00    -0.166 F 
HETATM    9  F9  UNL     1     -31.846   8.023   4.139  1.00 20.00    -0.166 F 
ENDBRANCH   3   6
TORSDOF 1
ENDMDL
MODEL 3
REMARK VINA RESULT:      -4.7      1.492      2.222
REMARK  1 active torsions:
REMARK  status: ('A' for Active; 'I' for Inactive)
REMARK    1  A    between atoms: C3_3  and  C4_4 
ROOT
HETATM    1  C1  UNL     1     -34.035   6.494   5.839  1.00 20.00     0.197 C 
HETATM    2  C2  UNL     1     -34.628   5.113   5.910  1.00 20.00     0.197 C 
HETATM    3  C3  UNL     1     -34.620   5.803   3.762  1.00 20.00     0.369 C 
HETATM    4  O5  UNL     1     -34.471   6.980   4.570  1.00 20.00    -0.351 OA
HETATM    5  O6  UNL     1     -34.484   4.631   4.576  1.00 20.00    -0.351 OA
ENDROOT
BRANCH   3   6
HETATM    6  C4  UNL     1     -33.563   5.787   2.674  1.00 20.00     0.437 C 
HETATM    7  F7  UNL     1     -34.124   6.005   1.470  1.00 20.00    -0.166 F 
HETATM    8  F8  UNL     1     -32.645   6.745   2.896  1.00 20.00    -0.166 F 
HETATM    9  F9  UNL     1     -32.938   4.596   2.644  1.00 20.00    -0.166 F 
ENDBRANCH   3   6
TORSDOF 1
ENDMDL
MODEL 4
REMARK VINA RESULT:      -4.5      2.216      3.414
REMARK  1 active torsions:
REMARK  status: ('A' for Active; 'I' for Inactive)
REMARK    1  A    between atoms: C3_3  and  C4_4 
ROOT
HETATM    1  C1  UNL     1     -32.116   7.238   2.679  1.00 20.00     0.197 C 
HETATM    2  C2  UNL     1     -31.915   8.062   3.922  1.00 20.00     0.197 C 
HETATM    3  C3  UNL     1     -33.975   7.142   3.971  1.00 20.00     0.369 C 
HETATM    4  O5  UNL     1     -33.533   7.082   2.607  1.00 20.00    -0.351 OA
HETATM    5  O6  UNL     1     -32.888   7.533   4.820  1.00 20.00    -0.351 OA
ENDROOT
BRANCH   3   6
HETATM    6  C4  UNL     1     -34.492   5.784   4.406  1.00 20.00     0.437 C 
HETATM    7  F7  UNL     1     -35.787   5.644   4.071  1.00 20.00    -0.166 F 
HETATM    8  F8  UNL     1     -33.789   4.801   3.814  1.00 20.00    -0.166 F 
HETATM    9  F9  UNL     1     -34.378   5.644   5.739  1.00 20.00    -0.166 F 
ENDBRANCH   3   6
TORSDOF 1
ENDMDL
MODEL 5
REMARK VINA RESULT:      -4.5      2.218      3.359
REMARK  1 active torsions:
REMARK  status: ('A' for Active; 'I' for Inactive)
REMARK    1  A    between atoms: C3_3  and  C4_4 
ROOT
HETATM    1  C1  UNL     1     -32.132   7.228   2.676  1.00 20.00     0.197 C 
HETATM    2  C2  UNL     1     -31.921   8.052   3.918  1.00 20.00     0.197 C 
HETATM    3  C3  UNL     1     -33.987   7.145   3.975  1.00 20.00     0.369 C 
HETATM    4  O5  UNL     1     -33.550   7.082   2.610  1.00 20.00    -0.351 OA
HETATM    5  O6  UNL     1     -32.894   7.530   4.820  1.00 20.00    -0.351 OA
ENDROOT
BRANCH   3   6
HETATM    6  C4  UNL     1     -34.511   5.791   4.413  1.00 20.00     0.437 C 
HETATM    7  F7  UNL     1     -34.423   5.663   5.750  1.00 20.00    -0.166 F 
HETATM    8  F8  UNL     1     -35.799   5.647   4.055  1.00 20.00    -0.166 F 
HETATM    9  F9  UNL     1     -33.797   4.804   3.843  1.00 20.00    -0.166 F 
ENDBRANCH   3   6
TORSDOF 1
ENDMDL
MODEL 6
REMARK VINA RESULT:      -4.5      2.209      3.390
REMARK  1 active torsions:
REMARK  status: ('A' for Active; 'I' for Inactive)
REMARK    1  A    between atoms: C3_3  and  C4_4 
ROOT
HETATM    1  C1  UNL     1     -32.141   7.264   2.669  1.00 20.00     0.197 C 
HETATM    2  C2  UNL     1     -31.915   8.064   3.923  1.00 20.00     0.197 C 
HETATM    3  C3  UNL     1     -33.980   7.157   3.987  1.00 20.00     0.369 C 
HETATM    4  O5  UNL     1     -33.560   7.120   2.616  1.00 20.00    -0.351 OA
HETATM    5  O6  UNL     1     -32.878   7.525   4.826  1.00 20.00    -0.351 OA
ENDROOT
BRANCH   3   6
HETATM    6  C4  UNL     1     -34.500   5.795   4.406  1.00 20.00     0.437 C 
HETATM    7  F7  UNL     1     -33.785   4.818   3.820  1.00 20.00    -0.166 F 
HETATM    8  F8  UNL     1     -34.409   5.647   5.740  1.00 20.00    -0.166 F 
HETATM    9  F9  UNL     1     -35.789   5.654   4.048  1.00 20.00    -0.166 F 
ENDBRANCH   3   6
TORSDOF 1
ENDMDL
MODEL 7
REMARK VINA RESULT:      -4.4      2.595      3.374
REMARK  1 active torsions:
REMARK  status: ('A' for Active; 'I' for Inactive)
REMARK    1  A    between atoms: C3_3  and  C4_4 
ROOT
HETATM    1  C1  UNL     1     -33.388   7.994   3.581  1.00 20.00     0.197 C 
HETATM    2  C2  UNL     1     -32.774   7.123   2.519  1.00 20.00     0.197 C 
HETATM    3  C3  UNL     1     -33.441   5.827   4.242  1.00 20.00     0.369 C 
HETATM    4  O5  UNL     1     -33.363   7.168   4.745  1.00 20.00    -0.351 OA
HETATM    5  O6  UNL     1     -33.302   5.832   2.815  1.00 20.00    -0.351 OA
ENDROOT
BRANCH   3   6
HETATM    6  C4  UNL     1     -34.774   5.211   4.617  1.00 20.00     0.437 C 
HETATM    7  F7  UNL     1     -34.769   3.889   4.367  1.00 20.00    -0.166 F 
HETATM    8  F8  UNL     1     -35.026   5.395   5.926  1.00 20.00    -0.166 F 
HETATM    9  F9  UNL     1     -35.769   5.775   3.909  1.00 20.00    -0.166 F 
ENDBRANCH   3   6
TORSDOF 1
ENDMDL
MODEL 8
REMARK VINA RESULT:      -4.3      2.481      3.395
REMARK  1 active torsions:
REMARK  status: ('A' for Active; 'I' for Inactive)
REMARK    1  A    between atoms: C3_3  and  C4_4 
ROOT
HETATM    1  C1  UNL     1     -33.086   5.310   2.847  1.00 20.00     0.197 C 
HETATM    2  C2  UNL     1     -33.106   6.796   2.609  1.00 20.00     0.197 C 
HETATM    3  C3  UNL     1     -34.459   6.308   4.348  1.00 20.00     0.369 C 
HETATM    4  O5  UNL     1     -34.257   5.082   3.630  1.00 20.00    -0.351 OA
HETATM    5  O6  UNL     1     -33.566   7.315   3.855  1.00 20.00    -0.351 OA
ENDROOT
BRANCH   3   6
HETATM    6  C4  UNL     1     -34.206   6.089   5.827  1.00 20.00     0.437 C 
HETATM    7  F7  UNL     1     -33.226   6.902   6.262  1.00 20.00    -0.166 F 
HETATM    8  F8  UNL     1     -35.319   6.345   6.538  1.00 20.00    -0.166 F 
HETATM    9  F9  UNL     1     -33.838   4.816   6.057  1.00 20.00    -0.166 F 
ENDBRANCH   3   6
TORSDOF 1
ENDMDL
MODEL 9
REMARK VINA RESULT:      -4.1      3.042      3.914
REMARK  1 active torsions:
REMARK  status: ('A' for Active; 'I' for Inactive)
REMARK    1  A    between atoms: C3_3  and  C4_4 
ROOT
HETATM    1  C1  UNL     1     -33.035   7.532   3.117  1.00 20.00     0.197 C 
HETATM    2  C2  UNL     1     -31.741   8.108   3.625  1.00 20.00     0.197 C 
HETATM    3  C3  UNL     1     -32.017   8.703   1.466  1.00 20.00     0.369 C 
HETATM    4  O5  UNL     1     -32.891   7.590   1.698  1.00 20.00    -0.351 OA
HETATM    5  O6  UNL     1     -31.480   9.170   2.711  1.00 20.00    -0.351 OA
ENDROOT
BRANCH   3   6
HETATM    6  C4  UNL     1     -32.780   9.828   0.792  1.00 20.00     0.437 C 
HETATM    7  F7  UNL     1     -33.352   9.392  -0.345  1.00 20.00    -0.166 F 
HETATM    8  F8  UNL     1     -33.746  10.293   1.604  1.00 20.00    -0.166 F 
HETATM    9  F9  UNL     1     -31.951  10.843   0.491  1.00 20.00    -0.166 F 
ENDBRANCH   3   6
TORSDOF 1
ENDMDL
