MODEL 1
REMARK VINA RESULT:      -5.5      0.000      0.000
REMARK  4 active torsions:
REMARK  status: ('A' for Active; 'I' for Inactive)
REMARK    1  A    between atoms: C3_3  and  C5_5 
REMARK    2  A    between atoms: C4_4  and  C6_6 
REMARK    3  A    between atoms: C5_5  and  C7_7 
REMARK    4  A    between atoms: C6_6  and  C7_7 
ROOT
HETATM    1  C1  UNL     1     -32.389   9.596   1.376  1.00 20.00     0.059 C 
HETATM    2  C4  UNL     1     -31.784   8.281   1.628  1.00 20.00     0.124 C 
HETATM    3  N8  UNL     1     -32.866  10.635   1.175  1.00 20.00    -0.197 NA
ENDROOT
BRANCH   2   4
HETATM    4  C6  UNL     1     -32.210   7.698   2.977  1.00 20.00     0.014 C 
BRANCH   4   5
HETATM    5  C7  UNL     1     -32.962   6.368   2.836  1.00 20.00     0.006 C 
BRANCH   5   6
HETATM    6  C5  UNL     1     -34.352   6.391   3.488  1.00 20.00     0.050 C 
BRANCH   6   7
HETATM    7  C3  UNL     1     -34.361   6.035   4.948  1.00 20.00     0.002 C 
HETATM    8  C2  UNL     1     -34.655   4.817   5.422  1.00 20.00     0.032 C 
HETATM    9 CL9  UNL     1     -33.902   7.295   6.043  1.00 20.00    -0.090 Cl
ENDBRANCH   6   7
ENDBRANCH   5   6
ENDBRANCH   4   5
ENDBRANCH   2   4
TORSDOF 4
ENDMDL
MODEL 2
REMARK VINA RESULT:      -5.4      3.476      5.342
REMARK  4 active torsions:
REMARK  status: ('A' for Active; 'I' for Inactive)
REMARK    1  A    between atoms: C3_3  and  C5_5 
REMARK    2  A    between atoms: C4_4  and  C6_6 
REMARK    3  A    between atoms: C5_5  and  C7_7 
REMARK    4  A    between atoms: C6_6  and  C7_7 
ROOT
HETATM    1  C1  UNL     1     -34.404   5.357   4.355  1.00 20.00     0.059 C 
HETATM    2  C4  UNL     1     -34.014   6.730   4.006  1.00 20.00     0.124 C 
HETATM    3  N8  UNL     1     -34.714   4.274   4.632  1.00 20.00    -0.197 NA
ENDROOT
BRANCH   2   4
HETATM    4  C6  UNL     1     -33.021   6.770   2.843  1.00 20.00     0.014 C 
BRANCH   4   5
HETATM    5  C7  UNL     1     -32.121   8.013   2.874  1.00 20.00     0.006 C 
BRANCH   5   6
HETATM    6  C5  UNL     1     -31.675   8.468   1.478  1.00 20.00     0.050 C 
BRANCH   6   7
HETATM    7  C3  UNL     1     -32.511   9.567   0.884  1.00 20.00     0.002 C 
HETATM    8  C2  UNL     1     -32.714  10.755   1.468  1.00 20.00     0.032 C 
HETATM    9 CL9  UNL     1     -33.187   9.251  -0.679  1.00 20.00    -0.090 Cl
ENDBRANCH   6   7
ENDBRANCH   5   6
ENDBRANCH   4   5
ENDBRANCH   2   4
TORSDOF 4
ENDMDL
MODEL 3
REMARK VINA RESULT:      -5.4      3.272      5.224
REMARK  4 active torsions:
REMARK  status: ('A' for Active; 'I' for Inactive)
REMARK    1  A    between atoms: C3_3  and  C5_5 
REMARK    2  A    between atoms: C4_4  and  C6_6 
REMARK    3  A    between atoms: C5_5  and  C7_7 
REMARK    4  A    between atoms: C6_6  and  C7_7 
ROOT
HETATM    1  C1  UNL     1     -34.381   5.305   4.276  1.00 20.00     0.059 C 
HETATM    2  C4  UNL     1     -33.993   6.685   3.953  1.00 20.00     0.124 C 
HETATM    3  N8  UNL     1     -34.690   4.216   4.532  1.00 20.00    -0.197 NA
ENDROOT
BRANCH   2   4
HETATM    4  C6  UNL     1     -32.937   6.743   2.846  1.00 20.00     0.014 C 
BRANCH   4   5
HETATM    5  C7  UNL     1     -32.180   8.077   2.819  1.00 20.00     0.006 C 
BRANCH   5   6
HETATM    6  C5  UNL     1     -31.690   8.463   1.416  1.00 20.00     0.050 C 
BRANCH   6   7
HETATM    7  C3  UNL     1     -32.514   9.521   0.738  1.00 20.00     0.002 C 
HETATM    8  C2  UNL     1     -33.086   9.371  -0.463  1.00 20.00     0.032 C 
HETATM    9 CL9  UNL     1     -32.756  10.986   1.629  1.00 20.00    -0.090 Cl
ENDBRANCH   6   7
ENDBRANCH   5   6
ENDBRANCH   4   5
ENDBRANCH   2   4
TORSDOF 4
ENDMDL
MODEL 4
REMARK VINA RESULT:      -5.4      1.354      1.506
REMARK  4 active torsions:
REMARK  status: ('A' for Active; 'I' for Inactive)
REMARK    1  A    between atoms: C3_3  and  C5_5 
REMARK    2  A    between atoms: C4_4  and  C6_6 
REMARK    3  A    between atoms: C5_5  and  C7_7 
REMARK    4  A    between atoms: C6_6  and  C7_7 
ROOT
HETATM    1  C1  UNL     1     -32.529   9.194   0.339  1.00 20.00     0.059 C 
HETATM    2  C4  UNL     1     -31.597   8.533   1.262  1.00 20.00     0.124 C 
HETATM    3  N8  UNL     1     -33.264   9.715  -0.393  1.00 20.00    -0.197 NA
ENDROOT
BRANCH   2   4
HETATM    4  C6  UNL     1     -32.214   8.313   2.645  1.00 20.00     0.014 C 
BRANCH   4   5
HETATM    5  C7  UNL     1     -32.619   6.853   2.888  1.00 20.00     0.006 C 
BRANCH   5   6
HETATM    6  C5  UNL     1     -34.041   6.708   3.447  1.00 20.00     0.050 C 
BRANCH   6   7
HETATM    7  C3  UNL     1     -34.104   6.394   4.915  1.00 20.00     0.002 C 
HETATM    8  C2  UNL     1     -33.795   7.266   5.883  1.00 20.00     0.032 C 
HETATM    9 CL9  UNL     1     -34.670   4.811   5.332  1.00 20.00    -0.090 Cl
ENDBRANCH   6   7
ENDBRANCH   5   6
ENDBRANCH   4   5
ENDBRANCH   2   4
TORSDOF 4
ENDMDL
MODEL 5
REMARK VINA RESULT:      -5.1      2.800      4.507
REMARK  4 active torsions:
REMARK  status: ('A' for Active; 'I' for Inactive)
REMARK    1  A    between atoms: C3_3  and  C5_5 
REMARK    2  A    between atoms: C4_4  and  C6_6 
REMARK    3  A    between atoms: C5_5  and  C7_7 
REMARK    4  A    between atoms: C6_6  and  C7_7 
ROOT
HETATM    1  C1  UNL     1     -34.149   6.522   5.865  1.00 20.00     0.059 C 
HETATM    2  C4  UNL     1     -34.673   5.214   5.450  1.00 20.00     0.124 C 
HETATM    3  N8  UNL     1     -33.737   7.555   6.196  1.00 20.00    -0.197 NA
ENDROOT
BRANCH   2   4
HETATM    4  C6  UNL     1     -34.277   4.863   4.013  1.00 20.00     0.014 C 
BRANCH   4   5
HETATM    5  C7  UNL     1     -34.212   6.094   3.100  1.00 20.00     0.006 C 
BRANCH   5   6
HETATM    6  C5  UNL     1     -32.827   6.304   2.471  1.00 20.00     0.050 C 
BRANCH   6   7
HETATM    7  C3  UNL     1     -32.309   7.712   2.559  1.00 20.00     0.002 C 
HETATM    8  C2  UNL     1     -31.572   8.178   3.575  1.00 20.00     0.032 C 
HETATM    9 CL9  UNL     1     -32.668   8.741   1.214  1.00 20.00    -0.090 Cl
ENDBRANCH   6   7
ENDBRANCH   5   6
ENDBRANCH   4   5
ENDBRANCH   2   4
TORSDOF 4
ENDMDL
MODEL 6
REMARK VINA RESULT:      -5.1      1.781      2.014
REMARK  4 active torsions:
REMARK  status: ('A' for Active; 'I' for Inactive)
REMARK    1  A    between atoms: C3_3  and  C5_5 
REMARK    2  A    between atoms: C4_4  and  C6_6 
REMARK    3  A    between atoms: C5_5  and  C7_7 
REMARK    4  A    between atoms: C6_6  and  C7_7 
ROOT
HETATM    1  C1  UNL     1     -32.951   9.466   0.230  1.00 20.00     0.059 C 
HETATM    2  C4  UNL     1     -32.395   9.533   1.588  1.00 20.00     0.124 C 
HETATM    3  N8  UNL     1     -33.390   9.415  -0.843  1.00 20.00    -0.197 NA
ENDROOT
BRANCH   2   4
HETATM    4  C6  UNL     1     -31.714   8.226   1.999  1.00 20.00     0.014 C 
BRANCH   4   5
HETATM    5  C7  UNL     1     -32.149   7.742   3.389  1.00 20.00     0.006 C 
BRANCH   5   6
HETATM    6  C5  UNL     1     -33.647   7.417   3.471  1.00 20.00     0.050 C 
BRANCH   6   7
HETATM    7  C3  UNL     1     -33.958   5.960   3.668  1.00 20.00     0.002 C 
HETATM    8  C2  UNL     1     -34.879   5.498   4.523  1.00 20.00     0.032 C 
HETATM    9 CL9  UNL     1     -33.083   4.851   2.665  1.00 20.00    -0.090 Cl
ENDBRANCH   6   7
ENDBRANCH   5   6
ENDBRANCH   4   5
ENDBRANCH   2   4
TORSDOF 4
ENDMDL
MODEL 7
REMARK VINA RESULT:      -5.0      3.288      4.963
REMARK  4 active torsions:
REMARK  status: ('A' for Active; 'I' for Inactive)
REMARK    1  A    between atoms: C3_3  and  C5_5 
REMARK    2  A    between atoms: C4_4  and  C6_6 
REMARK    3  A    between atoms: C5_5  and  C7_7 
REMARK    4  A    between atoms: C6_6  and  C7_7 
ROOT
HETATM    1  C1  UNL     1     -34.434   4.671   5.033  1.00 20.00     0.059 C 
HETATM    2  C4  UNL     1     -34.463   5.875   5.875  1.00 20.00     0.124 C 
HETATM    3  N8  UNL     1     -34.414   3.720   4.369  1.00 20.00    -0.197 NA
ENDROOT
BRANCH   2   4
HETATM    4  C6  UNL     1     -33.854   7.088   5.169  1.00 20.00     0.014 C 
BRANCH   4   5
HETATM    5  C7  UNL     1     -34.182   7.128   3.671  1.00 20.00     0.006 C 
BRANCH   5   6
HETATM    6  C5  UNL     1     -32.954   6.891   2.780  1.00 20.00     0.050 C 
BRANCH   6   7
HETATM    7  C3  UNL     1     -32.103   8.110   2.557  1.00 20.00     0.002 C 
HETATM    8  C2  UNL     1     -31.153   8.526   3.402  1.00 20.00     0.032 C 
HETATM    9 CL9  UNL     1     -32.367   8.962   1.073  1.00 20.00    -0.090 Cl
ENDBRANCH   6   7
ENDBRANCH   5   6
ENDBRANCH   4   5
ENDBRANCH   2   4
TORSDOF 4
ENDMDL
MODEL 8
REMARK VINA RESULT:      -4.0     10.945     11.297
REMARK  4 active torsions:
REMARK  status: ('A' for Active; 'I' for Inactive)
REMARK    1  A    between atoms: C3_3  and  C5_5 
REMARK    2  A    between atoms: C4_4  and  C6_6 
REMARK    3  A    between atoms: C5_5  and  C7_7 
REMARK    4  A    between atoms: C6_6  and  C7_7 
ROOT
HETATM    1  C1  UNL     1     -35.724  13.848  -4.859  1.00 20.00     0.059 C 
HETATM    2  C4  UNL     1     -35.510  15.165  -4.242  1.00 20.00     0.124 C 
HETATM    3  N8  UNL     1     -35.896  12.809  -5.347  1.00 20.00    -0.197 NA
ENDROOT
BRANCH   2   4
HETATM    4  C6  UNL     1     -34.074  15.343  -3.747  1.00 20.00     0.014 C 
BRANCH   4   5
HETATM    5  C7  UNL     1     -33.853  16.687  -3.039  1.00 20.00     0.006 C 
BRANCH   5   6
HETATM    6  C5  UNL     1     -34.656  16.820  -1.737  1.00 20.00     0.050 C 
BRANCH   6   7
HETATM    7  C3  UNL     1     -34.040  17.735  -0.717  1.00 20.00     0.002 C 
HETATM    8  C2  UNL     1     -34.667  18.155   0.389  1.00 20.00     0.032 C 
HETATM    9 CL9  UNL     1     -32.398  18.203  -1.005  1.00 20.00    -0.090 Cl
ENDBRANCH   6   7
ENDBRANCH   5   6
ENDBRANCH   4   5
ENDBRANCH   2   4
TORSDOF 4
ENDMDL
MODEL 9
REMARK VINA RESULT:      -4.0     10.736     11.284
REMARK  4 active torsions:
REMARK  status: ('A' for Active; 'I' for Inactive)
REMARK    1  A    between atoms: C3_3  and  C5_5 
REMARK    2  A    between atoms: C4_4  and  C6_6 
REMARK    3  A    between atoms: C5_5  and  C7_7 
REMARK    4  A    between atoms: C6_6  and  C7_7 
ROOT
HETATM    1  C1  UNL     1     -36.623  13.937  -5.203  1.00 20.00     0.059 C 
HETATM    2  C4  UNL     1     -35.171  13.979  -5.426  1.00 20.00     0.124 C 
HETATM    3  N8  UNL     1     -37.770  13.902  -5.028  1.00 20.00    -0.197 NA
ENDROOT
BRANCH   2   4
HETATM    4  C6  UNL     1     -34.397  14.277  -4.140  1.00 20.00     0.014 C 
BRANCH   4   5
HETATM    5  C7  UNL     1     -34.891  15.546  -3.432  1.00 20.00     0.006 C 
BRANCH   5   6
HETATM    6  C5  UNL     1     -33.752  16.491  -3.027  1.00 20.00     0.050 C 
BRANCH   6   7
HETATM    7  C3  UNL     1     -33.947  17.170  -1.700  1.00 20.00     0.002 C 
HETATM    8  C2  UNL     1     -35.074  17.102  -0.981  1.00 20.00     0.032 C 
HETATM    9 CL9  UNL     1     -32.582  18.035  -1.079  1.00 20.00    -0.090 Cl
ENDBRANCH   6   7
ENDBRANCH   5   6
ENDBRANCH   4   5
ENDBRANCH   2   4
TORSDOF 4
ENDMDL
