MODEL 1
REMARK VINA RESULT:      -6.4      0.000      0.000
REMARK  2 active torsions:
REMARK  status: ('A' for Active; 'I' for Inactive)
REMARK    1  A    between atoms: C1_1  and  C4_4 
REMARK    2  A    between atoms: C3_3  and  C4_4 
ROOT
HETATM    1  C4  UNL     1     -33.462   6.268   3.012  1.00 20.00     0.359 C 
HETATM    2  F10 UNL     1     -34.412   6.108   2.050  1.00 20.00    -0.192 F 
HETATM    3  F11 UNL     1     -32.485   5.363   2.728  1.00 20.00    -0.192 F 
ENDROOT
BRANCH   1   4
HETATM    4  C1  UNL     1     -34.065   6.043   4.363  1.00 20.00     0.238 C 
HETATM    5  C2  UNL     1     -34.494   4.867   4.830  1.00 20.00     0.307 C 
HETATM    6  F6  UNL     1     -35.026   4.763   6.065  1.00 20.00    -0.170 F 
HETATM    7  F7  UNL     1     -34.397   3.767   4.052  1.00 20.00    -0.170 F 
HETATM    8  F5  UNL     1     -34.203   7.121   5.172  1.00 20.00    -0.198 F 
ENDBRANCH   1   4
BRANCH   1   9
HETATM    9  C3  UNL     1     -32.877   7.657   2.876  1.00 20.00     0.432 C 
HETATM   10  F8  UNL     1     -31.620   7.687   3.383  1.00 20.00    -0.207 F 
HETATM   11  F9  UNL     1     -32.770   7.968   1.558  1.00 20.00    -0.207 F 
ENDBRANCH   1   9
TORSDOF 2
ENDMDL
MODEL 2
REMARK VINA RESULT:      -6.3      1.110      3.885
REMARK  2 active torsions:
REMARK  status: ('A' for Active; 'I' for Inactive)
REMARK    1  A    between atoms: C1_1  and  C4_4 
REMARK    2  A    between atoms: C3_3  and  C4_4 
ROOT
HETATM    1  C4  UNL     1     -34.500   5.302   4.135  1.00 20.00     0.359 C 
HETATM    2  F10 UNL     1     -34.666   3.956   4.013  1.00 20.00    -0.192 F 
HETATM    3  F11 UNL     1     -35.704   5.858   3.830  1.00 20.00    -0.192 F 
ENDROOT
BRANCH   1   4
HETATM    4  C1  UNL     1     -33.414   5.764   3.213  1.00 20.00     0.238 C 
HETATM    5  C2  UNL     1     -33.138   7.040   2.927  1.00 20.00     0.307 C 
HETATM    6  F6  UNL     1     -32.138   7.360   2.081  1.00 20.00    -0.170 F 
HETATM    7  F7  UNL     1     -33.875   8.023   3.488  1.00 20.00    -0.170 F 
HETATM    8  F5  UNL     1     -32.662   4.814   2.610  1.00 20.00    -0.198 F 
ENDBRANCH   1   4
BRANCH   1   9
HETATM    9  C3  UNL     1     -34.185   5.612   5.582  1.00 20.00     0.432 C 
HETATM   10  F8  UNL     1     -34.535   6.889   5.873  1.00 20.00    -0.207 F 
HETATM   11  F9  UNL     1     -34.937   4.813   6.382  1.00 20.00    -0.207 F 
ENDBRANCH   1   9
TORSDOF 2
ENDMDL
MODEL 3
REMARK VINA RESULT:      -6.3      1.387      2.998
REMARK  2 active torsions:
REMARK  status: ('A' for Active; 'I' for Inactive)
REMARK    1  A    between atoms: C1_1  and  C4_4 
REMARK    2  A    between atoms: C3_3  and  C4_4 
ROOT
HETATM    1  C4  UNL     1     -34.317   5.871   3.429  1.00 20.00     0.359 C 
HETATM    2  F10 UNL     1     -34.346   6.223   2.115  1.00 20.00    -0.192 F 
HETATM    3  F11 UNL     1     -35.609   5.628   3.782  1.00 20.00    -0.192 F 
ENDROOT
BRANCH   1   4
HETATM    4  C1  UNL     1     -33.709   6.975   4.237  1.00 20.00     0.238 C 
HETATM    5  C2  UNL     1     -33.796   7.096   5.565  1.00 20.00     0.307 C 
HETATM    6  F6  UNL     1     -33.214   8.130   6.207  1.00 20.00    -0.170 F 
HETATM    7  F7  UNL     1     -34.480   6.173   6.274  1.00 20.00    -0.170 F 
HETATM    8  F5  UNL     1     -33.030   7.937   3.568  1.00 20.00    -0.198 F 
ENDBRANCH   1   4
BRANCH   1   9
HETATM    9  C3  UNL     1     -33.538   4.580   3.557  1.00 20.00     0.432 C 
HETATM   10  F8  UNL     1     -34.350   3.586   3.995  1.00 20.00    -0.207 F 
HETATM   11  F9  UNL     1     -33.093   4.205   2.330  1.00 20.00    -0.207 F 
ENDBRANCH   1   9
TORSDOF 2
ENDMDL
MODEL 4
REMARK VINA RESULT:      -6.3      1.094      3.859
REMARK  2 active torsions:
REMARK  status: ('A' for Active; 'I' for Inactive)
REMARK    1  A    between atoms: C1_1  and  C4_4 
REMARK    2  A    between atoms: C3_3  and  C4_4 
ROOT
HETATM    1  C4  UNL     1     -34.788   5.902   4.227  1.00 20.00     0.359 C 
HETATM    2  F10 UNL     1     -36.068   6.021   3.780  1.00 20.00    -0.192 F 
HETATM    3  F11 UNL     1     -34.710   6.664   5.352  1.00 20.00    -0.192 F 
ENDROOT
BRANCH   1   4
HETATM    4  C1  UNL     1     -33.836   6.362   3.166  1.00 20.00     0.238 C 
HETATM    5  C2  UNL     1     -32.794   7.175   3.366  1.00 20.00     0.307 C 
HETATM    6  F6  UNL     1     -31.991   7.536   2.344  1.00 20.00    -0.170 F 
HETATM    7  F7  UNL     1     -32.546   7.646   4.606  1.00 20.00    -0.170 F 
HETATM    8  F5  UNL     1     -34.057   5.932   1.902  1.00 20.00    -0.198 F 
ENDBRANCH   1   4
BRANCH   1   9
HETATM    9  C3  UNL     1     -34.552   4.458   4.613  1.00 20.00     0.432 C 
HETATM   10  F8  UNL     1     -33.548   3.933   3.868  1.00 20.00    -0.207 F 
HETATM   11  F9  UNL     1     -34.143   4.405   5.907  1.00 20.00    -0.207 F 
ENDBRANCH   1   9
TORSDOF 2
ENDMDL
MODEL 5
REMARK VINA RESULT:      -6.3      1.556      3.458
REMARK  2 active torsions:
REMARK  status: ('A' for Active; 'I' for Inactive)
REMARK    1  A    between atoms: C1_1  and  C4_4 
REMARK    2  A    between atoms: C3_3  and  C4_4 
ROOT
HETATM    1  C4  UNL     1     -34.703   5.595   4.790  1.00 20.00     0.359 C 
HETATM    2  F10 UNL     1     -35.165   4.949   5.896  1.00 20.00    -0.192 F 
HETATM    3  F11 UNL     1     -35.804   6.071   4.146  1.00 20.00    -0.192 F 
ENDROOT
BRANCH   1   4
HETATM    4  C1  UNL     1     -33.918   4.645   3.940  1.00 20.00     0.238 C 
HETATM    5  C2  UNL     1     -33.374   4.940   2.756  1.00 20.00     0.307 C 
HETATM    6  F6  UNL     1     -32.682   4.015   2.060  1.00 20.00    -0.170 F 
HETATM    7  F7  UNL     1     -33.524   6.181   2.245  1.00 20.00    -0.170 F 
HETATM    8  F5  UNL     1     -33.758   3.382   4.400  1.00 20.00    -0.198 F 
ENDBRANCH   1   4
BRANCH   1   9
HETATM    9  C3  UNL     1     -33.869   6.773   5.242  1.00 20.00     0.432 C 
HETATM   10  F8  UNL     1     -34.083   7.837   4.428  1.00 20.00    -0.207 F 
HETATM   11  F9  UNL     1     -34.268   7.151   6.484  1.00 20.00    -0.207 F 
ENDBRANCH   1   9
TORSDOF 2
ENDMDL
MODEL 6
REMARK VINA RESULT:      -6.3      1.053      3.747
REMARK  2 active torsions:
REMARK  status: ('A' for Active; 'I' for Inactive)
REMARK    1  A    between atoms: C1_1  and  C4_4 
REMARK    2  A    between atoms: C3_3  and  C4_4 
ROOT
HETATM    1  C4  UNL     1     -33.601   5.917   3.139  1.00 20.00     0.359 C 
HETATM    2  F10 UNL     1     -32.696   4.980   2.744  1.00 20.00    -0.192 F 
HETATM    3  F11 UNL     1     -34.366   6.184   2.045  1.00 20.00    -0.192 F 
ENDROOT
BRANCH   1   4
HETATM    4  C1  UNL     1     -32.885   7.134   3.638  1.00 20.00     0.238 C 
HETATM    5  C2  UNL     1     -32.107   7.928   2.897  1.00 20.00     0.307 C 
HETATM    6  F6  UNL     1     -31.500   9.005   3.438  1.00 20.00    -0.170 F 
HETATM    7  F7  UNL     1     -31.920   7.646   1.590  1.00 20.00    -0.170 F 
HETATM    8  F5  UNL     1     -33.024   7.445   4.948  1.00 20.00    -0.198 F 
ENDBRANCH   1   4
BRANCH   1   9
HETATM    9  C3  UNL     1     -34.487   5.305   4.202  1.00 20.00     0.432 C 
HETATM   10  F8  UNL     1     -35.775   5.681   4.010  1.00 20.00    -0.207 F 
HETATM   11  F9  UNL     1     -34.456   3.952   4.081  1.00 20.00    -0.207 F 
ENDBRANCH   1   9
TORSDOF 2
ENDMDL
MODEL 7
REMARK VINA RESULT:      -6.2      1.106      3.583
REMARK  2 active torsions:
REMARK  status: ('A' for Active; 'I' for Inactive)
REMARK    1  A    between atoms: C1_1  and  C4_4 
REMARK    2  A    between atoms: C3_3  and  C4_4 
ROOT
HETATM    1  C4  UNL     1     -34.562   5.759   3.876  1.00 20.00     0.359 C 
HETATM    2  F10 UNL     1     -33.974   5.223   2.771  1.00 20.00    -0.192 F 
HETATM    3  F11 UNL     1     -35.804   6.155   3.486  1.00 20.00    -0.192 F 
ENDROOT
BRANCH   1   4
HETATM    4  C1  UNL     1     -33.738   6.900   4.386  1.00 20.00     0.238 C 
HETATM    5  C2  UNL     1     -32.644   7.386   3.792  1.00 20.00     0.307 C 
HETATM    6  F6  UNL     1     -31.964   8.420   4.330  1.00 20.00    -0.170 F 
HETATM    7  F7  UNL     1     -32.209   6.831   2.641  1.00 20.00    -0.170 F 
HETATM    8  F5  UNL     1     -34.122   7.476   5.550  1.00 20.00    -0.198 F 
ENDBRANCH   1   4
BRANCH   1   9
HETATM    9  C3  UNL     1     -34.715   4.664   4.910  1.00 20.00     0.432 C 
HETATM   10  F8  UNL     1     -34.049   3.551   4.514  1.00 20.00    -0.207 F 
HETATM   11  F9  UNL     1     -34.139   5.066   6.072  1.00 20.00    -0.207 F 
ENDBRANCH   1   9
TORSDOF 2
ENDMDL
MODEL 8
REMARK VINA RESULT:      -6.1      0.942      2.351
REMARK  2 active torsions:
REMARK  status: ('A' for Active; 'I' for Inactive)
REMARK    1  A    between atoms: C1_1  and  C4_4 
REMARK    2  A    between atoms: C3_3  and  C4_4 
ROOT
HETATM    1  C4  UNL     1     -33.327   7.160   3.860  1.00 20.00     0.359 C 
HETATM    2  F10 UNL     1     -32.920   7.383   5.140  1.00 20.00    -0.192 F 
HETATM    3  F11 UNL     1     -34.450   7.910   3.688  1.00 20.00    -0.192 F 
ENDROOT
BRANCH   1   4
HETATM    4  C1  UNL     1     -33.586   5.700   3.657  1.00 20.00     0.238 C 
HETATM    5  C2  UNL     1     -34.361   4.939   4.437  1.00 20.00     0.307 C 
HETATM    6  F6  UNL     1     -34.534   3.627   4.175  1.00 20.00    -0.170 F 
HETATM    7  F7  UNL     1     -34.975   5.491   5.506  1.00 20.00    -0.170 F 
HETATM    8  F5  UNL     1     -32.975   5.097   2.611  1.00 20.00    -0.198 F 
ENDBRANCH   1   4
BRANCH   1   9
HETATM    9  C3  UNL     1     -32.259   7.681   2.924  1.00 20.00     0.432 C 
HETATM   10  F8  UNL     1     -32.797   8.563   2.045  1.00 20.00    -0.207 F 
HETATM   11  F9  UNL     1     -31.333   8.368   3.643  1.00 20.00    -0.207 F 
ENDBRANCH   1   9
TORSDOF 2
ENDMDL
MODEL 9
REMARK VINA RESULT:      -6.1      1.337      3.250
REMARK  2 active torsions:
REMARK  status: ('A' for Active; 'I' for Inactive)
REMARK    1  A    between atoms: C1_1  and  C4_4 
REMARK    2  A    between atoms: C3_3  and  C4_4 
ROOT
HETATM    1  C4  UNL     1     -34.388   6.588   4.150  1.00 20.00     0.359 C 
HETATM    2  F10 UNL     1     -35.664   6.158   3.954  1.00 20.00    -0.192 F 
HETATM    3  F11 UNL     1     -34.419   7.940   3.994  1.00 20.00    -0.192 F 
ENDROOT
BRANCH   1   4
HETATM    4  C1  UNL     1     -33.473   5.927   3.167  1.00 20.00     0.238 C 
HETATM    5  C2  UNL     1     -33.373   4.608   2.974  1.00 20.00     0.307 C 
HETATM    6  F6  UNL     1     -32.515   4.103   2.063  1.00 20.00    -0.170 F 
HETATM    7  F7  UNL     1     -34.136   3.768   3.706  1.00 20.00    -0.170 F 
HETATM    8  F5  UNL     1     -32.672   6.727   2.425  1.00 20.00    -0.198 F 
ENDBRANCH   1   4
BRANCH   1   9
HETATM    9  C3  UNL     1     -33.999   6.283   5.581  1.00 20.00     0.432 C 
HETATM   10  F8  UNL     1     -34.113   7.399   6.344  1.00 20.00    -0.207 F 
HETATM   11  F9  UNL     1     -34.866   5.373   6.093  1.00 20.00    -0.207 F 
ENDBRANCH   1   9
TORSDOF 2
ENDMDL
