MODEL 1
REMARK VINA RESULT:      -4.7      0.000      0.000
REMARK  1 active torsions:
REMARK  status: ('A' for Active; 'I' for Inactive)
REMARK    1  A    between atoms: C4_4  and  C5_5 
ROOT
HETATM    1  C1  UNL     1     -32.969   6.905   2.882  1.00 20.00     0.059 C 
HETATM    2  C5  UNL     1     -33.688   5.656   3.158  1.00 20.00     0.128 C 
HETATM    3  N6  UNL     1     -32.398   7.891   2.660  1.00 20.00    -0.197 NA
ENDROOT
BRANCH   2   4
HETATM    4  C4  UNL     1     -34.634   5.976   4.264  1.00 20.00    -0.002 A 
HETATM    5  C2  UNL     1     -34.657   5.132   5.508  1.00 20.00     0.006 A 
HETATM    6  C3  UNL     1     -34.119   6.535   5.561  1.00 20.00     0.006 A 
ENDBRANCH   2   4
TORSDOF 1
ENDMDL
MODEL 2
REMARK VINA RESULT:      -4.3      2.177      3.403
REMARK  1 active torsions:
REMARK  status: ('A' for Active; 'I' for Inactive)
REMARK    1  A    between atoms: C4_4  and  C5_5 
ROOT
HETATM    1  C1  UNL     1     -34.305   5.887   5.524  1.00 20.00     0.059 C 
HETATM    2  C5  UNL     1     -33.697   7.199   5.274  1.00 20.00     0.128 C 
HETATM    3  N6  UNL     1     -34.786   4.851   5.726  1.00 20.00    -0.197 NA
ENDROOT
BRANCH   2   4
HETATM    4  C4  UNL     1     -33.687   7.359   3.793  1.00 20.00    -0.002 A 
HETATM    5  C2  UNL     1     -32.399   7.640   3.070  1.00 20.00     0.006 A 
HETATM    6  C3  UNL     1     -33.069   6.301   2.922  1.00 20.00     0.006 A 
ENDBRANCH   2   4
TORSDOF 1
ENDMDL
MODEL 3
REMARK VINA RESULT:      -4.2      2.234      3.356
REMARK  1 active torsions:
REMARK  status: ('A' for Active; 'I' for Inactive)
REMARK    1  A    between atoms: C4_4  and  C5_5 
ROOT
HETATM    1  C1  UNL     1     -34.326   5.134   4.060  1.00 20.00     0.059 C 
HETATM    2  C5  UNL     1     -34.275   6.544   3.659  1.00 20.00     0.128 C 
HETATM    3  N6  UNL     1     -34.371   4.019   4.379  1.00 20.00    -0.197 NA
ENDROOT
BRANCH   2   4
HETATM    4  C4  UNL     1     -32.934   6.735   3.038  1.00 20.00    -0.002 A 
HETATM    5  C2  UNL     1     -32.653   7.951   2.200  1.00 20.00     0.006 A 
HETATM    6  C3  UNL     1     -32.009   7.803   3.550  1.00 20.00     0.006 A 
ENDBRANCH   2   4
TORSDOF 1
ENDMDL
MODEL 4
REMARK VINA RESULT:      -4.0      1.717      2.084
REMARK  1 active torsions:
REMARK  status: ('A' for Active; 'I' for Inactive)
REMARK    1  A    between atoms: C4_4  and  C5_5 
ROOT
HETATM    1  C1  UNL     1     -33.686   7.239   5.059  1.00 20.00     0.059 C 
HETATM    2  C5  UNL     1     -34.103   6.597   3.807  1.00 20.00     0.128 C 
HETATM    3  N6  UNL     1     -33.355   7.750   6.047  1.00 20.00    -0.197 NA
ENDROOT
BRANCH   2   4
HETATM    4  C4  UNL     1     -34.891   5.400   4.215  1.00 20.00    -0.002 A 
HETATM    5  C2  UNL     1     -34.242   4.044   4.258  1.00 20.00     0.006 A 
HETATM    6  C3  UNL     1     -34.627   4.735   5.537  1.00 20.00     0.006 A 
ENDBRANCH   2   4
TORSDOF 1
ENDMDL
MODEL 5
REMARK VINA RESULT:      -4.0      1.472      2.168
REMARK  1 active torsions:
REMARK  status: ('A' for Active; 'I' for Inactive)
REMARK    1  A    between atoms: C4_4  and  C5_5 
ROOT
HETATM    1  C1  UNL     1     -32.254   8.365   2.158  1.00 20.00     0.059 C 
HETATM    2  C5  UNL     1     -32.472   7.414   3.254  1.00 20.00     0.128 C 
HETATM    3  N6  UNL     1     -32.078   9.118   1.292  1.00 20.00    -0.197 NA
ENDROOT
BRANCH   2   4
HETATM    4  C4  UNL     1     -33.492   6.452   2.751  1.00 20.00    -0.002 A 
HETATM    5  C2  UNL     1     -33.260   4.971   2.872  1.00 20.00     0.006 A 
HETATM    6  C3  UNL     1     -34.307   5.640   3.719  1.00 20.00     0.006 A 
ENDBRANCH   2   4
TORSDOF 1
ENDMDL
MODEL 6
REMARK VINA RESULT:      -4.0      3.090      4.172
REMARK  1 active torsions:
REMARK  status: ('A' for Active; 'I' for Inactive)
REMARK    1  A    between atoms: C4_4  and  C5_5 
ROOT
HETATM    1  C1  UNL     1     -32.925   9.492   0.147  1.00 20.00     0.059 C 
HETATM    2  C5  UNL     1     -32.291   9.748   1.445  1.00 20.00     0.128 C 
HETATM    3  N6  UNL     1     -33.426   9.294  -0.881  1.00 20.00    -0.197 NA
ENDROOT
BRANCH   2   4
HETATM    4  C4  UNL     1     -31.830   8.419   1.934  1.00 20.00    -0.002 A 
HETATM    5  C2  UNL     1     -31.651   8.174   3.407  1.00 20.00     0.006 A 
HETATM    6  C3  UNL     1     -32.779   7.512   2.665  1.00 20.00     0.006 A 
ENDBRANCH   2   4
TORSDOF 1
ENDMDL
MODEL 7
REMARK VINA RESULT:      -4.0      2.756      4.663
REMARK  1 active torsions:
REMARK  status: ('A' for Active; 'I' for Inactive)
REMARK    1  A    between atoms: C4_4  and  C5_5 
ROOT
HETATM    1  C1  UNL     1     -32.700   7.212   2.821  1.00 20.00     0.059 C 
HETATM    2  C5  UNL     1     -31.902   8.264   2.182  1.00 20.00     0.128 C 
HETATM    3  N6  UNL     1     -33.328   6.378   3.329  1.00 20.00    -0.197 NA
ENDROOT
BRANCH   2   4
HETATM    4  C4  UNL     1     -32.882   9.136   1.476  1.00 20.00    -0.002 A 
HETATM    5  C2  UNL     1     -32.480  10.509   1.014  1.00 20.00     0.006 A 
HETATM    6  C3  UNL     1     -32.722   9.418   0.008  1.00 20.00     0.006 A 
ENDBRANCH   2   4
TORSDOF 1
ENDMDL
MODEL 8
REMARK VINA RESULT:      -3.9      1.691      2.080
REMARK  1 active torsions:
REMARK  status: ('A' for Active; 'I' for Inactive)
REMARK    1  A    between atoms: C4_4  and  C5_5 
ROOT
HETATM    1  C1  UNL     1     -33.635   4.677   3.405  1.00 20.00     0.059 C 
HETATM    2  C5  UNL     1     -34.458   4.721   4.619  1.00 20.00     0.128 C 
HETATM    3  N6  UNL     1     -32.985   4.638   2.444  1.00 20.00    -0.197 NA
ENDROOT
BRANCH   2   4
HETATM    4  C4  UNL     1     -34.719   6.165   4.873  1.00 20.00    -0.002 A 
HETATM    5  C2  UNL     1     -34.021   6.875   6.000  1.00 20.00     0.006 A 
HETATM    6  C3  UNL     1     -33.659   7.189   4.575  1.00 20.00     0.006 A 
ENDBRANCH   2   4
TORSDOF 1
ENDMDL
MODEL 9
REMARK VINA RESULT:      -3.3     11.915     12.239
REMARK  1 active torsions:
REMARK  status: ('A' for Active; 'I' for Inactive)
REMARK    1  A    between atoms: C4_4  and  C5_5 
ROOT
HETATM    1  C1  UNL     1     -35.777  13.957  -4.967  1.00 20.00     0.059 C 
HETATM    2  C5  UNL     1     -35.681  15.370  -4.584  1.00 20.00     0.128 C 
HETATM    3  N6  UNL     1     -35.854  12.841  -5.273  1.00 20.00    -0.197 NA
ENDROOT
BRANCH   2   4
HETATM    4  C4  UNL     1     -34.673  15.420  -3.488  1.00 20.00    -0.002 A 
HETATM    5  C2  UNL     1     -33.704  16.566  -3.401  1.00 20.00     0.006 A 
HETATM    6  C3  UNL     1     -34.805  16.433  -2.385  1.00 20.00     0.006 A 
ENDBRANCH   2   4
TORSDOF 1
ENDMDL
