MODEL 1
REMARK VINA RESULT:      -4.9      0.000      0.000
REMARK  3 active torsions:
REMARK  status: ('A' for Active; 'I' for Inactive)
REMARK    1  A    between atoms: C5_5  and  C6_6 
REMARK    2  A    between atoms: C5_5  and  N8_8 
REMARK    3  A    between atoms: C6_6  and  N9_9 
ROOT
HETATM    1  C1  UNL     1     -32.250   9.082   1.357  1.00 20.00     0.157 C 
HETATM    2  N8  UNL     1     -31.748   8.780   2.375  1.00 20.00    -0.274 NA
HETATM    3  S10 UNL     1     -32.915   9.518  -0.022  1.00 20.00    -0.055 SA
ENDROOT
BRANCH   2   4
HETATM    4  C5  UNL     1     -32.148   7.470   2.894  1.00 20.00     0.172 C 
BRANCH   4   5
HETATM    5  C6  UNL     1     -33.558   7.546   3.469  1.00 20.00     0.172 C 
BRANCH   5   6
HETATM    6  N9  UNL     1     -33.958   6.329   4.168  1.00 20.00    -0.280 N 
HETATM    7  C4  UNL     1     -34.332   6.233   5.477  1.00 20.00     0.113 A 
HETATM    8  C2  UNL     1     -34.618   4.907   5.689  1.00 20.00     0.040 A 
HETATM    9  C3  UNL     1     -34.384   4.292   4.445  1.00 20.00     0.140 A 
HETATM   10  N7  UNL     1     -33.979   5.157   3.510  1.00 20.00    -0.185 NA
ENDBRANCH   5   6
ENDBRANCH   4   5
ENDBRANCH   2   4
TORSDOF 3
ENDMDL
MODEL 2
REMARK VINA RESULT:      -4.7      0.911      1.463
REMARK  3 active torsions:
REMARK  status: ('A' for Active; 'I' for Inactive)
REMARK    1  A    between atoms: C5_5  and  C6_6 
REMARK    2  A    between atoms: C5_5  and  N8_8 
REMARK    3  A    between atoms: C6_6  and  N9_9 
ROOT
HETATM    1  C1  UNL     1     -32.507   9.379   1.150  1.00 20.00     0.157 C 
HETATM    2  N8  UNL     1     -32.179   9.367   2.278  1.00 20.00    -0.274 NA
HETATM    3  S10 UNL     1     -32.958   9.425  -0.376  1.00 20.00    -0.055 SA
ENDROOT
BRANCH   2   4
HETATM    4  C5  UNL     1     -31.787   8.052   2.791  1.00 20.00     0.172 C 
BRANCH   4   5
HETATM    5  C6  UNL     1     -32.915   7.051   2.574  1.00 20.00     0.172 C 
BRANCH   5   6
HETATM    6  N9  UNL     1     -33.554   6.629   3.817  1.00 20.00    -0.280 N 
HETATM    7  C4  UNL     1     -34.342   5.529   3.989  1.00 20.00     0.113 A 
HETATM    8  C2  UNL     1     -34.713   5.537   5.312  1.00 20.00     0.040 A 
HETATM    9  C3  UNL     1     -34.094   6.682   5.845  1.00 20.00     0.140 A 
HETATM   10  N7  UNL     1     -33.383   7.355   4.935  1.00 20.00    -0.185 NA
ENDBRANCH   5   6
ENDBRANCH   4   5
ENDBRANCH   2   4
TORSDOF 3
ENDMDL
MODEL 3
REMARK VINA RESULT:      -3.8      2.595      5.109
REMARK  3 active torsions:
REMARK  status: ('A' for Active; 'I' for Inactive)
REMARK    1  A    between atoms: C5_5  and  C6_6 
REMARK    2  A    between atoms: C5_5  and  N8_8 
REMARK    3  A    between atoms: C6_6  and  N9_9 
ROOT
HETATM    1  C1  UNL     1     -33.895   5.621   3.719  1.00 20.00     0.157 C 
HETATM    2  N8  UNL     1     -33.523   6.570   3.135  1.00 20.00    -0.274 NA
HETATM    3  S10 UNL     1     -34.410   4.323   4.485  1.00 20.00    -0.055 SA
ENDROOT
BRANCH   2   4
HETATM    4  C5  UNL     1     -32.869   7.586   3.964  1.00 20.00     0.172 C 
BRANCH   4   5
HETATM    5  C6  UNL     1     -31.646   8.138   3.243  1.00 20.00     0.172 C 
BRANCH   5   6
HETATM    6  N9  UNL     1     -31.977   8.840   2.007  1.00 20.00    -0.280 N 
HETATM    7  C4  UNL     1     -32.770   9.944   1.890  1.00 20.00     0.113 A 
HETATM    8  C2  UNL     1     -32.794  10.249   0.551  1.00 20.00     0.040 A 
HETATM    9  C3  UNL     1     -31.983   9.268  -0.048  1.00 20.00     0.140 A 
HETATM   10  N7  UNL     1     -31.480   8.403   0.837  1.00 20.00    -0.185 NA
ENDBRANCH   5   6
ENDBRANCH   4   5
ENDBRANCH   2   4
TORSDOF 3
ENDMDL
MODEL 4
REMARK VINA RESULT:      -3.8     11.098     11.770
REMARK  3 active torsions:
REMARK  status: ('A' for Active; 'I' for Inactive)
REMARK    1  A    between atoms: C5_5  and  C6_6 
REMARK    2  A    between atoms: C5_5  and  N8_8 
REMARK    3  A    between atoms: C6_6  and  N9_9 
ROOT
HETATM    1  C1  UNL     1     -35.676  13.456  -6.268  1.00 20.00     0.157 C 
HETATM    2  N8  UNL     1     -35.574  13.114  -5.149  1.00 20.00    -0.274 NA
HETATM    3  S10 UNL     1     -35.831  13.894  -7.791  1.00 20.00    -0.055 SA
ENDROOT
BRANCH   2   4
HETATM    4  C5  UNL     1     -34.769  14.001  -4.305  1.00 20.00     0.172 C 
BRANCH   4   5
HETATM    5  C6  UNL     1     -35.522  15.301  -4.047  1.00 20.00     0.172 C 
BRANCH   5   6
HETATM    6  N9  UNL     1     -34.902  16.129  -3.018  1.00 20.00    -0.280 N 
HETATM    7  C4  UNL     1     -35.518  16.652  -1.920  1.00 20.00     0.113 A 
HETATM    8  C2  UNL     1     -34.548  17.353  -1.244  1.00 20.00     0.040 A 
HETATM    9  C3  UNL     1     -33.388  17.187  -2.021  1.00 20.00     0.140 A 
HETATM   10  N7  UNL     1     -33.597  16.439  -3.108  1.00 20.00    -0.185 NA
ENDBRANCH   5   6
ENDBRANCH   4   5
ENDBRANCH   2   4
TORSDOF 3
ENDMDL
MODEL 5
REMARK VINA RESULT:      -3.7     11.507     12.172
REMARK  3 active torsions:
REMARK  status: ('A' for Active; 'I' for Inactive)
REMARK    1  A    between atoms: C5_5  and  C6_6 
REMARK    2  A    between atoms: C5_5  and  N8_8 
REMARK    3  A    between atoms: C6_6  and  N9_9 
ROOT
HETATM    1  C1  UNL     1     -38.758  15.226  -4.690  1.00 20.00     0.157 C 
HETATM    2  N8  UNL     1     -38.342  14.168  -4.986  1.00 20.00    -0.274 NA
HETATM    3  S10 UNL     1     -39.344  16.646  -4.273  1.00 20.00    -0.055 SA
ENDROOT
BRANCH   2   4
HETATM    4  C5  UNL     1     -37.155  14.191  -5.844  1.00 20.00     0.172 C 
BRANCH   4   5
HETATM    5  C6  UNL     1     -36.026  13.400  -5.193  1.00 20.00     0.172 C 
BRANCH   5   6
HETATM    6  N9  UNL     1     -34.943  14.245  -4.702  1.00 20.00    -0.280 N 
HETATM    7  C4  UNL     1     -35.064  15.304  -3.852  1.00 20.00     0.113 A 
HETATM    8  C2  UNL     1     -33.792  15.789  -3.671  1.00 20.00     0.040 A 
HETATM    9  C3  UNL     1     -32.981  14.950  -4.456  1.00 20.00     0.140 A 
HETATM   10  N7  UNL     1     -33.679  14.003  -5.090  1.00 20.00    -0.185 NA
ENDBRANCH   5   6
ENDBRANCH   4   5
ENDBRANCH   2   4
TORSDOF 3
ENDMDL
MODEL 6
REMARK VINA RESULT:      -3.7     11.179     12.078
REMARK  3 active torsions:
REMARK  status: ('A' for Active; 'I' for Inactive)
REMARK    1  A    between atoms: C5_5  and  C6_6 
REMARK    2  A    between atoms: C5_5  and  N8_8 
REMARK    3  A    between atoms: C6_6  and  N9_9 
ROOT
HETATM    1  C1  UNL     1     -33.797  17.077  -2.093  1.00 20.00     0.157 C 
HETATM    2  N8  UNL     1     -34.497  16.307  -2.639  1.00 20.00    -0.274 NA
HETATM    3  S10 UNL     1     -32.871  18.126  -1.334  1.00 20.00    -0.055 SA
ENDROOT
BRANCH   2   4
HETATM    4  C5  UNL     1     -33.880  15.607  -3.769  1.00 20.00     0.172 C 
BRANCH   4   5
HETATM    5  C6  UNL     1     -34.668  14.343  -4.091  1.00 20.00     0.172 C 
BRANCH   5   6
HETATM    6  N9  UNL     1     -34.683  14.025  -5.516  1.00 20.00    -0.280 N 
HETATM    7  C4  UNL     1     -34.066  14.728  -6.509  1.00 20.00     0.113 A 
HETATM    8  C2  UNL     1     -34.353  14.060  -7.675  1.00 20.00     0.040 A 
HETATM    9  C3  UNL     1     -35.148  12.973  -7.271  1.00 20.00     0.140 A 
HETATM   10  N7  UNL     1     -35.354  12.945  -5.951  1.00 20.00    -0.185 NA
ENDBRANCH   5   6
ENDBRANCH   4   5
ENDBRANCH   2   4
TORSDOF 3
ENDMDL
MODEL 7
REMARK VINA RESULT:      -3.7     10.992     11.682
REMARK  3 active torsions:
REMARK  status: ('A' for Active; 'I' for Inactive)
REMARK    1  A    between atoms: C5_5  and  C6_6 
REMARK    2  A    between atoms: C5_5  and  N8_8 
REMARK    3  A    between atoms: C6_6  and  N9_9 
ROOT
HETATM    1  C1  UNL     1     -36.328  13.916  -5.194  1.00 20.00     0.157 C 
HETATM    2  N8  UNL     1     -35.235  13.487  -5.143  1.00 20.00    -0.274 NA
HETATM    3  S10 UNL     1     -37.814  14.479  -5.287  1.00 20.00    -0.055 SA
ENDROOT
BRANCH   2   4
HETATM    4  C5  UNL     1     -34.401  14.053  -4.081  1.00 20.00     0.172 C 
BRANCH   4   5
HETATM    5  C6  UNL     1     -34.302  15.565  -4.246  1.00 20.00     0.172 C 
BRANCH   5   6
HETATM    6  N9  UNL     1     -34.462  16.291  -2.990  1.00 20.00    -0.280 N 
HETATM    7  C4  UNL     1     -33.491  16.974  -2.320  1.00 20.00     0.113 A 
HETATM    8  C2  UNL     1     -34.099  17.491  -1.202  1.00 20.00     0.040 A 
HETATM    9  C3  UNL     1     -35.434  17.059  -1.296  1.00 20.00     0.140 A 
HETATM   10  N7  UNL     1     -35.664  16.324  -2.388  1.00 20.00    -0.185 NA
ENDBRANCH   5   6
ENDBRANCH   4   5
ENDBRANCH   2   4
TORSDOF 3
ENDMDL
MODEL 8
REMARK VINA RESULT:      -3.5     11.760     12.076
REMARK  3 active torsions:
REMARK  status: ('A' for Active; 'I' for Inactive)
REMARK    1  A    between atoms: C5_5  and  C6_6 
REMARK    2  A    between atoms: C5_5  and  N8_8 
REMARK    3  A    between atoms: C6_6  and  N9_9 
ROOT
HETATM    1  C1  UNL     1     -31.166  18.794   1.177  1.00 20.00     0.157 C 
HETATM    2  N8  UNL     1     -31.215  18.460   0.052  1.00 20.00    -0.274 NA
HETATM    3  S10 UNL     1     -31.074  19.231   2.705  1.00 20.00    -0.055 SA
ENDROOT
BRANCH   2   4
HETATM    4  C5  UNL     1     -32.382  18.949  -0.685  1.00 20.00     0.172 C 
BRANCH   4   5
HETATM    5  C6  UNL     1     -33.627  18.180  -0.259  1.00 20.00     0.172 C 
BRANCH   5   6
HETATM    6  N9  UNL     1     -34.191  17.362  -1.329  1.00 20.00    -0.280 N 
HETATM    7  C4  UNL     1     -35.486  16.950  -1.436  1.00 20.00     0.113 A 
HETATM    8  C2  UNL     1     -35.551  16.212  -2.593  1.00 20.00     0.040 A 
HETATM    9  C3  UNL     1     -34.241  16.244  -3.104  1.00 20.00     0.140 A 
HETATM   10  N7  UNL     1     -33.403  16.946  -2.336  1.00 20.00    -0.185 NA
ENDBRANCH   5   6
ENDBRANCH   4   5
ENDBRANCH   2   4
TORSDOF 3
ENDMDL
MODEL 9
REMARK VINA RESULT:      -3.4     11.283     11.839
REMARK  3 active torsions:
REMARK  status: ('A' for Active; 'I' for Inactive)
REMARK    1  A    between atoms: C5_5  and  C6_6 
REMARK    2  A    between atoms: C5_5  and  N8_8 
REMARK    3  A    between atoms: C6_6  and  N9_9 
ROOT
HETATM    1  C1  UNL     1     -34.207  17.019  -1.809  1.00 20.00     0.157 C 
HETATM    2  N8  UNL     1     -33.327  16.812  -2.560  1.00 20.00    -0.274 NA
HETATM    3  S10 UNL     1     -35.380  17.303  -0.770  1.00 20.00    -0.055 SA
ENDROOT
BRANCH   2   4
HETATM    4  C5  UNL     1     -33.742  16.561  -3.942  1.00 20.00     0.172 C 
BRANCH   4   5
HETATM    5  C6  UNL     1     -33.205  15.214  -4.411  1.00 20.00     0.172 C 
BRANCH   5   6
HETATM    6  N9  UNL     1     -34.182  14.442  -5.173  1.00 20.00    -0.280 N 
HETATM    7  C4  UNL     1     -34.240  14.324  -6.530  1.00 20.00     0.113 A 
HETATM    8  C2  UNL     1     -35.312  13.506  -6.790  1.00 20.00     0.040 A 
HETATM    9  C3  UNL     1     -35.828  13.187  -5.521  1.00 20.00     0.140 A 
HETATM   10  N7  UNL     1     -35.141  13.757  -4.527  1.00 20.00    -0.185 NA
ENDBRANCH   5   6
ENDBRANCH   4   5
ENDBRANCH   2   4
TORSDOF 3
ENDMDL
