MODEL 1
REMARK VINA RESULT:      -5.2      0.000      0.000
REMARK  1 active torsions:
REMARK  status: ('A' for Active; 'I' for Inactive)
REMARK    1  A    between atoms: C2_2  and  C4_4 
ROOT
HETATM    1  C4  UNL     1     -34.702   5.601   4.445  1.00 20.00     0.407 C 
HETATM    2  F5  UNL     1     -34.921   5.462   5.776  1.00 20.00    -0.167 F 
HETATM    3  F6  UNL     1     -35.914   5.783   3.864  1.00 20.00    -0.167 F 
HETATM    4  F7  UNL     1     -34.230   4.409   3.999  1.00 20.00    -0.167 F 
ENDROOT
BRANCH   1   5
HETATM    5  C2  UNL     1     -33.789   6.741   4.161  1.00 20.00     0.084 C 
HETATM    6  C1  UNL     1     -33.006   6.835   3.077  1.00 20.00    -0.026 C 
HETATM    7  C3  UNL     1     -32.095   7.986   2.807  1.00 20.00     0.036 C 
ENDBRANCH   1   5
TORSDOF 1
ENDMDL
MODEL 2
REMARK VINA RESULT:      -5.2      0.030      1.422
REMARK  1 active torsions:
REMARK  status: ('A' for Active; 'I' for Inactive)
REMARK    1  A    between atoms: C2_2  and  C4_4 
ROOT
HETATM    1  C4  UNL     1     -34.701   5.620   4.444  1.00 20.00     0.407 C 
HETATM    2  F5  UNL     1     -35.915   5.790   3.863  1.00 20.00    -0.167 F 
HETATM    3  F6  UNL     1     -34.197   4.454   3.967  1.00 20.00    -0.167 F 
HETATM    4  F7  UNL     1     -34.924   5.436   5.770  1.00 20.00    -0.167 F 
ENDROOT
BRANCH   1   5
HETATM    5  C2  UNL     1     -33.794   6.763   4.150  1.00 20.00     0.084 C 
HETATM    6  C1  UNL     1     -32.995   6.840   3.077  1.00 20.00    -0.026 C 
HETATM    7  C3  UNL     1     -32.091   7.994   2.796  1.00 20.00     0.036 C 
ENDBRANCH   1   5
TORSDOF 1
ENDMDL
MODEL 3
REMARK VINA RESULT:      -4.5      4.601      5.364
REMARK  1 active torsions:
REMARK  status: ('A' for Active; 'I' for Inactive)
REMARK    1  A    between atoms: C2_2  and  C4_4 
ROOT
HETATM    1  C4  UNL     1     -32.299   9.341   0.522  1.00 20.00     0.407 C 
HETATM    2  F5  UNL     1     -32.197  10.690   0.615  1.00 20.00    -0.167 F 
HETATM    3  F6  UNL     1     -31.046   8.867   0.306  1.00 20.00    -0.167 F 
HETATM    4  F7  UNL     1     -33.015   9.078  -0.600  1.00 20.00    -0.167 F 
ENDROOT
BRANCH   1   5
HETATM    5  C2  UNL     1     -32.894   8.755   1.754  1.00 20.00     0.084 C 
HETATM    6  C1  UNL     1     -32.266   7.892   2.565  1.00 20.00    -0.026 C 
HETATM    7  C3  UNL     1     -32.877   7.314   3.797  1.00 20.00     0.036 C 
ENDBRANCH   1   5
TORSDOF 1
ENDMDL
MODEL 4
REMARK VINA RESULT:      -4.5      3.425      4.250
REMARK  1 active torsions:
REMARK  status: ('A' for Active; 'I' for Inactive)
REMARK    1  A    between atoms: C2_2  and  C4_4 
ROOT
HETATM    1  C4  UNL     1     -32.183   8.306   2.328  1.00 20.00     0.407 C 
HETATM    2  F5  UNL     1     -31.415   8.763   3.348  1.00 20.00    -0.167 F 
HETATM    3  F6  UNL     1     -31.350   8.069   1.285  1.00 20.00    -0.167 F 
HETATM    4  F7  UNL     1     -32.993   9.331   1.957  1.00 20.00    -0.167 F 
ENDROOT
BRANCH   1   5
HETATM    5  C2  UNL     1     -32.927   7.077   2.718  1.00 20.00     0.084 C 
HETATM    6  C1  UNL     1     -33.787   7.004   3.743  1.00 20.00    -0.026 C 
HETATM    7  C3  UNL     1     -34.525   5.764   4.122  1.00 20.00     0.036 C 
ENDBRANCH   1   5
TORSDOF 1
ENDMDL
MODEL 5
REMARK VINA RESULT:      -4.5      3.415      4.240
REMARK  1 active torsions:
REMARK  status: ('A' for Active; 'I' for Inactive)
REMARK    1  A    between atoms: C2_2  and  C4_4 
ROOT
HETATM    1  C4  UNL     1     -32.180   8.286   2.352  1.00 20.00     0.407 C 
HETATM    2  F5  UNL     1     -31.355   8.051   1.301  1.00 20.00    -0.167 F 
HETATM    3  F6  UNL     1     -33.005   9.298   1.984  1.00 20.00    -0.167 F 
HETATM    4  F7  UNL     1     -31.405   8.759   3.361  1.00 20.00    -0.167 F 
ENDROOT
BRANCH   1   5
HETATM    5  C2  UNL     1     -32.950   7.066   2.720  1.00 20.00     0.084 C 
HETATM    6  C1  UNL     1     -33.816   6.995   3.741  1.00 20.00    -0.026 C 
HETATM    7  C3  UNL     1     -34.581   5.765   4.097  1.00 20.00     0.036 C 
ENDBRANCH   1   5
TORSDOF 1
ENDMDL
MODEL 6
REMARK VINA RESULT:      -4.5      2.237      2.911
REMARK  1 active torsions:
REMARK  status: ('A' for Active; 'I' for Inactive)
REMARK    1  A    between atoms: C2_2  and  C4_4 
ROOT
HETATM    1  C4  UNL     1     -33.459   5.841   2.676  1.00 20.00     0.407 C 
HETATM    2  F5  UNL     1     -34.482   5.958   1.793  1.00 20.00    -0.167 F 
HETATM    3  F6  UNL     1     -32.507   6.730   2.295  1.00 20.00    -0.167 F 
HETATM    4  F7  UNL     1     -32.931   4.603   2.504  1.00 20.00    -0.167 F 
ENDROOT
BRANCH   1   5
HETATM    5  C2  UNL     1     -33.914   6.101   4.070  1.00 20.00     0.084 C 
HETATM    6  C1  UNL     1     -33.498   7.127   4.825  1.00 20.00    -0.026 C 
HETATM    7  C3  UNL     1     -33.964   7.373   6.221  1.00 20.00     0.036 C 
ENDBRANCH   1   5
TORSDOF 1
ENDMDL
MODEL 7
REMARK VINA RESULT:      -4.5      2.749      3.707
REMARK  1 active torsions:
REMARK  status: ('A' for Active; 'I' for Inactive)
REMARK    1  A    between atoms: C2_2  and  C4_4 
ROOT
HETATM    1  C4  UNL     1     -32.582   7.580   3.133  1.00 20.00     0.407 C 
HETATM    2  F5  UNL     1     -31.358   8.056   3.473  1.00 20.00    -0.167 F 
HETATM    3  F6  UNL     1     -32.376   6.526   2.304  1.00 20.00    -0.167 F 
HETATM    4  F7  UNL     1     -33.188   8.545   2.397  1.00 20.00    -0.167 F 
ENDROOT
BRANCH   1   5
HETATM    5  C2  UNL     1     -33.361   7.178   4.337  1.00 20.00     0.084 C 
HETATM    6  C1  UNL     1     -34.019   6.017   4.461  1.00 20.00    -0.026 C 
HETATM    7  C3  UNL     1     -34.795   5.629   5.675  1.00 20.00     0.036 C 
ENDBRANCH   1   5
TORSDOF 1
ENDMDL
MODEL 8
REMARK VINA RESULT:      -4.5      2.233      3.007
REMARK  1 active torsions:
REMARK  status: ('A' for Active; 'I' for Inactive)
REMARK    1  A    between atoms: C2_2  and  C4_4 
ROOT
HETATM    1  C4  UNL     1     -33.463   5.856   2.674  1.00 20.00     0.407 C 
HETATM    2  F5  UNL     1     -32.506   6.741   2.301  1.00 20.00    -0.167 F 
HETATM    3  F6  UNL     1     -32.934   4.616   2.517  1.00 20.00    -0.167 F 
HETATM    4  F7  UNL     1     -34.473   5.967   1.774  1.00 20.00    -0.167 F 
ENDROOT
BRANCH   1   5
HETATM    5  C2  UNL     1     -33.896   6.085   4.080  1.00 20.00     0.084 C 
HETATM    6  C1  UNL     1     -33.530   7.139   4.823  1.00 20.00    -0.026 C 
HETATM    7  C3  UNL     1     -33.973   7.355   6.232  1.00 20.00     0.036 C 
ENDBRANCH   1   5
TORSDOF 1
ENDMDL
MODEL 9
REMARK VINA RESULT:      -4.5      2.216      2.855
REMARK  1 active torsions:
REMARK  status: ('A' for Active; 'I' for Inactive)
REMARK    1  A    between atoms: C2_2  and  C4_4 
ROOT
HETATM    1  C4  UNL     1     -33.458   5.862   2.678  1.00 20.00     0.407 C 
HETATM    2  F5  UNL     1     -32.954   4.611   2.539  1.00 20.00    -0.167 F 
HETATM    3  F6  UNL     1     -34.483   5.972   1.796  1.00 20.00    -0.167 F 
HETATM    4  F7  UNL     1     -32.493   6.722   2.267  1.00 20.00    -0.167 F 
ENDROOT
BRANCH   1   5
HETATM    5  C2  UNL     1     -33.916   6.110   4.073  1.00 20.00     0.084 C 
HETATM    6  C1  UNL     1     -33.499   7.128   4.838  1.00 20.00    -0.026 C 
HETATM    7  C3  UNL     1     -33.967   7.363   6.235  1.00 20.00     0.036 C 
ENDBRANCH   1   5
TORSDOF 1
ENDMDL
