MODEL 1
REMARK VINA RESULT:      -4.7      0.000      0.000
REMARK  2 active torsions:
REMARK  status: ('A' for Active; 'I' for Inactive)
REMARK    1  A    between atoms: C7_7  and  O9_9 
REMARK    2  A    between atoms: C8_8  and  O9_9 
ROOT
HETATM    1  C1  UNL     1     -32.564   9.379   0.585  1.00 20.00     0.015 C 
HETATM    2  C2  UNL     1     -32.509   8.657   1.543  1.00 20.00    -0.086 C 
HETATM    3  C3  UNL     1     -31.395   8.250   3.705  1.00 20.00     0.053 C 
HETATM    4  C7  UNL     1     -32.442   7.771   2.711  1.00 20.00     0.196 C 
ENDROOT
BRANCH   4   5
HETATM    5  O9  UNL     1     -33.711   7.742   3.346  1.00 20.00    -0.364 OA
BRANCH   5   6
HETATM    6  C8  UNL     1     -34.036   6.426   3.796  1.00 20.00     0.051 C 
HETATM    7  C4  UNL     1     -33.811   6.358   5.306  1.00 20.00     0.045 C 
HETATM    8  C5  UNL     1     -35.504   6.176   3.459  1.00 20.00     0.045 C 
HETATM    9  C6  UNL     1     -33.138   5.428   3.066  1.00 20.00     0.045 C 
ENDBRANCH   5   6
ENDBRANCH   4   5
TORSDOF 2
ENDMDL
MODEL 2
REMARK VINA RESULT:      -4.3      1.232      3.929
REMARK  2 active torsions:
REMARK  status: ('A' for Active; 'I' for Inactive)
REMARK    1  A    between atoms: C7_7  and  O9_9 
REMARK    2  A    between atoms: C8_8  and  O9_9 
ROOT
HETATM    1  C1  UNL     1     -34.013   7.260   5.475  1.00 20.00     0.015 C 
HETATM    2  C2  UNL     1     -33.487   7.059   4.415  1.00 20.00    -0.086 C 
HETATM    3  C3  UNL     1     -33.205   5.443   2.574  1.00 20.00     0.053 C 
HETATM    4  C7  UNL     1     -32.840   6.815   3.120  1.00 20.00     0.196 C 
ENDROOT
BRANCH   4   5
HETATM    5  O9  UNL     1     -33.257   7.810   2.198  1.00 20.00    -0.364 OA
BRANCH   5   6
HETATM    6  C8  UNL     1     -32.206   8.738   1.926  1.00 20.00     0.051 C 
HETATM    7  C4  UNL     1     -32.812  10.133   1.787  1.00 20.00     0.045 C 
HETATM    8  C5  UNL     1     -31.233   8.688   3.102  1.00 20.00     0.045 C 
HETATM    9  C6  UNL     1     -31.509   8.317   0.633  1.00 20.00     0.045 C 
ENDBRANCH   5   6
ENDBRANCH   4   5
TORSDOF 2
ENDMDL
MODEL 3
REMARK VINA RESULT:      -4.3      1.235      3.954
REMARK  2 active torsions:
REMARK  status: ('A' for Active; 'I' for Inactive)
REMARK    1  A    between atoms: C7_7  and  O9_9 
REMARK    2  A    between atoms: C8_8  and  O9_9 
ROOT
HETATM    1  C1  UNL     1     -34.012   7.260   5.481  1.00 20.00     0.015 C 
HETATM    2  C2  UNL     1     -33.490   7.058   4.419  1.00 20.00    -0.086 C 
HETATM    3  C3  UNL     1     -33.230   5.447   2.570  1.00 20.00     0.053 C 
HETATM    4  C7  UNL     1     -32.849   6.812   3.122  1.00 20.00     0.196 C 
ENDROOT
BRANCH   4   5
HETATM    5  O9  UNL     1     -33.255   7.816   2.204  1.00 20.00    -0.364 OA
BRANCH   5   6
HETATM    6  C8  UNL     1     -32.195   8.734   1.937  1.00 20.00     0.051 C 
HETATM    7  C4  UNL     1     -31.513   8.325   0.632  1.00 20.00     0.045 C 
HETATM    8  C5  UNL     1     -32.812  10.125   1.808  1.00 20.00     0.045 C 
HETATM    9  C6  UNL     1     -31.208   8.690   3.103  1.00 20.00     0.045 C 
ENDBRANCH   5   6
ENDBRANCH   4   5
TORSDOF 2
ENDMDL
MODEL 4
REMARK VINA RESULT:      -4.3      1.258      3.938
REMARK  2 active torsions:
REMARK  status: ('A' for Active; 'I' for Inactive)
REMARK    1  A    between atoms: C7_7  and  O9_9 
REMARK    2  A    between atoms: C8_8  and  O9_9 
ROOT
HETATM    1  C1  UNL     1     -33.876   7.276   5.593  1.00 20.00     0.015 C 
HETATM    2  C2  UNL     1     -33.410   7.087   4.503  1.00 20.00    -0.086 C 
HETATM    3  C3  UNL     1     -33.256   5.504   2.618  1.00 20.00     0.053 C 
HETATM    4  C7  UNL     1     -32.837   6.858   3.171  1.00 20.00     0.196 C 
ENDROOT
BRANCH   4   5
HETATM    5  O9  UNL     1     -33.282   7.879   2.291  1.00 20.00    -0.364 OA
BRANCH   5   6
HETATM    6  C8  UNL     1     -32.220   8.770   1.951  1.00 20.00     0.051 C 
HETATM    7  C4  UNL     1     -31.189   8.752   3.080  1.00 20.00     0.045 C 
HETATM    8  C5  UNL     1     -31.600   8.272   0.648  1.00 20.00     0.045 C 
HETATM    9  C6  UNL     1     -32.801  10.172   1.769  1.00 20.00     0.045 C 
ENDBRANCH   5   6
ENDBRANCH   4   5
TORSDOF 2
ENDMDL
MODEL 5
REMARK VINA RESULT:      -4.2      1.270      2.345
REMARK  2 active torsions:
REMARK  status: ('A' for Active; 'I' for Inactive)
REMARK    1  A    between atoms: C7_7  and  O9_9 
REMARK    2  A    between atoms: C8_8  and  O9_9 
ROOT
HETATM    1  C1  UNL     1     -31.915   8.359   1.989  1.00 20.00     0.015 C 
HETATM    2  C2  UNL     1     -32.531   7.407   2.384  1.00 20.00    -0.086 C 
HETATM    3  C3  UNL     1     -32.875   4.978   2.133  1.00 20.00     0.053 C 
HETATM    4  C7  UNL     1     -33.287   6.245   2.867  1.00 20.00     0.196 C 
ENDROOT
BRANCH   4   5
HETATM    5  O9  UNL     1     -33.047   6.079   4.256  1.00 20.00    -0.364 OA
BRANCH   5   6
HETATM    6  C8  UNL     1     -34.270   6.057   4.994  1.00 20.00     0.051 C 
HETATM    7  C4  UNL     1     -34.419   4.684   5.648  1.00 20.00     0.045 C 
HETATM    8  C5  UNL     1     -34.186   7.152   6.055  1.00 20.00     0.045 C 
HETATM    9  C6  UNL     1     -35.424   6.329   4.031  1.00 20.00     0.045 C 
ENDBRANCH   5   6
ENDBRANCH   4   5
TORSDOF 2
ENDMDL
MODEL 6
REMARK VINA RESULT:      -3.7      1.303      2.620
REMARK  2 active torsions:
REMARK  status: ('A' for Active; 'I' for Inactive)
REMARK    1  A    between atoms: C7_7  and  O9_9 
REMARK    2  A    between atoms: C8_8  and  O9_9 
ROOT
HETATM    1  C1  UNL     1     -32.747   8.825  -0.967  1.00 20.00     0.015 C 
HETATM    2  C2  UNL     1     -32.633   9.061   0.205  1.00 20.00    -0.086 C 
HETATM    3  C3  UNL     1     -32.728  10.822   1.929  1.00 20.00     0.053 C 
HETATM    4  C7  UNL     1     -32.490   9.347   1.637  1.00 20.00     0.196 C 
ENDROOT
BRANCH   4   5
HETATM    5  O9  UNL     1     -33.431   8.571   2.363  1.00 20.00    -0.364 OA
BRANCH   5   6
HETATM    6  C8  UNL     1     -32.778   7.630   3.216  1.00 20.00     0.051 C 
HETATM    7  C4  UNL     1     -32.774   6.267   2.525  1.00 20.00     0.045 C 
HETATM    8  C5  UNL     1     -31.350   8.124   3.438  1.00 20.00     0.045 C 
HETATM    9  C6  UNL     1     -33.537   7.566   4.540  1.00 20.00     0.045 C 
ENDBRANCH   5   6
ENDBRANCH   4   5
TORSDOF 2
ENDMDL
MODEL 7
REMARK VINA RESULT:      -3.6      0.768      3.860
REMARK  2 active torsions:
REMARK  status: ('A' for Active; 'I' for Inactive)
REMARK    1  A    between atoms: C7_7  and  O9_9 
REMARK    2  A    between atoms: C8_8  and  O9_9 
ROOT
HETATM    1  C1  UNL     1     -33.920   7.128   6.669  1.00 20.00     0.015 C 
HETATM    2  C2  UNL     1     -33.965   6.879   5.495  1.00 20.00    -0.086 C 
HETATM    3  C3  UNL     1     -35.355   5.965   3.676  1.00 20.00     0.053 C 
HETATM    4  C7  UNL     1     -34.015   6.574   4.061  1.00 20.00     0.196 C 
ENDROOT
BRANCH   4   5
HETATM    5  O9  UNL     1     -33.818   7.770   3.323  1.00 20.00    -0.364 OA
BRANCH   5   6
HETATM    6  C8  UNL     1     -32.569   7.753   2.631  1.00 20.00     0.051 C 
HETATM    7  C4  UNL     1     -31.488   8.297   3.565  1.00 20.00     0.045 C 
HETATM    8  C5  UNL     1     -32.273   6.303   2.254  1.00 20.00     0.045 C 
HETATM    9  C6  UNL     1     -32.694   8.620   1.380  1.00 20.00     0.045 C 
ENDBRANCH   5   6
ENDBRANCH   4   5
TORSDOF 2
ENDMDL
MODEL 8
REMARK VINA RESULT:      -3.6      1.666      3.063
REMARK  2 active torsions:
REMARK  status: ('A' for Active; 'I' for Inactive)
REMARK    1  A    between atoms: C7_7  and  O9_9 
REMARK    2  A    between atoms: C8_8  and  O9_9 
ROOT
HETATM    1  C1  UNL     1     -33.651   7.608   6.183  1.00 20.00     0.015 C 
HETATM    2  C2  UNL     1     -33.317   7.473   5.038  1.00 20.00    -0.086 C 
HETATM    3  C3  UNL     1     -31.768   8.245   3.281  1.00 20.00     0.053 C 
HETATM    4  C7  UNL     1     -32.911   7.306   3.638  1.00 20.00     0.196 C 
ENDROOT
BRANCH   4   5
HETATM    5  O9  UNL     1     -32.494   5.965   3.430  1.00 20.00    -0.364 OA
BRANCH   5   6
HETATM    6  C8  UNL     1     -33.577   5.149   2.981  1.00 20.00     0.051 C 
HETATM    7  C4  UNL     1     -34.605   6.043   2.288  1.00 20.00     0.045 C 
HETATM    8  C5  UNL     1     -33.007   4.126   2.002  1.00 20.00     0.045 C 
HETATM    9  C6  UNL     1     -34.193   4.450   4.192  1.00 20.00     0.045 C 
ENDBRANCH   5   6
ENDBRANCH   4   5
TORSDOF 2
ENDMDL
MODEL 9
REMARK VINA RESULT:      -3.5     10.221     11.512
REMARK  2 active torsions:
REMARK  status: ('A' for Active; 'I' for Inactive)
REMARK    1  A    between atoms: C7_7  and  O9_9 
REMARK    2  A    between atoms: C8_8  and  O9_9 
ROOT
HETATM    1  C1  UNL     1     -34.795  16.274  -2.655  1.00 20.00     0.015 C 
HETATM    2  C2  UNL     1     -34.330  15.621  -3.550  1.00 20.00    -0.086 C 
HETATM    3  C3  UNL     1     -32.497  14.106  -4.204  1.00 20.00     0.053 C 
HETATM    4  C7  UNL     1     -33.763  14.826  -4.645  1.00 20.00     0.196 C 
ENDROOT
BRANCH   4   5
HETATM    5  O9  UNL     1     -34.721  13.868  -5.069  1.00 20.00    -0.364 OA
BRANCH   5   6
HETATM    6  C8  UNL     1     -35.253  14.200  -6.352  1.00 20.00     0.051 C 
HETATM    7  C4  UNL     1     -34.456  15.372  -6.922  1.00 20.00     0.045 C 
HETATM    8  C5  UNL     1     -35.108  12.968  -7.242  1.00 20.00     0.045 C 
HETATM    9  C6  UNL     1     -36.726  14.573  -6.186  1.00 20.00     0.045 C 
ENDBRANCH   5   6
ENDBRANCH   4   5
TORSDOF 2
ENDMDL
