MODEL 1
REMARK VINA RESULT:      -4.6      0.000      0.000
REMARK  2 active torsions:
REMARK  status: ('A' for Active; 'I' for Inactive)
REMARK    1  A    between atoms: C2_2  and  C6_6 
REMARK    2  A    between atoms: C2_2  and  O9_9 
ROOT
HETATM    1  C1  UNL     1     -34.041   6.696   5.326  1.00 20.00     0.079 C 
HETATM    2  C3  UNL     1     -35.627   6.147   3.536  1.00 20.00     0.042 C 
HETATM    3  C4  UNL     1     -34.396   4.331   4.778  1.00 20.00     0.042 C 
HETATM    4  C6  UNL     1     -34.306   5.755   4.212  1.00 20.00     0.129 C 
HETATM    5  N7  UNL     1     -33.837   7.432   6.199  1.00 20.00    -0.196 NA
ENDROOT
BRANCH   4   6
HETATM    6  C2  UNL     1     -33.167   5.830   3.192  1.00 20.00     0.280 C 
HETATM    7  O8  UNL     1     -32.889   4.945   2.391  1.00 20.00    -0.263 OA
BRANCH   6   8
HETATM    8  O9  UNL     1     -32.505   7.022   3.302  1.00 20.00    -0.325 OA
HETATM    9  C5  UNL     1     -32.532   7.858   2.141  1.00 20.00     0.213 C 
ENDBRANCH   6   8
ENDBRANCH   4   6
TORSDOF 2
ENDMDL
MODEL 2
REMARK VINA RESULT:      -4.5      2.072      2.767
REMARK  2 active torsions:
REMARK  status: ('A' for Active; 'I' for Inactive)
REMARK    1  A    between atoms: C2_2  and  C6_6 
REMARK    2  A    between atoms: C2_2  and  O9_9 
ROOT
HETATM    1  C1  UNL     1     -33.509   5.013   3.264  1.00 20.00     0.079 C 
HETATM    2  C3  UNL     1     -34.496   4.942   5.508  1.00 20.00     0.042 C 
HETATM    3  C4  UNL     1     -35.659   6.139   3.619  1.00 20.00     0.042 C 
HETATM    4  C6  UNL     1     -34.302   5.791   4.245  1.00 20.00     0.129 C 
HETATM    5  N7  UNL     1     -32.890   4.401   2.496  1.00 20.00    -0.196 NA
ENDROOT
BRANCH   4   6
HETATM    6  C2  UNL     1     -33.557   7.080   4.602  1.00 20.00     0.280 C 
HETATM    7  O8  UNL     1     -33.372   7.484   5.744  1.00 20.00    -0.263 OA
BRANCH   6   8
HETATM    8  O9  UNL     1     -33.129   7.715   3.469  1.00 20.00    -0.325 OA
HETATM    9  C5  UNL     1     -31.757   8.121   3.464  1.00 20.00     0.213 C 
ENDBRANCH   6   8
ENDBRANCH   4   6
TORSDOF 2
ENDMDL
MODEL 3
REMARK VINA RESULT:      -4.0      1.594      1.961
REMARK  2 active torsions:
REMARK  status: ('A' for Active; 'I' for Inactive)
REMARK    1  A    between atoms: C2_2  and  C6_6 
REMARK    2  A    between atoms: C2_2  and  O9_9 
ROOT
HETATM    1  C1  UNL     1     -34.370   5.302   5.017  1.00 20.00     0.079 C 
HETATM    2  C3  UNL     1     -35.410   6.297   3.030  1.00 20.00     0.042 C 
HETATM    3  C4  UNL     1     -33.292   4.943   2.843  1.00 20.00     0.042 C 
HETATM    4  C6  UNL     1     -34.082   5.934   3.708  1.00 20.00     0.129 C 
HETATM    5  N7  UNL     1     -34.598   4.805   6.040  1.00 20.00    -0.196 NA
ENDROOT
BRANCH   4   6
HETATM    6  C2  UNL     1     -33.252   7.203   3.921  1.00 20.00     0.280 C 
HETATM    7  O8  UNL     1     -32.906   7.634   5.014  1.00 20.00    -0.263 OA
BRANCH   6   8
HETATM    8  O9  UNL     1     -32.953   7.786   2.720  1.00 20.00    -0.325 OA
HETATM    9  C5  UNL     1     -31.682   8.440   2.646  1.00 20.00     0.213 C 
ENDBRANCH   6   8
ENDBRANCH   4   6
TORSDOF 2
ENDMDL
MODEL 4
REMARK VINA RESULT:      -3.8     11.680     12.445
REMARK  2 active torsions:
REMARK  status: ('A' for Active; 'I' for Inactive)
REMARK    1  A    between atoms: C2_2  and  C6_6 
REMARK    2  A    between atoms: C2_2  and  O9_9 
ROOT
HETATM    1  C1  UNL     1     -33.686  14.257  -4.418  1.00 20.00     0.079 C 
HETATM    2  C3  UNL     1     -34.821  15.821  -5.930  1.00 20.00     0.042 C 
HETATM    3  C4  UNL     1     -35.236  15.890  -3.445  1.00 20.00     0.042 C 
HETATM    4  C6  UNL     1     -34.957  14.984  -4.651  1.00 20.00     0.129 C 
HETATM    5  N7  UNL     1     -32.690  13.691  -4.236  1.00 20.00    -0.196 NA
ENDROOT
BRANCH   4   6
HETATM    6  C2  UNL     1     -36.101  13.980  -4.815  1.00 20.00     0.280 C 
HETATM    7  O8  UNL     1     -35.974  12.843  -5.255  1.00 20.00    -0.263 OA
BRANCH   6   8
HETATM    8  O9  UNL     1     -37.283  14.532  -4.403  1.00 20.00    -0.325 OA
HETATM    9  C5  UNL     1     -38.348  14.507  -5.359  1.00 20.00     0.213 C 
ENDBRANCH   6   8
ENDBRANCH   4   6
TORSDOF 2
ENDMDL
MODEL 5
REMARK VINA RESULT:      -3.7     11.974     12.497
REMARK  2 active torsions:
REMARK  status: ('A' for Active; 'I' for Inactive)
REMARK    1  A    between atoms: C2_2  and  C6_6 
REMARK    2  A    between atoms: C2_2  and  O9_9 
ROOT
HETATM    1  C1  UNL     1     -35.307  13.842  -4.986  1.00 20.00     0.079 C 
HETATM    2  C3  UNL     1     -34.427  15.924  -5.940  1.00 20.00     0.042 C 
HETATM    3  C4  UNL     1     -33.055  14.558  -4.326  1.00 20.00     0.042 C 
HETATM    4  C6  UNL     1     -34.469  15.029  -4.694  1.00 20.00     0.129 C 
HETATM    5  N7  UNL     1     -35.961  12.912  -5.217  1.00 20.00    -0.196 NA
ENDROOT
BRANCH   4   6
HETATM    6  C2  UNL     1     -35.071  15.809  -3.522  1.00 20.00     0.280 C 
HETATM    7  O8  UNL     1     -36.271  15.951  -3.323  1.00 20.00    -0.263 OA
BRANCH   6   8
HETATM    8  O9  UNL     1     -34.080  16.324  -2.732  1.00 20.00    -0.325 OA
HETATM    9  C5  UNL     1     -34.517  17.006  -1.552  1.00 20.00     0.213 C 
ENDBRANCH   6   8
ENDBRANCH   4   6
TORSDOF 2
ENDMDL
MODEL 6
REMARK VINA RESULT:      -3.7     11.867     12.599
REMARK  2 active torsions:
REMARK  status: ('A' for Active; 'I' for Inactive)
REMARK    1  A    between atoms: C2_2  and  C6_6 
REMARK    2  A    between atoms: C2_2  and  O9_9 
ROOT
HETATM    1  C1  UNL     1     -37.386  14.616  -4.820  1.00 20.00     0.079 C 
HETATM    2  C3  UNL     1     -35.767  15.750  -3.368  1.00 20.00     0.042 C 
HETATM    3  C4  UNL     1     -35.715  16.075  -5.866  1.00 20.00     0.042 C 
HETATM    4  C6  UNL     1     -35.981  15.078  -4.730  1.00 20.00     0.129 C 
HETATM    5  N7  UNL     1     -38.486  14.256  -4.889  1.00 20.00    -0.196 NA
ENDROOT
BRANCH   4   6
HETATM    6  C2  UNL     1     -35.034  13.882  -4.866  1.00 20.00     0.280 C 
HETATM    7  O8  UNL     1     -33.942  13.793  -4.320  1.00 20.00    -0.263 OA
BRANCH   6   8
HETATM    8  O9  UNL     1     -35.581  12.931  -5.683  1.00 20.00    -0.325 OA
HETATM    9  C5  UNL     1     -35.051  12.873  -7.011  1.00 20.00     0.213 C 
ENDBRANCH   6   8
ENDBRANCH   4   6
TORSDOF 2
ENDMDL
MODEL 7
REMARK VINA RESULT:      -3.7      2.055      3.032
REMARK  2 active torsions:
REMARK  status: ('A' for Active; 'I' for Inactive)
REMARK    1  A    between atoms: C2_2  and  C6_6 
REMARK    2  A    between atoms: C2_2  and  O9_9 
ROOT
HETATM    1  C1  UNL     1     -32.652   7.020   2.944  1.00 20.00     0.079 C 
HETATM    2  C3  UNL     1     -32.897   4.605   2.590  1.00 20.00     0.042 C 
HETATM    3  C4  UNL     1     -34.706   6.209   1.875  1.00 20.00     0.042 C 
HETATM    4  C6  UNL     1     -33.632   5.908   2.930  1.00 20.00     0.129 C 
HETATM    5  N7  UNL     1     -31.884   7.889   2.952  1.00 20.00    -0.196 NA
ENDROOT
BRANCH   4   6
HETATM    6  C2  UNL     1     -34.288   5.783   4.308  1.00 20.00     0.280 C 
HETATM    7  O8  UNL     1     -34.617   4.724   4.829  1.00 20.00    -0.263 OA
BRANCH   6   8
HETATM    8  O9  UNL     1     -34.454   7.018   4.872  1.00 20.00    -0.325 OA
HETATM    9  C5  UNL     1     -33.784   7.226   6.120  1.00 20.00     0.213 C 
ENDBRANCH   6   8
ENDBRANCH   4   6
TORSDOF 2
ENDMDL
MODEL 8
REMARK VINA RESULT:      -3.6     11.929     12.707
REMARK  2 active torsions:
REMARK  status: ('A' for Active; 'I' for Inactive)
REMARK    1  A    between atoms: C2_2  and  C6_6 
REMARK    2  A    between atoms: C2_2  and  O9_9 
ROOT
HETATM    1  C1  UNL     1     -33.974  15.762  -5.697  1.00 20.00     0.079 C 
HETATM    2  C3  UNL     1     -34.482  15.918  -3.302  1.00 20.00     0.042 C 
HETATM    3  C4  UNL     1     -33.032  14.062  -4.200  1.00 20.00     0.042 C 
HETATM    4  C6  UNL     1     -34.243  14.962  -4.479  1.00 20.00     0.129 C 
HETATM    5  N7  UNL     1     -33.761  16.390  -6.649  1.00 20.00    -0.196 NA
ENDROOT
BRANCH   4   6
HETATM    6  C2  UNL     1     -35.487  14.096  -4.696  1.00 20.00     0.280 C 
HETATM    7  O8  UNL     1     -35.468  12.932  -5.078  1.00 20.00    -0.263 OA
BRANCH   6   8
HETATM    8  O9  UNL     1     -36.620  14.805  -4.404  1.00 20.00    -0.325 OA
HETATM    9  C5  UNL     1     -37.787  14.448  -5.152  1.00 20.00     0.213 C 
ENDBRANCH   6   8
ENDBRANCH   4   6
TORSDOF 2
ENDMDL
MODEL 9
REMARK VINA RESULT:      -3.6     11.964     12.630
REMARK  2 active torsions:
REMARK  status: ('A' for Active; 'I' for Inactive)
REMARK    1  A    between atoms: C2_2  and  C6_6 
REMARK    2  A    between atoms: C2_2  and  O9_9 
ROOT
HETATM    1  C1  UNL     1     -36.937  14.174  -5.339  1.00 20.00     0.079 C 
HETATM    2  C3  UNL     1     -35.514  15.794  -6.508  1.00 20.00     0.042 C 
HETATM    3  C4  UNL     1     -35.157  13.315  -6.791  1.00 20.00     0.042 C 
HETATM    4  C6  UNL     1     -35.556  14.427  -5.812  1.00 20.00     0.129 C 
HETATM    5  N7  UNL     1     -38.020  13.976  -4.971  1.00 20.00    -0.196 NA
ENDROOT
BRANCH   4   6
HETATM    6  C2  UNL     1     -34.595  14.430  -4.620  1.00 20.00     0.280 C 
HETATM    7  O8  UNL     1     -33.578  13.750  -4.543  1.00 20.00    -0.263 OA
BRANCH   6   8
HETATM    8  O9  UNL     1     -35.033  15.296  -3.655  1.00 20.00    -0.325 OA
HETATM    9  C5  UNL     1     -34.050  16.199  -3.139  1.00 20.00     0.213 C 
ENDBRANCH   6   8
ENDBRANCH   4   6
TORSDOF 2
ENDMDL
