MODEL 1
REMARK VINA RESULT:      -5.5      0.000      0.000
REMARK  2 active torsions:
REMARK  status: ('A' for Active; 'I' for Inactive)
REMARK    1  A    between atoms: C1_1  and  C2_2 
REMARK    2  A    between atoms: C1_1  and  C3_3 
ROOT
HETATM    1  C1  UNL     1     -33.846   7.143   4.538  1.00 20.00     0.341 C 
HETATM    2  F4  UNL     1     -33.191   7.362   5.713  1.00 20.00    -0.234 F 
ENDROOT
BRANCH   1   3
HETATM    3  C2  UNL     1     -34.489   5.776   4.607  1.00 20.00     0.395 C 
HETATM    4  F5  UNL     1     -35.664   5.798   3.929  1.00 20.00    -0.211 F 
HETATM    5  F6  UNL     1     -34.783   5.463   5.892  1.00 20.00    -0.211 F 
ENDBRANCH   1   3
BRANCH   1   6
HETATM    6  C3  UNL     1     -32.844   7.265   3.415  1.00 20.00     0.423 C 
HETATM    7  F7  UNL     1     -32.561   6.051   2.896  1.00 20.00    -0.168 F 
HETATM    8  F8  UNL     1     -31.685   7.801   3.853  1.00 20.00    -0.168 F 
HETATM    9  F9  UNL     1     -33.310   8.044   2.417  1.00 20.00    -0.168 F 
ENDBRANCH   1   6
TORSDOF 2
ENDMDL
MODEL 2
REMARK VINA RESULT:      -5.5      1.069      3.354
REMARK  2 active torsions:
REMARK  status: ('A' for Active; 'I' for Inactive)
REMARK    1  A    between atoms: C1_1  and  C2_2 
REMARK    2  A    between atoms: C1_1  and  C3_3 
ROOT
HETATM    1  C1  UNL     1     -33.607   6.291   4.386  1.00 20.00     0.341 C 
HETATM    2  F4  UNL     1     -33.956   7.523   4.853  1.00 20.00    -0.234 F 
ENDROOT
BRANCH   1   3
HETATM    3  C2  UNL     1     -33.260   6.425   2.920  1.00 20.00     0.395 C 
HETATM    4  F5  UNL     1     -32.656   5.288   2.495  1.00 20.00    -0.211 F 
HETATM    5  F6  UNL     1     -32.371   7.432   2.741  1.00 20.00    -0.211 F 
ENDBRANCH   1   3
BRANCH   1   6
HETATM    6  C3  UNL     1     -34.762   5.352   4.634  1.00 20.00     0.423 C 
HETATM    7  F7  UNL     1     -35.849   5.740   3.932  1.00 20.00    -0.168 F 
HETATM    8  F8  UNL     1     -35.105   5.335   5.940  1.00 20.00    -0.168 F 
HETATM    9  F9  UNL     1     -34.462   4.089   4.268  1.00 20.00    -0.168 F 
ENDBRANCH   1   6
TORSDOF 2
ENDMDL
MODEL 3
REMARK VINA RESULT:      -5.5      1.111      3.324
REMARK  2 active torsions:
REMARK  status: ('A' for Active; 'I' for Inactive)
REMARK    1  A    between atoms: C1_1  and  C2_2 
REMARK    2  A    between atoms: C1_1  and  C3_3 
ROOT
HETATM    1  C1  UNL     1     -33.599   6.263   4.380  1.00 20.00     0.341 C 
HETATM    2  F4  UNL     1     -33.946   7.518   4.784  1.00 20.00    -0.234 F 
ENDROOT
BRANCH   1   3
HETATM    3  C2  UNL     1     -33.225   6.329   2.916  1.00 20.00     0.395 C 
HETATM    4  F5  UNL     1     -32.660   5.154   2.543  1.00 20.00    -0.211 F 
HETATM    5  F6  UNL     1     -32.295   7.293   2.714  1.00 20.00    -0.211 F 
ENDBRANCH   1   3
BRANCH   1   6
HETATM    6  C3  UNL     1     -34.766   5.345   4.649  1.00 20.00     0.423 C 
HETATM    7  F7  UNL     1     -35.093   5.362   5.959  1.00 20.00    -0.168 F 
HETATM    8  F8  UNL     1     -34.468   4.070   4.320  1.00 20.00    -0.168 F 
HETATM    9  F9  UNL     1     -35.858   5.711   3.945  1.00 20.00    -0.168 F 
ENDBRANCH   1   6
TORSDOF 2
ENDMDL
MODEL 4
REMARK VINA RESULT:      -5.5      1.266      3.521
REMARK  2 active torsions:
REMARK  status: ('A' for Active; 'I' for Inactive)
REMARK    1  A    between atoms: C1_1  and  C2_2 
REMARK    2  A    between atoms: C1_1  and  C3_3 
ROOT
HETATM    1  C1  UNL     1     -33.688   5.726   2.990  1.00 20.00     0.341 C 
HETATM    2  F4  UNL     1     -32.775   4.743   2.748  1.00 20.00    -0.234 F 
ENDROOT
BRANCH   1   3
HETATM    3  C2  UNL     1     -32.934   7.005   3.278  1.00 20.00     0.395 C 
HETATM    4  F5  UNL     1     -33.820   8.005   3.513  1.00 20.00    -0.211 F 
HETATM    5  F6  UNL     1     -32.205   7.372   2.197  1.00 20.00    -0.211 F 
ENDBRANCH   1   3
BRANCH   1   6
HETATM    6  C3  UNL     1     -34.557   5.283   4.142  1.00 20.00     0.423 C 
HETATM    7  F7  UNL     1     -35.826   5.712   3.971  1.00 20.00    -0.168 F 
HETATM    8  F8  UNL     1     -34.110   5.789   5.311  1.00 20.00    -0.168 F 
HETATM    9  F9  UNL     1     -34.586   3.939   4.255  1.00 20.00    -0.168 F 
ENDBRANCH   1   6
TORSDOF 2
ENDMDL
MODEL 5
REMARK VINA RESULT:      -5.4      1.316      2.357
REMARK  2 active torsions:
REMARK  status: ('A' for Active; 'I' for Inactive)
REMARK    1  A    between atoms: C1_1  and  C2_2 
REMARK    2  A    between atoms: C1_1  and  C3_3 
ROOT
HETATM    1  C1  UNL     1     -34.647   5.352   4.013  1.00 20.00     0.341 C 
HETATM    2  F4  UNL     1     -35.772   6.062   3.717  1.00 20.00    -0.234 F 
ENDROOT
BRANCH   1   3
HETATM    3  C2  UNL     1     -34.214   5.721   5.414  1.00 20.00     0.395 C 
HETATM    4  F5  UNL     1     -34.951   5.021   6.312  1.00 20.00    -0.211 F 
HETATM    5  F6  UNL     1     -34.455   7.033   5.647  1.00 20.00    -0.211 F 
ENDBRANCH   1   3
BRANCH   1   6
HETATM    6  C3  UNL     1     -33.604   5.672   2.971  1.00 20.00     0.423 C 
HETATM    7  F7  UNL     1     -34.187   6.085   1.825  1.00 20.00    -0.168 F 
HETATM    8  F8  UNL     1     -32.857   4.585   2.679  1.00 20.00    -0.168 F 
HETATM    9  F9  UNL     1     -32.771   6.648   3.386  1.00 20.00    -0.168 F 
ENDBRANCH   1   6
TORSDOF 2
ENDMDL
MODEL 6
REMARK VINA RESULT:      -5.4      1.319      2.497
REMARK  2 active torsions:
REMARK  status: ('A' for Active; 'I' for Inactive)
REMARK    1  A    between atoms: C1_1  and  C2_2 
REMARK    2  A    between atoms: C1_1  and  C3_3 
ROOT
HETATM    1  C1  UNL     1     -34.643   5.331   4.021  1.00 20.00     0.341 C 
HETATM    2  F4  UNL     1     -35.784   6.015   3.722  1.00 20.00    -0.234 F 
ENDROOT
BRANCH   1   3
HETATM    3  C2  UNL     1     -34.220   5.716   5.422  1.00 20.00     0.395 C 
HETATM    4  F5  UNL     1     -34.978   5.042   6.322  1.00 20.00    -0.211 F 
HETATM    5  F6  UNL     1     -34.443   7.035   5.631  1.00 20.00    -0.211 F 
ENDBRANCH   1   3
BRANCH   1   6
HETATM    6  C3  UNL     1     -33.606   5.673   2.979  1.00 20.00     0.423 C 
HETATM    7  F7  UNL     1     -32.789   6.652   3.424  1.00 20.00    -0.168 F 
HETATM    8  F8  UNL     1     -34.186   6.112   1.841  1.00 20.00    -0.168 F 
HETATM    9  F9  UNL     1     -32.843   4.605   2.670  1.00 20.00    -0.168 F 
ENDBRANCH   1   6
TORSDOF 2
ENDMDL
MODEL 7
REMARK VINA RESULT:      -5.4      1.198      2.651
REMARK  2 active torsions:
REMARK  status: ('A' for Active; 'I' for Inactive)
REMARK    1  A    between atoms: C1_1  and  C2_2 
REMARK    2  A    between atoms: C1_1  and  C3_3 
ROOT
HETATM    1  C1  UNL     1     -33.861   7.015   4.213  1.00 20.00     0.341 C 
HETATM    2  F4  UNL     1     -32.617   7.230   3.697  1.00 20.00    -0.234 F 
ENDROOT
BRANCH   1   3
HETATM    3  C2  UNL     1     -33.715   6.752   5.695  1.00 20.00     0.395 C 
HETATM    4  F5  UNL     1     -34.755   5.993   6.121  1.00 20.00    -0.211 F 
HETATM    5  F6  UNL     1     -33.772   7.917   6.384  1.00 20.00    -0.211 F 
ENDBRANCH   1   3
BRANCH   1   6
HETATM    6  C3  UNL     1     -34.482   5.859   3.468  1.00 20.00     0.423 C 
HETATM    7  F7  UNL     1     -34.199   5.934   2.150  1.00 20.00    -0.168 F 
HETATM    8  F8  UNL     1     -35.826   5.863   3.597  1.00 20.00    -0.168 F 
HETATM    9  F9  UNL     1     -34.026   4.673   3.923  1.00 20.00    -0.168 F 
ENDBRANCH   1   6
TORSDOF 2
ENDMDL
MODEL 8
REMARK VINA RESULT:      -5.2      1.118      2.190
REMARK  2 active torsions:
REMARK  status: ('A' for Active; 'I' for Inactive)
REMARK    1  A    between atoms: C1_1  and  C2_2 
REMARK    2  A    between atoms: C1_1  and  C3_3 
ROOT
HETATM    1  C1  UNL     1     -33.643   5.872   3.434  1.00 20.00     0.341 C 
HETATM    2  F4  UNL     1     -34.104   5.887   2.151  1.00 20.00    -0.234 F 
ENDROOT
BRANCH   1   3
HETATM    3  C2  UNL     1     -34.793   5.490   4.341  1.00 20.00     0.395 C 
HETATM    4  F5  UNL     1     -34.826   4.141   4.480  1.00 20.00    -0.211 F 
HETATM    5  F6  UNL     1     -35.970   5.855   3.780  1.00 20.00    -0.211 F 
ENDBRANCH   1   3
BRANCH   1   6
HETATM    6  C3  UNL     1     -33.078   7.236   3.745  1.00 20.00     0.423 C 
HETATM    7  F7  UNL     1     -33.839   8.204   3.189  1.00 20.00    -0.168 F 
HETATM    8  F8  UNL     1     -31.827   7.368   3.253  1.00 20.00    -0.168 F 
HETATM    9  F9  UNL     1     -33.028   7.462   5.074  1.00 20.00    -0.168 F 
ENDBRANCH   1   6
TORSDOF 2
ENDMDL
MODEL 9
REMARK VINA RESULT:      -5.2      1.107      1.986
REMARK  2 active torsions:
REMARK  status: ('A' for Active; 'I' for Inactive)
REMARK    1  A    between atoms: C1_1  and  C2_2 
REMARK    2  A    between atoms: C1_1  and  C3_3 
ROOT
HETATM    1  C1  UNL     1     -33.628   5.844   3.476  1.00 20.00     0.341 C 
HETATM    2  F4  UNL     1     -34.043   5.815   2.178  1.00 20.00    -0.234 F 
ENDROOT
BRANCH   1   3
HETATM    3  C2  UNL     1     -34.803   5.476   4.354  1.00 20.00     0.395 C 
HETATM    4  F5  UNL     1     -34.860   4.128   4.487  1.00 20.00    -0.211 F 
HETATM    5  F6  UNL     1     -35.962   5.861   3.767  1.00 20.00    -0.211 F 
ENDBRANCH   1   3
BRANCH   1   6
HETATM    6  C3  UNL     1     -33.088   7.225   3.764  1.00 20.00     0.423 C 
HETATM    7  F7  UNL     1     -31.838   7.359   3.271  1.00 20.00    -0.168 F 
HETATM    8  F8  UNL     1     -33.030   7.457   5.093  1.00 20.00    -0.168 F 
HETATM    9  F9  UNL     1     -33.857   8.184   3.208  1.00 20.00    -0.168 F 
ENDBRANCH   1   6
TORSDOF 2
ENDMDL
