MODEL 1
REMARK VINA RESULT:      -6.4      0.000      0.000
REMARK  6 active torsions:
REMARK  status: ('A' for Active; 'I' for Inactive)
REMARK    1  A    between atoms: C1_1  and  C4_4 
REMARK    2  A    between atoms: C4_4  and  C5_5 
REMARK    3  A    between atoms: C5_5  and  C6_6 
REMARK    4  A    between atoms: C6_6  and  C7_7 
REMARK    5  A    between atoms: C7_7  and  C8_8 
REMARK    6  A    between atoms: C8_8  and  C9_9 
ROOT
HETATM    1  C6  UNL     1     -32.558   7.539   3.692  1.00 20.00     0.000 C 
ENDROOT
BRANCH   1   2
HETATM    2  C5  UNL     1     -33.081   6.389   2.829  1.00 20.00     0.008 C 
BRANCH   2   3
HETATM    3  C4  UNL     1     -34.492   5.978   3.247  1.00 20.00     0.096 C 
BRANCH   3   4
HETATM    4  C1  UNL     1     -34.487   4.998   4.406  1.00 20.00     0.218 C 
HETATM    5  O10 UNL     1     -34.403   3.783   4.255  1.00 20.00    -0.280 OA
HETATM    6 CL11 UNL     1     -34.613   5.819   5.938  1.00 20.00    -0.044 Cl
ENDBRANCH   3   4
ENDBRANCH   2   3
ENDBRANCH   1   2
BRANCH   1   7
HETATM    7  C7  UNL     1     -31.703   8.505   2.869  1.00 20.00     0.000 C 
BRANCH   7   8
HETATM    8  C8  UNL     1     -31.859   8.323   1.355  1.00 20.00     0.004 C 
BRANCH   8   9
HETATM    9  C9  UNL     1     -32.211   9.593   0.557  1.00 20.00    -0.023 C 
HETATM   10  C2  UNL     1     -33.233   9.325  -0.548  1.00 20.00     0.009 C 
HETATM   11  C3  UNL     1     -32.748  10.668   1.508  1.00 20.00     0.009 C 
ENDBRANCH   8   9
ENDBRANCH   7   8
ENDBRANCH   1   7
TORSDOF 6
ENDMDL
MODEL 2
REMARK VINA RESULT:      -6.2      3.405      5.679
REMARK  6 active torsions:
REMARK  status: ('A' for Active; 'I' for Inactive)
REMARK    1  A    between atoms: C1_1  and  C4_4 
REMARK    2  A    between atoms: C4_4  and  C5_5 
REMARK    3  A    between atoms: C5_5  and  C6_6 
REMARK    4  A    between atoms: C6_6  and  C7_7 
REMARK    5  A    between atoms: C7_7  and  C8_8 
REMARK    6  A    between atoms: C8_8  and  C9_9 
ROOT
HETATM    1  C6  UNL     1     -32.501   7.066   2.896  1.00 20.00     0.000 C 
ENDROOT
BRANCH   1   2
HETATM    2  C5  UNL     1     -31.726   8.372   2.712  1.00 20.00     0.008 C 
BRANCH   2   3
HETATM    3  C4  UNL     1     -31.556   8.714   1.232  1.00 20.00     0.096 C 
BRANCH   3   4
HETATM    4  C1  UNL     1     -32.504   9.811   0.782  1.00 20.00     0.218 C 
HETATM    5  O10 UNL     1     -32.665  10.855   1.406  1.00 20.00    -0.280 OA
HETATM    6 CL11 UNL     1     -33.308   9.389  -0.707  1.00 20.00    -0.044 Cl
ENDBRANCH   3   4
ENDBRANCH   2   3
ENDBRANCH   1   2
BRANCH   1   7
HETATM    7  C7  UNL     1     -33.830   7.307   3.614  1.00 20.00     0.000 C 
BRANCH   7   8
HETATM    8  C8  UNL     1     -34.831   6.157   3.450  1.00 20.00     0.004 C 
BRANCH   8   9
HETATM    9  C9  UNL     1     -34.921   5.170   4.629  1.00 20.00    -0.023 C 
HETATM   10  C2  UNL     1     -34.095   3.904   4.396  1.00 20.00     0.009 C 
HETATM   11  C3  UNL     1     -34.457   5.859   5.916  1.00 20.00     0.009 C 
ENDBRANCH   8   9
ENDBRANCH   7   8
ENDBRANCH   1   7
TORSDOF 6
ENDMDL
MODEL 3
REMARK VINA RESULT:      -6.1      3.196      5.503
REMARK  6 active torsions:
REMARK  status: ('A' for Active; 'I' for Inactive)
REMARK    1  A    between atoms: C1_1  and  C4_4 
REMARK    2  A    between atoms: C4_4  and  C5_5 
REMARK    3  A    between atoms: C5_5  and  C6_6 
REMARK    4  A    between atoms: C6_6  and  C7_7 
REMARK    5  A    between atoms: C7_7  and  C8_8 
REMARK    6  A    between atoms: C8_8  and  C9_9 
ROOT
HETATM    1  C6  UNL     1     -32.275   7.214   3.033  1.00 20.00     0.000 C 
ENDROOT
BRANCH   1   2
HETATM    2  C5  UNL     1     -31.677   8.527   2.525  1.00 20.00     0.008 C 
BRANCH   2   3
HETATM    3  C4  UNL     1     -31.630   8.563   0.998  1.00 20.00     0.096 C 
BRANCH   3   4
HETATM    4  C1  UNL     1     -32.645   9.528   0.413  1.00 20.00     0.218 C 
HETATM    5  O10 UNL     1     -33.176   9.359  -0.680  1.00 20.00    -0.280 OA
HETATM    6 CL11 UNL     1     -32.941  10.872   1.484  1.00 20.00    -0.044 Cl
ENDBRANCH   3   4
ENDBRANCH   2   3
ENDBRANCH   1   2
BRANCH   1   7
HETATM    7  C7  UNL     1     -33.660   7.435   3.644  1.00 20.00     0.000 C 
BRANCH   7   8
HETATM    8  C8  UNL     1     -34.634   6.279   3.389  1.00 20.00     0.004 C 
BRANCH   8   9
HETATM    9  C9  UNL     1     -34.904   5.350   4.588  1.00 20.00    -0.023 C 
HETATM   10  C2  UNL     1     -34.205   3.997   4.447  1.00 20.00     0.009 C 
HETATM   11  C3  UNL     1     -34.452   6.032   5.882  1.00 20.00     0.009 C 
ENDBRANCH   8   9
ENDBRANCH   7   8
ENDBRANCH   1   7
TORSDOF 6
ENDMDL
MODEL 4
REMARK VINA RESULT:      -6.0      1.314      1.487
REMARK  6 active torsions:
REMARK  status: ('A' for Active; 'I' for Inactive)
REMARK    1  A    between atoms: C1_1  and  C4_4 
REMARK    2  A    between atoms: C4_4  and  C5_5 
REMARK    3  A    between atoms: C5_5  and  C6_6 
REMARK    4  A    between atoms: C6_6  and  C7_7 
REMARK    5  A    between atoms: C7_7  and  C8_8 
REMARK    6  A    between atoms: C8_8  and  C9_9 
ROOT
HETATM    1  C6  UNL     1     -32.826   7.262   3.368  1.00 20.00     0.000 C 
ENDROOT
BRANCH   1   2
HETATM    2  C5  UNL     1     -33.386   7.629   4.744  1.00 20.00     0.008 C 
BRANCH   2   3
HETATM    3  C4  UNL     1     -34.058   6.428   5.409  1.00 20.00     0.096 C 
BRANCH   3   4
HETATM    4  C1  UNL     1     -34.818   5.569   4.415  1.00 20.00     0.218 C 
HETATM    5  O10 UNL     1     -35.757   5.991   3.747  1.00 20.00    -0.280 OA
HETATM    6 CL11 UNL     1     -34.186   3.946   4.358  1.00 20.00    -0.044 Cl
ENDBRANCH   3   4
ENDBRANCH   2   3
ENDBRANCH   1   2
BRANCH   1   7
HETATM    7  C7  UNL     1     -31.892   8.354   2.841  1.00 20.00     0.000 C 
BRANCH   7   8
HETATM    8  C8  UNL     1     -31.745   8.348   1.316  1.00 20.00     0.004 C 
BRANCH   8   9
HETATM    9  C9  UNL     1     -32.181   9.637   0.593  1.00 20.00    -0.023 C 
HETATM   10  C2  UNL     1     -33.172   9.365  -0.540  1.00 20.00     0.009 C 
HETATM   11  C3  UNL     1     -32.803  10.609   1.601  1.00 20.00     0.009 C 
ENDBRANCH   8   9
ENDBRANCH   7   8
ENDBRANCH   1   7
TORSDOF 6
ENDMDL
MODEL 5
REMARK VINA RESULT:      -4.3     10.470     11.166
REMARK  6 active torsions:
REMARK  status: ('A' for Active; 'I' for Inactive)
REMARK    1  A    between atoms: C1_1  and  C4_4 
REMARK    2  A    between atoms: C4_4  and  C5_5 
REMARK    3  A    between atoms: C5_5  and  C6_6 
REMARK    4  A    between atoms: C6_6  and  C7_7 
REMARK    5  A    between atoms: C7_7  and  C8_8 
REMARK    6  A    between atoms: C8_8  and  C9_9 
ROOT
HETATM    1  C6  UNL     1     -33.620  16.482  -3.373  1.00 20.00     0.000 C 
ENDROOT
BRANCH   1   2
HETATM    2  C5  UNL     1     -34.815  15.528  -3.430  1.00 20.00     0.008 C 
BRANCH   2   3
HETATM    3  C4  UNL     1     -34.459  14.234  -4.161  1.00 20.00     0.096 C 
BRANCH   3   4
HETATM    4  C1  UNL     1     -35.537  13.811  -5.142  1.00 20.00     0.218 C 
HETATM    5  O10 UNL     1     -35.888  12.644  -5.288  1.00 20.00    -0.280 OA
HETATM    6 CL11 UNL     1     -36.187  15.178  -6.006  1.00 20.00    -0.044 Cl
ENDBRANCH   3   4
ENDBRANCH   2   3
ENDBRANCH   1   2
BRANCH   1   7
HETATM    7  C7  UNL     1     -33.534  17.180  -2.014  1.00 20.00     0.000 C 
BRANCH   7   8
HETATM    8  C8  UNL     1     -34.844  17.139  -1.220  1.00 20.00     0.004 C 
BRANCH   8   9
HETATM    9  C9  UNL     1     -34.954  18.136  -0.050  1.00 20.00    -0.023 C 
HETATM   10  C2  UNL     1     -35.804  17.594   1.100  1.00 20.00     0.009 C 
HETATM   11  C3  UNL     1     -33.553  18.486   0.463  1.00 20.00     0.009 C 
ENDBRANCH   8   9
ENDBRANCH   7   8
ENDBRANCH   1   7
TORSDOF 6
ENDMDL
MODEL 6
REMARK VINA RESULT:      -4.3     10.442     11.282
REMARK  6 active torsions:
REMARK  status: ('A' for Active; 'I' for Inactive)
REMARK    1  A    between atoms: C1_1  and  C4_4 
REMARK    2  A    between atoms: C4_4  and  C5_5 
REMARK    3  A    between atoms: C5_5  and  C6_6 
REMARK    4  A    between atoms: C6_6  and  C7_7 
REMARK    5  A    between atoms: C7_7  and  C8_8 
REMARK    6  A    between atoms: C8_8  and  C9_9 
ROOT
HETATM    1  C6  UNL     1     -33.222  16.182  -5.216  1.00 20.00     0.000 C 
ENDROOT
BRANCH   1   2
HETATM    2  C5  UNL     1     -33.401  14.683  -4.967  1.00 20.00     0.008 C 
BRANCH   2   3
HETATM    3  C4  UNL     1     -34.649  14.403  -4.132  1.00 20.00     0.096 C 
BRANCH   3   4
HETATM    4  C1  UNL     1     -35.737  13.712  -4.934  1.00 20.00     0.218 C 
HETATM    5  O10 UNL     1     -35.547  12.677  -5.566  1.00 20.00    -0.280 OA
HETATM    6 CL11 UNL     1     -37.250  14.571  -4.833  1.00 20.00    -0.044 Cl
ENDBRANCH   3   4
ENDBRANCH   2   3
ENDBRANCH   1   2
BRANCH   1   7
HETATM    7  C7  UNL     1     -34.231  17.002  -4.409  1.00 20.00     0.000 C 
BRANCH   7   8
HETATM    8  C8  UNL     1     -33.581  17.914  -3.363  1.00 20.00     0.004 C 
BRANCH   8   9
HETATM    9  C9  UNL     1     -33.439  17.322  -1.948  1.00 20.00    -0.023 C 
HETATM   10  C2  UNL     1     -32.669  18.245  -1.003  1.00 20.00     0.009 C 
HETATM   11  C3  UNL     1     -34.827  17.032  -1.369  1.00 20.00     0.009 C 
ENDBRANCH   8   9
ENDBRANCH   7   8
ENDBRANCH   1   7
TORSDOF 6
ENDMDL
MODEL 7
REMARK VINA RESULT:      -4.3     10.402     11.237
REMARK  6 active torsions:
REMARK  status: ('A' for Active; 'I' for Inactive)
REMARK    1  A    between atoms: C1_1  and  C4_4 
REMARK    2  A    between atoms: C4_4  and  C5_5 
REMARK    3  A    between atoms: C5_5  and  C6_6 
REMARK    4  A    between atoms: C6_6  and  C7_7 
REMARK    5  A    between atoms: C7_7  and  C8_8 
REMARK    6  A    between atoms: C8_8  and  C9_9 
ROOT
HETATM    1  C6  UNL     1     -35.427  16.262  -3.165  1.00 20.00     0.000 C 
ENDROOT
BRANCH   1   2
HETATM    2  C5  UNL     1     -34.237  15.673  -3.926  1.00 20.00     0.008 C 
BRANCH   2   3
HETATM    3  C4  UNL     1     -34.363  14.157  -4.068  1.00 20.00     0.096 C 
BRANCH   3   4
HETATM    4  C1  UNL     1     -35.255  13.759  -5.230  1.00 20.00     0.218 C 
HETATM    5  O10 UNL     1     -35.880  12.704  -5.262  1.00 20.00    -0.280 OA
HETATM    6 CL11 UNL     1     -35.267  14.980  -6.473  1.00 20.00    -0.044 Cl
ENDBRANCH   3   4
ENDBRANCH   2   3
ENDBRANCH   1   2
BRANCH   1   7
HETATM    7  C7  UNL     1     -35.015  16.726  -1.766  1.00 20.00     0.000 C 
BRANCH   7   8
HETATM    8  C8  UNL     1     -33.592  17.290  -1.703  1.00 20.00     0.004 C 
BRANCH   8   9
HETATM    9  C9  UNL     1     -33.373  18.455  -0.718  1.00 20.00    -0.023 C 
HETATM   10  C2  UNL     1     -34.272  18.354   0.515  1.00 20.00     0.009 C 
HETATM   11  C3  UNL     1     -31.904  18.494  -0.284  1.00 20.00     0.009 C 
ENDBRANCH   8   9
ENDBRANCH   7   8
ENDBRANCH   1   7
TORSDOF 6
ENDMDL
MODEL 8
REMARK VINA RESULT:      -4.2     10.973     11.544
REMARK  6 active torsions:
REMARK  status: ('A' for Active; 'I' for Inactive)
REMARK    1  A    between atoms: C1_1  and  C4_4 
REMARK    2  A    between atoms: C4_4  and  C5_5 
REMARK    3  A    between atoms: C5_5  and  C6_6 
REMARK    4  A    between atoms: C6_6  and  C7_7 
REMARK    5  A    between atoms: C7_7  and  C8_8 
REMARK    6  A    between atoms: C8_8  and  C9_9 
ROOT
HETATM    1  C6  UNL     1     -33.636  14.662  -4.519  1.00 20.00     0.000 C 
ENDROOT
BRANCH   1   2
HETATM    2  C5  UNL     1     -35.146  14.415  -4.501  1.00 20.00     0.008 C 
BRANCH   2   3
HETATM    3  C4  UNL     1     -35.725  14.408  -5.915  1.00 20.00     0.096 C 
BRANCH   3   4
HETATM    4  C1  UNL     1     -34.996  13.444  -6.832  1.00 20.00     0.218 C 
HETATM    5  O10 UNL     1     -35.162  12.228  -6.794  1.00 20.00    -0.280 OA
HETATM    6 CL11 UNL     1     -33.921  14.283  -7.918  1.00 20.00    -0.044 Cl
ENDBRANCH   3   4
ENDBRANCH   2   3
ENDBRANCH   1   2
BRANCH   1   7
HETATM    7  C7  UNL     1     -33.318  16.156  -4.426  1.00 20.00     0.000 C 
BRANCH   7   8
HETATM    8  C8  UNL     1     -34.267  16.927  -3.501  1.00 20.00     0.004 C 
BRANCH   8   9
HETATM    9  C9  UNL     1     -33.900  16.920  -2.004  1.00 20.00    -0.023 C 
HETATM   10  C2  UNL     1     -32.951  18.058  -1.630  1.00 20.00     0.009 C 
HETATM   11  C3  UNL     1     -35.176  17.012  -1.161  1.00 20.00     0.009 C 
ENDBRANCH   8   9
ENDBRANCH   7   8
ENDBRANCH   1   7
TORSDOF 6
ENDMDL
MODEL 9
REMARK VINA RESULT:      -4.2     10.734     11.476
REMARK  6 active torsions:
REMARK  status: ('A' for Active; 'I' for Inactive)
REMARK    1  A    between atoms: C1_1  and  C4_4 
REMARK    2  A    between atoms: C4_4  and  C5_5 
REMARK    3  A    between atoms: C5_5  and  C6_6 
REMARK    4  A    between atoms: C6_6  and  C7_7 
REMARK    5  A    between atoms: C7_7  and  C8_8 
REMARK    6  A    between atoms: C8_8  and  C9_9 
ROOT
HETATM    1  C6  UNL     1     -33.906  15.706  -6.394  1.00 20.00     0.000 C 
ENDROOT
BRANCH   1   2
HETATM    2  C5  UNL     1     -34.334  14.375  -7.016  1.00 20.00     0.008 C 
BRANCH   2   3
HETATM    3  C4  UNL     1     -35.855  14.230  -7.028  1.00 20.00     0.096 C 
BRANCH   3   4
HETATM    4  C1  UNL     1     -36.387  13.632  -5.738  1.00 20.00     0.218 C 
HETATM    5  O10 UNL     1     -35.834  12.707  -5.151  1.00 20.00    -0.280 OA
HETATM    6 CL11 UNL     1     -37.852  14.425  -5.223  1.00 20.00    -0.044 Cl
ENDBRANCH   3   4
ENDBRANCH   2   3
ENDBRANCH   1   2
BRANCH   1   7
HETATM    7  C7  UNL     1     -32.927  15.488  -5.239  1.00 20.00     0.000 C 
BRANCH   7   8
HETATM    8  C8  UNL     1     -33.612  15.331  -3.877  1.00 20.00     0.004 C 
BRANCH   8   9
HETATM    9  C9  UNL     1     -34.311  16.589  -3.326  1.00 20.00    -0.023 C 
HETATM   10  C2  UNL     1     -35.781  16.341  -2.990  1.00 20.00     0.009 C 
HETATM   11  C3  UNL     1     -33.572  17.085  -2.079  1.00 20.00     0.009 C 
ENDBRANCH   8   9
ENDBRANCH   7   8
ENDBRANCH   1   7
TORSDOF 6
ENDMDL
