MODEL 1
REMARK VINA RESULT:      -5.4      0.000      0.000
REMARK  5 active torsions:
REMARK  status: ('A' for Active; 'I' for Inactive)
REMARK    1  A    between atoms: C3_3  and  C7_7 
REMARK    2  A    between atoms: C4_4  and  C8_8 
REMARK    3  A    between atoms: C7_7  and  C9_9 
REMARK    4  A    between atoms: C8_8  and  C10_10 
REMARK    5  A    between atoms: C9_9  and  C10_10 
ROOT
HETATM    1  C9  UNL     1     -32.627   6.452   2.530  1.00 20.00     0.004 C 
ENDROOT
BRANCH   1   2
HETATM    2  C7  UNL     1     -34.110   6.082   2.599  1.00 20.00     0.026 C 
BRANCH   2   3
HETATM    3  C3  UNL     1     -34.589   6.015   4.020  1.00 20.00    -0.031 C 
HETATM    4  C1  UNL     1     -34.382   4.965   4.828  1.00 20.00    -0.035 C 
HETATM    5  C5  UNL     1     -34.863   4.896   6.239  1.00 20.00     0.035 C 
ENDBRANCH   2   3
ENDBRANCH   1   2
BRANCH   1   6
HETATM    6  C10 UNL     1     -32.302   7.620   3.465  1.00 20.00     0.004 C 
BRANCH   6   7
HETATM    7  C8  UNL     1     -31.523   8.715   2.735  1.00 20.00     0.026 C 
BRANCH   7   8
HETATM    8  C4  UNL     1     -31.888   8.766   1.280  1.00 20.00    -0.031 C 
HETATM    9  C2  UNL     1     -32.784   9.621   0.764  1.00 20.00    -0.035 C 
HETATM   10  C6  UNL     1     -33.143   9.676  -0.683  1.00 20.00     0.035 C 
ENDBRANCH   7   8
ENDBRANCH   6   7
ENDBRANCH   1   6
TORSDOF 5
ENDMDL
MODEL 2
REMARK VINA RESULT:      -5.4      1.421      5.243
REMARK  5 active torsions:
REMARK  status: ('A' for Active; 'I' for Inactive)
REMARK    1  A    between atoms: C3_3  and  C7_7 
REMARK    2  A    between atoms: C4_4  and  C8_8 
REMARK    3  A    between atoms: C7_7  and  C9_9 
REMARK    4  A    between atoms: C8_8  and  C10_10 
REMARK    5  A    between atoms: C9_9  and  C10_10 
ROOT
HETATM    1  C9  UNL     1     -33.779   5.878   2.558  1.00 20.00     0.004 C 
ENDROOT
BRANCH   1   2
HETATM    2  C7  UNL     1     -32.528   6.759   2.567  1.00 20.00     0.026 C 
BRANCH   2   3
HETATM    3  C3  UNL     1     -32.864   8.185   2.242  1.00 20.00    -0.031 C 
HETATM    4  C1  UNL     1     -32.191   8.925   1.350  1.00 20.00    -0.035 C 
HETATM    5  C5  UNL     1     -32.521  10.345   1.029  1.00 20.00     0.035 C 
ENDBRANCH   2   3
ENDBRANCH   1   2
BRANCH   1   6
HETATM    6  C10 UNL     1     -33.544   4.570   3.318  1.00 20.00     0.004 C 
BRANCH   6   7
HETATM    7  C8  UNL     1     -34.512   4.431   4.494  1.00 20.00     0.026 C 
BRANCH   7   8
HETATM    8  C4  UNL     1     -34.720   5.745   5.188  1.00 20.00    -0.031 C 
HETATM    9  C2  UNL     1     -33.732   6.453   5.756  1.00 20.00    -0.035 C 
HETATM   10  C6  UNL     1     -33.936   7.763   6.441  1.00 20.00     0.035 C 
ENDBRANCH   7   8
ENDBRANCH   6   7
ENDBRANCH   1   6
TORSDOF 5
ENDMDL
MODEL 3
REMARK VINA RESULT:      -5.4      0.076      5.526
REMARK  5 active torsions:
REMARK  status: ('A' for Active; 'I' for Inactive)
REMARK    1  A    between atoms: C3_3  and  C7_7 
REMARK    2  A    between atoms: C4_4  and  C8_8 
REMARK    3  A    between atoms: C7_7  and  C9_9 
REMARK    4  A    between atoms: C8_8  and  C10_10 
REMARK    5  A    between atoms: C9_9  and  C10_10 
ROOT
HETATM    1  C9  UNL     1     -32.223   7.601   3.509  1.00 20.00     0.004 C 
ENDROOT
BRANCH   1   2
HETATM    2  C7  UNL     1     -31.555   8.767   2.777  1.00 20.00     0.026 C 
BRANCH   2   3
HETATM    3  C3  UNL     1     -31.937   8.787   1.325  1.00 20.00    -0.031 C 
HETATM    4  C1  UNL     1     -32.794   9.669   0.792  1.00 20.00    -0.035 C 
HETATM    5  C5  UNL     1     -33.179   9.687  -0.650  1.00 20.00     0.035 C 
ENDBRANCH   2   3
ENDBRANCH   1   2
BRANCH   1   6
HETATM    6  C10 UNL     1     -32.621   6.489   2.536  1.00 20.00     0.004 C 
BRANCH   6   7
HETATM    7  C8  UNL     1     -34.108   6.152   2.658  1.00 20.00     0.026 C 
BRANCH   7   8
HETATM    8  C4  UNL     1     -34.536   6.083   4.095  1.00 20.00    -0.031 C 
HETATM    9  C2  UNL     1     -34.473   4.969   4.840  1.00 20.00    -0.035 C 
HETATM   10  C6  UNL     1     -34.893   4.901   6.271  1.00 20.00     0.035 C 
ENDBRANCH   7   8
ENDBRANCH   6   7
ENDBRANCH   1   6
TORSDOF 5
ENDMDL
MODEL 4
REMARK VINA RESULT:      -5.4      1.398      2.120
REMARK  5 active torsions:
REMARK  status: ('A' for Active; 'I' for Inactive)
REMARK    1  A    between atoms: C3_3  and  C7_7 
REMARK    2  A    between atoms: C4_4  and  C8_8 
REMARK    3  A    between atoms: C7_7  and  C9_9 
REMARK    4  A    between atoms: C8_8  and  C10_10 
REMARK    5  A    between atoms: C9_9  and  C10_10 
ROOT
HETATM    1  C9  UNL     1     -33.608   4.645   3.423  1.00 20.00     0.004 C 
ENDROOT
BRANCH   1   2
HETATM    2  C7  UNL     1     -34.720   4.631   4.474  1.00 20.00     0.026 C 
BRANCH   2   3
HETATM    3  C3  UNL     1     -34.399   5.551   5.616  1.00 20.00    -0.031 C 
HETATM    4  C1  UNL     1     -34.081   6.845   5.465  1.00 20.00    -0.035 C 
HETATM    5  C5  UNL     1     -33.757   7.759   6.600  1.00 20.00     0.035 C 
ENDBRANCH   2   3
ENDBRANCH   1   2
BRANCH   1   6
HETATM    6  C10 UNL     1     -33.726   5.863   2.504  1.00 20.00     0.004 C 
BRANCH   6   7
HETATM    7  C8  UNL     1     -32.475   6.740   2.581  1.00 20.00     0.026 C 
BRANCH   7   8
HETATM    8  C4  UNL     1     -32.792   8.172   2.263  1.00 20.00    -0.031 C 
HETATM    9  C2  UNL     1     -32.211   8.862   1.270  1.00 20.00    -0.035 C 
HETATM   10  C6  UNL     1     -32.530  10.284   0.948  1.00 20.00     0.035 C 
ENDBRANCH   7   8
ENDBRANCH   6   7
ENDBRANCH   1   6
TORSDOF 5
ENDMDL
MODEL 5
REMARK VINA RESULT:      -5.3      1.153      5.459
REMARK  5 active torsions:
REMARK  status: ('A' for Active; 'I' for Inactive)
REMARK    1  A    between atoms: C3_3  and  C7_7 
REMARK    2  A    between atoms: C4_4  and  C8_8 
REMARK    3  A    between atoms: C7_7  and  C9_9 
REMARK    4  A    between atoms: C8_8  and  C10_10 
REMARK    5  A    between atoms: C9_9  and  C10_10 
ROOT
HETATM    1  C9  UNL     1     -32.627   7.618   3.760  1.00 20.00     0.004 C 
ENDROOT
BRANCH   1   2
HETATM    2  C7  UNL     1     -31.533   8.396   3.026  1.00 20.00     0.026 C 
BRANCH   2   3
HETATM    3  C3  UNL     1     -31.858   8.546   1.568  1.00 20.00    -0.031 C 
HETATM    4  C1  UNL     1     -32.666   9.498   1.079  1.00 20.00    -0.035 C 
HETATM    5  C5  UNL     1     -32.994   9.645  -0.370  1.00 20.00     0.035 C 
ENDBRANCH   2   3
ENDBRANCH   1   2
BRANCH   1   6
HETATM    6  C10 UNL     1     -32.750   8.071   5.217  1.00 20.00     0.004 C 
BRANCH   6   7
HETATM    7  C8  UNL     1     -33.884   7.335   5.933  1.00 20.00     0.026 C 
BRANCH   7   8
HETATM    8  C4  UNL     1     -34.398   6.191   5.108  1.00 20.00    -0.031 C 
HETATM    9  C2  UNL     1     -34.005   4.919   5.270  1.00 20.00    -0.035 C 
HETATM   10  C6  UNL     1     -34.519   3.779   4.455  1.00 20.00     0.035 C 
ENDBRANCH   7   8
ENDBRANCH   6   7
ENDBRANCH   1   6
TORSDOF 5
ENDMDL
MODEL 6
REMARK VINA RESULT:      -5.3      1.168      1.733
REMARK  5 active torsions:
REMARK  status: ('A' for Active; 'I' for Inactive)
REMARK    1  A    between atoms: C3_3  and  C7_7 
REMARK    2  A    between atoms: C4_4  and  C8_8 
REMARK    3  A    between atoms: C7_7  and  C9_9 
REMARK    4  A    between atoms: C8_8  and  C10_10 
REMARK    5  A    between atoms: C9_9  and  C10_10 
ROOT
HETATM    1  C9  UNL     1     -32.770   8.057   5.234  1.00 20.00     0.004 C 
ENDROOT
BRANCH   1   2
HETATM    2  C7  UNL     1     -33.894   7.309   5.955  1.00 20.00     0.026 C 
BRANCH   2   3
HETATM    3  C3  UNL     1     -34.412   6.173   5.122  1.00 20.00    -0.031 C 
HETATM    4  C1  UNL     1     -33.998   4.904   5.251  1.00 20.00    -0.035 C 
HETATM    5  C5  UNL     1     -34.508   3.774   4.420  1.00 20.00     0.035 C 
ENDBRANCH   2   3
ENDBRANCH   1   2
BRANCH   1   6
HETATM    6  C10 UNL     1     -32.684   7.647   3.762  1.00 20.00     0.004 C 
BRANCH   6   7
HETATM    7  C8  UNL     1     -31.508   8.333   3.063  1.00 20.00     0.026 C 
BRANCH   7   8
HETATM    8  C4  UNL     1     -31.784   8.532   1.601  1.00 20.00    -0.031 C 
HETATM    9  C2  UNL     1     -32.706   9.382   1.125  1.00 20.00    -0.035 C 
HETATM   10  C6  UNL     1     -32.977   9.586  -0.329  1.00 20.00     0.035 C 
ENDBRANCH   7   8
ENDBRANCH   6   7
ENDBRANCH   1   6
TORSDOF 5
ENDMDL
MODEL 7
REMARK VINA RESULT:      -5.1      1.336      2.300
REMARK  5 active torsions:
REMARK  status: ('A' for Active; 'I' for Inactive)
REMARK    1  A    between atoms: C3_3  and  C7_7 
REMARK    2  A    between atoms: C4_4  and  C8_8 
REMARK    3  A    between atoms: C7_7  and  C9_9 
REMARK    4  A    between atoms: C8_8  and  C10_10 
REMARK    5  A    between atoms: C9_9  and  C10_10 
ROOT
HETATM    1  C9  UNL     1     -33.781   7.112   5.608  1.00 20.00     0.004 C 
ENDROOT
BRANCH   1   2
HETATM    2  C7  UNL     1     -34.563   5.816   5.385  1.00 20.00     0.026 C 
BRANCH   2   3
HETATM    3  C3  UNL     1     -34.429   5.337   3.969  1.00 20.00    -0.031 C 
HETATM    4  C1  UNL     1     -33.344   4.709   3.494  1.00 20.00    -0.035 C 
HETATM    5  C5  UNL     1     -33.207   4.236   2.084  1.00 20.00     0.035 C 
ENDBRANCH   2   3
ENDBRANCH   1   2
BRANCH   1   6
HETATM    6  C10 UNL     1     -33.560   7.861   4.291  1.00 20.00     0.004 C 
BRANCH   6   7
HETATM    7  C8  UNL     1     -32.069   8.046   4.001  1.00 20.00     0.026 C 
BRANCH   7   8
HETATM    8  C4  UNL     1     -31.820   8.245   2.534  1.00 20.00    -0.031 C 
HETATM    9  C2  UNL     1     -32.507   9.109   1.771  1.00 20.00    -0.035 C 
HETATM   10  C6  UNL     1     -32.256   9.312   0.314  1.00 20.00     0.035 C 
ENDBRANCH   7   8
ENDBRANCH   6   7
ENDBRANCH   1   6
TORSDOF 5
ENDMDL
MODEL 8
REMARK VINA RESULT:      -5.1      1.386      4.995
REMARK  5 active torsions:
REMARK  status: ('A' for Active; 'I' for Inactive)
REMARK    1  A    between atoms: C3_3  and  C7_7 
REMARK    2  A    between atoms: C4_4  and  C8_8 
REMARK    3  A    between atoms: C7_7  and  C9_9 
REMARK    4  A    between atoms: C8_8  and  C10_10 
REMARK    5  A    between atoms: C9_9  and  C10_10 
ROOT
HETATM    1  C9  UNL     1     -33.686   7.875   4.583  1.00 20.00     0.004 C 
ENDROOT
BRANCH   1   2
HETATM    2  C7  UNL     1     -32.240   7.952   4.089  1.00 20.00     0.026 C 
BRANCH   2   3
HETATM    3  C3  UNL     1     -32.181   8.029   2.591  1.00 20.00    -0.031 C 
HETATM    4  C1  UNL     1     -32.277   9.173   1.899  1.00 20.00    -0.035 C 
HETATM    5  C5  UNL     1     -32.224   9.251   0.409  1.00 20.00     0.035 C 
ENDBRANCH   2   3
ENDBRANCH   1   2
BRANCH   1   6
HETATM    6  C10 UNL     1     -33.818   6.920   5.772  1.00 20.00     0.004 C 
BRANCH   6   7
HETATM    7  C8  UNL     1     -34.657   5.693   5.408  1.00 20.00     0.026 C 
BRANCH   7   8
HETATM    8  C4  UNL     1     -34.458   5.304   3.972  1.00 20.00    -0.031 C 
HETATM    9  C2  UNL     1     -33.394   4.621   3.524  1.00 20.00    -0.035 C 
HETATM   10  C6  UNL     1     -33.198   4.228   2.098  1.00 20.00     0.035 C 
ENDBRANCH   7   8
ENDBRANCH   6   7
ENDBRANCH   1   6
TORSDOF 5
ENDMDL
MODEL 9
REMARK VINA RESULT:      -4.4     10.457     11.393
REMARK  5 active torsions:
REMARK  status: ('A' for Active; 'I' for Inactive)
REMARK    1  A    between atoms: C3_3  and  C7_7 
REMARK    2  A    between atoms: C4_4  and  C8_8 
REMARK    3  A    between atoms: C7_7  and  C9_9 
REMARK    4  A    between atoms: C8_8  and  C10_10 
REMARK    5  A    between atoms: C9_9  and  C10_10 
ROOT
HETATM    1  C9  UNL     1     -35.060  16.802  -1.584  1.00 20.00     0.004 C 
ENDROOT
BRANCH   1   2
HETATM    2  C7  UNL     1     -34.293  16.330  -2.821  1.00 20.00     0.026 C 
BRANCH   2   3
HETATM    3  C3  UNL     1     -35.176  15.538  -3.739  1.00 20.00    -0.031 C 
HETATM    4  C1  UNL     1     -34.855  14.329  -4.224  1.00 20.00    -0.035 C 
HETATM    5  C5  UNL     1     -35.731  13.542  -5.142  1.00 20.00     0.035 C 
ENDBRANCH   2   3
ENDBRANCH   1   2
BRANCH   1   6
HETATM    6  C10 UNL     1     -34.186  17.688  -0.692  1.00 20.00     0.004 C 
BRANCH   6   7
HETATM    7  C8  UNL     1     -32.894  18.090  -1.405  1.00 20.00     0.026 C 
BRANCH   7   8
HETATM    8  C4  UNL     1     -31.778  18.315  -0.426  1.00 20.00    -0.031 C 
HETATM    9  C2  UNL     1     -31.955  18.818   0.804  1.00 20.00    -0.035 C 
HETATM   10  C6  UNL     1     -30.848  19.036   1.781  1.00 20.00     0.035 C 
ENDBRANCH   7   8
ENDBRANCH   6   7
ENDBRANCH   1   6
TORSDOF 5
ENDMDL
