MODEL 1
REMARK VINA RESULT:      -5.3      0.000      0.000
REMARK  2 active torsions:
REMARK  status: ('A' for Active; 'I' for Inactive)
REMARK    1  A    between atoms: C2_2  and  C3_3 
REMARK    2  A    between atoms: C4_4  and  C5_5 
ROOT
HETATM    1  C3  UNL     1     -34.082   6.111   3.369  1.00 20.00    -0.001 C 
HETATM    2  C4  UNL     1     -33.232   7.123   3.599  1.00 20.00    -0.000 C 
ENDROOT
BRANCH   2   3
HETATM    3  C5  UNL     1     -32.317   7.627   2.600  1.00 20.00    -0.004 C 
HETATM    4  C6  UNL     1     -32.637   8.602   1.737  1.00 20.00    -0.031 C 
HETATM    5  C7  UNL     1     -31.702   9.131   0.700  1.00 20.00     0.036 C 
ENDBRANCH   2   3
BRANCH   1   6
HETATM    6  C2  UNL     1     -34.997   5.608   4.368  1.00 20.00    -0.010 C 
HETATM    7  C1  UNL     1     -34.602   5.128   5.553  1.00 20.00     0.011 C 
ENDBRANCH   1   6
TORSDOF 2
ENDMDL
MODEL 2
REMARK VINA RESULT:      -5.2      0.706      4.748
REMARK  2 active torsions:
REMARK  status: ('A' for Active; 'I' for Inactive)
REMARK    1  A    between atoms: C2_2  and  C3_3 
REMARK    2  A    between atoms: C4_4  and  C5_5 
ROOT
HETATM    1  C3  UNL     1     -32.093   8.210   2.538  1.00 20.00    -0.001 C 
HETATM    2  C4  UNL     1     -33.167   7.429   2.723  1.00 20.00    -0.000 C 
ENDROOT
BRANCH   2   3
HETATM    3  C5  UNL     1     -33.503   6.841   4.001  1.00 20.00    -0.004 C 
HETATM    4  C6  UNL     1     -34.320   5.786   4.132  1.00 20.00    -0.031 C 
HETATM    5  C7  UNL     1     -34.674   5.170   5.445  1.00 20.00     0.036 C 
ENDBRANCH   2   3
BRANCH   1   6
HETATM    6  C2  UNL     1     -31.759   8.798   1.260  1.00 20.00    -0.010 C 
HETATM    7  C1  UNL     1     -32.439   9.815   0.718  1.00 20.00     0.011 C 
ENDBRANCH   1   6
TORSDOF 2
ENDMDL
MODEL 3
REMARK VINA RESULT:      -3.6     10.695     11.391
REMARK  2 active torsions:
REMARK  status: ('A' for Active; 'I' for Inactive)
REMARK    1  A    between atoms: C2_2  and  C3_3 
REMARK    2  A    between atoms: C4_4  and  C5_5 
ROOT
HETATM    1  C3  UNL     1     -34.497  16.049  -3.052  1.00 20.00    -0.001 C 
HETATM    2  C4  UNL     1     -35.035  16.646  -1.978  1.00 20.00    -0.000 C 
ENDROOT
BRANCH   2   3
HETATM    3  C5  UNL     1     -34.260  17.426  -1.038  1.00 20.00    -0.004 C 
HETATM    4  C6  UNL     1     -33.014  17.851  -1.290  1.00 20.00    -0.031 C 
HETATM    5  C7  UNL     1     -32.204  18.656  -0.328  1.00 20.00     0.036 C 
ENDBRANCH   2   3
BRANCH   1   6
HETATM    6  C2  UNL     1     -35.272  15.271  -3.992  1.00 20.00    -0.010 C 
HETATM    7  C1  UNL     1     -34.897  14.066  -4.434  1.00 20.00     0.011 C 
ENDBRANCH   1   6
TORSDOF 2
ENDMDL
MODEL 4
REMARK VINA RESULT:      -3.5     10.745     11.453
REMARK  2 active torsions:
REMARK  status: ('A' for Active; 'I' for Inactive)
REMARK    1  A    between atoms: C2_2  and  C3_3 
REMARK    2  A    between atoms: C4_4  and  C5_5 
ROOT
HETATM    1  C3  UNL     1     -34.785  16.957  -1.667  1.00 20.00    -0.001 C 
HETATM    2  C4  UNL     1     -34.337  16.339  -2.771  1.00 20.00    -0.000 C 
ENDROOT
BRANCH   2   3
HETATM    3  C5  UNL     1     -35.192  15.563  -3.641  1.00 20.00    -0.004 C 
HETATM    4  C6  UNL     1     -34.814  14.403  -4.197  1.00 20.00    -0.031 C 
HETATM    5  C7  UNL     1     -35.687  13.593  -5.098  1.00 20.00     0.036 C 
ENDBRANCH   2   3
BRANCH   1   6
HETATM    6  C2  UNL     1     -33.930  17.733  -0.798  1.00 20.00    -0.010 C 
HETATM    7  C1  UNL     1     -32.739  18.212  -1.174  1.00 20.00     0.011 C 
ENDBRANCH   1   6
TORSDOF 2
ENDMDL
MODEL 5
REMARK VINA RESULT:      -3.5     11.353     11.946
REMARK  2 active torsions:
REMARK  status: ('A' for Active; 'I' for Inactive)
REMARK    1  A    between atoms: C2_2  and  C3_3 
REMARK    2  A    between atoms: C4_4  and  C5_5 
ROOT
HETATM    1  C3  UNL     1     -34.134  17.400  -1.181  1.00 20.00    -0.001 C 
HETATM    2  C4  UNL     1     -32.986  18.094  -1.168  1.00 20.00    -0.000 C 
ENDROOT
BRANCH   2   3
HETATM    3  C5  UNL     1     -32.517  18.820  -0.009  1.00 20.00    -0.004 C 
HETATM    4  C6  UNL     1     -31.378  18.521   0.633  1.00 20.00    -0.031 C 
HETATM    5  C7  UNL     1     -30.883  19.263   1.831  1.00 20.00     0.036 C 
ENDBRANCH   2   3
BRANCH   1   6
HETATM    6  C2  UNL     1     -34.602  16.674  -2.340  1.00 20.00    -0.010 C 
HETATM    7  C1  UNL     1     -33.790  16.220  -3.301  1.00 20.00     0.011 C 
ENDBRANCH   1   6
TORSDOF 2
ENDMDL
MODEL 6
REMARK VINA RESULT:      -3.5     11.169     11.756
REMARK  2 active torsions:
REMARK  status: ('A' for Active; 'I' for Inactive)
REMARK    1  A    between atoms: C2_2  and  C3_3 
REMARK    2  A    between atoms: C4_4  and  C5_5 
ROOT
HETATM    1  C3  UNL     1     -33.003  17.820  -1.377  1.00 20.00    -0.001 C 
HETATM    2  C4  UNL     1     -34.249  17.388  -1.131  1.00 20.00    -0.000 C 
ENDROOT
BRANCH   2   3
HETATM    3  C5  UNL     1     -35.002  16.579  -2.064  1.00 20.00    -0.004 C 
HETATM    4  C6  UNL     1     -34.451  15.993  -3.138  1.00 20.00    -0.031 C 
HETATM    5  C7  UNL     1     -35.217  15.157  -4.109  1.00 20.00     0.036 C 
ENDBRANCH   2   3
BRANCH   1   6
HETATM    6  C2  UNL     1     -32.251  18.627  -0.444  1.00 20.00    -0.010 C 
HETATM    7  C1  UNL     1     -32.652  18.868   0.810  1.00 20.00     0.011 C 
ENDBRANCH   1   6
TORSDOF 2
ENDMDL
MODEL 7
REMARK VINA RESULT:      -3.5     11.061     11.690
REMARK  2 active torsions:
REMARK  status: ('A' for Active; 'I' for Inactive)
REMARK    1  A    between atoms: C2_2  and  C3_3 
REMARK    2  A    between atoms: C4_4  and  C5_5 
ROOT
HETATM    1  C3  UNL     1     -34.470  15.756  -3.314  1.00 20.00    -0.001 C 
HETATM    2  C4  UNL     1     -33.728  16.664  -2.664  1.00 20.00    -0.000 C 
ENDROOT
BRANCH   2   3
HETATM    3  C5  UNL     1     -34.110  17.224  -1.386  1.00 20.00    -0.004 C 
HETATM    4  C6  UNL     1     -35.327  17.063  -0.848  1.00 20.00    -0.031 C 
HETATM    5  C7  UNL     1     -35.733  17.637   0.469  1.00 20.00     0.036 C 
ENDBRANCH   2   3
BRANCH   1   6
HETATM    6  C2  UNL     1     -34.088  15.196  -4.591  1.00 20.00    -0.010 C 
HETATM    7  C1  UNL     1     -33.023  15.609  -5.286  1.00 20.00     0.011 C 
ENDBRANCH   1   6
TORSDOF 2
ENDMDL
MODEL 8
REMARK VINA RESULT:      -3.4     11.074     11.245
REMARK  2 active torsions:
REMARK  status: ('A' for Active; 'I' for Inactive)
REMARK    1  A    between atoms: C2_2  and  C3_3 
REMARK    2  A    between atoms: C4_4  and  C5_5 
ROOT
HETATM    1  C3  UNL     1     -34.258  17.315  -1.143  1.00 20.00    -0.001 C 
HETATM    2  C4  UNL     1     -35.130  16.624  -1.893  1.00 20.00    -0.000 C 
ENDROOT
BRANCH   2   3
HETATM    3  C5  UNL     1     -34.761  15.964  -3.125  1.00 20.00    -0.004 C 
HETATM    4  C6  UNL     1     -33.524  16.012  -3.641  1.00 20.00    -0.031 C 
HETATM    5  C7  UNL     1     -33.130  15.336  -4.913  1.00 20.00     0.036 C 
ENDBRANCH   2   3
BRANCH   1   6
HETATM    6  C2  UNL     1     -34.628  17.974   0.089  1.00 20.00    -0.010 C 
HETATM    7  C1  UNL     1     -35.672  17.601   0.838  1.00 20.00     0.011 C 
ENDBRANCH   1   6
TORSDOF 2
ENDMDL
MODEL 9
REMARK VINA RESULT:      -3.4     10.810     11.265
REMARK  2 active torsions:
REMARK  status: ('A' for Active; 'I' for Inactive)
REMARK    1  A    between atoms: C2_2  and  C3_3 
REMARK    2  A    between atoms: C4_4  and  C5_5 
ROOT
HETATM    1  C3  UNL     1     -34.777  14.924  -3.746  1.00 20.00    -0.001 C 
HETATM    2  C4  UNL     1     -33.943  15.968  -3.630  1.00 20.00    -0.000 C 
ENDROOT
BRANCH   2   3
HETATM    3  C5  UNL     1     -33.839  16.764  -2.427  1.00 20.00    -0.004 C 
HETATM    4  C6  UNL     1     -34.845  16.903  -1.550  1.00 20.00    -0.031 C 
HETATM    5  C7  UNL     1     -34.751  17.722  -0.305  1.00 20.00     0.036 C 
ENDBRANCH   2   3
BRANCH   1   6
HETATM    6  C2  UNL     1     -34.879  14.128  -4.948  1.00 20.00    -0.010 C 
HETATM    7  C1  UNL     1     -35.989  13.472  -5.305  1.00 20.00     0.011 C 
ENDBRANCH   1   6
TORSDOF 2
ENDMDL
