MODEL 1
REMARK VINA RESULT:      -4.2      0.000      0.000
REMARK  1 active torsions:
REMARK  status: ('A' for Active; 'I' for Inactive)
REMARK    1  A    between atoms: C1_1  and  C4_4 
ROOT
HETATM    1  C1  UNL     1     -33.938   6.439   3.673  1.00 20.00    -0.080 C 
HETATM    2  C2  UNL     1     -33.137   7.170   3.157  1.00 20.00    -0.106 C 
HETATM    3  C5  UNL     1     -32.162   8.061   2.528  1.00 20.00     0.112 C 
ENDROOT
BRANCH   1   4
HETATM    4  C4  UNL     1     -34.880   5.572   4.287  1.00 20.00     0.054 C 
HETATM    5  C3  UNL     1     -34.666   5.037   5.492  1.00 20.00     0.020 C 
ENDBRANCH   1   4
TORSDOF 1
ENDMDL
MODEL 2
REMARK VINA RESULT:      -3.9      0.670      3.764
REMARK  1 active torsions:
REMARK  status: ('A' for Active; 'I' for Inactive)
REMARK    1  A    between atoms: C1_1  and  C4_4 
ROOT
HETATM    1  C1  UNL     1     -33.022   7.210   3.317  1.00 20.00    -0.080 C 
HETATM    2  C2  UNL     1     -33.900   6.500   3.727  1.00 20.00    -0.106 C 
HETATM    3  C5  UNL     1     -34.969   5.635   4.225  1.00 20.00     0.112 C 
ENDROOT
BRANCH   1   4
HETATM    4  C4  UNL     1     -31.987   8.054   2.836  1.00 20.00     0.054 C 
HETATM    5  C3  UNL     1     -32.074   8.673   1.656  1.00 20.00     0.020 C 
ENDBRANCH   1   4
TORSDOF 1
ENDMDL
MODEL 3
REMARK VINA RESULT:      -3.9      1.682      2.766
REMARK  1 active torsions:
REMARK  status: ('A' for Active; 'I' for Inactive)
REMARK    1  A    between atoms: C1_1  and  C4_4 
ROOT
HETATM    1  C1  UNL     1     -32.595   8.071   2.240  1.00 20.00    -0.080 C 
HETATM    2  C2  UNL     1     -32.543   9.071   1.577  1.00 20.00    -0.106 C 
HETATM    3  C5  UNL     1     -32.479  10.289   0.770  1.00 20.00     0.112 C 
ENDROOT
BRANCH   1   4
HETATM    4  C4  UNL     1     -32.662   6.889   3.023  1.00 20.00     0.054 C 
HETATM    5  C3  UNL     1     -33.639   5.992   2.864  1.00 20.00     0.020 C 
ENDBRANCH   1   4
TORSDOF 1
ENDMDL
MODEL 4
REMARK VINA RESULT:      -3.8      1.148      4.056
REMARK  1 active torsions:
REMARK  status: ('A' for Active; 'I' for Inactive)
REMARK    1  A    between atoms: C1_1  and  C4_4 
ROOT
HETATM    1  C1  UNL     1     -32.668   7.778   2.830  1.00 20.00    -0.080 C 
HETATM    2  C2  UNL     1     -33.334   7.225   3.663  1.00 20.00    -0.106 C 
HETATM    3  C5  UNL     1     -34.144   6.551   4.677  1.00 20.00     0.112 C 
ENDROOT
BRANCH   1   4
HETATM    4  C4  UNL     1     -31.886   8.432   1.842  1.00 20.00     0.054 C 
HETATM    5  C3  UNL     1     -32.356   9.466   1.140  1.00 20.00     0.020 C 
ENDBRANCH   1   4
TORSDOF 1
ENDMDL
MODEL 5
REMARK VINA RESULT:      -3.7      1.950      4.655
REMARK  1 active torsions:
REMARK  status: ('A' for Active; 'I' for Inactive)
REMARK    1  A    between atoms: C1_1  and  C4_4 
ROOT
HETATM    1  C1  UNL     1     -32.473   8.584   1.719  1.00 20.00    -0.080 C 
HETATM    2  C2  UNL     1     -32.725   7.895   2.670  1.00 20.00    -0.106 C 
HETATM    3  C5  UNL     1     -33.030   7.057   3.829  1.00 20.00     0.112 C 
ENDROOT
BRANCH   1   4
HETATM    4  C4  UNL     1     -32.175   9.393   0.591  1.00 20.00     0.054 C 
HETATM    5  C3  UNL     1     -33.012   9.494  -0.445  1.00 20.00     0.020 C 
ENDBRANCH   1   4
TORSDOF 1
ENDMDL
MODEL 6
REMARK VINA RESULT:      -3.4      1.846      2.736
REMARK  1 active torsions:
REMARK  status: ('A' for Active; 'I' for Inactive)
REMARK    1  A    between atoms: C1_1  and  C4_4 
ROOT
HETATM    1  C1  UNL     1     -33.772   6.451   3.906  1.00 20.00    -0.080 C 
HETATM    2  C2  UNL     1     -33.797   6.980   4.984  1.00 20.00    -0.106 C 
HETATM    3  C5  UNL     1     -33.827   7.624   6.297  1.00 20.00     0.112 C 
ENDROOT
BRANCH   1   4
HETATM    4  C4  UNL     1     -33.748   5.824   2.633  1.00 20.00     0.054 C 
HETATM    5  C3  UNL     1     -33.034   4.719   2.405  1.00 20.00     0.020 C 
ENDBRANCH   1   4
TORSDOF 1
ENDMDL
MODEL 7
REMARK VINA RESULT:      -3.3      1.054      3.636
REMARK  1 active torsions:
REMARK  status: ('A' for Active; 'I' for Inactive)
REMARK    1  A    between atoms: C1_1  and  C4_4 
ROOT
HETATM    1  C1  UNL     1     -33.256   7.174   4.282  1.00 20.00    -0.080 C 
HETATM    2  C2  UNL     1     -33.924   6.471   4.991  1.00 20.00    -0.106 C 
HETATM    3  C5  UNL     1     -34.738   5.615   5.853  1.00 20.00     0.112 C 
ENDROOT
BRANCH   1   4
HETATM    4  C4  UNL     1     -32.468   8.010   3.448  1.00 20.00     0.054 C 
HETATM    5  C3  UNL     1     -32.249   7.719   2.163  1.00 20.00     0.020 C 
ENDBRANCH   1   4
TORSDOF 1
ENDMDL
MODEL 8
REMARK VINA RESULT:      -3.2      1.871      2.367
REMARK  1 active torsions:
REMARK  status: ('A' for Active; 'I' for Inactive)
REMARK    1  A    between atoms: C1_1  and  C4_4 
ROOT
HETATM    1  C1  UNL     1     -33.706   6.258   3.756  1.00 20.00    -0.080 C 
HETATM    2  C2  UNL     1     -33.376   5.386   2.999  1.00 20.00    -0.106 C 
HETATM    3  C5  UNL     1     -32.974   4.323   2.078  1.00 20.00     0.112 C 
ENDROOT
BRANCH   1   4
HETATM    4  C4  UNL     1     -34.091   7.292   4.648  1.00 20.00     0.054 C 
HETATM    5  C3  UNL     1     -33.733   7.284   5.935  1.00 20.00     0.020 C 
ENDBRANCH   1   4
TORSDOF 1
ENDMDL
MODEL 9
REMARK VINA RESULT:      -2.8     11.309     12.009
REMARK  1 active torsions:
REMARK  status: ('A' for Active; 'I' for Inactive)
REMARK    1  A    between atoms: C1_1  and  C4_4 
ROOT
HETATM    1  C1  UNL     1     -34.199  16.336  -2.872  1.00 20.00    -0.080 C 
HETATM    2  C2  UNL     1     -33.598  17.094  -2.161  1.00 20.00    -0.106 C 
HETATM    3  C5  UNL     1     -32.865  18.019  -1.296  1.00 20.00     0.112 C 
ENDROOT
BRANCH   1   4
HETATM    4  C4  UNL     1     -34.909  15.434  -3.707  1.00 20.00     0.054 C 
HETATM    5  C3  UNL     1     -34.376  14.280  -4.114  1.00 20.00     0.020 C 
ENDBRANCH   1   4
TORSDOF 1
ENDMDL
