MODEL 1
REMARK VINA RESULT:      -5.4      0.000      0.000
REMARK  2 active torsions:
REMARK  status: ('A' for Active; 'I' for Inactive)
REMARK    1  A    between atoms: C5_5  and  C6_6 
REMARK    2  A    between atoms: C6_6  and  N7_7 
ROOT
HETATM    1  C1  UNL     1     -32.417   8.023   2.577  1.00 20.00     0.158 C 
HETATM    2  N7  UNL     1     -32.627   7.351   3.514  1.00 20.00    -0.270 NA
HETATM    3  S8  UNL     1     -32.105   8.950   1.320  1.00 20.00    -0.055 SA
ENDROOT
BRANCH   2   4
HETATM    4  C6  UNL     1     -33.757   6.424   3.364  1.00 20.00     0.109 C 
HETATM    5  C4  UNL     1     -33.227   5.119   2.782  1.00 20.00     0.035 C 
BRANCH   4   6
HETATM    6  C5  UNL     1     -34.481   6.242   4.716  1.00 20.00     0.002 C 
HETATM    7  C2  UNL     1     -33.846   7.118   5.800  1.00 20.00     0.011 C 
HETATM    8  C3  UNL     1     -34.541   4.789   5.194  1.00 20.00     0.011 C 
ENDBRANCH   4   6
ENDBRANCH   2   4
TORSDOF 2
ENDMDL
MODEL 2
REMARK VINA RESULT:      -4.3      1.396      1.873
REMARK  2 active torsions:
REMARK  status: ('A' for Active; 'I' for Inactive)
REMARK    1  A    between atoms: C5_5  and  C6_6 
REMARK    2  A    between atoms: C6_6  and  N7_7 
ROOT
HETATM    1  C1  UNL     1     -32.686   8.640   1.573  1.00 20.00     0.158 C 
HETATM    2  N7  UNL     1     -32.711   7.508   1.877  1.00 20.00    -0.270 NA
HETATM    3  S8  UNL     1     -32.660  10.168   1.128  1.00 20.00    -0.055 SA
ENDROOT
BRANCH   2   4
HETATM    4  C6  UNL     1     -32.496   7.253   3.308  1.00 20.00     0.109 C 
HETATM    5  C4  UNL     1     -31.540   8.313   3.842  1.00 20.00     0.035 C 
BRANCH   4   6
HETATM    6  C5  UNL     1     -33.849   7.219   4.052  1.00 20.00     0.002 C 
HETATM    7  C2  UNL     1     -33.643   7.299   5.568  1.00 20.00     0.011 C 
HETATM    8  C3  UNL     1     -34.712   6.001   3.711  1.00 20.00     0.011 C 
ENDBRANCH   4   6
ENDBRANCH   2   4
TORSDOF 2
ENDMDL
MODEL 3
REMARK VINA RESULT:      -4.3      0.821      2.030
REMARK  2 active torsions:
REMARK  status: ('A' for Active; 'I' for Inactive)
REMARK    1  A    between atoms: C5_5  and  C6_6 
REMARK    2  A    between atoms: C6_6  and  N7_7 
ROOT
HETATM    1  C1  UNL     1     -32.851   8.271   2.495  1.00 20.00     0.158 C 
HETATM    2  N7  UNL     1     -33.676   7.995   3.282  1.00 20.00    -0.270 NA
HETATM    3  S8  UNL     1     -31.749   8.672   1.418  1.00 20.00    -0.055 SA
ENDROOT
BRANCH   2   4
HETATM    4  C6  UNL     1     -33.356   6.836   4.126  1.00 20.00     0.109 C 
HETATM    5  C4  UNL     1     -33.775   7.159   5.555  1.00 20.00     0.035 C 
BRANCH   4   6
HETATM    6  C5  UNL     1     -34.030   5.565   3.564  1.00 20.00     0.002 C 
HETATM    7  C2  UNL     1     -34.630   4.719   4.690  1.00 20.00     0.011 C 
HETATM    8  C3  UNL     1     -33.101   4.702   2.706  1.00 20.00     0.011 C 
ENDBRANCH   4   6
ENDBRANCH   2   4
TORSDOF 2
ENDMDL
MODEL 4
REMARK VINA RESULT:      -4.2      2.430      4.458
REMARK  2 active torsions:
REMARK  status: ('A' for Active; 'I' for Inactive)
REMARK    1  A    between atoms: C5_5  and  C6_6 
REMARK    2  A    between atoms: C6_6  and  N7_7 
ROOT
HETATM    1  C1  UNL     1     -33.782   6.289   3.225  1.00 20.00     0.158 C 
HETATM    2  N7  UNL     1     -33.016   6.739   2.458  1.00 20.00    -0.270 NA
HETATM    3  S8  UNL     1     -34.816   5.648   4.251  1.00 20.00    -0.055 SA
ENDROOT
BRANCH   2   4
HETATM    4  C6  UNL     1     -32.734   8.169   2.641  1.00 20.00     0.109 C 
HETATM    5  C4  UNL     1     -31.472   8.301   3.486  1.00 20.00     0.035 C 
BRANCH   4   6
HETATM    6  C5  UNL     1     -32.628   8.870   1.269  1.00 20.00     0.002 C 
HETATM    7  C2  UNL     1     -31.275   8.585   0.610  1.00 20.00     0.011 C 
HETATM    8  C3  UNL     1     -32.866  10.382   1.328  1.00 20.00     0.011 C 
ENDBRANCH   4   6
ENDBRANCH   2   4
TORSDOF 2
ENDMDL
MODEL 5
REMARK VINA RESULT:      -3.8      2.559      3.979
REMARK  2 active torsions:
REMARK  status: ('A' for Active; 'I' for Inactive)
REMARK    1  A    between atoms: C5_5  and  C6_6 
REMARK    2  A    between atoms: C6_6  and  N7_7 
ROOT
HETATM    1  C1  UNL     1     -34.051   5.264   3.602  1.00 20.00     0.158 C 
HETATM    2  N7  UNL     1     -33.764   6.001   2.736  1.00 20.00    -0.270 NA
HETATM    3  S8  UNL     1     -34.442   4.238   4.755  1.00 20.00    -0.055 SA
ENDROOT
BRANCH   2   4
HETATM    4  C6  UNL     1     -33.532   7.388   3.162  1.00 20.00     0.109 C 
HETATM    5  C4  UNL     1     -33.501   7.417   4.686  1.00 20.00     0.035 C 
BRANCH   4   6
HETATM    6  C5  UNL     1     -32.242   7.936   2.514  1.00 20.00     0.002 C 
HETATM    7  C2  UNL     1     -31.230   8.364   3.582  1.00 20.00     0.011 C 
HETATM    8  C3  UNL     1     -32.483   9.090   1.537  1.00 20.00     0.011 C 
ENDBRANCH   4   6
ENDBRANCH   2   4
TORSDOF 2
ENDMDL
MODEL 6
REMARK VINA RESULT:      -3.4     11.747     12.658
REMARK  2 active torsions:
REMARK  status: ('A' for Active; 'I' for Inactive)
REMARK    1  A    between atoms: C5_5  and  C6_6 
REMARK    2  A    between atoms: C6_6  and  N7_7 
ROOT
HETATM    1  C1  UNL     1     -36.508  13.684  -5.384  1.00 20.00     0.158 C 
HETATM    2  N7  UNL     1     -35.581  12.997  -5.593  1.00 20.00    -0.270 NA
HETATM    3  S8  UNL     1     -37.782  14.590  -5.083  1.00 20.00    -0.055 SA
ENDROOT
BRANCH   2   4
HETATM    4  C6  UNL     1     -34.482  13.654  -6.314  1.00 20.00     0.109 C 
HETATM    5  C4  UNL     1     -34.949  13.937  -7.737  1.00 20.00     0.035 C 
BRANCH   4   6
HETATM    6  C5  UNL     1     -34.029  14.921  -5.556  1.00 20.00     0.002 C 
HETATM    7  C2  UNL     1     -33.450  15.960  -6.521  1.00 20.00     0.011 C 
HETATM    8  C3  UNL     1     -33.027  14.643  -4.431  1.00 20.00     0.011 C 
ENDBRANCH   4   6
ENDBRANCH   2   4
TORSDOF 2
ENDMDL
MODEL 7
REMARK VINA RESULT:      -3.4      2.515      3.812
REMARK  2 active torsions:
REMARK  status: ('A' for Active; 'I' for Inactive)
REMARK    1  A    between atoms: C5_5  and  C6_6 
REMARK    2  A    between atoms: C6_6  and  N7_7 
ROOT
HETATM    1  C1  UNL     1     -34.081   6.278   4.878  1.00 20.00     0.158 C 
HETATM    2  N7  UNL     1     -33.639   7.131   4.204  1.00 20.00    -0.270 NA
HETATM    3  S8  UNL     1     -34.694   5.144   5.812  1.00 20.00    -0.055 SA
ENDROOT
BRANCH   2   4
HETATM    4  C6  UNL     1     -32.903   6.660   3.023  1.00 20.00     0.109 C 
HETATM    5  C4  UNL     1     -33.917   6.175   1.994  1.00 20.00     0.035 C 
BRANCH   4   6
HETATM    6  C5  UNL     1     -31.979   7.777   2.491  1.00 20.00     0.002 C 
HETATM    7  C2  UNL     1     -31.330   8.548   3.645  1.00 20.00     0.011 C 
HETATM    8  C3  UNL     1     -32.676   8.756   1.542  1.00 20.00     0.011 C 
ENDBRANCH   4   6
ENDBRANCH   2   4
TORSDOF 2
ENDMDL
MODEL 8
REMARK VINA RESULT:      -3.4     11.396     12.165
REMARK  2 active torsions:
REMARK  status: ('A' for Active; 'I' for Inactive)
REMARK    1  A    between atoms: C5_5  and  C6_6 
REMARK    2  A    between atoms: C6_6  and  N7_7 
ROOT
HETATM    1  C1  UNL     1     -35.215  13.960  -4.676  1.00 20.00     0.158 C 
HETATM    2  N7  UNL     1     -34.191  13.972  -4.106  1.00 20.00    -0.270 NA
HETATM    3  S8  UNL     1     -36.610  13.910  -5.442  1.00 20.00    -0.055 SA
ENDROOT
BRANCH   2   4
HETATM    4  C6  UNL     1     -33.515  15.277  -4.087  1.00 20.00     0.109 C 
HETATM    5  C4  UNL     1     -33.092  15.614  -5.512  1.00 20.00     0.035 C 
BRANCH   4   6
HETATM    6  C5  UNL     1     -34.435  16.343  -3.453  1.00 20.00     0.002 C 
HETATM    7  C2  UNL     1     -34.625  17.534  -4.398  1.00 20.00     0.011 C 
HETATM    8  C3  UNL     1     -33.955  16.839  -2.086  1.00 20.00     0.011 C 
ENDBRANCH   4   6
ENDBRANCH   2   4
TORSDOF 2
ENDMDL
MODEL 9
REMARK VINA RESULT:      -3.3     11.497     11.969
REMARK  2 active torsions:
REMARK  status: ('A' for Active; 'I' for Inactive)
REMARK    1  A    between atoms: C5_5  and  C6_6 
REMARK    2  A    between atoms: C6_6  and  N7_7 
ROOT
HETATM    1  C1  UNL     1     -34.594  14.009  -6.427  1.00 20.00     0.158 C 
HETATM    2  N7  UNL     1     -34.988  13.559  -5.418  1.00 20.00    -0.270 NA
HETATM    3  S8  UNL     1     -34.078  14.597  -7.814  1.00 20.00    -0.055 SA
ENDROOT
BRANCH   2   4
HETATM    4  C6  UNL     1     -34.502  14.240  -4.212  1.00 20.00     0.109 C 
HETATM    5  C4  UNL     1     -32.990  14.398  -4.332  1.00 20.00     0.035 C 
BRANCH   4   6
HETATM    6  C5  UNL     1     -35.243  15.581  -4.021  1.00 20.00     0.002 C 
HETATM    7  C2  UNL     1     -34.778  16.289  -2.745  1.00 20.00     0.011 C 
HETATM    8  C3  UNL     1     -36.769  15.448  -4.012  1.00 20.00     0.011 C 
ENDBRANCH   4   6
ENDBRANCH   2   4
TORSDOF 2
ENDMDL
