MODEL 1
REMARK VINA RESULT:      -5.9      0.000      0.000
REMARK  4 active torsions:
REMARK  status: ('A' for Active; 'I' for Inactive)
REMARK    1  A    between atoms: C3_3  and  C6_6 
REMARK    2  A    between atoms: C5_5  and  C7_7 
REMARK    3  A    between atoms: C6_6  and  C8_8 
REMARK    4  A    between atoms: C7_7  and  C8_8 
ROOT
HETATM    1  C1  UNL     1     -32.416   9.514   1.384  1.00 20.00     0.059 C 
HETATM    2  C5  UNL     1     -31.764   8.250   1.754  1.00 20.00     0.124 C 
HETATM    3  N9  UNL     1     -32.930  10.511   1.090  1.00 20.00    -0.197 NA
ENDROOT
BRANCH   2   4
HETATM    4  C7  UNL     1     -32.310   7.681   3.064  1.00 20.00     0.014 C 
BRANCH   4   5
HETATM    5  C8  UNL     1     -33.095   6.378   2.864  1.00 20.00     0.005 C 
BRANCH   5   6
HETATM    6  C6  UNL     1     -34.439   6.367   3.603  1.00 20.00     0.033 C 
BRANCH   6   7
HETATM    7  C3  UNL     1     -34.343   6.083   5.083  1.00 20.00    -0.093 C 
HETATM    8  C2  UNL     1     -34.626   4.871   5.585  1.00 20.00     0.014 C 
HETATM    9  C4  UNL     1     -33.879   7.205   5.967  1.00 20.00     0.042 C 
ENDBRANCH   6   7
ENDBRANCH   5   6
ENDBRANCH   4   5
ENDBRANCH   2   4
TORSDOF 4
ENDMDL
MODEL 2
REMARK VINA RESULT:      -5.9      0.215      1.187
REMARK  4 active torsions:
REMARK  status: ('A' for Active; 'I' for Inactive)
REMARK    1  A    between atoms: C3_3  and  C6_6 
REMARK    2  A    between atoms: C5_5  and  C7_7 
REMARK    3  A    between atoms: C6_6  and  C8_8 
REMARK    4  A    between atoms: C7_7  and  C8_8 
ROOT
HETATM    1  C1  UNL     1     -32.399   9.637   1.306  1.00 20.00     0.059 C 
HETATM    2  C5  UNL     1     -31.739   8.349   1.559  1.00 20.00     0.124 C 
HETATM    3  N9  UNL     1     -32.920  10.654   1.104  1.00 20.00    -0.197 NA
ENDROOT
BRANCH   2   4
HETATM    4  C7  UNL     1     -32.065   7.797   2.948  1.00 20.00     0.014 C 
BRANCH   4   5
HETATM    5  C8  UNL     1     -32.891   6.505   2.894  1.00 20.00     0.005 C 
BRANCH   5   6
HETATM    6  C6  UNL     1     -34.248   6.629   3.598  1.00 20.00     0.033 C 
BRANCH   6   7
HETATM    7  C3  UNL     1     -34.228   6.290   5.069  1.00 20.00    -0.093 C 
HETATM    8  C2  UNL     1     -33.873   7.195   5.994  1.00 20.00     0.014 C 
HETATM    9  C4  UNL     1     -34.660   4.905   5.459  1.00 20.00     0.042 C 
ENDBRANCH   6   7
ENDBRANCH   5   6
ENDBRANCH   4   5
ENDBRANCH   2   4
TORSDOF 4
ENDMDL
MODEL 3
REMARK VINA RESULT:      -5.8      0.989      1.334
REMARK  4 active torsions:
REMARK  status: ('A' for Active; 'I' for Inactive)
REMARK    1  A    between atoms: C3_3  and  C6_6 
REMARK    2  A    between atoms: C5_5  and  C7_7 
REMARK    3  A    between atoms: C6_6  and  C8_8 
REMARK    4  A    between atoms: C7_7  and  C8_8 
ROOT
HETATM    1  C1  UNL     1     -32.938   9.489   0.217  1.00 20.00     0.059 C 
HETATM    2  C5  UNL     1     -32.357   9.544   1.566  1.00 20.00     0.124 C 
HETATM    3  N9  UNL     1     -33.397   9.447  -0.848  1.00 20.00    -0.197 NA
ENDROOT
BRANCH   2   4
HETATM    4  C7  UNL     1     -31.756   8.202   1.990  1.00 20.00     0.014 C 
BRANCH   4   5
HETATM    5  C8  UNL     1     -32.240   7.746   3.372  1.00 20.00     0.005 C 
BRANCH   5   6
HETATM    6  C6  UNL     1     -33.482   6.848   3.308  1.00 20.00     0.033 C 
BRANCH   6   7
HETATM    7  C3  UNL     1     -34.055   6.467   4.652  1.00 20.00    -0.093 C 
HETATM    8  C2  UNL     1     -34.818   5.374   4.805  1.00 20.00     0.014 C 
HETATM    9  C4  UNL     1     -33.703   7.343   5.820  1.00 20.00     0.042 C 
ENDBRANCH   6   7
ENDBRANCH   5   6
ENDBRANCH   4   5
ENDBRANCH   2   4
TORSDOF 4
ENDMDL
MODEL 4
REMARK VINA RESULT:      -5.8      2.740      5.330
REMARK  4 active torsions:
REMARK  status: ('A' for Active; 'I' for Inactive)
REMARK    1  A    between atoms: C3_3  and  C6_6 
REMARK    2  A    between atoms: C5_5  and  C7_7 
REMARK    3  A    between atoms: C6_6  and  C8_8 
REMARK    4  A    between atoms: C7_7  and  C8_8 
ROOT
HETATM    1  C1  UNL     1     -34.354   5.041   4.133  1.00 20.00     0.059 C 
HETATM    2  C5  UNL     1     -34.288   6.446   3.709  1.00 20.00     0.124 C 
HETATM    3  N9  UNL     1     -34.407   3.931   4.469  1.00 20.00    -0.197 NA
ENDROOT
BRANCH   2   4
HETATM    4  C7  UNL     1     -33.263   6.665   2.595  1.00 20.00     0.014 C 
BRANCH   4   5
HETATM    5  C8  UNL     1     -32.356   7.875   2.853  1.00 20.00     0.005 C 
BRANCH   5   6
HETATM    6  C6  UNL     1     -31.729   8.440   1.573  1.00 20.00     0.033 C 
BRANCH   6   7
HETATM    7  C3  UNL     1     -32.532   9.531   0.906  1.00 20.00    -0.093 C 
HETATM    8  C2  UNL     1     -32.731  10.718   1.499  1.00 20.00     0.014 C 
HETATM    9  C4  UNL     1     -33.069   9.245  -0.467  1.00 20.00     0.042 C 
ENDBRANCH   6   7
ENDBRANCH   5   6
ENDBRANCH   4   5
ENDBRANCH   2   4
TORSDOF 4
ENDMDL
MODEL 5
REMARK VINA RESULT:      -5.7      2.745      5.237
REMARK  4 active torsions:
REMARK  status: ('A' for Active; 'I' for Inactive)
REMARK    1  A    between atoms: C3_3  and  C6_6 
REMARK    2  A    between atoms: C5_5  and  C7_7 
REMARK    3  A    between atoms: C6_6  and  C8_8 
REMARK    4  A    between atoms: C7_7  and  C8_8 
ROOT
HETATM    1  C1  UNL     1     -34.351   5.063   4.121  1.00 20.00     0.059 C 
HETATM    2  C5  UNL     1     -34.291   6.441   3.614  1.00 20.00     0.124 C 
HETATM    3  N9  UNL     1     -34.400   3.976   4.522  1.00 20.00    -0.197 NA
ENDROOT
BRANCH   2   4
HETATM    4  C7  UNL     1     -33.152   6.638   2.612  1.00 20.00     0.014 C 
BRANCH   4   5
HETATM    5  C8  UNL     1     -32.371   7.937   2.849  1.00 20.00     0.005 C 
BRANCH   5   6
HETATM    6  C6  UNL     1     -31.697   8.472   1.579  1.00 20.00     0.033 C 
BRANCH   6   7
HETATM    7  C3  UNL     1     -32.492   9.520   0.837  1.00 20.00    -0.093 C 
HETATM    8  C2  UNL     1     -33.017   9.276  -0.374  1.00 20.00     0.014 C 
HETATM    9  C4  UNL     1     -32.704  10.836   1.528  1.00 20.00     0.042 C 
ENDBRANCH   6   7
ENDBRANCH   5   6
ENDBRANCH   4   5
ENDBRANCH   2   4
TORSDOF 4
ENDMDL
MODEL 6
REMARK VINA RESULT:      -5.7      2.159      5.005
REMARK  4 active torsions:
REMARK  status: ('A' for Active; 'I' for Inactive)
REMARK    1  A    between atoms: C3_3  and  C6_6 
REMARK    2  A    between atoms: C5_5  and  C7_7 
REMARK    3  A    between atoms: C6_6  and  C8_8 
REMARK    4  A    between atoms: C7_7  and  C8_8 
ROOT
HETATM    1  C1  UNL     1     -33.947   6.867   4.981  1.00 20.00     0.059 C 
HETATM    2  C5  UNL     1     -34.262   6.245   3.687  1.00 20.00     0.124 C 
HETATM    3  N9  UNL     1     -33.699   7.356   6.004  1.00 20.00    -0.197 NA
ENDROOT
BRANCH   2   4
HETATM    4  C7  UNL     1     -33.211   6.565   2.623  1.00 20.00     0.014 C 
BRANCH   4   5
HETATM    5  C8  UNL     1     -32.498   7.899   2.874  1.00 20.00     0.005 C 
BRANCH   5   6
HETATM    6  C6  UNL     1     -31.784   8.443   1.630  1.00 20.00     0.033 C 
BRANCH   6   7
HETATM    7  C3  UNL     1     -32.529   9.538   0.905  1.00 20.00    -0.093 C 
HETATM    8  C2  UNL     1     -32.683  10.758   1.442  1.00 20.00     0.014 C 
HETATM    9  C4  UNL     1     -33.059   9.216  -0.463  1.00 20.00     0.042 C 
ENDBRANCH   6   7
ENDBRANCH   5   6
ENDBRANCH   4   5
ENDBRANCH   2   4
TORSDOF 4
ENDMDL
MODEL 7
REMARK VINA RESULT:      -5.4      2.125      4.456
REMARK  4 active torsions:
REMARK  status: ('A' for Active; 'I' for Inactive)
REMARK    1  A    between atoms: C3_3  and  C6_6 
REMARK    2  A    between atoms: C5_5  and  C7_7 
REMARK    3  A    between atoms: C6_6  and  C8_8 
REMARK    4  A    between atoms: C7_7  and  C8_8 
ROOT
HETATM    1  C1  UNL     1     -34.138   6.559   5.902  1.00 20.00     0.059 C 
HETATM    2  C5  UNL     1     -34.597   5.220   5.508  1.00 20.00     0.124 C 
HETATM    3  N9  UNL     1     -33.775   7.616   6.214  1.00 20.00    -0.197 NA
ENDROOT
BRANCH   2   4
HETATM    4  C7  UNL     1     -34.446   4.978   4.005  1.00 20.00     0.014 C 
BRANCH   4   5
HETATM    5  C8  UNL     1     -34.233   6.274   3.213  1.00 20.00     0.005 C 
BRANCH   5   6
HETATM    6  C6  UNL     1     -32.824   6.390   2.618  1.00 20.00     0.033 C 
BRANCH   6   7
HETATM    7  C3  UNL     1     -32.238   7.781   2.651  1.00 20.00    -0.093 C 
HETATM    8  C2  UNL     1     -31.512   8.213   3.694  1.00 20.00     0.014 C 
HETATM    9  C4  UNL     1     -32.470   8.651   1.449  1.00 20.00     0.042 C 
ENDBRANCH   6   7
ENDBRANCH   5   6
ENDBRANCH   4   5
ENDBRANCH   2   4
TORSDOF 4
ENDMDL
MODEL 8
REMARK VINA RESULT:      -5.3      2.686      4.892
REMARK  4 active torsions:
REMARK  status: ('A' for Active; 'I' for Inactive)
REMARK    1  A    between atoms: C3_3  and  C6_6 
REMARK    2  A    between atoms: C5_5  and  C7_7 
REMARK    3  A    between atoms: C6_6  and  C8_8 
REMARK    4  A    between atoms: C7_7  and  C8_8 
ROOT
HETATM    1  C1  UNL     1     -34.473   4.669   5.037  1.00 20.00     0.059 C 
HETATM    2  C5  UNL     1     -34.494   5.871   5.882  1.00 20.00     0.124 C 
HETATM    3  N9  UNL     1     -34.457   3.719   4.371  1.00 20.00    -0.197 NA
ENDROOT
BRANCH   2   4
HETATM    4  C7  UNL     1     -33.885   7.083   5.175  1.00 20.00     0.014 C 
BRANCH   4   5
HETATM    5  C8  UNL     1     -34.176   7.101   3.669  1.00 20.00     0.005 C 
BRANCH   5   6
HETATM    6  C6  UNL     1     -32.922   6.884   2.812  1.00 20.00     0.033 C 
BRANCH   6   7
HETATM    7  C3  UNL     1     -32.091   8.124   2.587  1.00 20.00    -0.093 C 
HETATM    8  C2  UNL     1     -31.151   8.508   3.464  1.00 20.00     0.014 C 
HETATM    9  C4  UNL     1     -32.333   8.890   1.318  1.00 20.00     0.042 C 
ENDBRANCH   6   7
ENDBRANCH   5   6
ENDBRANCH   4   5
ENDBRANCH   2   4
TORSDOF 4
ENDMDL
MODEL 9
REMARK VINA RESULT:      -4.6      1.529      1.675
REMARK  4 active torsions:
REMARK  status: ('A' for Active; 'I' for Inactive)
REMARK    1  A    between atoms: C3_3  and  C6_6 
REMARK    2  A    between atoms: C5_5  and  C7_7 
REMARK    3  A    between atoms: C6_6  and  C8_8 
REMARK    4  A    between atoms: C7_7  and  C8_8 
ROOT
HETATM    1  C1  UNL     1     -31.549   8.396   3.238  1.00 20.00     0.059 C 
HETATM    2  C5  UNL     1     -32.010   8.006   1.898  1.00 20.00     0.124 C 
HETATM    3  N9  UNL     1     -31.183   8.705   4.295  1.00 20.00    -0.197 NA
ENDROOT
BRANCH   2   4
HETATM    4  C7  UNL     1     -33.419   7.412   1.924  1.00 20.00     0.014 C 
BRANCH   4   5
HETATM    5  C8  UNL     1     -33.514   6.144   2.781  1.00 20.00     0.005 C 
BRANCH   5   6
HETATM    6  C6  UNL     1     -34.746   6.127   3.695  1.00 20.00     0.033 C 
BRANCH   6   7
HETATM    7  C3  UNL     1     -34.439   5.956   5.163  1.00 20.00    -0.093 C 
HETATM    8  C2  UNL     1     -34.599   4.776   5.782  1.00 20.00     0.014 C 
HETATM    9  C4  UNL     1     -33.909   7.155   5.897  1.00 20.00     0.042 C 
ENDBRANCH   6   7
ENDBRANCH   5   6
ENDBRANCH   4   5
ENDBRANCH   2   4
TORSDOF 4
ENDMDL
