MODEL 1
REMARK VINA RESULT:      -5.3      0.000      0.000
REMARK  5 active torsions:
REMARK  status: ('A' for Active; 'I' for Inactive)
REMARK    1  A    between atoms: C1_1  and  C8_8 
REMARK    2  A    between atoms: C4_4  and  C6_6 
REMARK    3  A    between atoms: C5_5  and  C7_7 
REMARK    4  A    between atoms: C6_6  and  C8_8 
REMARK    5  A    between atoms: C7_7  and  C8_8 
ROOT
HETATM    1  C8  UNL     1     -33.134   7.620   2.927  1.00 20.00     0.072 C 
ENDROOT
BRANCH   1   2
HETATM    2  C1  UNL     1     -32.347   7.963   4.191  1.00 20.00     0.223 C 
HETATM    3  O9  UNL     1     -31.208   8.420   4.142  1.00 20.00    -0.279 OA
HETATM    4 CL10 UNL     1     -33.239   7.635   5.649  1.00 20.00    -0.043 Cl
ENDBRANCH   1   2
BRANCH   1   5
HETATM    5  C6  UNL     1     -32.329   8.045   1.681  1.00 20.00     0.013 C 
BRANCH   5   6
HETATM    6  C4  UNL     1     -32.617   9.464   1.179  1.00 20.00    -0.004 C 
HETATM    7  C2  UNL     1     -33.041   9.519  -0.281  1.00 20.00     0.005 C 
ENDBRANCH   5   6
ENDBRANCH   1   5
BRANCH   1   8
HETATM    8  C7  UNL     1     -33.404   6.102   2.880  1.00 20.00     0.013 C 
BRANCH   8   9
HETATM    9  C5  UNL     1     -34.692   5.652   3.580  1.00 20.00    -0.004 C 
HETATM   10  C3  UNL     1     -34.502   4.449   4.490  1.00 20.00     0.005 C 
ENDBRANCH   8   9
ENDBRANCH   1   8
TORSDOF 5
ENDMDL
MODEL 2
REMARK VINA RESULT:      -5.0      2.306      4.618
REMARK  5 active torsions:
REMARK  status: ('A' for Active; 'I' for Inactive)
REMARK    1  A    between atoms: C1_1  and  C8_8 
REMARK    2  A    between atoms: C4_4  and  C6_6 
REMARK    3  A    between atoms: C5_5  and  C7_7 
REMARK    4  A    between atoms: C6_6  and  C8_8 
REMARK    5  A    between atoms: C7_7  and  C8_8 
ROOT
HETATM    1  C8  UNL     1     -33.383   7.514   3.286  1.00 20.00     0.072 C 
ENDROOT
BRANCH   1   2
HETATM    2  C1  UNL     1     -34.035   6.188   2.897  1.00 20.00     0.223 C 
HETATM    3  O9  UNL     1     -35.254   6.064   2.810  1.00 20.00    -0.279 OA
HETATM    4 CL10 UNL     1     -32.872   4.926   2.603  1.00 20.00    -0.043 Cl
ENDBRANCH   1   2
BRANCH   1   5
HETATM    5  C6  UNL     1     -32.835   7.421   4.725  1.00 20.00     0.013 C 
BRANCH   5   6
HETATM    6  C4  UNL     1     -33.903   7.272   5.814  1.00 20.00    -0.004 C 
HETATM    7  C2  UNL     1     -34.378   5.839   6.009  1.00 20.00     0.005 C 
ENDBRANCH   5   6
ENDBRANCH   1   5
BRANCH   1   8
HETATM    8  C7  UNL     1     -32.233   7.833   2.309  1.00 20.00     0.013 C 
BRANCH   8   9
HETATM    9  C5  UNL     1     -32.238   9.259   1.747  1.00 20.00    -0.004 C 
HETATM   10  C3  UNL     1     -32.624   9.333   0.278  1.00 20.00     0.005 C 
ENDBRANCH   8   9
ENDBRANCH   1   8
TORSDOF 5
ENDMDL
MODEL 3
REMARK VINA RESULT:      -5.0      1.447      1.686
REMARK  5 active torsions:
REMARK  status: ('A' for Active; 'I' for Inactive)
REMARK    1  A    between atoms: C1_1  and  C8_8 
REMARK    2  A    between atoms: C4_4  and  C6_6 
REMARK    3  A    between atoms: C5_5  and  C7_7 
REMARK    4  A    between atoms: C6_6  and  C8_8 
REMARK    5  A    between atoms: C7_7  and  C8_8 
ROOT
HETATM    1  C8  UNL     1     -33.748   7.282   3.756  1.00 20.00     0.072 C 
ENDROOT
BRANCH   1   2
HETATM    2  C1  UNL     1     -33.614   7.244   5.278  1.00 20.00     0.223 C 
HETATM    3  O9  UNL     1     -32.794   7.937   5.875  1.00 20.00    -0.279 OA
HETATM    4 CL10 UNL     1     -34.729   6.136   6.026  1.00 20.00    -0.043 Cl
ENDBRANCH   1   2
BRANCH   1   5
HETATM    5  C6  UNL     1     -32.347   7.333   3.112  1.00 20.00     0.013 C 
BRANCH   5   6
HETATM    6  C4  UNL     1     -31.927   8.711   2.588  1.00 20.00    -0.004 C 
HETATM    7  C2  UNL     1     -32.110   8.872   1.086  1.00 20.00     0.005 C 
ENDBRANCH   5   6
ENDBRANCH   1   5
BRANCH   1   8
HETATM    8  C7  UNL     1     -34.500   6.026   3.271  1.00 20.00     0.013 C 
BRANCH   8   9
HETATM    9  C5  UNL     1     -33.617   4.799   3.020  1.00 20.00    -0.004 C 
HETATM   10  C3  UNL     1     -33.858   3.663   4.002  1.00 20.00     0.005 C 
ENDBRANCH   8   9
ENDBRANCH   1   8
TORSDOF 5
ENDMDL
MODEL 4
REMARK VINA RESULT:      -4.9      2.358      2.670
REMARK  5 active torsions:
REMARK  status: ('A' for Active; 'I' for Inactive)
REMARK    1  A    between atoms: C1_1  and  C8_8 
REMARK    2  A    between atoms: C4_4  and  C6_6 
REMARK    3  A    between atoms: C5_5  and  C7_7 
REMARK    4  A    between atoms: C6_6  and  C8_8 
REMARK    5  A    between atoms: C7_7  and  C8_8 
ROOT
HETATM    1  C8  UNL     1     -32.677   6.897   3.391  1.00 20.00     0.072 C 
ENDROOT
BRANCH   1   2
HETATM    2  C1  UNL     1     -33.545   5.877   2.655  1.00 20.00     0.223 C 
HETATM    3  O9  UNL     1     -34.679   6.147   2.269  1.00 20.00    -0.279 OA
HETATM    4 CL10 UNL     1     -32.748   4.344   2.441  1.00 20.00    -0.043 Cl
ENDBRANCH   1   2
BRANCH   1   5
HETATM    5  C6  UNL     1     -31.958   7.801   2.369  1.00 20.00     0.013 C 
BRANCH   5   6
HETATM    6  C4  UNL     1     -32.729   9.064   1.969  1.00 20.00    -0.004 C 
HETATM    7  C2  UNL     1     -32.336   9.610   0.604  1.00 20.00     0.005 C 
ENDBRANCH   5   6
ENDBRANCH   1   5
BRANCH   1   8
HETATM    8  C7  UNL     1     -33.561   7.756   4.318  1.00 20.00     0.013 C 
BRANCH   8   9
HETATM    9  C5  UNL     1     -33.681   7.242   5.757  1.00 20.00    -0.004 C 
HETATM   10  C3  UNL     1     -34.495   5.964   5.881  1.00 20.00     0.005 C 
ENDBRANCH   8   9
ENDBRANCH   1   8
TORSDOF 5
ENDMDL
MODEL 5
REMARK VINA RESULT:      -4.9      0.658      4.114
REMARK  5 active torsions:
REMARK  status: ('A' for Active; 'I' for Inactive)
REMARK    1  A    between atoms: C1_1  and  C8_8 
REMARK    2  A    between atoms: C4_4  and  C6_6 
REMARK    3  A    between atoms: C5_5  and  C7_7 
REMARK    4  A    between atoms: C6_6  and  C8_8 
REMARK    5  A    between atoms: C7_7  and  C8_8 
ROOT
HETATM    1  C8  UNL     1     -32.813   7.282   2.731  1.00 20.00     0.072 C 
ENDROOT
BRANCH   1   2
HETATM    2  C1  UNL     1     -32.268   7.845   4.043  1.00 20.00     0.223 C 
HETATM    3  O9  UNL     1     -31.212   8.470   4.093  1.00 20.00    -0.279 OA
HETATM    4 CL10 UNL     1     -33.298   7.500   5.404  1.00 20.00    -0.043 Cl
ENDBRANCH   1   2
BRANCH   1   5
HETATM    5  C6  UNL     1     -33.964   6.298   3.026  1.00 20.00     0.013 C 
BRANCH   5   6
HETATM    6  C4  UNL     1     -33.536   4.837   3.200  1.00 20.00    -0.004 C 
HETATM    7  C2  UNL     1     -34.240   4.128   4.348  1.00 20.00     0.005 C 
ENDBRANCH   5   6
ENDBRANCH   1   5
BRANCH   1   8
HETATM    8  C7  UNL     1     -33.325   8.435   1.845  1.00 20.00     0.013 C 
BRANCH   8   9
HETATM    9  C5  UNL     1     -32.306   8.982   0.841  1.00 20.00    -0.004 C 
HETATM   10  C3  UNL     1     -32.931   9.483  -0.452  1.00 20.00     0.005 C 
ENDBRANCH   8   9
ENDBRANCH   1   8
TORSDOF 5
ENDMDL
MODEL 6
REMARK VINA RESULT:      -4.9      2.371      4.430
REMARK  5 active torsions:
REMARK  status: ('A' for Active; 'I' for Inactive)
REMARK    1  A    between atoms: C1_1  and  C8_8 
REMARK    2  A    between atoms: C4_4  and  C6_6 
REMARK    3  A    between atoms: C5_5  and  C7_7 
REMARK    4  A    between atoms: C6_6  and  C8_8 
REMARK    5  A    between atoms: C7_7  and  C8_8 
ROOT
HETATM    1  C8  UNL     1     -33.706   6.346   2.773  1.00 20.00     0.072 C 
ENDROOT
BRANCH   1   2
HETATM    2  C1  UNL     1     -33.394   4.859   2.936  1.00 20.00     0.223 C 
HETATM    3  O9  UNL     1     -32.611   4.274   2.192  1.00 20.00    -0.279 OA
HETATM    4 CL10 UNL     1     -34.256   4.131   4.262  1.00 20.00    -0.043 Cl
ENDBRANCH   1   2
BRANCH   1   5
HETATM    5  C6  UNL     1     -34.475   6.855   4.010  1.00 20.00     0.013 C 
BRANCH   5   6
HETATM    6  C4  UNL     1     -33.597   7.456   5.113  1.00 20.00    -0.004 C 
HETATM    7  C2  UNL     1     -33.950   6.963   6.509  1.00 20.00     0.005 C 
ENDBRANCH   5   6
ENDBRANCH   1   5
BRANCH   1   8
HETATM    8  C7  UNL     1     -32.392   7.137   2.613  1.00 20.00     0.013 C 
BRANCH   8   9
HETATM    9  C5  UNL     1     -32.539   8.505   1.937  1.00 20.00    -0.004 C 
HETATM   10  C3  UNL     1     -31.531   8.746   0.824  1.00 20.00     0.005 C 
ENDBRANCH   8   9
ENDBRANCH   1   8
TORSDOF 5
ENDMDL
MODEL 7
REMARK VINA RESULT:      -4.6      2.131      3.424
REMARK  5 active torsions:
REMARK  status: ('A' for Active; 'I' for Inactive)
REMARK    1  A    between atoms: C1_1  and  C8_8 
REMARK    2  A    between atoms: C4_4  and  C6_6 
REMARK    3  A    between atoms: C5_5  and  C7_7 
REMARK    4  A    between atoms: C6_6  and  C8_8 
REMARK    5  A    between atoms: C7_7  and  C8_8 
ROOT
HETATM    1  C8  UNL     1     -33.350   7.632   3.331  1.00 20.00     0.072 C 
ENDROOT
BRANCH   1   2
HETATM    2  C1  UNL     1     -32.174   8.261   2.586  1.00 20.00     0.223 C 
HETATM    3  O9  UNL     1     -31.043   8.293   3.065  1.00 20.00    -0.279 OA
HETATM    4 CL10 UNL     1     -32.626   8.901   1.031  1.00 20.00    -0.043 Cl
ENDBRANCH   1   2
BRANCH   1   5
HETATM    5  C6  UNL     1     -33.836   6.380   2.572  1.00 20.00     0.013 C 
BRANCH   5   6
HETATM    6  C4  UNL     1     -32.984   5.123   2.786  1.00 20.00    -0.004 C 
HETATM    7  C2  UNL     1     -33.733   3.990   3.472  1.00 20.00     0.005 C 
ENDBRANCH   5   6
ENDBRANCH   1   5
BRANCH   1   8
HETATM    8  C7  UNL     1     -32.911   7.240   4.756  1.00 20.00     0.013 C 
BRANCH   8   9
HETATM    9  C5  UNL     1     -34.033   7.237   5.801  1.00 20.00    -0.004 C 
HETATM   10  C3  UNL     1     -34.663   5.869   6.014  1.00 20.00     0.005 C 
ENDBRANCH   8   9
ENDBRANCH   1   8
TORSDOF 5
ENDMDL
MODEL 8
REMARK VINA RESULT:      -4.6      2.188      3.555
REMARK  5 active torsions:
REMARK  status: ('A' for Active; 'I' for Inactive)
REMARK    1  A    between atoms: C1_1  and  C8_8 
REMARK    2  A    between atoms: C4_4  and  C6_6 
REMARK    3  A    between atoms: C5_5  and  C7_7 
REMARK    4  A    between atoms: C6_6  and  C8_8 
REMARK    5  A    between atoms: C7_7  and  C8_8 
ROOT
HETATM    1  C8  UNL     1     -32.816   6.971   3.588  1.00 20.00     0.072 C 
ENDROOT
BRANCH   1   2
HETATM    2  C1  UNL     1     -31.967   8.067   2.945  1.00 20.00     0.223 C 
HETATM    3  O9  UNL     1     -30.967   8.521   3.497  1.00 20.00    -0.279 OA
HETATM    4 CL10 UNL     1     -32.575   8.568   1.393  1.00 20.00    -0.043 Cl
ENDBRANCH   1   2
BRANCH   1   5
HETATM    5  C6  UNL     1     -33.886   7.609   4.497  1.00 20.00     0.013 C 
BRANCH   5   6
HETATM    6  C4  UNL     1     -33.929   7.061   5.928  1.00 20.00    -0.004 C 
HETATM    7  C2  UNL     1     -34.632   5.716   6.044  1.00 20.00     0.005 C 
ENDBRANCH   5   6
ENDBRANCH   1   5
BRANCH   1   8
HETATM    8  C7  UNL     1     -33.498   6.132   2.488  1.00 20.00     0.013 C 
BRANCH   8   9
HETATM    9  C5  UNL     1     -33.152   4.639   2.505  1.00 20.00    -0.004 C 
HETATM   10  C3  UNL     1     -33.810   3.874   3.642  1.00 20.00     0.005 C 
ENDBRANCH   8   9
ENDBRANCH   1   8
TORSDOF 5
ENDMDL
MODEL 9
REMARK VINA RESULT:      -4.5      1.916      3.818
REMARK  5 active torsions:
REMARK  status: ('A' for Active; 'I' for Inactive)
REMARK    1  A    between atoms: C1_1  and  C8_8 
REMARK    2  A    between atoms: C4_4  and  C6_6 
REMARK    3  A    between atoms: C5_5  and  C7_7 
REMARK    4  A    between atoms: C6_6  and  C8_8 
REMARK    5  A    between atoms: C7_7  and  C8_8 
ROOT
HETATM    1  C8  UNL     1     -33.228   6.819   4.235  1.00 20.00     0.072 C 
ENDROOT
BRANCH   1   2
HETATM    2  C1  UNL     1     -33.857   6.797   5.627  1.00 20.00     0.223 C 
HETATM    3  O9  UNL     1     -33.763   7.749   6.397  1.00 20.00    -0.279 OA
HETATM    4 CL10 UNL     1     -34.693   5.307   5.965  1.00 20.00    -0.043 Cl
ENDBRANCH   1   2
BRANCH   1   5
HETATM    5  C6  UNL     1     -34.323   6.626   3.166  1.00 20.00     0.013 C 
BRANCH   5   6
HETATM    6  C4  UNL     1     -34.033   5.532   2.133  1.00 20.00    -0.004 C 
HETATM    7  C2  UNL     1     -32.955   4.551   2.571  1.00 20.00     0.005 C 
ENDBRANCH   5   6
ENDBRANCH   1   5
BRANCH   1   8
HETATM    8  C7  UNL     1     -32.511   8.166   4.011  1.00 20.00     0.013 C 
BRANCH   8   9
HETATM    9  C5  UNL     1     -31.673   8.248   2.730  1.00 20.00    -0.004 C 
HETATM   10  C3  UNL     1     -32.231   9.214   1.697  1.00 20.00     0.005 C 
ENDBRANCH   8   9
ENDBRANCH   1   8
TORSDOF 5
ENDMDL
