MODEL 1
REMARK VINA RESULT:      -5.2      0.000      0.000
REMARK  3 active torsions:
REMARK  status: ('A' for Active; 'I' for Inactive)
REMARK    1  A    between atoms: C3_3  and  C5_5 
REMARK    2  A    between atoms: C4_4  and  C6_6 
REMARK    3  A    between atoms: C5_5  and  C6_6 
ROOT
HETATM    1  C1  UNL     1     -32.168   8.587   1.792  1.00 20.00     0.059 C 
HETATM    2  C4  UNL     1     -32.169   7.801   3.033  1.00 20.00     0.124 C 
HETATM    3  N7  UNL     1     -32.165   9.208   0.812  1.00 20.00    -0.197 NA
ENDROOT
BRANCH   2   4
HETATM    4  C6  UNL     1     -32.907   6.469   2.874  1.00 20.00     0.020 C 
BRANCH   4   5
HETATM    5  C5  UNL     1     -34.320   6.500   3.474  1.00 20.00     0.051 C 
BRANCH   5   6
HETATM    6  C3  UNL     1     -34.334   6.082   4.917  1.00 20.00     0.002 C 
HETATM    7  C2  UNL     1     -34.633   4.847   5.338  1.00 20.00     0.032 C 
HETATM    8 CL8  UNL     1     -33.875   7.295   6.063  1.00 20.00    -0.090 Cl
ENDBRANCH   5   6
ENDBRANCH   4   5
ENDBRANCH   2   4
TORSDOF 3
ENDMDL
MODEL 2
REMARK VINA RESULT:      -5.1      1.218      1.396
REMARK  3 active torsions:
REMARK  status: ('A' for Active; 'I' for Inactive)
REMARK    1  A    between atoms: C3_3  and  C5_5 
REMARK    2  A    between atoms: C4_4  and  C6_6 
REMARK    3  A    between atoms: C5_5  and  C6_6 
ROOT
HETATM    1  C1  UNL     1     -32.281   8.918   1.578  1.00 20.00     0.059 C 
HETATM    2  C4  UNL     1     -31.923   8.151   2.779  1.00 20.00     0.124 C 
HETATM    3  N7  UNL     1     -32.562   9.523   0.629  1.00 20.00    -0.197 NA
ENDROOT
BRANCH   2   4
HETATM    4  C6  UNL     1     -32.633   6.796   2.833  1.00 20.00     0.020 C 
BRANCH   4   5
HETATM    5  C5  UNL     1     -34.042   6.890   3.437  1.00 20.00     0.051 C 
BRANCH   5   6
HETATM    6  C3  UNL     1     -34.075   6.449   4.874  1.00 20.00     0.002 C 
HETATM    7  C2  UNL     1     -33.754   7.236   5.907  1.00 20.00     0.032 C 
HETATM    8 CL8  UNL     1     -34.623   4.832   5.158  1.00 20.00    -0.090 Cl
ENDBRANCH   5   6
ENDBRANCH   4   5
ENDBRANCH   2   4
TORSDOF 3
ENDMDL
MODEL 3
REMARK VINA RESULT:      -4.9      3.438      4.958
REMARK  3 active torsions:
REMARK  status: ('A' for Active; 'I' for Inactive)
REMARK    1  A    between atoms: C3_3  and  C5_5 
REMARK    2  A    between atoms: C4_4  and  C6_6 
REMARK    3  A    between atoms: C5_5  and  C6_6 
ROOT
HETATM    1  C1  UNL     1     -33.382   7.260   4.657  1.00 20.00     0.059 C 
HETATM    2  C4  UNL     1     -32.996   7.238   3.239  1.00 20.00     0.124 C 
HETATM    3  N7  UNL     1     -33.687   7.276   5.776  1.00 20.00    -0.197 NA
ENDROOT
BRANCH   2   4
HETATM    4  C6  UNL     1     -31.867   8.224   2.932  1.00 20.00     0.020 C 
BRANCH   4   5
HETATM    5  C5  UNL     1     -31.655   8.431   1.425  1.00 20.00     0.051 C 
BRANCH   5   6
HETATM    6  C3  UNL     1     -32.506   9.544   0.879  1.00 20.00     0.002 C 
HETATM    7  C2  UNL     1     -32.708  10.710   1.504  1.00 20.00     0.032 C 
HETATM    8 CL8  UNL     1     -33.200   9.271  -0.683  1.00 20.00    -0.090 Cl
ENDBRANCH   5   6
ENDBRANCH   4   5
ENDBRANCH   2   4
TORSDOF 3
ENDMDL
MODEL 4
REMARK VINA RESULT:      -4.8      3.117      4.802
REMARK  3 active torsions:
REMARK  status: ('A' for Active; 'I' for Inactive)
REMARK    1  A    between atoms: C3_3  and  C5_5 
REMARK    2  A    between atoms: C4_4  and  C6_6 
REMARK    3  A    between atoms: C5_5  and  C6_6 
ROOT
HETATM    1  C1  UNL     1     -33.356   7.238   4.552  1.00 20.00     0.059 C 
HETATM    2  C4  UNL     1     -32.876   7.158   3.166  1.00 20.00     0.124 C 
HETATM    3  N7  UNL     1     -33.734   7.300   5.647  1.00 20.00    -0.197 NA
ENDROOT
BRANCH   2   4
HETATM    4  C6  UNL     1     -31.905   8.290   2.823  1.00 20.00     0.020 C 
BRANCH   4   5
HETATM    5  C5  UNL     1     -31.665   8.428   1.313  1.00 20.00     0.051 C 
BRANCH   5   6
HETATM    6  C3  UNL     1     -32.525   9.496   0.696  1.00 20.00     0.002 C 
HETATM    7  C2  UNL     1     -33.121   9.383  -0.496  1.00 20.00     0.032 C 
HETATM    8 CL8  UNL     1     -32.771  10.918   1.653  1.00 20.00    -0.090 Cl
ENDBRANCH   5   6
ENDBRANCH   4   5
ENDBRANCH   2   4
TORSDOF 3
ENDMDL
MODEL 5
REMARK VINA RESULT:      -4.8      3.077      4.435
REMARK  3 active torsions:
REMARK  status: ('A' for Active; 'I' for Inactive)
REMARK    1  A    between atoms: C3_3  and  C5_5 
REMARK    2  A    between atoms: C4_4  and  C6_6 
REMARK    3  A    between atoms: C5_5  and  C6_6 
ROOT
HETATM    1  C1  UNL     1     -34.452   4.874   4.989  1.00 20.00     0.059 C 
HETATM    2  C4  UNL     1     -34.481   6.095   5.805  1.00 20.00     0.124 C 
HETATM    3  N7  UNL     1     -34.431   3.910   4.344  1.00 20.00    -0.197 NA
ENDROOT
BRANCH   2   4
HETATM    4  C6  UNL     1     -33.669   7.230   5.178  1.00 20.00     0.020 C 
BRANCH   4   5
HETATM    5  C5  UNL     1     -33.648   7.167   3.644  1.00 20.00     0.051 C 
BRANCH   5   6
HETATM    6  C3  UNL     1     -32.495   7.933   3.059  1.00 20.00     0.002 C 
HETATM    7  C2  UNL     1     -31.350   8.176   3.707  1.00 20.00     0.032 C 
HETATM    8 CL8  UNL     1     -32.691   8.465   1.423  1.00 20.00    -0.090 Cl
ENDBRANCH   5   6
ENDBRANCH   4   5
ENDBRANCH   2   4
TORSDOF 3
ENDMDL
MODEL 6
REMARK VINA RESULT:      -4.8      3.323      4.952
REMARK  3 active torsions:
REMARK  status: ('A' for Active; 'I' for Inactive)
REMARK    1  A    between atoms: C3_3  and  C5_5 
REMARK    2  A    between atoms: C4_4  and  C6_6 
REMARK    3  A    between atoms: C5_5  and  C6_6 
ROOT
HETATM    1  C1  UNL     1     -34.234   6.092   3.603  1.00 20.00     0.059 C 
HETATM    2  C4  UNL     1     -33.281   6.509   2.565  1.00 20.00     0.124 C 
HETATM    3  N7  UNL     1     -34.985   5.761   4.423  1.00 20.00    -0.197 NA
ENDROOT
BRANCH   2   4
HETATM    4  C6  UNL     1     -32.604   7.840   2.902  1.00 20.00     0.020 C 
BRANCH   4   5
HETATM    5  C5  UNL     1     -31.792   8.405   1.728  1.00 20.00     0.051 C 
BRANCH   5   6
HETATM    6  C3  UNL     1     -32.527   9.497   1.002  1.00 20.00     0.002 C 
HETATM    7  C2  UNL     1     -32.717  10.728   1.492  1.00 20.00     0.032 C 
HETATM    8 CL8  UNL     1     -33.094   9.104  -0.586  1.00 20.00    -0.090 Cl
ENDBRANCH   5   6
ENDBRANCH   4   5
ENDBRANCH   2   4
TORSDOF 3
ENDMDL
MODEL 7
REMARK VINA RESULT:      -4.7      1.684      1.897
REMARK  3 active torsions:
REMARK  status: ('A' for Active; 'I' for Inactive)
REMARK    1  A    between atoms: C3_3  and  C5_5 
REMARK    2  A    between atoms: C4_4  and  C6_6 
REMARK    3  A    between atoms: C5_5  and  C6_6 
ROOT
HETATM    1  C1  UNL     1     -31.985   7.902   3.017  1.00 20.00     0.059 C 
HETATM    2  C4  UNL     1     -32.937   7.231   2.122  1.00 20.00     0.124 C 
HETATM    3  N7  UNL     1     -31.234   8.434   3.724  1.00 20.00    -0.197 NA
ENDROOT
BRANCH   2   4
HETATM    4  C6  UNL     1     -33.557   5.988   2.763  1.00 20.00     0.020 C 
BRANCH   4   5
HETATM    5  C5  UNL     1     -34.715   6.326   3.713  1.00 20.00     0.051 C 
BRANCH   5   6
HETATM    6  C3  UNL     1     -34.331   6.166   5.157  1.00 20.00     0.002 C 
HETATM    7  C2  UNL     1     -33.902   7.168   5.935  1.00 20.00     0.032 C 
HETATM    8 CL8  UNL     1     -34.527   4.580   5.823  1.00 20.00    -0.090 Cl
ENDBRANCH   5   6
ENDBRANCH   4   5
ENDBRANCH   2   4
TORSDOF 3
ENDMDL
MODEL 8
REMARK VINA RESULT:      -4.6      2.767      4.064
REMARK  3 active torsions:
REMARK  status: ('A' for Active; 'I' for Inactive)
REMARK    1  A    between atoms: C3_3  and  C5_5 
REMARK    2  A    between atoms: C4_4  and  C6_6 
REMARK    3  A    between atoms: C5_5  and  C6_6 
ROOT
HETATM    1  C1  UNL     1     -34.055   6.630   5.992  1.00 20.00     0.059 C 
HETATM    2  C4  UNL     1     -34.664   5.296   5.899  1.00 20.00     0.124 C 
HETATM    3  N7  UNL     1     -33.572   7.682   6.066  1.00 20.00    -0.197 NA
ENDROOT
BRANCH   2   4
HETATM    4  C6  UNL     1     -34.862   4.850   4.449  1.00 20.00     0.020 C 
BRANCH   4   5
HETATM    5  C5  UNL     1     -34.791   6.018   3.455  1.00 20.00     0.051 C 
BRANCH   5   6
HETATM    6  C3  UNL     1     -33.462   6.088   2.755  1.00 20.00     0.002 C 
HETATM    7  C2  UNL     1     -32.816   7.229   2.485  1.00 20.00     0.032 C 
HETATM    8 CL8  UNL     1     -32.741   4.570   2.342  1.00 20.00    -0.090 Cl
ENDBRANCH   5   6
ENDBRANCH   4   5
ENDBRANCH   2   4
TORSDOF 3
ENDMDL
MODEL 9
REMARK VINA RESULT:      -4.5      3.054      4.225
REMARK  3 active torsions:
REMARK  status: ('A' for Active; 'I' for Inactive)
REMARK    1  A    between atoms: C3_3  and  C5_5 
REMARK    2  A    between atoms: C4_4  and  C6_6 
REMARK    3  A    between atoms: C5_5  and  C6_6 
ROOT
HETATM    1  C1  UNL     1     -34.145   6.494   5.195  1.00 20.00     0.059 C 
HETATM    2  C4  UNL     1     -34.326   5.607   4.038  1.00 20.00     0.124 C 
HETATM    3  N7  UNL     1     -34.002   7.193   6.110  1.00 20.00    -0.197 NA
ENDROOT
BRANCH   2   4
HETATM    4  C6  UNL     1     -33.325   5.903   2.919  1.00 20.00     0.020 C 
BRANCH   4   5
HETATM    5  C5  UNL     1     -33.468   7.325   2.358  1.00 20.00     0.051 C 
BRANCH   5   6
HETATM    6  C3  UNL     1     -32.174   8.089   2.407  1.00 20.00     0.002 C 
HETATM    7  C2  UNL     1     -31.428   8.232   3.510  1.00 20.00     0.032 C 
HETATM    8 CL8  UNL     1     -31.630   8.758   0.906  1.00 20.00    -0.090 Cl
ENDBRANCH   5   6
ENDBRANCH   4   5
ENDBRANCH   2   4
TORSDOF 3
ENDMDL
