MODEL 1
REMARK VINA RESULT:      -4.2      0.000      0.000
REMARK  0 active torsions:
REMARK  status: ('A' for Active; 'I' for Inactive)
ROOT
HETATM    1  C1  UNL     1     -34.357   5.821   5.870  1.00 20.00     0.072 C 
HETATM    2  C2  UNL     1     -33.980   7.292   5.956  1.00 20.00     0.173 C 
HETATM    3  C3  UNL     1     -33.097   6.402   3.994  1.00 20.00     0.255 C 
HETATM    4  C4  UNL     1     -34.314   5.559   4.375  1.00 20.00     0.154 C 
HETATM    5  O5  UNL     1     -33.149   7.579   4.818  1.00 20.00    -0.367 OA
HETATM    6 CL6  UNL     1     -32.972   6.837   2.283  1.00 20.00    -0.092 Cl
HETATM    7 CL7  UNL     1     -34.091   3.840   4.005  1.00 20.00    -0.098 Cl
HETATM    8 CL8  UNL     1     -35.836   6.139   3.625  1.00 20.00    -0.098 Cl
ENDROOT
TORSDOF 0
ENDMDL
MODEL 2
REMARK VINA RESULT:      -3.8      1.536      1.757
REMARK  0 active torsions:
REMARK  status: ('A' for Active; 'I' for Inactive)
ROOT
HETATM    1  C1  UNL     1     -33.729   7.203   4.956  1.00 20.00     0.072 C 
HETATM    2  C2  UNL     1     -33.034   7.847   3.767  1.00 20.00     0.173 C 
HETATM    3  C3  UNL     1     -32.987   5.534   3.504  1.00 20.00     0.255 C 
HETATM    4  C4  UNL     1     -34.188   5.873   4.385  1.00 20.00     0.154 C 
HETATM    5  O5  UNL     1     -32.535   6.779   2.943  1.00 20.00    -0.367 OA
HETATM    6 CL6  UNL     1     -33.283   4.341   2.230  1.00 20.00    -0.092 Cl
HETATM    7 CL7  UNL     1     -34.465   4.663   5.651  1.00 20.00    -0.098 Cl
HETATM    8 CL8  UNL     1     -35.701   6.117   3.453  1.00 20.00    -0.098 Cl
ENDROOT
TORSDOF 0
ENDMDL
MODEL 3
REMARK VINA RESULT:      -3.7      1.715      2.937
REMARK  0 active torsions:
REMARK  status: ('A' for Active; 'I' for Inactive)
ROOT
HETATM    1  C1  UNL     1     -32.693   7.556   2.431  1.00 20.00     0.072 C 
HETATM    2  C2  UNL     1     -31.917   7.898   3.694  1.00 20.00     0.173 C 
HETATM    3  C3  UNL     1     -33.943   6.923   4.298  1.00 20.00     0.255 C 
HETATM    4  C4  UNL     1     -33.590   6.423   2.897  1.00 20.00     0.154 C 
HETATM    5  O5  UNL     1     -32.758   7.555   4.810  1.00 20.00    -0.367 OA
HETATM    6 CL6  UNL     1     -34.535   5.692   5.424  1.00 20.00    -0.092 Cl
HETATM    7 CL7  UNL     1     -35.019   6.235   1.864  1.00 20.00    -0.098 Cl
HETATM    8 CL8  UNL     1     -32.657   4.891   2.909  1.00 20.00    -0.098 Cl
ENDROOT
TORSDOF 0
ENDMDL
MODEL 4
REMARK VINA RESULT:      -3.7      1.604      2.808
REMARK  0 active torsions:
REMARK  status: ('A' for Active; 'I' for Inactive)
ROOT
HETATM    1  C1  UNL     1     -33.711   6.381   2.309  1.00 20.00     0.072 C 
HETATM    2  C2  UNL     1     -32.347   6.883   2.754  1.00 20.00     0.173 C 
HETATM    3  C3  UNL     1     -33.877   7.244   4.471  1.00 20.00     0.255 C 
HETATM    4  C4  UNL     1     -34.394   6.077   3.630  1.00 20.00     0.154 C 
HETATM    5  O5  UNL     1     -32.518   7.467   4.058  1.00 20.00    -0.367 OA
HETATM    6 CL6  UNL     1     -33.973   7.026   6.225  1.00 20.00    -0.092 Cl
HETATM    7 CL7  UNL     1     -36.161   6.076   3.484  1.00 20.00    -0.098 Cl
HETATM    8 CL8  UNL     1     -33.844   4.478   4.230  1.00 20.00    -0.098 Cl
ENDROOT
TORSDOF 0
ENDMDL
MODEL 5
REMARK VINA RESULT:      -3.5      1.879      2.817
REMARK  0 active torsions:
REMARK  status: ('A' for Active; 'I' for Inactive)
ROOT
HETATM    1  C1  UNL     1     -33.363   7.470   3.580  1.00 20.00     0.072 C 
HETATM    2  C2  UNL     1     -32.920   6.748   2.317  1.00 20.00     0.173 C 
HETATM    3  C3  UNL     1     -33.275   5.175   3.997  1.00 20.00     0.255 C 
HETATM    4  C4  UNL     1     -34.141   6.393   4.316  1.00 20.00     0.154 C 
HETATM    5  O5  UNL     1     -32.813   5.352   2.647  1.00 20.00    -0.367 OA
HETATM    6 CL6  UNL     1     -34.063   3.602   4.192  1.00 20.00    -0.092 Cl
HETATM    7 CL7  UNL     1     -34.245   6.717   6.056  1.00 20.00    -0.098 Cl
HETATM    8 CL8  UNL     1     -35.795   6.281   3.630  1.00 20.00    -0.098 Cl
ENDROOT
TORSDOF 0
ENDMDL
MODEL 6
REMARK VINA RESULT:      -3.4      1.865      2.859
REMARK  0 active torsions:
REMARK  status: ('A' for Active; 'I' for Inactive)
ROOT
HETATM    1  C1  UNL     1     -33.688   4.627   3.242  1.00 20.00     0.072 C 
HETATM    2  C2  UNL     1     -34.219   3.890   4.461  1.00 20.00     0.173 C 
HETATM    3  C3  UNL     1     -33.551   6.025   5.105  1.00 20.00     0.255 C 
HETATM    4  C4  UNL     1     -33.905   6.082   3.620  1.00 20.00     0.154 C 
HETATM    5  O5  UNL     1     -34.046   4.765   5.589  1.00 20.00    -0.367 OA
HETATM    6 CL6  UNL     1     -34.163   7.362   6.091  1.00 20.00    -0.092 Cl
HETATM    7 CL7  UNL     1     -32.844   7.173   2.710  1.00 20.00    -0.098 Cl
HETATM    8 CL8  UNL     1     -35.617   6.526   3.319  1.00 20.00    -0.098 Cl
ENDROOT
TORSDOF 0
ENDMDL
MODEL 7
REMARK VINA RESULT:      -3.3     12.215     13.364
REMARK  0 active torsions:
REMARK  status: ('A' for Active; 'I' for Inactive)
ROOT
HETATM    1  C1  UNL     1     -33.101  15.632  -5.204  1.00 20.00     0.072 C 
HETATM    2  C2  UNL     1     -32.846  14.370  -4.395  1.00 20.00     0.173 C 
HETATM    3  C3  UNL     1     -35.132  14.555  -4.797  1.00 20.00     0.255 C 
HETATM    4  C4  UNL     1     -34.405  15.307  -5.912  1.00 20.00     0.154 C 
HETATM    5  O5  UNL     1     -34.129  13.785  -4.112  1.00 20.00    -0.367 OA
HETATM    6 CL6  UNL     1     -36.471  13.522  -5.318  1.00 20.00    -0.092 Cl
HETATM    7 CL7  UNL     1     -35.270  16.769  -6.420  1.00 20.00    -0.098 Cl
HETATM    8 CL8  UNL     1     -34.065  14.286  -7.347  1.00 20.00    -0.098 Cl
ENDROOT
TORSDOF 0
ENDMDL
MODEL 8
REMARK VINA RESULT:      -3.3     12.061     12.848
REMARK  0 active torsions:
REMARK  status: ('A' for Active; 'I' for Inactive)
ROOT
HETATM    1  C1  UNL     1     -33.603  15.932  -3.767  1.00 20.00     0.072 C 
HETATM    2  C2  UNL     1     -32.778  14.887  -4.501  1.00 20.00     0.173 C 
HETATM    3  C3  UNL     1     -34.969  14.121  -4.318  1.00 20.00     0.255 C 
HETATM    4  C4  UNL     1     -35.008  15.648  -4.268  1.00 20.00     0.154 C 
HETATM    5  O5  UNL     1     -33.645  13.767  -4.753  1.00 20.00    -0.367 OA
HETATM    6 CL6  UNL     1     -36.193  13.356  -5.342  1.00 20.00    -0.092 Cl
HETATM    7 CL7  UNL     1     -36.248  16.259  -3.157  1.00 20.00    -0.098 Cl
HETATM    8 CL8  UNL     1     -35.229  16.401  -5.880  1.00 20.00    -0.098 Cl
ENDROOT
TORSDOF 0
ENDMDL
MODEL 9
REMARK VINA RESULT:      -3.3     12.444     13.448
REMARK  0 active torsions:
REMARK  status: ('A' for Active; 'I' for Inactive)
ROOT
HETATM    1  C1  UNL     1     -35.582  14.050  -6.631  1.00 20.00     0.072 C 
HETATM    2  C2  UNL     1     -35.951  13.275  -5.376  1.00 20.00     0.173 C 
HETATM    3  C3  UNL     1     -34.078  14.584  -4.927  1.00 20.00     0.255 C 
HETATM    4  C4  UNL     1     -34.846  15.253  -6.067  1.00 20.00     0.154 C 
HETATM    5  O5  UNL     1     -34.957  13.584  -4.384  1.00 20.00    -0.367 OA
HETATM    6 CL6  UNL     1     -33.496  15.668  -3.655  1.00 20.00    -0.092 Cl
HETATM    7 CL7  UNL     1     -33.771  15.999  -7.263  1.00 20.00    -0.098 Cl
HETATM    8 CL8  UNL     1     -36.038  16.466  -5.497  1.00 20.00    -0.098 Cl
ENDROOT
TORSDOF 0
ENDMDL
