MODEL 1
REMARK VINA RESULT:      -6.1      0.000      0.000
REMARK  1 active torsions:
REMARK  status: ('A' for Active; 'I' for Inactive)
REMARK    1  A    between atoms: C9_9  and  O10_10 
ROOT
HETATM    1  C1  UNL     1     -31.781   8.526   2.248  1.00 20.00     0.001 C 
HETATM    2  C2  UNL     1     -32.026   8.771   3.745  1.00 20.00     0.005 C 
HETATM    3  C3  UNL     1     -32.574   7.264   1.874  1.00 20.00     0.005 C 
HETATM    4  C4  UNL     1     -33.446   7.513   5.519  1.00 20.00     0.007 C 
HETATM    5  C5  UNL     1     -34.082   6.141   5.773  1.00 20.00     0.032 C 
HETATM    6  C6  UNL     1     -34.073   5.663   3.262  1.00 20.00     0.036 C 
HETATM    7  C7  UNL     1     -32.633   7.464   4.235  1.00 20.00    -0.010 C 
HETATM    8  C8  UNL     1     -33.512   7.059   3.055  1.00 20.00    -0.008 C 
HETATM    9  C9  UNL     1     -34.881   5.622   4.566  1.00 20.00     0.118 C 
ENDROOT
BRANCH   9  10
HETATM   10  O10 UNL     1     -35.289   4.279   4.806  1.00 20.00    -0.396 OA
HETATM   11  H26 UNL     1     -36.248   4.250   4.659  1.00 20.00     0.210 HD
ENDBRANCH   9  10
TORSDOF 1
ENDMDL
MODEL 2
REMARK VINA RESULT:      -5.4      2.212      4.228
REMARK  1 active torsions:
REMARK  status: ('A' for Active; 'I' for Inactive)
REMARK    1  A    between atoms: C9_9  and  O10_10 
ROOT
HETATM    1  C1  UNL     1     -34.785   5.150   5.969  1.00 20.00     0.001 C 
HETATM    2  C2  UNL     1     -34.759   4.709   4.497  1.00 20.00     0.005 C 
HETATM    3  C3  UNL     1     -34.015   6.479   6.042  1.00 20.00     0.005 C 
HETATM    4  C4  UNL     1     -33.739   5.780   2.362  1.00 20.00     0.007 C 
HETATM    5  C5  UNL     1     -32.673   6.797   1.940  1.00 20.00     0.032 C 
HETATM    6  C6  UNL     1     -32.800   7.900   4.243  1.00 20.00     0.036 C 
HETATM    7  C7  UNL     1     -33.687   5.589   3.870  1.00 20.00    -0.010 C 
HETATM    8  C8  UNL     1     -33.906   6.918   4.590  1.00 20.00    -0.008 C 
HETATM    9  C9  UNL     1     -32.764   8.117   2.723  1.00 20.00     0.118 C 
ENDROOT
BRANCH   9  10
HETATM   10  O10 UNL     1     -31.644   8.938   2.408  1.00 20.00    -0.396 OA
HETATM   11  H26 UNL     1     -31.712   9.149   1.463  1.00 20.00     0.210 HD
ENDBRANCH   9  10
TORSDOF 1
ENDMDL
MODEL 3
REMARK VINA RESULT:      -5.2      2.245      3.765
REMARK  1 active torsions:
REMARK  status: ('A' for Active; 'I' for Inactive)
REMARK    1  A    between atoms: C9_9  and  O10_10 
ROOT
HETATM    1  C1  UNL     1     -34.907   5.578   5.237  1.00 20.00     0.001 C 
HETATM    2  C2  UNL     1     -33.958   6.627   5.839  1.00 20.00     0.005 C 
HETATM    3  C3  UNL     1     -34.681   5.604   3.718  1.00 20.00     0.005 C 
HETATM    4  C4  UNL     1     -32.215   8.231   4.775  1.00 20.00     0.007 C 
HETATM    5  C5  UNL     1     -31.863   8.876   3.430  1.00 20.00     0.032 C 
HETATM    6  C6  UNL     1     -33.123   7.021   2.202  1.00 20.00     0.036 C 
HETATM    7  C7  UNL     1     -33.510   7.447   4.638  1.00 20.00    -0.010 C 
HETATM    8  C8  UNL     1     -33.383   6.380   3.554  1.00 20.00    -0.008 C 
HETATM    9  C9  UNL     1     -31.843   7.866   2.271  1.00 20.00     0.118 C 
ENDROOT
BRANCH   9  10
HETATM   10  O10 UNL     1     -31.688   8.558   1.037  1.00 20.00    -0.396 OA
HETATM   11  H26 UNL     1     -30.975   8.109   0.555  1.00 20.00     0.210 HD
ENDBRANCH   9  10
TORSDOF 1
ENDMDL
MODEL 4
REMARK VINA RESULT:      -4.9      0.799      2.105
REMARK  1 active torsions:
REMARK  status: ('A' for Active; 'I' for Inactive)
REMARK    1  A    between atoms: C9_9  and  O10_10 
ROOT
HETATM    1  C1  UNL     1     -31.572   8.760   2.572  1.00 20.00     0.001 C 
HETATM    2  C2  UNL     1     -32.431   7.708   1.853  1.00 20.00     0.005 C 
HETATM    3  C3  UNL     1     -31.894   8.640   4.069  1.00 20.00     0.005 C 
HETATM    4  C4  UNL     1     -34.133   5.946   2.715  1.00 20.00     0.007 C 
HETATM    5  C5  UNL     1     -35.021   5.650   3.929  1.00 20.00     0.032 C 
HETATM    6  C6  UNL     1     -33.515   7.107   5.395  1.00 20.00     0.036 C 
HETATM    7  C7  UNL     1     -33.456   7.295   2.899  1.00 20.00    -0.010 C 
HETATM    8  C8  UNL     1     -32.625   7.310   4.181  1.00 20.00    -0.008 C 
HETATM    9  C9  UNL     1     -34.267   5.774   5.263  1.00 20.00     0.118 C 
ENDROOT
BRANCH   9  10
HETATM   10  O10 UNL     1     -35.187   5.663   6.344  1.00 20.00    -0.396 OA
HETATM   11  H26 UNL     1     -35.886   5.056   6.052  1.00 20.00     0.210 HD
ENDBRANCH   9  10
TORSDOF 1
ENDMDL
MODEL 5
REMARK VINA RESULT:      -4.6     11.675     12.103
REMARK  1 active torsions:
REMARK  status: ('A' for Active; 'I' for Inactive)
REMARK    1  A    between atoms: C9_9  and  O10_10 
ROOT
HETATM    1  C1  UNL     1     -34.461  17.664  -1.355  1.00 20.00     0.001 C 
HETATM    2  C2  UNL     1     -35.783  17.129  -1.929  1.00 20.00     0.005 C 
HETATM    3  C3  UNL     1     -33.334  17.016  -2.174  1.00 20.00     0.005 C 
HETATM    4  C4  UNL     1     -36.316  15.495  -3.876  1.00 20.00     0.007 C 
HETATM    5  C5  UNL     1     -35.659  14.389  -4.710  1.00 20.00     0.032 C 
HETATM    6  C6  UNL     1     -33.348  15.325  -4.142  1.00 20.00     0.036 C 
HETATM    7  C7  UNL     1     -35.357  15.944  -2.785  1.00 20.00    -0.010 C 
HETATM    8  C8  UNL     1     -34.047  16.443  -3.389  1.00 20.00    -0.008 C 
HETATM    9  C9  UNL     1     -34.273  14.790  -5.244  1.00 20.00     0.118 C 
ENDROOT
BRANCH   9  10
HETATM   10  O10 UNL     1     -33.652  13.662  -5.851  1.00 20.00    -0.396 OA
HETATM   11  H26 UNL     1     -34.292  13.300  -6.485  1.00 20.00     0.210 HD
ENDBRANCH   9  10
TORSDOF 1
ENDMDL
MODEL 6
REMARK VINA RESULT:      -4.4     11.590     12.082
REMARK  1 active torsions:
REMARK  status: ('A' for Active; 'I' for Inactive)
REMARK    1  A    between atoms: C9_9  and  O10_10 
ROOT
HETATM    1  C1  UNL     1     -34.308  16.890  -2.887  1.00 20.00     0.001 C 
HETATM    2  C2  UNL     1     -33.222  17.778  -2.258  1.00 20.00     0.005 C 
HETATM    3  C3  UNL     1     -35.389  16.692  -1.813  1.00 20.00     0.005 C 
HETATM    4  C4  UNL     1     -32.995  18.880   0.082  1.00 20.00     0.007 C 
HETATM    5  C5  UNL     1     -33.528  18.745   1.513  1.00 20.00     0.032 C 
HETATM    6  C6  UNL     1     -35.598  17.528   0.635  1.00 20.00     0.036 C 
HETATM    7  C7  UNL     1     -33.538  17.744  -0.770  1.00 20.00    -0.010 C 
HETATM    8  C8  UNL     1     -35.065  17.751  -0.769  1.00 20.00    -0.008 C 
HETATM    9  C9  UNL     1     -35.060  18.621   1.569  1.00 20.00     0.118 C 
ENDROOT
BRANCH   9  10
HETATM   10  O10 UNL     1     -35.466  18.321   2.900  1.00 20.00    -0.396 OA
HETATM   11  H26 UNL     1     -36.359  18.687   3.007  1.00 20.00     0.210 HD
ENDBRANCH   9  10
TORSDOF 1
ENDMDL
MODEL 7
REMARK VINA RESULT:      -4.1     11.703     12.283
REMARK  1 active torsions:
REMARK  status: ('A' for Active; 'I' for Inactive)
REMARK    1  A    between atoms: C9_9  and  O10_10 
ROOT
HETATM    1  C1  UNL     1     -33.375  19.200   1.953  1.00 20.00     0.001 C 
HETATM    2  C2  UNL     1     -32.496  18.861   0.739  1.00 20.00     0.005 C 
HETATM    3  C3  UNL     1     -34.793  18.713   1.618  1.00 20.00     0.005 C 
HETATM    4  C4  UNL     1     -33.007  17.695  -1.525  1.00 20.00     0.007 C 
HETATM    5  C5  UNL     1     -34.184  17.365  -2.450  1.00 20.00     0.032 C 
HETATM    6  C6  UNL     1     -35.798  17.557  -0.476  1.00 20.00     0.036 C 
HETATM    7  C7  UNL     1     -33.499  18.539  -0.360  1.00 20.00    -0.010 C 
HETATM    8  C8  UNL     1     -34.593  17.806   0.413  1.00 20.00    -0.008 C 
HETATM    9  C9  UNL     1     -35.372  16.736  -1.702  1.00 20.00     0.118 C 
ENDROOT
BRANCH   9  10
HETATM   10  O10 UNL     1     -36.485  16.624  -2.583  1.00 20.00    -0.396 OA
HETATM   11  H26 UNL     1     -37.047  17.398  -2.420  1.00 20.00     0.210 HD
ENDBRANCH   9  10
TORSDOF 1
ENDMDL
MODEL 8
REMARK VINA RESULT:      -4.1     11.642     12.046
REMARK  1 active torsions:
REMARK  status: ('A' for Active; 'I' for Inactive)
REMARK    1  A    between atoms: C9_9  and  O10_10 
ROOT
HETATM    1  C1  UNL     1     -34.635  17.596  -1.658  1.00 20.00     0.001 C 
HETATM    2  C2  UNL     1     -33.429  16.933  -2.343  1.00 20.00     0.005 C 
HETATM    3  C3  UNL     1     -35.893  16.980  -2.291  1.00 20.00     0.005 C 
HETATM    4  C4  UNL     1     -33.242  15.114  -4.187  1.00 20.00     0.007 C 
HETATM    5  C5  UNL     1     -34.065  14.476  -5.312  1.00 20.00     0.032 C 
HETATM    6  C6  UNL     1     -36.225  15.205  -4.154  1.00 20.00     0.036 C 
HETATM    7  C7  UNL     1     -34.031  16.256  -3.566  1.00 20.00    -0.010 C 
HETATM    8  C8  UNL     1     -35.369  15.756  -3.027  1.00 20.00    -0.008 C 
HETATM    9  C9  UNL     1     -35.476  14.065  -4.859  1.00 20.00     0.118 C 
ENDROOT
BRANCH   9  10
HETATM   10  O10 UNL     1     -36.238  13.649  -5.987  1.00 20.00    -0.396 OA
HETATM   11  H26 UNL     1     -35.715  13.875  -6.773  1.00 20.00     0.210 HD
ENDBRANCH   9  10
TORSDOF 1
ENDMDL
MODEL 9
REMARK VINA RESULT:      -4.1     11.441     12.946
REMARK  1 active torsions:
REMARK  status: ('A' for Active; 'I' for Inactive)
REMARK    1  A    between atoms: C9_9  and  O10_10 
ROOT
HETATM    1  C1  UNL     1     -34.206  18.319  -6.476  1.00 20.00     0.001 C 
HETATM    2  C2  UNL     1     -33.607  17.811  -5.155  1.00 20.00     0.005 C 
HETATM    3  C3  UNL     1     -35.105  17.193  -7.010  1.00 20.00     0.005 C 
HETATM    4  C4  UNL     1     -33.887  15.588  -3.841  1.00 20.00     0.007 C 
HETATM    5  C5  UNL     1     -34.321  14.133  -4.052  1.00 20.00     0.032 C 
HETATM    6  C6  UNL     1     -35.667  14.825  -6.112  1.00 20.00     0.036 C 
HETATM    7  C7  UNL     1     -33.888  16.315  -5.177  1.00 20.00    -0.010 C 
HETATM    8  C8  UNL     1     -35.271  16.261  -5.820  1.00 20.00    -0.008 C 
HETATM    9  C9  UNL     1     -35.653  14.012  -4.810  1.00 20.00     0.118 C 
ENDROOT
BRANCH   9  10
HETATM   10  O10 UNL     1     -35.901  12.646  -5.124  1.00 20.00    -0.396 OA
HETATM   11  H26 UNL     1     -36.232  12.230  -4.312  1.00 20.00     0.210 HD
ENDBRANCH   9  10
TORSDOF 1
ENDMDL
