MODEL 1
REMARK VINA RESULT:      -5.8      0.000      0.000
REMARK  4 active torsions:
REMARK  status: ('A' for Active; 'I' for Inactive)
REMARK    1  A    between atoms: C1_1  and  C6_6 
REMARK    2  A    between atoms: C6_6  and  C8_8 
REMARK    3  A    between atoms: C7_7  and  C8_8 
REMARK    4  A    between atoms: C7_7  and  C9_9 
ROOT
HETATM    1  C2  UNL     1     -31.347   8.335   3.725  1.00 20.00     0.010 C 
HETATM    2  C8  UNL     1     -32.474   7.436   3.197  1.00 20.00    -0.010 C 
ENDROOT
BRANCH   2   3
HETATM    3  C6  UNL     1     -33.137   8.152   2.002  1.00 20.00     0.100 C 
BRANCH   3   4
HETATM    4  C1  UNL     1     -32.175   9.020   1.206  1.00 20.00     0.219 C 
HETATM    5  O10 UNL     1     -31.199   8.568   0.617  1.00 20.00    -0.280 OA
HETATM    6 CL11 UNL     1     -32.608  10.706   1.291  1.00 20.00    -0.044 Cl
ENDBRANCH   3   4
ENDBRANCH   2   3
BRANCH   2   7
HETATM    7  C7  UNL     1     -33.518   7.137   4.304  1.00 20.00     0.013 C 
BRANCH   7   8
HETATM    8  C9  UNL     1     -34.273   5.779   4.225  1.00 20.00    -0.051 C 
HETATM    9  C3  UNL     1     -35.656   6.040   3.592  1.00 20.00     0.014 C 
HETATM   10  C4  UNL     1     -34.488   5.142   5.604  1.00 20.00     0.014 C 
HETATM   11  C5  UNL     1     -33.518   4.785   3.324  1.00 20.00     0.014 C 
ENDBRANCH   7   8
ENDBRANCH   2   7
TORSDOF 4
ENDMDL
MODEL 2
REMARK VINA RESULT:      -5.7      0.062      1.295
REMARK  4 active torsions:
REMARK  status: ('A' for Active; 'I' for Inactive)
REMARK    1  A    between atoms: C1_1  and  C6_6 
REMARK    2  A    between atoms: C6_6  and  C8_8 
REMARK    3  A    between atoms: C7_7  and  C8_8 
REMARK    4  A    between atoms: C7_7  and  C9_9 
ROOT
HETATM    1  C2  UNL     1     -31.336   8.345   3.676  1.00 20.00     0.010 C 
HETATM    2  C8  UNL     1     -32.460   7.434   3.163  1.00 20.00    -0.010 C 
ENDROOT
BRANCH   2   3
HETATM    3  C6  UNL     1     -33.125   8.128   1.956  1.00 20.00     0.100 C 
BRANCH   3   4
HETATM    4  C1  UNL     1     -32.178   9.027   1.177  1.00 20.00     0.219 C 
HETATM    5  O10 UNL     1     -31.191   8.603   0.585  1.00 20.00    -0.280 OA
HETATM    6 CL11 UNL     1     -32.645  10.703   1.284  1.00 20.00    -0.044 Cl
ENDBRANCH   3   4
ENDBRANCH   2   3
BRANCH   2   7
HETATM    7  C7  UNL     1     -33.503   7.152   4.275  1.00 20.00     0.013 C 
BRANCH   7   8
HETATM    8  C9  UNL     1     -34.288   5.810   4.193  1.00 20.00    -0.051 C 
HETATM    9  C3  UNL     1     -34.476   5.281   5.630  1.00 20.00     0.014 C 
HETATM   10  C4  UNL     1     -33.546   4.742   3.380  1.00 20.00     0.014 C 
HETATM   11  C5  UNL     1     -35.683   6.029   3.581  1.00 20.00     0.014 C 
ENDBRANCH   7   8
ENDBRANCH   2   7
TORSDOF 4
ENDMDL
MODEL 3
REMARK VINA RESULT:      -5.7      2.964      4.814
REMARK  4 active torsions:
REMARK  status: ('A' for Active; 'I' for Inactive)
REMARK    1  A    between atoms: C1_1  and  C6_6 
REMARK    2  A    between atoms: C6_6  and  C8_8 
REMARK    3  A    between atoms: C7_7  and  C8_8 
REMARK    4  A    between atoms: C7_7  and  C9_9 
ROOT
HETATM    1  C2  UNL     1     -32.936   4.963   2.445  1.00 20.00     0.010 C 
HETATM    2  C8  UNL     1     -33.241   6.353   3.019  1.00 20.00    -0.010 C 
ENDROOT
BRANCH   2   3
HETATM    3  C6  UNL     1     -34.571   6.267   3.797  1.00 20.00     0.100 C 
BRANCH   3   4
HETATM    4  C1  UNL     1     -34.387   6.049   5.291  1.00 20.00     0.219 C 
HETATM    5  O10 UNL     1     -34.755   5.031   5.867  1.00 20.00    -0.280 OA
HETATM    6 CL11 UNL     1     -33.651   7.430   6.058  1.00 20.00    -0.044 Cl
ENDBRANCH   3   4
ENDBRANCH   2   3
BRANCH   2   7
HETATM    7  C7  UNL     1     -33.333   7.416   1.894  1.00 20.00     0.013 C 
BRANCH   7   8
HETATM    8  C9  UNL     1     -32.271   8.554   1.899  1.00 20.00    -0.051 C 
HETATM    9  C3  UNL     1     -31.479   8.459   3.220  1.00 20.00     0.014 C 
HETATM   10  C4  UNL     1     -32.901   9.950   1.816  1.00 20.00     0.014 C 
HETATM   11  C5  UNL     1     -31.278   8.380   0.736  1.00 20.00     0.014 C 
ENDBRANCH   7   8
ENDBRANCH   2   7
TORSDOF 4
ENDMDL
MODEL 4
REMARK VINA RESULT:      -5.7      2.974      4.821
REMARK  4 active torsions:
REMARK  status: ('A' for Active; 'I' for Inactive)
REMARK    1  A    between atoms: C1_1  and  C6_6 
REMARK    2  A    between atoms: C6_6  and  C8_8 
REMARK    3  A    between atoms: C7_7  and  C8_8 
REMARK    4  A    between atoms: C7_7  and  C9_9 
ROOT
HETATM    1  C2  UNL     1     -32.960   4.934   2.434  1.00 20.00     0.010 C 
HETATM    2  C8  UNL     1     -33.255   6.320   3.024  1.00 20.00    -0.010 C 
ENDROOT
BRANCH   2   3
HETATM    3  C6  UNL     1     -34.589   6.237   3.796  1.00 20.00     0.100 C 
BRANCH   3   4
HETATM    4  C1  UNL     1     -34.411   6.026   5.292  1.00 20.00     0.219 C 
HETATM    5  O10 UNL     1     -34.779   5.009   5.870  1.00 20.00    -0.280 OA
HETATM    6 CL11 UNL     1     -33.681   7.411   6.056  1.00 20.00    -0.044 Cl
ENDBRANCH   3   4
ENDBRANCH   2   3
BRANCH   2   7
HETATM    7  C7  UNL     1     -33.334   7.397   1.911  1.00 20.00     0.013 C 
BRANCH   7   8
HETATM    8  C9  UNL     1     -32.242   8.508   1.915  1.00 20.00    -0.051 C 
HETATM    9  C3  UNL     1     -32.955   9.874   1.836  1.00 20.00     0.014 C 
HETATM   10  C4  UNL     1     -31.284   8.395   0.722  1.00 20.00     0.014 C 
HETATM   11  C5  UNL     1     -31.428   8.470   3.220  1.00 20.00     0.014 C 
ENDBRANCH   7   8
ENDBRANCH   2   7
TORSDOF 4
ENDMDL
MODEL 5
REMARK VINA RESULT:      -5.6      2.982      4.823
REMARK  4 active torsions:
REMARK  status: ('A' for Active; 'I' for Inactive)
REMARK    1  A    between atoms: C1_1  and  C6_6 
REMARK    2  A    between atoms: C6_6  and  C8_8 
REMARK    3  A    between atoms: C7_7  and  C8_8 
REMARK    4  A    between atoms: C7_7  and  C9_9 
ROOT
HETATM    1  C2  UNL     1     -32.964   4.936   2.434  1.00 20.00     0.010 C 
HETATM    2  C8  UNL     1     -33.261   6.320   3.029  1.00 20.00    -0.010 C 
ENDROOT
BRANCH   2   3
HETATM    3  C6  UNL     1     -34.597   6.234   3.797  1.00 20.00     0.100 C 
BRANCH   3   4
HETATM    4  C1  UNL     1     -34.424   6.003   5.290  1.00 20.00     0.219 C 
HETATM    5  O10 UNL     1     -34.773   4.969   5.850  1.00 20.00    -0.280 OA
HETATM    6 CL11 UNL     1     -33.731   7.393   6.080  1.00 20.00    -0.044 Cl
ENDBRANCH   3   4
ENDBRANCH   2   3
BRANCH   2   7
HETATM    7  C7  UNL     1     -33.337   7.401   1.920  1.00 20.00     0.013 C 
BRANCH   7   8
HETATM    8  C9  UNL     1     -32.262   8.528   1.948  1.00 20.00    -0.051 C 
HETATM    9  C3  UNL     1     -31.336   8.331   0.730  1.00 20.00     0.014 C 
HETATM   10  C4  UNL     1     -31.402   8.490   3.218  1.00 20.00     0.014 C 
HETATM   11  C5  UNL     1     -32.920   9.914   1.827  1.00 20.00     0.014 C 
ENDBRANCH   7   8
ENDBRANCH   2   7
TORSDOF 4
ENDMDL
MODEL 6
REMARK VINA RESULT:      -5.1      3.092      4.990
REMARK  4 active torsions:
REMARK  status: ('A' for Active; 'I' for Inactive)
REMARK    1  A    between atoms: C1_1  and  C6_6 
REMARK    2  A    between atoms: C6_6  and  C8_8 
REMARK    3  A    between atoms: C7_7  and  C8_8 
REMARK    4  A    between atoms: C7_7  and  C9_9 
ROOT
HETATM    1  C2  UNL     1     -32.998   5.263   2.619  1.00 20.00     0.010 C 
HETATM    2  C8  UNL     1     -32.852   6.712   3.105  1.00 20.00    -0.010 C 
ENDROOT
BRANCH   2   3
HETATM    3  C6  UNL     1     -33.769   6.899   4.332  1.00 20.00     0.100 C 
BRANCH   3   4
HETATM    4  C1  UNL     1     -34.878   5.863   4.424  1.00 20.00     0.219 C 
HETATM    5  O10 UNL     1     -35.877   5.891   3.712  1.00 20.00    -0.280 OA
HETATM    6 CL11 UNL     1     -34.570   4.697   5.681  1.00 20.00    -0.044 Cl
ENDBRANCH   3   4
ENDBRANCH   2   3
BRANCH   2   7
HETATM    7  C7  UNL     1     -33.225   7.718   1.985  1.00 20.00     0.013 C 
BRANCH   7   8
HETATM    8  C9  UNL     1     -32.201   8.847   1.672  1.00 20.00    -0.051 C 
HETATM    9  C3  UNL     1     -31.258   8.985   2.886  1.00 20.00     0.014 C 
HETATM   10  C4  UNL     1     -32.876  10.204   1.431  1.00 20.00     0.014 C 
HETATM   11  C5  UNL     1     -31.346   8.485   0.444  1.00 20.00     0.014 C 
ENDBRANCH   7   8
ENDBRANCH   2   7
TORSDOF 4
ENDMDL
MODEL 7
REMARK VINA RESULT:      -5.0      3.024      4.992
REMARK  4 active torsions:
REMARK  status: ('A' for Active; 'I' for Inactive)
REMARK    1  A    between atoms: C1_1  and  C6_6 
REMARK    2  A    between atoms: C6_6  and  C8_8 
REMARK    3  A    between atoms: C7_7  and  C8_8 
REMARK    4  A    between atoms: C7_7  and  C9_9 
ROOT
HETATM    1  C2  UNL     1     -32.841   5.783   2.395  1.00 20.00     0.010 C 
HETATM    2  C8  UNL     1     -32.858   7.231   2.906  1.00 20.00    -0.010 C 
ENDROOT
BRANCH   2   3
HETATM    3  C6  UNL     1     -33.609   7.253   4.255  1.00 20.00     0.100 C 
BRANCH   3   4
HETATM    4  C1  UNL     1     -34.656   6.158   4.383  1.00 20.00     0.219 C 
HETATM    5  O10 UNL     1     -35.613   6.058   3.623  1.00 20.00    -0.280 OA
HETATM    6 CL11 UNL     1     -34.346   5.127   5.754  1.00 20.00    -0.044 Cl
ENDBRANCH   3   4
ENDBRANCH   2   3
BRANCH   2   7
HETATM    7  C7  UNL     1     -33.541   8.177   1.885  1.00 20.00     0.013 C 
BRANCH   7   8
HETATM    8  C9  UNL     1     -32.617   9.111   1.050  1.00 20.00    -0.051 C 
HETATM    9  C3  UNL     1     -33.115   9.091  -0.410  1.00 20.00     0.014 C 
HETATM   10  C4  UNL     1     -31.152   8.657   1.065  1.00 20.00     0.014 C 
HETATM   11  C5  UNL     1     -32.700  10.561   1.561  1.00 20.00     0.014 C 
ENDBRANCH   7   8
ENDBRANCH   2   7
TORSDOF 4
ENDMDL
MODEL 8
REMARK VINA RESULT:      -4.9      3.055      5.001
REMARK  4 active torsions:
REMARK  status: ('A' for Active; 'I' for Inactive)
REMARK    1  A    between atoms: C1_1  and  C6_6 
REMARK    2  A    between atoms: C6_6  and  C8_8 
REMARK    3  A    between atoms: C7_7  and  C8_8 
REMARK    4  A    between atoms: C7_7  and  C9_9 
ROOT
HETATM    1  C2  UNL     1     -31.534   8.028   3.552  1.00 20.00     0.010 C 
HETATM    2  C8  UNL     1     -32.985   7.880   3.073  1.00 20.00    -0.010 C 
ENDROOT
BRANCH   2   3
HETATM    3  C6  UNL     1     -33.544   6.559   3.643  1.00 20.00     0.100 C 
BRANCH   3   4
HETATM    4  C1  UNL     1     -33.984   6.663   5.095  1.00 20.00     0.219 C 
HETATM    5  O10 UNL     1     -33.821   7.674   5.770  1.00 20.00    -0.280 OA
HETATM    6 CL11 UNL     1     -34.682   5.172   5.665  1.00 20.00    -0.044 Cl
ENDBRANCH   3   4
ENDBRANCH   2   3
BRANCH   2   7
HETATM    7  C7  UNL     1     -33.067   7.886   1.525  1.00 20.00     0.013 C 
BRANCH   7   8
HETATM    8  C9  UNL     1     -32.558   9.160   0.789  1.00 20.00    -0.051 C 
HETATM    9  C3  UNL     1     -31.052   8.975   0.505  1.00 20.00     0.014 C 
HETATM   10  C4  UNL     1     -32.736  10.435   1.624  1.00 20.00     0.014 C 
HETATM   11  C5  UNL     1     -33.278   9.337  -0.560  1.00 20.00     0.014 C 
ENDBRANCH   7   8
ENDBRANCH   2   7
TORSDOF 4
ENDMDL
MODEL 9
REMARK VINA RESULT:      -4.5     10.515     11.600
REMARK  4 active torsions:
REMARK  status: ('A' for Active; 'I' for Inactive)
REMARK    1  A    between atoms: C1_1  and  C6_6 
REMARK    2  A    between atoms: C6_6  and  C8_8 
REMARK    3  A    between atoms: C7_7  and  C8_8 
REMARK    4  A    between atoms: C7_7  and  C9_9 
ROOT
HETATM    1  C2  UNL     1     -32.880  14.249  -4.200  1.00 20.00     0.010 C 
HETATM    2  C8  UNL     1     -34.107  15.154  -4.019  1.00 20.00    -0.010 C 
ENDROOT
BRANCH   2   3
HETATM    3  C6  UNL     1     -35.014  14.983  -5.256  1.00 20.00     0.100 C 
BRANCH   3   4
HETATM    4  C1  UNL     1     -36.100  13.935  -5.071  1.00 20.00     0.219 C 
HETATM    5  O10 UNL     1     -35.901  12.734  -5.223  1.00 20.00    -0.280 OA
HETATM    6 CL11 UNL     1     -37.635  14.660  -4.678  1.00 20.00    -0.044 Cl
ENDBRANCH   3   4
ENDBRANCH   2   3
BRANCH   2   7
HETATM    7  C7  UNL     1     -33.688  16.637  -3.848  1.00 20.00     0.013 C 
BRANCH   7   8
HETATM    8  C9  UNL     1     -34.264  17.404  -2.622  1.00 20.00    -0.051 C 
HETATM    9  C3  UNL     1     -33.107  17.659  -1.634  1.00 20.00     0.014 C 
HETATM   10  C4  UNL     1     -35.355  16.611  -1.890  1.00 20.00     0.014 C 
HETATM   11  C5  UNL     1     -34.835  18.768  -3.049  1.00 20.00     0.014 C 
ENDBRANCH   7   8
ENDBRANCH   2   7
TORSDOF 4
ENDMDL
