MODEL 1
REMARK VINA RESULT:      -4.9      0.000      0.000
REMARK  3 active torsions:
REMARK  status: ('A' for Active; 'I' for Inactive)
REMARK    1  A    between atoms: C4_4  and  C6_6 
REMARK    2  A    between atoms: C5_5  and  C6_6 
REMARK    3  A    between atoms: C6_6  and  N7_7 
ROOT
HETATM    1  C1  UNL     1     -32.304   8.223   2.299  1.00 20.00     0.158 C 
HETATM    2  N7  UNL     1     -32.354   7.424   3.156  1.00 20.00    -0.270 NA
HETATM    3  S8  UNL     1     -32.199   9.302   1.133  1.00 20.00    -0.055 SA
ENDROOT
BRANCH   2   4
HETATM    4  C6  UNL     1     -33.701   7.190   3.697  1.00 20.00     0.109 C 
BRANCH   4   5
HETATM    5  C4  UNL     1     -33.628   7.225   5.227  1.00 20.00     0.023 C 
HETATM    6  C2  UNL     1     -34.407   6.088   5.876  1.00 20.00     0.007 C 
ENDBRANCH   4   5
BRANCH   4   7
HETATM    7  C5  UNL     1     -34.195   5.824   3.204  1.00 20.00     0.023 C 
HETATM    8  C3  UNL     1     -33.078   4.950   2.711  1.00 20.00     0.007 C 
ENDBRANCH   4   7
ENDBRANCH   2   4
TORSDOF 3
ENDMDL
MODEL 2
REMARK VINA RESULT:      -4.2      0.867      2.396
REMARK  3 active torsions:
REMARK  status: ('A' for Active; 'I' for Inactive)
REMARK    1  A    between atoms: C4_4  and  C6_6 
REMARK    2  A    between atoms: C5_5  and  C6_6 
REMARK    3  A    between atoms: C6_6  and  N7_7 
ROOT
HETATM    1  C1  UNL     1     -32.030   8.658   2.269  1.00 20.00     0.158 C 
HETATM    2  N7  UNL     1     -31.664   8.099   3.233  1.00 20.00    -0.270 NA
HETATM    3  S8  UNL     1     -32.496   9.436   0.960  1.00 20.00    -0.055 SA
ENDROOT
BRANCH   2   4
HETATM    4  C6  UNL     1     -32.598   7.087   3.746  1.00 20.00     0.109 C 
BRANCH   4   5
HETATM    5  C4  UNL     1     -33.249   6.373   2.556  1.00 20.00     0.023 C 
HETATM    6  C2  UNL     1     -33.110   4.858   2.637  1.00 20.00     0.007 C 
ENDBRANCH   4   5
BRANCH   4   7
HETATM    7  C5  UNL     1     -33.655   7.789   4.607  1.00 20.00     0.023 C 
HETATM    8  C3  UNL     1     -33.882   7.097   5.920  1.00 20.00     0.007 C 
ENDBRANCH   4   7
ENDBRANCH   2   4
TORSDOF 3
ENDMDL
MODEL 3
REMARK VINA RESULT:      -4.1      1.201      2.194
REMARK  3 active torsions:
REMARK  status: ('A' for Active; 'I' for Inactive)
REMARK    1  A    between atoms: C4_4  and  C6_6 
REMARK    2  A    between atoms: C5_5  and  C6_6 
REMARK    3  A    between atoms: C6_6  and  N7_7 
ROOT
HETATM    1  C1  UNL     1     -32.755   7.645   2.150  1.00 20.00     0.158 C 
HETATM    2  N7  UNL     1     -33.348   6.661   2.388  1.00 20.00    -0.270 NA
HETATM    3  S8  UNL     1     -31.959   8.977   1.792  1.00 20.00    -0.055 SA
ENDROOT
BRANCH   2   4
HETATM    4  C6  UNL     1     -33.391   6.302   3.813  1.00 20.00     0.109 C 
BRANCH   4   5
HETATM    5  C4  UNL     1     -34.690   5.535   4.086  1.00 20.00     0.023 C 
HETATM    6  C2  UNL     1     -34.437   4.126   4.606  1.00 20.00     0.007 C 
ENDBRANCH   4   5
BRANCH   4   7
HETATM    7  C5  UNL     1     -33.332   7.590   4.643  1.00 20.00     0.023 C 
HETATM    8  C3  UNL     1     -33.724   7.371   6.076  1.00 20.00     0.007 C 
ENDBRANCH   4   7
ENDBRANCH   2   4
TORSDOF 3
ENDMDL
MODEL 4
REMARK VINA RESULT:      -3.8      2.537      3.589
REMARK  3 active torsions:
REMARK  status: ('A' for Active; 'I' for Inactive)
REMARK    1  A    between atoms: C4_4  and  C6_6 
REMARK    2  A    between atoms: C5_5  and  C6_6 
REMARK    3  A    between atoms: C6_6  and  N7_7 
ROOT
HETATM    1  C1  UNL     1     -33.891   6.697   5.143  1.00 20.00     0.158 C 
HETATM    2  N7  UNL     1     -33.311   7.574   4.625  1.00 20.00    -0.270 NA
HETATM    3  S8  UNL     1     -34.695   5.529   5.870  1.00 20.00    -0.055 SA
ENDROOT
BRANCH   2   4
HETATM    4  C6  UNL     1     -32.450   7.163   3.507  1.00 20.00     0.109 C 
BRANCH   4   5
HETATM    5  C4  UNL     1     -31.820   8.416   2.887  1.00 20.00     0.023 C 
HETATM    6  C2  UNL     1     -32.294   8.662   1.460  1.00 20.00     0.007 C 
ENDBRANCH   4   5
BRANCH   4   7
HETATM    7  C5  UNL     1     -33.307   6.415   2.479  1.00 20.00     0.023 C 
HETATM    8  C3  UNL     1     -33.027   4.941   2.457  1.00 20.00     0.007 C 
ENDBRANCH   4   7
ENDBRANCH   2   4
TORSDOF 3
ENDMDL
MODEL 5
REMARK VINA RESULT:      -3.7      2.599      3.744
REMARK  3 active torsions:
REMARK  status: ('A' for Active; 'I' for Inactive)
REMARK    1  A    between atoms: C4_4  and  C6_6 
REMARK    2  A    between atoms: C5_5  and  C6_6 
REMARK    3  A    between atoms: C6_6  and  N7_7 
ROOT
HETATM    1  C1  UNL     1     -34.045   6.385   5.308  1.00 20.00     0.158 C 
HETATM    2  N7  UNL     1     -33.563   7.351   4.849  1.00 20.00    -0.270 NA
HETATM    3  S8  UNL     1     -34.693   5.087   5.965  1.00 20.00    -0.055 SA
ENDROOT
BRANCH   2   4
HETATM    4  C6  UNL     1     -33.534   7.382   3.380  1.00 20.00     0.109 C 
BRANCH   4   5
HETATM    5  C4  UNL     1     -34.056   6.041   2.851  1.00 20.00     0.023 C 
HETATM    6  C2  UNL     1     -32.933   5.066   2.519  1.00 20.00     0.007 C 
ENDBRANCH   4   5
BRANCH   4   7
HETATM    7  C5  UNL     1     -32.089   7.623   2.925  1.00 20.00     0.023 C 
HETATM    8  C3  UNL     1     -31.997   8.605   1.793  1.00 20.00     0.007 C 
ENDBRANCH   4   7
ENDBRANCH   2   4
TORSDOF 3
ENDMDL
MODEL 6
REMARK VINA RESULT:      -3.6      2.451      3.257
REMARK  3 active torsions:
REMARK  status: ('A' for Active; 'I' for Inactive)
REMARK    1  A    between atoms: C4_4  and  C6_6 
REMARK    2  A    between atoms: C5_5  and  C6_6 
REMARK    3  A    between atoms: C6_6  and  N7_7 
ROOT
HETATM    1  C1  UNL     1     -33.551   5.329   3.348  1.00 20.00     0.158 C 
HETATM    2  N7  UNL     1     -33.024   6.217   2.793  1.00 20.00    -0.270 NA
HETATM    3  S8  UNL     1     -34.273   4.106   4.069  1.00 20.00    -0.055 SA
ENDROOT
BRANCH   2   4
HETATM    4  C6  UNL     1     -32.476   7.254   3.679  1.00 20.00     0.109 C 
BRANCH   4   5
HETATM    5  C4  UNL     1     -33.624   7.857   4.497  1.00 20.00     0.023 C 
HETATM    6  C2  UNL     1     -33.595   7.418   5.956  1.00 20.00     0.007 C 
ENDBRANCH   4   5
BRANCH   4   7
HETATM    7  C5  UNL     1     -31.798   8.325   2.817  1.00 20.00     0.023 C 
HETATM    8  C3  UNL     1     -32.531   8.582   1.533  1.00 20.00     0.007 C 
ENDBRANCH   4   7
ENDBRANCH   2   4
TORSDOF 3
ENDMDL
MODEL 7
REMARK VINA RESULT:      -3.6      2.585      3.802
REMARK  3 active torsions:
REMARK  status: ('A' for Active; 'I' for Inactive)
REMARK    1  A    between atoms: C4_4  and  C6_6 
REMARK    2  A    between atoms: C5_5  and  C6_6 
REMARK    3  A    between atoms: C6_6  and  N7_7 
ROOT
HETATM    1  C1  UNL     1     -33.857   5.122   3.454  1.00 20.00     0.158 C 
HETATM    2  N7  UNL     1     -33.625   6.001   2.712  1.00 20.00    -0.270 NA
HETATM    3  S8  UNL     1     -34.169   3.905   4.433  1.00 20.00    -0.055 SA
ENDROOT
BRANCH   2   4
HETATM    4  C6  UNL     1     -33.583   7.332   3.334  1.00 20.00     0.109 C 
BRANCH   4   5
HETATM    5  C4  UNL     1     -32.124   7.797   3.400  1.00 20.00     0.023 C 
HETATM    6  C2  UNL     1     -31.713   8.603   2.174  1.00 20.00     0.007 C 
ENDBRANCH   4   5
BRANCH   4   7
HETATM    7  C5  UNL     1     -34.189   7.234   4.739  1.00 20.00     0.023 C 
HETATM    8  C3  UNL     1     -33.220   7.631   5.815  1.00 20.00     0.007 C 
ENDBRANCH   4   7
ENDBRANCH   2   4
TORSDOF 3
ENDMDL
MODEL 8
REMARK VINA RESULT:      -3.5     11.063     11.857
REMARK  3 active torsions:
REMARK  status: ('A' for Active; 'I' for Inactive)
REMARK    1  A    between atoms: C4_4  and  C6_6 
REMARK    2  A    between atoms: C5_5  and  C6_6 
REMARK    3  A    between atoms: C6_6  and  N7_7 
ROOT
HETATM    1  C1  UNL     1     -35.221  13.941  -4.678  1.00 20.00     0.158 C 
HETATM    2  N7  UNL     1     -34.186  13.913  -4.127  1.00 20.00    -0.270 NA
HETATM    3  S8  UNL     1     -36.630  13.943  -5.420  1.00 20.00    -0.055 SA
ENDROOT
BRANCH   2   4
HETATM    4  C6  UNL     1     -33.501  15.211  -4.043  1.00 20.00     0.109 C 
BRANCH   4   5
HETATM    5  C4  UNL     1     -34.441  16.219  -3.372  1.00 20.00     0.023 C 
HETATM    6  C2  UNL     1     -33.817  16.872  -2.145  1.00 20.00     0.007 C 
ENDBRANCH   4   5
BRANCH   4   7
HETATM    7  C5  UNL     1     -33.138  15.664  -5.462  1.00 20.00     0.023 C 
HETATM    8  C3  UNL     1     -33.694  17.017  -5.796  1.00 20.00     0.007 C 
ENDBRANCH   4   7
ENDBRANCH   2   4
TORSDOF 3
ENDMDL
MODEL 9
REMARK VINA RESULT:      -3.5      2.455      4.125
REMARK  3 active torsions:
REMARK  status: ('A' for Active; 'I' for Inactive)
REMARK    1  A    between atoms: C4_4  and  C6_6 
REMARK    2  A    between atoms: C5_5  and  C6_6 
REMARK    3  A    between atoms: C6_6  and  N7_7 
ROOT
HETATM    1  C1  UNL     1     -33.795   6.247   3.031  1.00 20.00     0.158 C 
HETATM    2  N7  UNL     1     -33.081   6.718   2.228  1.00 20.00    -0.270 NA
HETATM    3  S8  UNL     1     -34.764   5.575   4.101  1.00 20.00    -0.055 SA
ENDROOT
BRANCH   2   4
HETATM    4  C6  UNL     1     -32.690   8.109   2.499  1.00 20.00     0.109 C 
BRANCH   4   5
HETATM    5  C4  UNL     1     -32.191   8.741   1.195  1.00 20.00     0.023 C 
HETATM    6  C2  UNL     1     -32.724  10.153   0.989  1.00 20.00     0.007 C 
ENDBRANCH   4   5
BRANCH   4   7
HETATM    7  C5  UNL     1     -31.586   8.107   3.564  1.00 20.00     0.023 C 
HETATM    8  C3  UNL     1     -32.074   8.580   4.902  1.00 20.00     0.007 C 
ENDBRANCH   4   7
ENDBRANCH   2   4
TORSDOF 3
ENDMDL
