MODEL 1
REMARK VINA RESULT:      -3.8      0.000      0.000
REMARK  1 active torsions:
REMARK  status: ('A' for Active; 'I' for Inactive)
REMARK    1  A    between atoms: C2_2  and  C3_3 
ROOT
HETATM    1  C1  UNL     1     -33.877   5.790   3.239  1.00 20.00     0.101 A 
HETATM    2  C2  UNL     1     -33.265   6.944   3.687  1.00 20.00     0.118 A 
HETATM    3  N4  UNL     1     -33.497   7.266   5.016  1.00 20.00    -0.166 NA
HETATM    4  N5  UNL     1     -34.282   6.375   5.601  1.00 20.00    -0.037 NA
HETATM    5  S7  UNL     1     -34.751   5.142   4.567  1.00 20.00    -0.008 SA
ENDROOT
BRANCH   2   6
HETATM    6  C3  UNL     1     -32.436   7.783   2.870  1.00 20.00     0.292 C 
HETATM    7  O6  UNL     1     -31.395   8.333   3.274  1.00 20.00    -0.300 OA
ENDBRANCH   2   6
TORSDOF 1
ENDMDL
MODEL 2
REMARK VINA RESULT:      -3.7      1.403      1.550
REMARK  1 active torsions:
REMARK  status: ('A' for Active; 'I' for Inactive)
REMARK    1  A    between atoms: C2_2  and  C3_3 
ROOT
HETATM    1  C1  UNL     1     -33.629   7.125   4.975  1.00 20.00     0.101 A 
HETATM    2  C2  UNL     1     -33.371   6.860   3.644  1.00 20.00     0.118 A 
HETATM    3  N4  UNL     1     -33.885   5.666   3.162  1.00 20.00    -0.166 NA
HETATM    4  N5  UNL     1     -34.537   5.003   4.104  1.00 20.00    -0.037 NA
HETATM    5  S7  UNL     1     -34.542   5.802   5.577  1.00 20.00    -0.008 SA
ENDROOT
BRANCH   2   6
HETATM    6  C3  UNL     1     -32.627   7.733   2.781  1.00 20.00     0.292 C 
HETATM    7  O6  UNL     1     -31.568   8.296   3.111  1.00 20.00    -0.300 OA
ENDBRANCH   2   6
TORSDOF 1
ENDMDL
MODEL 3
REMARK VINA RESULT:      -3.6      2.730      3.151
REMARK  1 active torsions:
REMARK  status: ('A' for Active; 'I' for Inactive)
REMARK    1  A    between atoms: C2_2  and  C3_3 
ROOT
HETATM    1  C1  UNL     1     -33.393   6.384   2.900  1.00 20.00     0.101 A 
HETATM    2  C2  UNL     1     -33.944   6.243   4.159  1.00 20.00     0.118 A 
HETATM    3  N4  UNL     1     -33.505   7.152   5.109  1.00 20.00    -0.166 NA
HETATM    4  N5  UNL     1     -32.620   7.995   4.601  1.00 20.00    -0.037 NA
HETATM    5  S7  UNL     1     -32.303   7.708   2.981  1.00 20.00    -0.008 SA
ENDROOT
BRANCH   2   6
HETATM    6  C3  UNL     1     -34.910   5.240   4.504  1.00 20.00     0.292 C 
HETATM    7  O6  UNL     1     -34.690   4.016   4.445  1.00 20.00    -0.300 OA
ENDBRANCH   2   6
TORSDOF 1
ENDMDL
MODEL 4
REMARK VINA RESULT:      -3.5     12.705     13.011
REMARK  1 active torsions:
REMARK  status: ('A' for Active; 'I' for Inactive)
REMARK    1  A    between atoms: C2_2  and  C3_3 
ROOT
HETATM    1  C1  UNL     1     -36.057  14.801  -6.909  1.00 20.00     0.101 A 
HETATM    2  C2  UNL     1     -36.450  14.107  -5.782  1.00 20.00     0.118 A 
HETATM    3  N4  UNL     1     -35.891  12.847  -5.630  1.00 20.00    -0.166 NA
HETATM    4  N5  UNL     1     -35.069  12.558  -6.627  1.00 20.00    -0.037 NA
HETATM    5  S7  UNL     1     -34.958  13.790  -7.757  1.00 20.00    -0.008 SA
ENDROOT
BRANCH   2   6
HETATM    6  C3  UNL     1     -37.372  14.615  -4.807  1.00 20.00     0.292 C 
HETATM    7  O6  UNL     1     -38.552  14.233  -4.703  1.00 20.00    -0.300 OA
ENDBRANCH   2   6
TORSDOF 1
ENDMDL
MODEL 5
REMARK VINA RESULT:      -3.4     11.925     12.128
REMARK  1 active torsions:
REMARK  status: ('A' for Active; 'I' for Inactive)
REMARK    1  A    between atoms: C2_2  and  C3_3 
ROOT
HETATM    1  C1  UNL     1     -34.197  14.473  -6.616  1.00 20.00     0.101 A 
HETATM    2  C2  UNL     1     -34.109  14.500  -5.238  1.00 20.00     0.118 A 
HETATM    3  N4  UNL     1     -34.920  13.595  -4.570  1.00 20.00    -0.166 NA
HETATM    4  N5  UNL     1     -35.635  12.869  -5.415  1.00 20.00    -0.037 NA
HETATM    5  S7  UNL     1     -35.345  13.262  -7.018  1.00 20.00    -0.008 SA
ENDROOT
BRANCH   2   6
HETATM    6  C3  UNL     1     -33.250  15.385  -4.504  1.00 20.00     0.292 C 
HETATM    7  O6  UNL     1     -33.561  15.912  -3.420  1.00 20.00    -0.300 OA
ENDBRANCH   2   6
TORSDOF 1
ENDMDL
MODEL 6
REMARK VINA RESULT:      -3.3      3.129      3.523
REMARK  1 active torsions:
REMARK  status: ('A' for Active; 'I' for Inactive)
REMARK    1  A    between atoms: C2_2  and  C3_3 
ROOT
HETATM    1  C1  UNL     1     -33.324   7.235   4.793  1.00 20.00     0.101 A 
HETATM    2  C2  UNL     1     -33.920   6.257   4.022  1.00 20.00     0.118 A 
HETATM    3  N4  UNL     1     -33.506   6.203   2.700  1.00 20.00    -0.166 NA
HETATM    4  N5  UNL     1     -32.596   7.129   2.438  1.00 20.00    -0.037 NA
HETATM    5  S7  UNL     1     -32.228   8.074   3.772  1.00 20.00    -0.008 SA
ENDROOT
BRANCH   2   6
HETATM    6  C3  UNL     1     -34.905   5.336   4.513  1.00 20.00     0.292 C 
HETATM    7  O6  UNL     1     -34.752   4.100   4.529  1.00 20.00    -0.300 OA
ENDBRANCH   2   6
TORSDOF 1
ENDMDL
MODEL 7
REMARK VINA RESULT:      -3.3     12.040     12.290
REMARK  1 active torsions:
REMARK  status: ('A' for Active; 'I' for Inactive)
REMARK    1  A    between atoms: C2_2  and  C3_3 
ROOT
HETATM    1  C1  UNL     1     -35.289  15.722  -4.868  1.00 20.00     0.101 A 
HETATM    2  C2  UNL     1     -35.915  14.505  -5.054  1.00 20.00     0.118 A 
HETATM    3  N4  UNL     1     -35.179  13.391  -4.683  1.00 20.00    -0.166 NA
HETATM    4  N5  UNL     1     -33.989  13.730  -4.211  1.00 20.00    -0.037 NA
HETATM    5  S7  UNL     1     -33.740  15.387  -4.208  1.00 20.00    -0.008 SA
ENDROOT
BRANCH   2   6
HETATM    6  C3  UNL     1     -37.237  14.356  -5.592  1.00 20.00     0.292 C 
HETATM    7  O6  UNL     1     -38.190  13.860  -4.963  1.00 20.00    -0.300 OA
ENDBRANCH   2   6
TORSDOF 1
ENDMDL
MODEL 8
REMARK VINA RESULT:      -3.3     11.692     11.862
REMARK  1 active torsions:
REMARK  status: ('A' for Active; 'I' for Inactive)
REMARK    1  A    between atoms: C2_2  and  C3_3 
ROOT
HETATM    1  C1  UNL     1     -36.094  15.408  -4.756  1.00 20.00     0.101 A 
HETATM    2  C2  UNL     1     -34.901  14.825  -4.375  1.00 20.00     0.118 A 
HETATM    3  N4  UNL     1     -34.805  13.460  -4.602  1.00 20.00    -0.166 NA
HETATM    4  N5  UNL     1     -35.909  12.981  -5.153  1.00 20.00    -0.037 NA
HETATM    5  S7  UNL     1     -37.075  14.158  -5.405  1.00 20.00    -0.008 SA
ENDROOT
BRANCH   2   6
HETATM    6  C3  UNL     1     -33.809  15.542  -3.783  1.00 20.00     0.292 C 
HETATM    7  O6  UNL     1     -33.928  16.302  -2.804  1.00 20.00    -0.300 OA
ENDBRANCH   2   6
TORSDOF 1
ENDMDL
MODEL 9
REMARK VINA RESULT:      -3.2     12.020     12.161
REMARK  1 active torsions:
REMARK  status: ('A' for Active; 'I' for Inactive)
REMARK    1  A    between atoms: C2_2  and  C3_3 
ROOT
HETATM    1  C1  UNL     1     -35.957  15.437  -5.108  1.00 20.00     0.101 A 
HETATM    2  C2  UNL     1     -34.756  14.813  -4.834  1.00 20.00     0.118 A 
HETATM    3  N4  UNL     1     -34.776  13.428  -4.887  1.00 20.00    -0.166 NA
HETATM    4  N5  UNL     1     -35.980  12.972  -5.198  1.00 20.00    -0.037 NA
HETATM    5  S7  UNL     1     -37.100  14.197  -5.430  1.00 20.00    -0.008 SA
ENDROOT
BRANCH   2   6
HETATM    6  C3  UNL     1     -33.544  15.511  -4.513  1.00 20.00     0.292 C 
HETATM    7  O6  UNL     1     -32.580  15.621  -5.293  1.00 20.00    -0.300 OA
ENDBRANCH   2   6
TORSDOF 1
ENDMDL
