MODEL 1
REMARK VINA RESULT:      -5.8      0.000      0.000
REMARK  6 active torsions:
REMARK  status: ('A' for Active; 'I' for Inactive)
REMARK    1  A    between atoms: C2_2  and  C3_3 
REMARK    2  A    between atoms: C3_3  and  C4_4 
REMARK    3  A    between atoms: C4_4  and  C5_5 
REMARK    4  A    between atoms: C5_5  and  C6_6 
REMARK    5  A    between atoms: C6_6  and  C7_7 
REMARK    6  A    between atoms: C7_7  and  C8_8 
ROOT
HETATM    1  C4  UNL     1     -32.490   7.837   2.897  1.00 20.00     0.005 C 
ENDROOT
BRANCH   1   2
HETATM    2  C3  UNL     1     -31.789   8.365   1.639  1.00 20.00     0.050 C 
BRANCH   2   3
HETATM    3  C2  UNL     1     -32.518   9.479   0.941  1.00 20.00     0.002 C 
HETATM    4  C1  UNL     1     -32.738  10.685   1.480  1.00 20.00     0.032 C 
HETATM    5 CL9  UNL     1     -33.138   9.115  -0.634  1.00 20.00    -0.090 Cl
ENDBRANCH   2   3
ENDBRANCH   1   2
BRANCH   1   6
HETATM    6  C5  UNL     1     -33.087   6.438   2.713  1.00 20.00     0.000 C 
BRANCH   6   7
HETATM    7  C6  UNL     1     -34.434   6.313   3.427  1.00 20.00     0.001 C 
BRANCH   7   8
HETATM    8  C7  UNL     1     -34.514   5.021   4.242  1.00 20.00     0.015 C 
BRANCH   8   9
HETATM    9  C8  UNL     1     -34.528   5.315   5.737  1.00 20.00     0.114 C 
HETATM   10 CL10 UNL     1     -34.049   7.001   6.041  1.00 20.00    -0.130 Cl
ENDBRANCH   8   9
ENDBRANCH   7   8
ENDBRANCH   6   7
ENDBRANCH   1   6
TORSDOF 6
ENDMDL
MODEL 2
REMARK VINA RESULT:      -5.8      0.667      5.449
REMARK  6 active torsions:
REMARK  status: ('A' for Active; 'I' for Inactive)
REMARK    1  A    between atoms: C2_2  and  C3_3 
REMARK    2  A    between atoms: C3_3  and  C4_4 
REMARK    3  A    between atoms: C4_4  and  C5_5 
REMARK    4  A    between atoms: C5_5  and  C6_6 
REMARK    5  A    between atoms: C6_6  and  C7_7 
REMARK    6  A    between atoms: C7_7  and  C8_8 
ROOT
HETATM    1  C4  UNL     1     -33.856   5.789   2.649  1.00 20.00     0.005 C 
ENDROOT
BRANCH   1   2
HETATM    2  C3  UNL     1     -34.883   6.209   3.708  1.00 20.00     0.050 C 
BRANCH   2   3
HETATM    3  C2  UNL     1     -34.458   5.945   5.126  1.00 20.00     0.002 C 
HETATM    4  C1  UNL     1     -34.568   4.757   5.734  1.00 20.00     0.032 C 
HETATM    5 CL9  UNL     1     -33.845   7.306   6.003  1.00 20.00    -0.090 Cl
ENDBRANCH   2   3
ENDBRANCH   1   2
BRANCH   1   6
HETATM    6  C5  UNL     1     -32.533   6.554   2.753  1.00 20.00     0.000 C 
BRANCH   6   7
HETATM    7  C6  UNL     1     -32.749   8.059   2.583  1.00 20.00     0.001 C 
BRANCH   7   8
HETATM    8  C7  UNL     1     -31.760   8.653   1.578  1.00 20.00     0.015 C 
BRANCH   8   9
HETATM    9  C8  UNL     1     -32.366   9.848   0.853  1.00 20.00     0.114 C 
HETATM   10 CL10 UNL     1     -33.232   9.315  -0.606  1.00 20.00    -0.130 Cl
ENDBRANCH   8   9
ENDBRANCH   7   8
ENDBRANCH   6   7
ENDBRANCH   1   6
TORSDOF 6
ENDMDL
MODEL 3
REMARK VINA RESULT:      -5.7      1.205      1.275
REMARK  6 active torsions:
REMARK  status: ('A' for Active; 'I' for Inactive)
REMARK    1  A    between atoms: C2_2  and  C3_3 
REMARK    2  A    between atoms: C3_3  and  C4_4 
REMARK    3  A    between atoms: C4_4  and  C5_5 
REMARK    4  A    between atoms: C5_5  and  C6_6 
REMARK    5  A    between atoms: C6_6  and  C7_7 
REMARK    6  A    between atoms: C7_7  and  C8_8 
ROOT
HETATM    1  C4  UNL     1     -31.824   8.139   2.830  1.00 20.00     0.005 C 
ENDROOT
BRANCH   1   2
HETATM    2  C3  UNL     1     -31.545   8.591   1.391  1.00 20.00     0.050 C 
BRANCH   2   3
HETATM    3  C2  UNL     1     -32.502   9.626   0.867  1.00 20.00     0.002 C 
HETATM    4  C1  UNL     1     -32.844  10.737   1.532  1.00 20.00     0.032 C 
HETATM    5 CL9  UNL     1     -33.220   9.290  -0.672  1.00 20.00    -0.090 Cl
ENDBRANCH   2   3
ENDBRANCH   1   2
BRANCH   1   6
HETATM    6  C5  UNL     1     -32.667   6.863   2.909  1.00 20.00     0.000 C 
BRANCH   6   7
HETATM    7  C6  UNL     1     -33.966   7.104   3.681  1.00 20.00     0.001 C 
BRANCH   7   8
HETATM    8  C7  UNL     1     -33.722   7.120   5.191  1.00 20.00     0.015 C 
BRANCH   8   9
HETATM    9  C8  UNL     1     -34.449   5.969   5.876  1.00 20.00     0.114 C 
HETATM   10 CL10 UNL     1     -34.655   4.608   4.751  1.00 20.00    -0.130 Cl
ENDBRANCH   8   9
ENDBRANCH   7   8
ENDBRANCH   6   7
ENDBRANCH   1   6
TORSDOF 6
ENDMDL
MODEL 4
REMARK VINA RESULT:      -5.6      1.150      5.364
REMARK  6 active torsions:
REMARK  status: ('A' for Active; 'I' for Inactive)
REMARK    1  A    between atoms: C2_2  and  C3_3 
REMARK    2  A    between atoms: C3_3  and  C4_4 
REMARK    3  A    between atoms: C4_4  and  C5_5 
REMARK    4  A    between atoms: C5_5  and  C6_6 
REMARK    5  A    between atoms: C6_6  and  C7_7 
REMARK    6  A    between atoms: C7_7  and  C8_8 
ROOT
HETATM    1  C4  UNL     1     -33.855   5.868   2.711  1.00 20.00     0.005 C 
ENDROOT
BRANCH   1   2
HETATM    2  C3  UNL     1     -34.794   6.458   3.772  1.00 20.00     0.050 C 
BRANCH   2   3
HETATM    3  C2  UNL     1     -34.358   6.217   5.191  1.00 20.00     0.002 C 
HETATM    4  C1  UNL     1     -33.864   7.166   5.996  1.00 20.00     0.032 C 
HETATM    5 CL9  UNL     1     -34.472   4.584   5.756  1.00 20.00    -0.090 Cl
ENDBRANCH   2   3
ENDBRANCH   1   2
BRANCH   1   6
HETATM    6  C5  UNL     1     -32.482   6.546   2.676  1.00 20.00     0.000 C 
BRANCH   6   7
HETATM    7  C6  UNL     1     -32.618   8.069   2.630  1.00 20.00     0.001 C 
BRANCH   7   8
HETATM    8  C7  UNL     1     -31.764   8.670   1.511  1.00 20.00     0.015 C 
BRANCH   8   9
HETATM    9  C8  UNL     1     -32.460   9.866   0.873  1.00 20.00     0.114 C 
HETATM   10 CL10 UNL     1     -33.246   9.386  -0.649  1.00 20.00    -0.130 Cl
ENDBRANCH   8   9
ENDBRANCH   7   8
ENDBRANCH   6   7
ENDBRANCH   1   6
TORSDOF 6
ENDMDL
MODEL 5
REMARK VINA RESULT:      -5.3      1.659      5.295
REMARK  6 active torsions:
REMARK  status: ('A' for Active; 'I' for Inactive)
REMARK    1  A    between atoms: C2_2  and  C3_3 
REMARK    2  A    between atoms: C3_3  and  C4_4 
REMARK    3  A    between atoms: C4_4  and  C5_5 
REMARK    4  A    between atoms: C5_5  and  C6_6 
REMARK    5  A    between atoms: C6_6  and  C7_7 
REMARK    6  A    between atoms: C7_7  and  C8_8 
ROOT
HETATM    1  C4  UNL     1     -33.287   7.449   4.554  1.00 20.00     0.005 C 
ENDROOT
BRANCH   1   2
HETATM    2  C3  UNL     1     -34.355   6.600   3.853  1.00 20.00     0.050 C 
BRANCH   2   3
HETATM    3  C2  UNL     1     -34.057   5.127   3.822  1.00 20.00     0.002 C 
HETATM    4  C1  UNL     1     -34.487   4.255   4.742  1.00 20.00     0.032 C 
HETATM    5 CL9  UNL     1     -33.048   4.581   2.525  1.00 20.00    -0.090 Cl
ENDBRANCH   2   3
ENDBRANCH   1   2
BRANCH   1   6
HETATM    6  C5  UNL     1     -32.119   7.827   3.638  1.00 20.00     0.000 C 
BRANCH   6   7
HETATM    7  C6  UNL     1     -32.597   8.079   2.207  1.00 20.00     0.001 C 
BRANCH   7   8
HETATM    8  C7  UNL     1     -31.734   9.132   1.509  1.00 20.00     0.015 C 
BRANCH   8   9
HETATM    9  C8  UNL     1     -32.598  10.143   0.765  1.00 20.00     0.114 C 
HETATM   10 CL10 UNL     1     -33.321   9.397  -0.679  1.00 20.00    -0.130 Cl
ENDBRANCH   8   9
ENDBRANCH   7   8
ENDBRANCH   6   7
ENDBRANCH   1   6
TORSDOF 6
ENDMDL
MODEL 6
REMARK VINA RESULT:      -4.7      1.681      2.065
REMARK  6 active torsions:
REMARK  status: ('A' for Active; 'I' for Inactive)
REMARK    1  A    between atoms: C2_2  and  C3_3 
REMARK    2  A    between atoms: C3_3  and  C4_4 
REMARK    3  A    between atoms: C4_4  and  C5_5 
REMARK    4  A    between atoms: C5_5  and  C6_6 
REMARK    5  A    between atoms: C6_6  and  C7_7 
REMARK    6  A    between atoms: C7_7  and  C8_8 
ROOT
HETATM    1  C4  UNL     1     -32.698   5.822   2.517  1.00 20.00     0.005 C 
ENDROOT
BRANCH   1   2
HETATM    2  C3  UNL     1     -33.322   7.212   2.338  1.00 20.00     0.050 C 
BRANCH   2   3
HETATM    3  C2  UNL     1     -32.325   8.327   2.190  1.00 20.00     0.002 C 
HETATM    4  C1  UNL     1     -32.262   9.141   1.128  1.00 20.00     0.032 C 
HETATM    5 CL9  UNL     1     -31.174   8.495   3.472  1.00 20.00    -0.090 Cl
ENDBRANCH   2   3
ENDBRANCH   1   2
BRANCH   1   6
HETATM    6  C5  UNL     1     -33.677   4.790   3.087  1.00 20.00     0.000 C 
BRANCH   6   7
HETATM    7  C6  UNL     1     -34.767   5.464   3.923  1.00 20.00     0.001 C 
BRANCH   7   8
HETATM    8  C7  UNL     1     -34.686   5.039   5.390  1.00 20.00     0.015 C 
BRANCH   8   9
HETATM    9  C8  UNL     1     -34.667   6.253   6.312  1.00 20.00     0.114 C 
HETATM   10 CL10 UNL     1     -33.420   7.409   5.789  1.00 20.00    -0.130 Cl
ENDBRANCH   8   9
ENDBRANCH   7   8
ENDBRANCH   6   7
ENDBRANCH   1   6
TORSDOF 6
ENDMDL
MODEL 7
REMARK VINA RESULT:      -3.8     10.569     11.452
REMARK  6 active torsions:
REMARK  status: ('A' for Active; 'I' for Inactive)
REMARK    1  A    between atoms: C2_2  and  C3_3 
REMARK    2  A    between atoms: C3_3  and  C4_4 
REMARK    3  A    between atoms: C4_4  and  C5_5 
REMARK    4  A    between atoms: C5_5  and  C6_6 
REMARK    5  A    between atoms: C6_6  and  C7_7 
REMARK    6  A    between atoms: C7_7  and  C8_8 
ROOT
HETATM    1  C4  UNL     1     -32.180  18.549  -0.437  1.00 20.00     0.005 C 
ENDROOT
BRANCH   1   2
HETATM    2  C3  UNL     1     -33.035  18.851   0.800  1.00 20.00     0.050 C 
BRANCH   2   3
HETATM    3  C2  UNL     1     -32.333  18.631   2.111  1.00 20.00     0.002 C 
HETATM    4  C1  UNL     1     -31.015  18.785   2.292  1.00 20.00     0.032 C 
HETATM    5 CL9  UNL     1     -33.325  18.095   3.426  1.00 20.00    -0.090 Cl
ENDBRANCH   2   3
ENDBRANCH   1   2
BRANCH   1   6
HETATM    6  C5  UNL     1     -32.969  17.884  -1.568  1.00 20.00     0.000 C 
BRANCH   6   7
HETATM    7  C6  UNL     1     -34.317  17.359  -1.069  1.00 20.00     0.001 C 
BRANCH   7   8
HETATM    8  C7  UNL     1     -35.034  16.549  -2.150  1.00 20.00     0.015 C 
BRANCH   8   9
HETATM    9  C8  UNL     1     -34.076  16.157  -3.268  1.00 20.00     0.114 C 
HETATM   10 CL10 UNL     1     -34.522  14.572  -3.941  1.00 20.00    -0.130 Cl
ENDBRANCH   8   9
ENDBRANCH   7   8
ENDBRANCH   6   7
ENDBRANCH   1   6
TORSDOF 6
ENDMDL
MODEL 8
REMARK VINA RESULT:      -3.7     10.293     11.155
REMARK  6 active torsions:
REMARK  status: ('A' for Active; 'I' for Inactive)
REMARK    1  A    between atoms: C2_2  and  C3_3 
REMARK    2  A    between atoms: C3_3  and  C4_4 
REMARK    3  A    between atoms: C4_4  and  C5_5 
REMARK    4  A    between atoms: C5_5  and  C6_6 
REMARK    5  A    between atoms: C6_6  and  C7_7 
REMARK    6  A    between atoms: C7_7  and  C8_8 
ROOT
HETATM    1  C4  UNL     1     -33.318  15.315  -4.315  1.00 20.00     0.005 C 
ENDROOT
BRANCH   1   2
HETATM    2  C3  UNL     1     -34.319  14.164  -4.151  1.00 20.00     0.050 C 
BRANCH   2   3
HETATM    3  C2  UNL     1     -35.250  13.979  -5.317  1.00 20.00     0.002 C 
HETATM    4  C1  UNL     1     -36.585  13.981  -5.219  1.00 20.00     0.032 C 
HETATM    5 CL9  UNL     1     -34.501  13.694  -6.852  1.00 20.00    -0.090 Cl
ENDBRANCH   2   3
ENDBRANCH   1   2
BRANCH   1   6
HETATM    6  C5  UNL     1     -33.824  16.642  -3.740  1.00 20.00     0.000 C 
BRANCH   6   7
HETATM    7  C6  UNL     1     -34.674  16.414  -2.488  1.00 20.00     0.001 C 
BRANCH   7   8
HETATM    8  C7  UNL     1     -34.172  17.258  -1.314  1.00 20.00     0.015 C 
BRANCH   8   9
HETATM    9  C8  UNL     1     -33.005  18.143  -1.734  1.00 20.00     0.114 C 
HETATM   10 CL10 UNL     1     -31.927  18.447  -0.352  1.00 20.00    -0.130 Cl
ENDBRANCH   8   9
ENDBRANCH   7   8
ENDBRANCH   6   7
ENDBRANCH   1   6
TORSDOF 6
ENDMDL
MODEL 9
REMARK VINA RESULT:      -3.7     10.567     11.437
REMARK  6 active torsions:
REMARK  status: ('A' for Active; 'I' for Inactive)
REMARK    1  A    between atoms: C2_2  and  C3_3 
REMARK    2  A    between atoms: C3_3  and  C4_4 
REMARK    3  A    between atoms: C4_4  and  C5_5 
REMARK    4  A    between atoms: C5_5  and  C6_6 
REMARK    5  A    between atoms: C6_6  and  C7_7 
REMARK    6  A    between atoms: C7_7  and  C8_8 
ROOT
HETATM    1  C4  UNL     1     -33.020  17.743  -1.495  1.00 20.00     0.005 C 
ENDROOT
BRANCH   1   2
HETATM    2  C3  UNL     1     -32.938  19.042  -0.682  1.00 20.00     0.050 C 
BRANCH   2   3
HETATM    3  C2  UNL     1     -32.505  18.857   0.745  1.00 20.00     0.002 C 
HETATM    4  C1  UNL     1     -31.227  18.830   1.144  1.00 20.00     0.032 C 
HETATM    5 CL9  UNL     1     -33.772  18.614   1.900  1.00 20.00    -0.090 Cl
ENDBRANCH   2   3
ENDBRANCH   1   2
BRANCH   1   6
HETATM    6  C5  UNL     1     -34.379  17.044  -1.380  1.00 20.00     0.000 C 
BRANCH   6   7
HETATM    7  C6  UNL     1     -34.756  16.349  -2.689  1.00 20.00     0.001 C 
BRANCH   7   8
HETATM    8  C7  UNL     1     -33.628  16.450  -3.718  1.00 20.00     0.015 C 
BRANCH   8   9
HETATM    9  C8  UNL     1     -33.305  15.085  -4.313  1.00 20.00     0.114 C 
HETATM   10 CL10 UNL     1     -34.711  14.003  -4.184  1.00 20.00    -0.130 Cl
ENDBRANCH   8   9
ENDBRANCH   7   8
ENDBRANCH   6   7
ENDBRANCH   1   6
TORSDOF 6
ENDMDL
