MODEL 1
REMARK VINA RESULT:      -5.0      0.000      0.000
REMARK  3 active torsions:
REMARK  status: ('A' for Active; 'I' for Inactive)
REMARK    1  A    between atoms: C4_4  and  C5_5 
REMARK    2  A    between atoms: C4_4  and  C6_6 
REMARK    3  A    between atoms: C5_5  and  N7_7 
ROOT
HETATM    1  C1  UNL     1     -32.227   8.723   1.810  1.00 20.00     0.157 C 
HETATM    2  N7  UNL     1     -31.914   7.826   2.502  1.00 20.00    -0.276 NA
HETATM    3  S8  UNL     1     -32.628   9.933   0.856  1.00 20.00    -0.055 SA
ENDROOT
BRANCH   2   4
HETATM    4  C5  UNL     1     -32.805   7.580   3.636  1.00 20.00     0.151 C 
BRANCH   4   5
HETATM    5  C4  UNL     1     -33.736   6.412   3.322  1.00 20.00     0.026 C 
BRANCH   5   6
HETATM    6  C6  UNL     1     -34.578   5.915   4.515  1.00 20.00    -0.021 C 
HETATM    7  C2  UNL     1     -34.452   4.394   4.639  1.00 20.00     0.009 C 
HETATM    8  C3  UNL     1     -34.170   6.574   5.833  1.00 20.00     0.009 C 
ENDBRANCH   5   6
ENDBRANCH   4   5
ENDBRANCH   2   4
TORSDOF 3
ENDMDL
MODEL 2
REMARK VINA RESULT:      -4.8      0.797      1.450
REMARK  3 active torsions:
REMARK  status: ('A' for Active; 'I' for Inactive)
REMARK    1  A    between atoms: C4_4  and  C5_5 
REMARK    2  A    between atoms: C4_4  and  C6_6 
REMARK    3  A    between atoms: C5_5  and  N7_7 
ROOT
HETATM    1  C1  UNL     1     -32.314   8.748   1.894  1.00 20.00     0.157 C 
HETATM    2  N7  UNL     1     -32.115   7.969   2.751  1.00 20.00    -0.276 NA
HETATM    3  S8  UNL     1     -32.567   9.822   0.745  1.00 20.00    -0.055 SA
ENDROOT
BRANCH   2   4
HETATM    4  C5  UNL     1     -32.855   6.712   2.627  1.00 20.00     0.151 C 
BRANCH   4   5
HETATM    5  C4  UNL     1     -34.056   6.720   3.569  1.00 20.00     0.026 C 
BRANCH   5   6
HETATM    6  C6  UNL     1     -33.768   6.199   4.992  1.00 20.00    -0.021 C 
HETATM    7  C2  UNL     1     -33.840   7.358   5.991  1.00 20.00     0.009 C 
HETATM    8  C3  UNL     1     -34.734   5.093   5.416  1.00 20.00     0.009 C 
ENDBRANCH   5   6
ENDBRANCH   4   5
ENDBRANCH   2   4
TORSDOF 3
ENDMDL
MODEL 3
REMARK VINA RESULT:      -4.6      2.598      4.812
REMARK  3 active torsions:
REMARK  status: ('A' for Active; 'I' for Inactive)
REMARK    1  A    between atoms: C4_4  and  C5_5 
REMARK    2  A    between atoms: C4_4  and  C6_6 
REMARK    3  A    between atoms: C5_5  and  N7_7 
ROOT
HETATM    1  C1  UNL     1     -33.712   6.191   3.370  1.00 20.00     0.157 C 
HETATM    2  N7  UNL     1     -32.918   6.578   2.595  1.00 20.00    -0.276 NA
HETATM    3  S8  UNL     1     -34.785   5.640   4.410  1.00 20.00    -0.055 SA
ENDROOT
BRANCH   2   4
HETATM    4  C5  UNL     1     -32.701   8.025   2.602  1.00 20.00     0.151 C 
BRANCH   4   5
HETATM    5  C4  UNL     1     -31.748   8.414   1.476  1.00 20.00     0.026 C 
BRANCH   5   6
HETATM    6  C6  UNL     1     -32.171   9.658   0.668  1.00 20.00    -0.021 C 
HETATM    7  C2  UNL     1     -33.115   9.243  -0.463  1.00 20.00     0.009 C 
HETATM    8  C3  UNL     1     -32.846  10.718   1.539  1.00 20.00     0.009 C 
ENDBRANCH   5   6
ENDBRANCH   4   5
ENDBRANCH   2   4
TORSDOF 3
ENDMDL
MODEL 4
REMARK VINA RESULT:      -4.5      2.607      4.916
REMARK  3 active torsions:
REMARK  status: ('A' for Active; 'I' for Inactive)
REMARK    1  A    between atoms: C4_4  and  C5_5 
REMARK    2  A    between atoms: C4_4  and  C6_6 
REMARK    3  A    between atoms: C5_5  and  N7_7 
ROOT
HETATM    1  C1  UNL     1     -33.798   6.122   3.401  1.00 20.00     0.157 C 
HETATM    2  N7  UNL     1     -33.067   6.540   2.582  1.00 20.00    -0.276 NA
HETATM    3  S8  UNL     1     -34.798   5.535   4.493  1.00 20.00    -0.055 SA
ENDROOT
BRANCH   2   4
HETATM    4  C5  UNL     1     -32.312   7.730   2.977  1.00 20.00     0.151 C 
BRANCH   4   5
HETATM    5  C4  UNL     1     -31.833   8.478   1.737  1.00 20.00     0.026 C 
BRANCH   5   6
HETATM    6  C6  UNL     1     -32.882   9.408   1.094  1.00 20.00    -0.021 C 
HETATM    7  C2  UNL     1     -32.561  10.865   1.438  1.00 20.00     0.009 C 
HETATM    8  C3  UNL     1     -32.959   9.242  -0.424  1.00 20.00     0.009 C 
ENDBRANCH   5   6
ENDBRANCH   4   5
ENDBRANCH   2   4
TORSDOF 3
ENDMDL
MODEL 5
REMARK VINA RESULT:      -4.2      1.155      1.770
REMARK  3 active torsions:
REMARK  status: ('A' for Active; 'I' for Inactive)
REMARK    1  A    between atoms: C4_4  and  C5_5 
REMARK    2  A    between atoms: C4_4  and  C6_6 
REMARK    3  A    between atoms: C5_5  and  N7_7 
ROOT
HETATM    1  C1  UNL     1     -32.391   7.903   2.762  1.00 20.00     0.157 C 
HETATM    2  N7  UNL     1     -32.522   7.190   3.687  1.00 20.00    -0.276 NA
HETATM    3  S8  UNL     1     -32.192   8.853   1.500  1.00 20.00    -0.055 SA
ENDROOT
BRANCH   2   4
HETATM    4  C5  UNL     1     -33.555   7.597   4.640  1.00 20.00     0.151 C 
BRANCH   4   5
HETATM    5  C4  UNL     1     -33.912   6.427   5.552  1.00 20.00     0.026 C 
BRANCH   5   6
HETATM    6  C6  UNL     1     -34.857   5.381   4.926  1.00 20.00    -0.021 C 
HETATM    7  C2  UNL     1     -35.539   5.975   3.691  1.00 20.00     0.009 C 
HETATM    8  C3  UNL     1     -34.130   4.092   4.542  1.00 20.00     0.009 C 
ENDBRANCH   5   6
ENDBRANCH   4   5
ENDBRANCH   2   4
TORSDOF 3
ENDMDL
MODEL 6
REMARK VINA RESULT:      -3.9      2.693      4.274
REMARK  3 active torsions:
REMARK  status: ('A' for Active; 'I' for Inactive)
REMARK    1  A    between atoms: C4_4  and  C5_5 
REMARK    2  A    between atoms: C4_4  and  C6_6 
REMARK    3  A    between atoms: C5_5  and  N7_7 
ROOT
HETATM    1  C1  UNL     1     -34.119   6.176   4.747  1.00 20.00     0.157 C 
HETATM    2  N7  UNL     1     -34.249   5.492   3.800  1.00 20.00    -0.276 NA
HETATM    3  S8  UNL     1     -33.964   7.089   6.043  1.00 20.00    -0.055 SA
ENDROOT
BRANCH   2   4
HETATM    4  C5  UNL     1     -33.313   5.764   2.708  1.00 20.00     0.151 C 
BRANCH   4   5
HETATM    5  C4  UNL     1     -33.389   7.237   2.313  1.00 20.00     0.026 C 
BRANCH   5   6
HETATM    6  C6  UNL     1     -32.023   7.935   2.149  1.00 20.00    -0.021 C 
HETATM    7  C2  UNL     1     -32.175   9.161   1.244  1.00 20.00     0.009 C 
HETATM    8  C3  UNL     1     -31.417   8.356   3.488  1.00 20.00     0.009 C 
ENDBRANCH   5   6
ENDBRANCH   4   5
ENDBRANCH   2   4
TORSDOF 3
ENDMDL
MODEL 7
REMARK VINA RESULT:      -3.8      3.102      4.432
REMARK  3 active torsions:
REMARK  status: ('A' for Active; 'I' for Inactive)
REMARK    1  A    between atoms: C4_4  and  C5_5 
REMARK    2  A    between atoms: C4_4  and  C6_6 
REMARK    3  A    between atoms: C5_5  and  N7_7 
ROOT
HETATM    1  C1  UNL     1     -34.335   5.527   5.321  1.00 20.00     0.157 C 
HETATM    2  N7  UNL     1     -34.290   6.558   5.883  1.00 20.00    -0.276 NA
HETATM    3  S8  UNL     1     -34.412   4.119   4.580  1.00 20.00    -0.055 SA
ENDROOT
BRANCH   2   4
HETATM    4  C5  UNL     1     -33.468   7.580   5.234  1.00 20.00     0.151 C 
BRANCH   4   5
HETATM    5  C4  UNL     1     -33.652   7.513   3.721  1.00 20.00     0.026 C 
BRANCH   5   6
HETATM    6  C6  UNL     1     -32.357   7.689   2.901  1.00 20.00    -0.021 C 
HETATM    7  C2  UNL     1     -32.634   8.571   1.680  1.00 20.00     0.009 C 
HETATM    8  C3  UNL     1     -31.221   8.295   3.726  1.00 20.00     0.009 C 
ENDBRANCH   5   6
ENDBRANCH   4   5
ENDBRANCH   2   4
TORSDOF 3
ENDMDL
MODEL 8
REMARK VINA RESULT:      -3.6     10.981     11.498
REMARK  3 active torsions:
REMARK  status: ('A' for Active; 'I' for Inactive)
REMARK    1  A    between atoms: C4_4  and  C5_5 
REMARK    2  A    between atoms: C4_4  and  C6_6 
REMARK    3  A    between atoms: C5_5  and  N7_7 
ROOT
HETATM    1  C1  UNL     1     -35.210  13.965  -4.652  1.00 20.00     0.157 C 
HETATM    2  N7  UNL     1     -34.193  13.925  -4.063  1.00 20.00    -0.276 NA
HETATM    3  S8  UNL     1     -36.594  13.993  -5.439  1.00 20.00    -0.055 SA
ENDROOT
BRANCH   2   4
HETATM    4  C5  UNL     1     -33.276  15.032  -4.338  1.00 20.00     0.151 C 
BRANCH   4   5
HETATM    5  C4  UNL     1     -33.908  16.351  -3.904  1.00 20.00     0.026 C 
BRANCH   5   6
HETATM    6  C6  UNL     1     -33.948  16.582  -2.380  1.00 20.00    -0.021 C 
HETATM    7  C2  UNL     1     -33.138  17.832  -2.025  1.00 20.00     0.009 C 
HETATM    8  C3  UNL     1     -35.374  16.724  -1.847  1.00 20.00     0.009 C 
ENDBRANCH   5   6
ENDBRANCH   4   5
ENDBRANCH   2   4
TORSDOF 3
ENDMDL
MODEL 9
REMARK VINA RESULT:      -3.5     11.425     11.852
REMARK  3 active torsions:
REMARK  status: ('A' for Active; 'I' for Inactive)
REMARK    1  A    between atoms: C4_4  and  C5_5 
REMARK    2  A    between atoms: C4_4  and  C6_6 
REMARK    3  A    between atoms: C5_5  and  N7_7 
ROOT
HETATM    1  C1  UNL     1     -31.194  18.662   0.849  1.00 20.00     0.157 C 
HETATM    2  N7  UNL     1     -31.398  18.392  -0.276  1.00 20.00    -0.276 NA
HETATM    3  S8  UNL     1     -30.891  19.022   2.370  1.00 20.00    -0.055 SA
ENDROOT
BRANCH   2   4
HETATM    4  C5  UNL     1     -32.797  18.492  -0.693  1.00 20.00     0.151 C 
BRANCH   4   5
HETATM    5  C4  UNL     1     -33.045  17.598  -1.904  1.00 20.00     0.026 C 
BRANCH   5   6
HETATM    6  C6  UNL     1     -34.528  17.272  -2.177  1.00 20.00    -0.021 C 
HETATM    7  C2  UNL     1     -34.630  16.010  -3.038  1.00 20.00     0.009 C 
HETATM    8  C3  UNL     1     -35.331  17.082  -0.889  1.00 20.00     0.009 C 
ENDBRANCH   5   6
ENDBRANCH   4   5
ENDBRANCH   2   4
TORSDOF 3
ENDMDL
