MODEL 1
REMARK VINA RESULT:      -4.5      0.000      0.000
REMARK  2 active torsions:
REMARK  status: ('A' for Active; 'I' for Inactive)
REMARK    1  A    between atoms: C3_3  and  O6_6 
REMARK    2  A    between atoms: C4_4  and  O6_6 
ROOT
HETATM    1  C1  UNL     1     -31.915   8.023   3.225  1.00 20.00     0.014 C 
HETATM    2  C2  UNL     1     -32.655   7.127   2.925  1.00 20.00    -0.091 C 
HETATM    3  C4  UNL     1     -33.553   6.032   2.556  1.00 20.00     0.272 C 
ENDROOT
BRANCH   3   4
HETATM    4  O6  UNL     1     -34.691   6.013   3.409  1.00 20.00    -0.297 OA
BRANCH   4   5
HETATM    5  C3  UNL     1     -34.596   5.232   4.538  1.00 20.00     0.358 C 
HETATM    6  O5  UNL     1     -34.669   4.007   4.508  1.00 20.00    -0.245 OA
HETATM    7 CL7  UNL     1     -34.365   6.169   5.990  1.00 20.00    -0.012 Cl
ENDBRANCH   4   5
ENDBRANCH   3   4
TORSDOF 2
ENDMDL
MODEL 2
REMARK VINA RESULT:      -4.4      2.183      2.838
REMARK  2 active torsions:
REMARK  status: ('A' for Active; 'I' for Inactive)
REMARK    1  A    between atoms: C3_3  and  O6_6 
REMARK    2  A    between atoms: C4_4  and  O6_6 
ROOT
HETATM    1  C1  UNL     1     -33.665   7.381   6.131  1.00 20.00     0.014 C 
HETATM    2  C2  UNL     1     -34.225   6.562   5.454  1.00 20.00    -0.091 C 
HETATM    3  C4  UNL     1     -34.909   5.563   4.633  1.00 20.00     0.272 C 
ENDROOT
BRANCH   3   4
HETATM    4  O6  UNL     1     -34.743   5.857   3.251  1.00 20.00    -0.297 OA
BRANCH   4   5
HETATM    5  C3  UNL     1     -33.458   5.803   2.764  1.00 20.00     0.358 C 
HETATM    6  O5  UNL     1     -32.857   4.747   2.585  1.00 20.00    -0.245 OA
HETATM    7 CL7  UNL     1     -32.793   7.381   2.435  1.00 20.00    -0.012 Cl
ENDBRANCH   4   5
ENDBRANCH   3   4
TORSDOF 2
ENDMDL
MODEL 3
REMARK VINA RESULT:      -4.4      1.448      1.652
REMARK  2 active torsions:
REMARK  status: ('A' for Active; 'I' for Inactive)
REMARK    1  A    between atoms: C3_3  and  O6_6 
REMARK    2  A    between atoms: C4_4  and  O6_6 
ROOT
HETATM    1  C1  UNL     1     -31.727   8.353   2.774  1.00 20.00     0.014 C 
HETATM    2  C2  UNL     1     -32.488   7.431   2.886  1.00 20.00    -0.091 C 
HETATM    3  C4  UNL     1     -33.414   6.306   3.019  1.00 20.00     0.272 C 
ENDROOT
BRANCH   3   4
HETATM    4  O6  UNL     1     -34.475   6.637   3.906  1.00 20.00    -0.297 OA
BRANCH   4   5
HETATM    5  C3  UNL     1     -34.258   6.387   5.241  1.00 20.00     0.358 C 
HETATM    6  O5  UNL     1     -33.895   7.255   6.031  1.00 20.00    -0.245 OA
HETATM    7 CL7  UNL     1     -34.553   4.724   5.674  1.00 20.00    -0.012 Cl
ENDBRANCH   4   5
ENDBRANCH   3   4
TORSDOF 2
ENDMDL
MODEL 4
REMARK VINA RESULT:      -4.3      1.426      1.792
REMARK  2 active torsions:
REMARK  status: ('A' for Active; 'I' for Inactive)
REMARK    1  A    between atoms: C3_3  and  O6_6 
REMARK    2  A    between atoms: C4_4  and  O6_6 
ROOT
HETATM    1  C1  UNL     1     -32.083   9.123   1.094  1.00 20.00     0.014 C 
HETATM    2  C2  UNL     1     -32.190   8.439   2.074  1.00 20.00    -0.091 C 
HETATM    3  C4  UNL     1     -32.318   7.607   3.271  1.00 20.00     0.272 C 
ENDROOT
BRANCH   3   4
HETATM    4  O6  UNL     1     -33.308   6.604   3.076  1.00 20.00    -0.297 OA
BRANCH   4   5
HETATM    5  C3  UNL     1     -34.206   6.424   4.102  1.00 20.00     0.358 C 
HETATM    6  O5  UNL     1     -35.231   5.758   3.981  1.00 20.00    -0.245 OA
HETATM    7 CL7  UNL     1     -33.729   7.237   5.569  1.00 20.00    -0.012 Cl
ENDBRANCH   4   5
ENDBRANCH   3   4
TORSDOF 2
ENDMDL
MODEL 5
REMARK VINA RESULT:      -4.2      4.165      5.158
REMARK  2 active torsions:
REMARK  status: ('A' for Active; 'I' for Inactive)
REMARK    1  A    between atoms: C3_3  and  O6_6 
REMARK    2  A    between atoms: C4_4  and  O6_6 
ROOT
HETATM    1  C1  UNL     1     -33.572   6.198   2.860  1.00 20.00     0.014 C 
HETATM    2  C2  UNL     1     -32.816   7.127   2.779  1.00 20.00    -0.091 C 
HETATM    3  C4  UNL     1     -31.893   8.259   2.685  1.00 20.00     0.272 C 
ENDROOT
BRANCH   3   4
HETATM    4  O6  UNL     1     -31.687   8.621   1.325  1.00 20.00    -0.297 OA
BRANCH   4   5
HETATM    5  C3  UNL     1     -32.460   9.651   0.842  1.00 20.00     0.358 C 
HETATM    6  O5  UNL     1     -32.603  10.714   1.439  1.00 20.00    -0.245 OA
HETATM    7 CL7  UNL     1     -33.201   9.277  -0.692  1.00 20.00    -0.012 Cl
ENDBRANCH   4   5
ENDBRANCH   3   4
TORSDOF 2
ENDMDL
MODEL 6
REMARK VINA RESULT:      -4.2      2.402      3.788
REMARK  2 active torsions:
REMARK  status: ('A' for Active; 'I' for Inactive)
REMARK    1  A    between atoms: C3_3  and  O6_6 
REMARK    2  A    between atoms: C4_4  and  O6_6 
ROOT
HETATM    1  C1  UNL     1     -34.712   4.725   5.620  1.00 20.00     0.014 C 
HETATM    2  C2  UNL     1     -34.302   5.852   5.574  1.00 20.00    -0.091 C 
HETATM    3  C4  UNL     1     -33.801   7.226   5.521  1.00 20.00     0.272 C 
ENDROOT
BRANCH   3   4
HETATM    4  O6  UNL     1     -33.778   7.696   4.179  1.00 20.00    -0.297 OA
BRANCH   4   5
HETATM    5  C3  UNL     1     -32.674   7.360   3.431  1.00 20.00     0.358 C 
HETATM    6  O5  UNL     1     -31.669   8.063   3.373  1.00 20.00    -0.245 OA
HETATM    7 CL7  UNL     1     -32.864   5.844   2.590  1.00 20.00    -0.012 Cl
ENDBRANCH   4   5
ENDBRANCH   3   4
TORSDOF 2
ENDMDL
MODEL 7
REMARK VINA RESULT:      -4.2      2.581      3.759
REMARK  2 active torsions:
REMARK  status: ('A' for Active; 'I' for Inactive)
REMARK    1  A    between atoms: C3_3  and  O6_6 
REMARK    2  A    between atoms: C4_4  and  O6_6 
ROOT
HETATM    1  C1  UNL     1     -34.651   5.026   5.526  1.00 20.00     0.014 C 
HETATM    2  C2  UNL     1     -34.454   5.506   4.444  1.00 20.00    -0.091 C 
HETATM    3  C4  UNL     1     -34.217   6.092   3.124  1.00 20.00     0.272 C 
ENDROOT
BRANCH   3   4
HETATM    4  O6  UNL     1     -32.824   6.274   2.903  1.00 20.00    -0.297 OA
BRANCH   4   5
HETATM    5  C3  UNL     1     -32.332   7.542   3.108  1.00 20.00     0.358 C 
HETATM    6  O5  UNL     1     -32.078   7.986   4.225  1.00 20.00    -0.245 OA
HETATM    7 CL7  UNL     1     -32.115   8.431   1.624  1.00 20.00    -0.012 Cl
ENDBRANCH   4   5
ENDBRANCH   3   4
TORSDOF 2
ENDMDL
MODEL 8
REMARK VINA RESULT:      -4.2      1.844      2.313
REMARK  2 active torsions:
REMARK  status: ('A' for Active; 'I' for Inactive)
REMARK    1  A    between atoms: C3_3  and  O6_6 
REMARK    2  A    between atoms: C4_4  and  O6_6 
ROOT
HETATM    1  C1  UNL     1     -32.372   9.544   0.845  1.00 20.00     0.014 C 
HETATM    2  C2  UNL     1     -32.263   8.802   1.782  1.00 20.00    -0.091 C 
HETATM    3  C4  UNL     1     -32.128   7.898   2.925  1.00 20.00     0.272 C 
ENDROOT
BRANCH   3   4
HETATM    4  O6  UNL     1     -33.408   7.496   3.396  1.00 20.00    -0.297 OA
BRANCH   4   5
HETATM    5  C3  UNL     1     -33.702   6.156   3.299  1.00 20.00     0.358 C 
HETATM    6  O5  UNL     1     -32.986   5.358   2.700  1.00 20.00    -0.245 OA
HETATM    7 CL7  UNL     1     -35.184   5.728   4.112  1.00 20.00    -0.012 Cl
ENDBRANCH   4   5
ENDBRANCH   3   4
TORSDOF 2
ENDMDL
MODEL 9
REMARK VINA RESULT:      -4.1      3.014      3.861
REMARK  2 active torsions:
REMARK  status: ('A' for Active; 'I' for Inactive)
REMARK    1  A    between atoms: C3_3  and  O6_6 
REMARK    2  A    between atoms: C4_4  and  O6_6 
ROOT
HETATM    1  C1  UNL     1     -33.993   6.946   5.913  1.00 20.00     0.014 C 
HETATM    2  C2  UNL     1     -33.951   6.765   4.727  1.00 20.00    -0.091 C 
HETATM    3  C4  UNL     1     -33.905   6.545   3.281  1.00 20.00     0.272 C 
ENDROOT
BRANCH   3   4
HETATM    4  O6  UNL     1     -32.570   6.664   2.802  1.00 20.00    -0.297 OA
BRANCH   4   5
HETATM    5  C3  UNL     1     -32.054   7.937   2.739  1.00 20.00     0.358 C 
HETATM    6  O5  UNL     1     -31.303   8.395   3.596  1.00 20.00    -0.245 OA
HETATM    7 CL7  UNL     1     -32.579   8.810   1.324  1.00 20.00    -0.012 Cl
ENDBRANCH   4   5
ENDBRANCH   3   4
TORSDOF 2
ENDMDL
