MODEL 1
REMARK VINA RESULT:      -5.5      0.000      0.000
REMARK  1 active torsions:
REMARK  status: ('A' for Active; 'I' for Inactive)
REMARK    1  A    between atoms: C1_1  and  C6_6 
ROOT
HETATM    1  C2  UNL     1     -33.272   4.612   2.547  1.00 20.00     0.002 C 
HETATM    2  C3  UNL     1     -32.369   5.825   2.347  1.00 20.00     0.012 C 
HETATM    3  C4  UNL     1     -33.786   4.520   3.984  1.00 20.00     0.009 C 
HETATM    4  C5  UNL     1     -33.564   7.029   4.224  1.00 20.00     0.021 C 
HETATM    5  C6  UNL     1     -33.054   7.119   2.782  1.00 20.00     0.055 C 
HETATM    6  C7  UNL     1     -34.482   5.810   4.472  1.00 20.00    -0.047 C 
HETATM    7  C9  UNL     1     -34.756   5.689   5.983  1.00 20.00     0.015 C 
HETATM    8  C10 UNL     1     -35.836   5.998   3.760  1.00 20.00     0.015 C 
ENDROOT
BRANCH   5   9
HETATM    9  C1  UNL     1     -32.079   8.252   2.661  1.00 20.00     0.127 C 
HETATM   10  C8  UNL     1     -32.250   9.169   1.481  1.00 20.00     0.091 C 
HETATM   11  O11 UNL     1     -31.185   8.423   3.488  1.00 20.00    -0.298 OA
ENDBRANCH   5   9
TORSDOF 1
ENDMDL
MODEL 2
REMARK VINA RESULT:      -4.9      1.762      2.836
REMARK  1 active torsions:
REMARK  status: ('A' for Active; 'I' for Inactive)
REMARK    1  A    between atoms: C1_1  and  C6_6 
ROOT
HETATM    1  C2  UNL     1     -31.663   7.918   4.070  1.00 20.00     0.002 C 
HETATM    2  C3  UNL     1     -31.815   8.889   2.903  1.00 20.00     0.012 C 
HETATM    3  C4  UNL     1     -32.988   7.240   4.419  1.00 20.00     0.009 C 
HETATM    4  C5  UNL     1     -33.768   7.539   2.030  1.00 20.00     0.021 C 
HETATM    5  C6  UNL     1     -32.438   8.213   1.682  1.00 20.00     0.055 C 
HETATM    6  C7  UNL     1     -33.661   6.548   3.212  1.00 20.00    -0.047 C 
HETATM    7  C9  UNL     1     -35.077   6.098   3.619  1.00 20.00     0.015 C 
HETATM    8  C10 UNL     1     -32.868   5.293   2.796  1.00 20.00     0.015 C 
ENDROOT
BRANCH   5   9
HETATM    9  C1  UNL     1     -32.657   9.243   0.615  1.00 20.00     0.127 C 
HETATM   10  C8  UNL     1     -32.549  10.685   1.032  1.00 20.00     0.091 C 
HETATM   11  O11 UNL     1     -32.910   8.924  -0.546  1.00 20.00    -0.298 OA
ENDBRANCH   5   9
TORSDOF 1
ENDMDL
MODEL 3
REMARK VINA RESULT:      -4.6     11.565     12.664
REMARK  1 active torsions:
REMARK  status: ('A' for Active; 'I' for Inactive)
REMARK    1  A    between atoms: C1_1  and  C6_6 
ROOT
HETATM    1  C2  UNL     1     -32.931  15.807  -5.223  1.00 20.00     0.002 C 
HETATM    2  C3  UNL     1     -34.012  14.800  -5.605  1.00 20.00     0.012 C 
HETATM    3  C4  UNL     1     -33.528  17.161  -4.842  1.00 20.00     0.009 C 
HETATM    4  C5  UNL     1     -35.671  16.017  -4.133  1.00 20.00     0.021 C 
HETATM    5  C6  UNL     1     -35.068  14.660  -4.510  1.00 20.00     0.055 C 
HETATM    6  C7  UNL     1     -34.608  17.070  -3.741  1.00 20.00    -0.047 C 
HETATM    7  C9  UNL     1     -35.293  18.443  -3.597  1.00 20.00     0.015 C 
HETATM    8  C10 UNL     1     -33.970  16.716  -2.384  1.00 20.00     0.015 C 
ENDROOT
BRANCH   5   9
HETATM    9  C1  UNL     1     -36.152  13.743  -4.992  1.00 20.00     0.127 C 
HETATM   10  C8  UNL     1     -37.525  14.339  -5.146  1.00 20.00     0.091 C 
HETATM   11  O11 UNL     1     -35.928  12.562  -5.252  1.00 20.00    -0.298 OA
ENDBRANCH   5   9
TORSDOF 1
ENDMDL
MODEL 4
REMARK VINA RESULT:      -4.5     10.976     12.321
REMARK  1 active torsions:
REMARK  status: ('A' for Active; 'I' for Inactive)
REMARK    1  A    between atoms: C1_1  and  C6_6 
ROOT
HETATM    1  C2  UNL     1     -36.623  16.215  -3.819  1.00 20.00     0.002 C 
HETATM    2  C3  UNL     1     -36.123  17.025  -2.627  1.00 20.00     0.012 C 
HETATM    3  C4  UNL     1     -35.576  16.136  -4.929  1.00 20.00     0.009 C 
HETATM    4  C5  UNL     1     -33.737  16.422  -3.215  1.00 20.00     0.021 C 
HETATM    5  C6  UNL     1     -34.788  16.497  -2.103  1.00 20.00     0.055 C 
HETATM    6  C7  UNL     1     -34.206  15.612  -4.446  1.00 20.00    -0.047 C 
HETATM    7  C9  UNL     1     -33.176  15.783  -5.579  1.00 20.00     0.015 C 
HETATM    8  C10 UNL     1     -34.288  14.111  -4.106  1.00 20.00     0.015 C 
ENDROOT
BRANCH   5   9
HETATM    9  C1  UNL     1     -34.303  17.398  -1.008  1.00 20.00     0.127 C 
HETATM   10  C8  UNL     1     -32.984  18.087  -1.233  1.00 20.00     0.091 C 
HETATM   11  O11 UNL     1     -34.952  17.568   0.023  1.00 20.00    -0.298 OA
ENDBRANCH   5   9
TORSDOF 1
ENDMDL
MODEL 5
REMARK VINA RESULT:      -4.4     11.217     12.554
REMARK  1 active torsions:
REMARK  status: ('A' for Active; 'I' for Inactive)
REMARK    1  A    between atoms: C1_1  and  C6_6 
ROOT
HETATM    1  C2  UNL     1     -33.505  18.294  -4.460  1.00 20.00     0.002 C 
HETATM    2  C3  UNL     1     -33.714  16.855  -4.919  1.00 20.00     0.012 C 
HETATM    3  C4  UNL     1     -34.432  18.658  -3.300  1.00 20.00     0.009 C 
HETATM    4  C5  UNL     1     -34.512  16.227  -2.602  1.00 20.00     0.021 C 
HETATM    5  C6  UNL     1     -33.580  15.866  -3.762  1.00 20.00     0.055 C 
HETATM    6  C7  UNL     1     -34.336  17.682  -2.106  1.00 20.00    -0.047 C 
HETATM    7  C9  UNL     1     -35.458  18.007  -1.102  1.00 20.00     0.015 C 
HETATM    8  C10 UNL     1     -32.988  17.845  -1.378  1.00 20.00     0.015 C 
ENDROOT
BRANCH   5   9
HETATM    9  C1  UNL     1     -33.902  14.488  -4.259  1.00 20.00     0.127 C 
HETATM   10  C8  UNL     1     -35.338  14.214  -4.612  1.00 20.00     0.091 C 
HETATM   11  O11 UNL     1     -33.033  13.625  -4.373  1.00 20.00    -0.298 OA
ENDBRANCH   5   9
TORSDOF 1
ENDMDL
MODEL 6
REMARK VINA RESULT:      -4.4      1.969      4.458
REMARK  1 active torsions:
REMARK  status: ('A' for Active; 'I' for Inactive)
REMARK    1  A    between atoms: C1_1  and  C6_6 
ROOT
HETATM    1  C2  UNL     1     -31.939   8.633   4.422  1.00 20.00     0.002 C 
HETATM    2  C3  UNL     1     -32.791   7.373   4.543  1.00 20.00     0.012 C 
HETATM    3  C4  UNL     1     -31.220   8.702   3.075  1.00 20.00     0.009 C 
HETATM    4  C5  UNL     1     -33.048   7.302   2.027  1.00 20.00     0.021 C 
HETATM    5  C6  UNL     1     -33.769   7.238   3.377  1.00 20.00     0.055 C 
HETATM    6  C7  UNL     1     -32.168   8.563   1.864  1.00 20.00    -0.047 C 
HETATM    7  C9  UNL     1     -31.325   8.423   0.582  1.00 20.00     0.015 C 
HETATM    8  C10 UNL     1     -33.047   9.820   1.715  1.00 20.00     0.015 C 
ENDROOT
BRANCH   5   9
HETATM    9  C1  UNL     1     -34.496   5.932   3.500  1.00 20.00     0.127 C 
HETATM   10  C8  UNL     1     -33.693   4.684   3.255  1.00 20.00     0.091 C 
HETATM   11  O11 UNL     1     -35.691   5.885   3.788  1.00 20.00    -0.298 OA
ENDBRANCH   5   9
TORSDOF 1
ENDMDL
MODEL 7
REMARK VINA RESULT:      -4.3     11.064     12.372
REMARK  1 active torsions:
REMARK  status: ('A' for Active; 'I' for Inactive)
REMARK    1  A    between atoms: C1_1  and  C6_6 
ROOT
HETATM    1  C2  UNL     1     -36.536  16.247  -3.522  1.00 20.00     0.002 C 
HETATM    2  C3  UNL     1     -35.894  17.092  -2.425  1.00 20.00     0.012 C 
HETATM    3  C4  UNL     1     -35.660  16.180  -4.772  1.00 20.00     0.009 C 
HETATM    4  C5  UNL     1     -33.601  16.550  -3.347  1.00 20.00     0.021 C 
HETATM    5  C6  UNL     1     -34.482  16.612  -2.095  1.00 20.00     0.055 C 
HETATM    6  C7  UNL     1     -34.217  15.705  -4.486  1.00 20.00    -0.047 C 
HETATM    7  C9  UNL     1     -33.369  15.888  -5.759  1.00 20.00     0.015 C 
HETATM    8  C10 UNL     1     -34.202  14.208  -4.119  1.00 20.00     0.015 C 
ENDROOT
BRANCH   5   9
HETATM    9  C1  UNL     1     -33.872  17.546  -1.093  1.00 20.00     0.127 C 
HETATM   10  C8  UNL     1     -34.741  17.963   0.062  1.00 20.00     0.091 C 
HETATM   11  O11 UNL     1     -32.715  17.949  -1.209  1.00 20.00    -0.298 OA
ENDBRANCH   5   9
TORSDOF 1
ENDMDL
MODEL 8
REMARK VINA RESULT:      -4.3     11.629     12.733
REMARK  1 active torsions:
REMARK  status: ('A' for Active; 'I' for Inactive)
REMARK    1  A    between atoms: C1_1  and  C6_6 
ROOT
HETATM    1  C2  UNL     1     -34.924  17.391  -5.728  1.00 20.00     0.002 C 
HETATM    2  C3  UNL     1     -35.340  16.025  -6.265  1.00 20.00     0.012 C 
HETATM    3  C4  UNL     1     -35.380  17.594  -4.283  1.00 20.00     0.009 C 
HETATM    4  C5  UNL     1     -35.321  15.091  -3.914  1.00 20.00     0.021 C 
HETATM    5  C6  UNL     1     -34.860  14.891  -5.361  1.00 20.00     0.055 C 
HETATM    6  C7  UNL     1     -34.923  16.467  -3.330  1.00 20.00    -0.047 C 
HETATM    7  C9  UNL     1     -35.617  16.652  -1.967  1.00 20.00     0.015 C 
HETATM    8  C10 UNL     1     -33.401  16.536  -3.098  1.00 20.00     0.015 C 
ENDROOT
BRANCH   5   9
HETATM    9  C1  UNL     1     -35.391  13.591  -5.885  1.00 20.00     0.127 C 
HETATM   10  C8  UNL     1     -35.197  13.323  -7.353  1.00 20.00     0.091 C 
HETATM   11  O11 UNL     1     -35.956  12.782  -5.151  1.00 20.00    -0.298 OA
ENDBRANCH   5   9
TORSDOF 1
ENDMDL
MODEL 9
REMARK VINA RESULT:      -4.3     11.250     12.436
REMARK  1 active torsions:
REMARK  status: ('A' for Active; 'I' for Inactive)
REMARK    1  A    between atoms: C1_1  and  C6_6 
ROOT
HETATM    1  C2  UNL     1     -36.410  17.352  -2.971  1.00 20.00     0.002 C 
HETATM    2  C3  UNL     1     -36.189  15.928  -3.475  1.00 20.00     0.012 C 
HETATM    3  C4  UNL     1     -35.330  17.773  -1.976  1.00 20.00     0.009 C 
HETATM    4  C5  UNL     1     -33.706  16.162  -3.055  1.00 20.00     0.021 C 
HETATM    5  C6  UNL     1     -34.788  15.744  -4.055  1.00 20.00     0.055 C 
HETATM    6  C7  UNL     1     -33.893  17.599  -2.516  1.00 20.00    -0.047 C 
HETATM    7  C9  UNL     1     -32.894  17.837  -1.367  1.00 20.00     0.015 C 
HETATM    8  C10 UNL     1     -33.599  18.633  -3.620  1.00 20.00     0.015 C 
ENDROOT
BRANCH   5   9
HETATM    9  C1  UNL     1     -34.601  14.304  -4.430  1.00 20.00     0.127 C 
HETATM   10  C8  UNL     1     -35.790  13.600  -5.027  1.00 20.00     0.091 C 
HETATM   11  O11 UNL     1     -33.528  13.728  -4.261  1.00 20.00    -0.298 OA
ENDBRANCH   5   9
TORSDOF 1
ENDMDL
