MODEL 1
REMARK VINA RESULT:      -5.3      0.000      0.000
REMARK  1 active torsions:
REMARK  status: ('A' for Active; 'I' for Inactive)
REMARK    1  A    between atoms: C2_2  and  C7_7 
ROOT
HETATM    1  C1  UNL     1     -32.508   7.475   3.532  1.00 20.00     0.127 C 
HETATM    2  C3  UNL     1     -32.851   7.446   5.002  1.00 20.00     0.079 C 
HETATM    3  C4  UNL     1     -32.971   6.294   2.712  1.00 20.00     0.079 C 
HETATM    4  C5  UNL     1     -34.333   7.156   5.209  1.00 20.00     0.019 C 
HETATM    5  C6  UNL     1     -34.457   6.037   2.933  1.00 20.00     0.019 C 
HETATM    6  C7  UNL     1     -34.840   5.952   4.412  1.00 20.00     0.048 C 
HETATM    7  O8  UNL     1     -31.804   8.360   3.050  1.00 20.00    -0.298 OA
ENDROOT
BRANCH   6   8
HETATM    8  C2  UNL     1     -34.362   4.659   5.006  1.00 20.00     0.235 C 
HETATM    9  O9  UNL     1     -34.314   3.605   4.380  1.00 20.00    -0.306 OA
ENDBRANCH   6   8
TORSDOF 1
ENDMDL
MODEL 2
REMARK VINA RESULT:      -4.8      0.860      3.797
REMARK  1 active torsions:
REMARK  status: ('A' for Active; 'I' for Inactive)
REMARK    1  A    between atoms: C2_2  and  C7_7 
ROOT
HETATM    1  C1  UNL     1     -34.161   4.746   4.286  1.00 20.00     0.127 C 
HETATM    2  C3  UNL     1     -33.348   4.946   3.030  1.00 20.00     0.079 C 
HETATM    3  C4  UNL     1     -34.090   5.852   5.313  1.00 20.00     0.079 C 
HETATM    4  C5  UNL     1     -33.625   6.312   2.414  1.00 20.00     0.019 C 
HETATM    5  C6  UNL     1     -34.382   7.202   4.668  1.00 20.00     0.019 C 
HETATM    6  C7  UNL     1     -33.542   7.466   3.416  1.00 20.00     0.048 C 
HETATM    7  O8  UNL     1     -34.766   3.699   4.505  1.00 20.00    -0.298 OA
ENDROOT
BRANCH   6   8
HETATM    8  C2  UNL     1     -32.120   7.767   3.790  1.00 20.00     0.235 C 
HETATM    9  O9  UNL     1     -31.341   8.369   3.057  1.00 20.00    -0.306 OA
ENDBRANCH   6   8
TORSDOF 1
ENDMDL
MODEL 3
REMARK VINA RESULT:      -4.8      1.249      3.606
REMARK  1 active torsions:
REMARK  status: ('A' for Active; 'I' for Inactive)
REMARK    1  A    between atoms: C2_2  and  C7_7 
ROOT
HETATM    1  C1  UNL     1     -34.352   6.102   4.843  1.00 20.00     0.127 C 
HETATM    2  C3  UNL     1     -33.791   7.469   5.149  1.00 20.00     0.079 C 
HETATM    3  C4  UNL     1     -34.371   5.694   3.389  1.00 20.00     0.079 C 
HETATM    4  C5  UNL     1     -32.431   7.659   4.488  1.00 20.00     0.019 C 
HETATM    5  C6  UNL     1     -32.996   5.886   2.761  1.00 20.00     0.019 C 
HETATM    6  C7  UNL     1     -32.410   7.278   3.006  1.00 20.00     0.048 C 
HETATM    7  O8  UNL     1     -34.858   5.400   5.717  1.00 20.00    -0.298 OA
ENDROOT
BRANCH   6   8
HETATM    8  C2  UNL     1     -33.117   8.302   2.166  1.00 20.00     0.235 C 
HETATM    9  O9  UNL     1     -32.532   9.105   1.445  1.00 20.00    -0.306 OA
ENDBRANCH   6   8
TORSDOF 1
ENDMDL
MODEL 4
REMARK VINA RESULT:      -4.7      1.890      2.604
REMARK  1 active torsions:
REMARK  status: ('A' for Active; 'I' for Inactive)
REMARK    1  A    between atoms: C2_2  and  C7_7 
ROOT
HETATM    1  C1  UNL     1     -33.864   7.076   5.652  1.00 20.00     0.127 C 
HETATM    2  C3  UNL     1     -34.490   5.713   5.473  1.00 20.00     0.079 C 
HETATM    3  C4  UNL     1     -32.861   7.497   4.604  1.00 20.00     0.079 C 
HETATM    4  C5  UNL     1     -35.039   5.549   4.061  1.00 20.00     0.019 C 
HETATM    5  C6  UNL     1     -33.445   7.330   3.206  1.00 20.00     0.019 C 
HETATM    6  C7  UNL     1     -34.046   5.944   2.965  1.00 20.00     0.048 C 
HETATM    7  O8  UNL     1     -34.084   7.761   6.649  1.00 20.00    -0.298 OA
ENDROOT
BRANCH   6   8
HETATM    8  C2  UNL     1     -32.961   4.919   2.812  1.00 20.00     0.235 C 
HETATM    9  O9  UNL     1     -32.928   4.101   1.898  1.00 20.00    -0.306 OA
ENDBRANCH   6   8
TORSDOF 1
ENDMDL
MODEL 5
REMARK VINA RESULT:      -4.5      1.754      2.860
REMARK  1 active torsions:
REMARK  status: ('A' for Active; 'I' for Inactive)
REMARK    1  A    between atoms: C2_2  and  C7_7 
ROOT
HETATM    1  C1  UNL     1     -33.172   4.868   2.878  1.00 20.00     0.127 C 
HETATM    2  C3  UNL     1     -32.756   6.315   2.989  1.00 20.00     0.079 C 
HETATM    3  C4  UNL     1     -33.926   4.294   4.054  1.00 20.00     0.079 C 
HETATM    4  C5  UNL     1     -33.938   7.191   3.391  1.00 20.00     0.019 C 
HETATM    5  C6  UNL     1     -35.105   5.186   4.424  1.00 20.00     0.019 C 
HETATM    6  C7  UNL     1     -34.717   6.657   4.595  1.00 20.00     0.048 C 
HETATM    7  O8  UNL     1     -32.830   4.169   1.926  1.00 20.00    -0.298 OA
ENDROOT
BRANCH   6   8
HETATM    8  C2  UNL     1     -33.956   6.855   5.874  1.00 20.00     0.235 C 
HETATM    9  O9  UNL     1     -33.066   7.688   6.008  1.00 20.00    -0.306 OA
ENDBRANCH   6   8
TORSDOF 1
ENDMDL
MODEL 6
REMARK VINA RESULT:      -4.2     11.873     13.364
REMARK  1 active torsions:
REMARK  status: ('A' for Active; 'I' for Inactive)
REMARK    1  A    between atoms: C2_2  and  C7_7 
ROOT
HETATM    1  C1  UNL     1     -35.314  13.786  -5.290  1.00 20.00     0.127 C 
HETATM    2  C3  UNL     1     -34.563  14.360  -4.112  1.00 20.00     0.079 C 
HETATM    3  C4  UNL     1     -35.360  14.639  -6.536  1.00 20.00     0.079 C 
HETATM    4  C5  UNL     1     -33.175  14.833  -4.529  1.00 20.00     0.019 C 
HETATM    5  C6  UNL     1     -33.958  15.086  -6.932  1.00 20.00     0.019 C 
HETATM    6  C7  UNL     1     -33.178  15.719  -5.777  1.00 20.00     0.048 C 
HETATM    7  O8  UNL     1     -35.937  12.729  -5.206  1.00 20.00    -0.298 OA
ENDROOT
BRANCH   6   8
HETATM    8  C2  UNL     1     -33.707  17.091  -5.475  1.00 20.00     0.235 C 
HETATM    9  O9  UNL     1     -33.304  17.781  -4.544  1.00 20.00    -0.306 OA
ENDBRANCH   6   8
TORSDOF 1
ENDMDL
MODEL 7
REMARK VINA RESULT:      -4.1     11.640     12.789
REMARK  1 active torsions:
REMARK  status: ('A' for Active; 'I' for Inactive)
REMARK    1  A    between atoms: C2_2  and  C7_7 
ROOT
HETATM    1  C1  UNL     1     -33.764  17.068  -4.906  1.00 20.00     0.127 C 
HETATM    2  C3  UNL     1     -33.063  15.846  -5.449  1.00 20.00     0.079 C 
HETATM    3  C4  UNL     1     -35.202  16.884  -4.482  1.00 20.00     0.079 C 
HETATM    4  C5  UNL     1     -33.230  14.659  -4.506  1.00 20.00     0.019 C 
HETATM    5  C6  UNL     1     -35.334  15.698  -3.534  1.00 20.00     0.019 C 
HETATM    6  C7  UNL     1     -34.678  14.423  -4.069  1.00 20.00     0.048 C 
HETATM    7  O8  UNL     1     -33.226  18.174  -4.902  1.00 20.00    -0.298 OA
ENDROOT
BRANCH   6   8
HETATM    8  C2  UNL     1     -35.499  13.835  -5.180  1.00 20.00     0.235 C 
HETATM    9  O9  UNL     1     -35.873  12.667  -5.199  1.00 20.00    -0.306 OA
ENDBRANCH   6   8
TORSDOF 1
ENDMDL
MODEL 8
REMARK VINA RESULT:      -4.0     11.907     12.943
REMARK  1 active torsions:
REMARK  status: ('A' for Active; 'I' for Inactive)
REMARK    1  A    between atoms: C2_2  and  C7_7 
ROOT
HETATM    1  C1  UNL     1     -35.366  13.933  -4.971  1.00 20.00     0.127 C 
HETATM    2  C3  UNL     1     -36.025  15.090  -4.260  1.00 20.00     0.079 C 
HETATM    3  C4  UNL     1     -33.996  14.195  -5.552  1.00 20.00     0.079 C 
HETATM    4  C5  UNL     1     -35.081  15.708  -3.235  1.00 20.00     0.019 C 
HETATM    5  C6  UNL     1     -33.075  14.802  -4.501  1.00 20.00     0.019 C 
HETATM    6  C7  UNL     1     -33.687  16.010  -3.788  1.00 20.00     0.048 C 
HETATM    7  O8  UNL     1     -35.952  12.868  -5.154  1.00 20.00    -0.298 OA
ENDROOT
BRANCH   6   8
HETATM    8  C2  UNL     1     -33.704  17.204  -4.698  1.00 20.00     0.235 C 
HETATM    9  O9  UNL     1     -33.233  18.295  -4.391  1.00 20.00    -0.306 OA
ENDBRANCH   6   8
TORSDOF 1
ENDMDL
MODEL 9
REMARK VINA RESULT:      -4.0     11.706     12.795
REMARK  1 active torsions:
REMARK  status: ('A' for Active; 'I' for Inactive)
REMARK    1  A    between atoms: C2_2  and  C7_7 
ROOT
HETATM    1  C1  UNL     1     -36.959  14.487  -4.784  1.00 20.00     0.127 C 
HETATM    2  C3  UNL     1     -36.849  15.930  -4.351  1.00 20.00     0.079 C 
HETATM    3  C4  UNL     1     -35.673  13.811  -5.198  1.00 20.00     0.079 C 
HETATM    4  C5  UNL     1     -35.754  16.102  -3.305  1.00 20.00     0.019 C 
HETATM    5  C6  UNL     1     -34.603  13.993  -4.127  1.00 20.00     0.019 C 
HETATM    6  C7  UNL     1     -34.425  15.450  -3.695  1.00 20.00     0.048 C 
HETATM    7  O8  UNL     1     -38.047  13.925  -4.888  1.00 20.00    -0.298 OA
ENDROOT
BRANCH   6   8
HETATM    8  C2  UNL     1     -33.721  16.234  -4.764  1.00 20.00     0.235 C 
HETATM    9  O9  UNL     1     -32.791  15.788  -5.427  1.00 20.00    -0.306 OA
ENDBRANCH   6   8
TORSDOF 1
ENDMDL
