MODEL 1
REMARK VINA RESULT:      -5.4      0.000      0.000
REMARK  0 active torsions:
REMARK  status: ('A' for Active; 'I' for Inactive)
ROOT
HETATM    1  C1  UNL     1     -32.341   7.681   3.656  1.00 20.00     0.071 C 
HETATM    2  C2  UNL     1     -34.081   4.824   5.598  1.00 20.00    -0.000 C 
HETATM    3  C3  UNL     1     -33.879   4.215   4.423  1.00 20.00    -0.000 C 
HETATM    4  C4  UNL     1     -34.474   6.190   5.828  1.00 20.00    -0.002 C 
HETATM    5  C5  UNL     1     -34.002   4.779   3.104  1.00 20.00    -0.002 C 
HETATM    6  C6  UNL     1     -34.309   7.239   5.010  1.00 20.00    -0.004 C 
HETATM    7  C7  UNL     1     -33.917   6.069   2.752  1.00 20.00    -0.004 C 
HETATM    8  C8  UNL     1     -33.759   7.293   3.612  1.00 20.00     0.138 C 
HETATM    9  N9  UNL     1     -31.223   7.987   3.691  1.00 20.00    -0.196 NA
ENDROOT
TORSDOF 0
ENDMDL
MODEL 2
REMARK VINA RESULT:      -5.4      1.592      2.699
REMARK  0 active torsions:
REMARK  status: ('A' for Active; 'I' for Inactive)
ROOT
HETATM    1  C1  UNL     1     -32.615   8.460   2.182  1.00 20.00     0.071 C 
HETATM    2  C2  UNL     1     -34.741   5.709   3.876  1.00 20.00    -0.000 C 
HETATM    3  C3  UNL     1     -34.677   6.599   4.873  1.00 20.00    -0.000 C 
HETATM    4  C4  UNL     1     -33.699   5.343   2.952  1.00 20.00    -0.002 C 
HETATM    5  C5  UNL     1     -33.552   7.408   5.264  1.00 20.00    -0.002 C 
HETATM    6  C6  UNL     1     -32.629   6.066   2.595  1.00 20.00    -0.004 C 
HETATM    7  C7  UNL     1     -32.508   7.779   4.511  1.00 20.00    -0.004 C 
HETATM    8  C8  UNL     1     -32.159   7.403   3.097  1.00 20.00     0.138 C 
HETATM    9  N9  UNL     1     -32.973   9.294   1.460  1.00 20.00    -0.196 NA
ENDROOT
TORSDOF 0
ENDMDL
MODEL 3
REMARK VINA RESULT:      -5.4      2.028      3.613
REMARK  0 active torsions:
REMARK  status: ('A' for Active; 'I' for Inactive)
ROOT
HETATM    1  C1  UNL     1     -34.272   4.247   4.344  1.00 20.00     0.071 C 
HETATM    2  C2  UNL     1     -32.542   7.624   3.592  1.00 20.00    -0.000 C 
HETATM    3  C3  UNL     1     -32.638   7.705   4.925  1.00 20.00    -0.000 C 
HETATM    4  C4  UNL     1     -33.510   7.093   2.668  1.00 20.00    -0.002 C 
HETATM    5  C5  UNL     1     -33.733   7.280   5.759  1.00 20.00    -0.002 C 
HETATM    6  C6  UNL     1     -34.480   6.203   2.919  1.00 20.00    -0.004 C 
HETATM    7  C7  UNL     1     -34.664   6.357   5.481  1.00 20.00    -0.004 C 
HETATM    8  C8  UNL     1     -34.896   5.573   4.219  1.00 20.00     0.138 C 
HETATM    9  N9  UNL     1     -33.780   3.201   4.444  1.00 20.00    -0.196 NA
ENDROOT
TORSDOF 0
ENDMDL
MODEL 4
REMARK VINA RESULT:      -4.6      1.564      2.321
REMARK  0 active torsions:
REMARK  status: ('A' for Active; 'I' for Inactive)
ROOT
HETATM    1  C1  UNL     1     -33.913   7.054   5.568  1.00 20.00     0.071 C 
HETATM    2  C2  UNL     1     -33.128   3.934   3.422  1.00 20.00    -0.000 C 
HETATM    3  C3  UNL     1     -33.000   4.892   2.495  1.00 20.00    -0.000 C 
HETATM    4  C4  UNL     1     -34.105   3.852   4.475  1.00 20.00    -0.002 C 
HETATM    5  C5  UNL     1     -33.807   6.072   2.326  1.00 20.00    -0.002 C 
HETATM    6  C6  UNL     1     -34.796   4.856   5.032  1.00 20.00    -0.004 C 
HETATM    7  C7  UNL     1     -34.549   6.696   3.252  1.00 20.00    -0.004 C 
HETATM    8  C8  UNL     1     -34.825   6.317   4.680  1.00 20.00     0.138 C 
HETATM    9  N9  UNL     1     -33.195   7.636   6.269  1.00 20.00    -0.196 NA
ENDROOT
TORSDOF 0
ENDMDL
MODEL 5
REMARK VINA RESULT:      -4.2     11.937     13.278
REMARK  0 active torsions:
REMARK  status: ('A' for Active; 'I' for Inactive)
ROOT
HETATM    1  C1  UNL     1     -36.711  13.893  -5.104  1.00 20.00     0.071 C 
HETATM    2  C2  UNL     1     -33.615  16.205  -5.271  1.00 20.00    -0.000 C 
HETATM    3  C3  UNL     1     -33.802  15.973  -6.576  1.00 20.00    -0.000 C 
HETATM    4  C4  UNL     1     -33.758  15.276  -4.180  1.00 20.00    -0.002 C 
HETATM    5  C5  UNL     1     -34.191  14.739  -7.206  1.00 20.00    -0.002 C 
HETATM    6  C6  UNL     1     -34.493  14.156  -4.149  1.00 20.00    -0.004 C 
HETATM    7  C7  UNL     1     -34.853  13.711  -6.657  1.00 20.00    -0.004 C 
HETATM    8  C8  UNL     1     -35.300  13.502  -5.236  1.00 20.00     0.138 C 
HETATM    9  N9  UNL     1     -37.825  14.199  -4.999  1.00 20.00    -0.196 NA
ENDROOT
TORSDOF 0
ENDMDL
MODEL 6
REMARK VINA RESULT:      -4.2     12.285     13.080
REMARK  0 active torsions:
REMARK  status: ('A' for Active; 'I' for Inactive)
ROOT
HETATM    1  C1  UNL     1     -35.813  13.952  -5.270  1.00 20.00     0.071 C 
HETATM    2  C2  UNL     1     -33.612  16.344  -3.174  1.00 20.00    -0.000 C 
HETATM    3  C3  UNL     1     -34.752  16.407  -2.475  1.00 20.00    -0.000 C 
HETATM    4  C4  UNL     1     -33.455  16.294  -4.604  1.00 20.00    -0.002 C 
HETATM    5  C5  UNL     1     -36.098  16.439  -2.984  1.00 20.00    -0.002 C 
HETATM    6  C6  UNL     1     -34.346  15.874  -5.512  1.00 20.00    -0.004 C 
HETATM    7  C7  UNL     1     -36.537  15.993  -4.169  1.00 20.00    -0.004 C 
HETATM    8  C8  UNL     1     -35.768  15.421  -5.327  1.00 20.00     0.138 C 
HETATM    9  N9  UNL     1     -35.850  12.794  -5.225  1.00 20.00    -0.196 NA
ENDROOT
TORSDOF 0
ENDMDL
MODEL 7
REMARK VINA RESULT:      -4.1     11.935     13.380
REMARK  0 active torsions:
REMARK  status: ('A' for Active; 'I' for Inactive)
ROOT
HETATM    1  C1  UNL     1     -35.362  13.637  -4.731  1.00 20.00     0.071 C 
HETATM    2  C2  UNL     1     -34.949  17.407  -5.488  1.00 20.00    -0.000 C 
HETATM    3  C3  UNL     1     -33.837  16.933  -6.063  1.00 20.00    -0.000 C 
HETATM    4  C4  UNL     1     -35.551  16.987  -4.250  1.00 20.00    -0.002 C 
HETATM    5  C5  UNL     1     -32.973  15.885  -5.583  1.00 20.00    -0.002 C 
HETATM    6  C6  UNL     1     -35.418  15.804  -3.634  1.00 20.00    -0.004 C 
HETATM    7  C7  UNL     1     -33.282  14.891  -4.739  1.00 20.00    -0.004 C 
HETATM    8  C8  UNL     1     -34.559  14.623  -3.992  1.00 20.00     0.138 C 
HETATM    9  N9  UNL     1     -35.995  12.859  -5.313  1.00 20.00    -0.196 NA
ENDROOT
TORSDOF 0
ENDMDL
MODEL 8
REMARK VINA RESULT:      -4.0     12.505     13.116
REMARK  0 active torsions:
REMARK  status: ('A' for Active; 'I' for Inactive)
ROOT
HETATM    1  C1  UNL     1     -36.680  18.415  -0.825  1.00 20.00     0.071 C 
HETATM    2  C2  UNL     1     -32.839  18.712  -0.482  1.00 20.00    -0.000 C 
HETATM    3  C3  UNL     1     -32.918  18.068  -1.654  1.00 20.00    -0.000 C 
HETATM    4  C4  UNL     1     -33.650  18.513   0.690  1.00 20.00    -0.002 C 
HETATM    5  C5  UNL     1     -33.833  17.021  -2.025  1.00 20.00    -0.002 C 
HETATM    6  C6  UNL     1     -34.883  17.994   0.755  1.00 20.00    -0.004 C 
HETATM    7  C7  UNL     1     -35.036  16.758  -1.496  1.00 20.00    -0.004 C 
HETATM    8  C8  UNL     1     -35.737  17.401  -0.331  1.00 20.00     0.138 C 
HETATM    9  N9  UNL     1     -37.424  19.215  -1.214  1.00 20.00    -0.196 NA
ENDROOT
TORSDOF 0
ENDMDL
MODEL 9
REMARK VINA RESULT:      -4.0     12.099     13.036
REMARK  0 active torsions:
REMARK  status: ('A' for Active; 'I' for Inactive)
ROOT
HETATM    1  C1  UNL     1     -33.895  15.032  -4.220  1.00 20.00     0.071 C 
HETATM    2  C2  UNL     1     -33.128  18.073  -1.956  1.00 20.00    -0.000 C 
HETATM    3  C3  UNL     1     -34.012  17.427  -1.185  1.00 20.00    -0.000 C 
HETATM    4  C4  UNL     1     -33.156  18.233  -3.386  1.00 20.00    -0.002 C 
HETATM    5  C5  UNL     1     -35.205  16.735  -1.599  1.00 20.00    -0.002 C 
HETATM    6  C6  UNL     1     -33.777  17.458  -4.286  1.00 20.00    -0.004 C 
HETATM    7  C7  UNL     1     -35.474  16.215  -2.804  1.00 20.00    -0.004 C 
HETATM    8  C8  UNL     1     -34.675  16.270  -4.077  1.00 20.00     0.138 C 
HETATM    9  N9  UNL     1     -33.280  14.055  -4.333  1.00 20.00    -0.196 NA
ENDROOT
TORSDOF 0
ENDMDL
