MODEL 1
REMARK VINA RESULT:      -5.1      0.000      0.000
REMARK  1 active torsions:
REMARK  status: ('A' for Active; 'I' for Inactive)
REMARK    1  A    between atoms: C1_1  and  C5_5 
ROOT
HETATM    1  C2  UNL     1     -34.869  16.374  -2.453  1.00 20.00     0.006 C 
HETATM    2  C3  UNL     1     -33.606  16.899  -3.152  1.00 20.00     0.006 C 
HETATM    3  C4  UNL     1     -35.363  16.875  -4.720  1.00 20.00     0.011 C 
HETATM    4  C5  UNL     1     -35.115  14.548  -4.152  1.00 20.00     0.067 C 
HETATM    5  C6  UNL     1     -35.727  15.869  -3.626  1.00 20.00    -0.002 C 
HETATM    6  C7  UNL     1     -33.864  16.564  -4.634  1.00 20.00    -0.006 C 
HETATM    7  C8  UNL     1     -33.832  15.022  -4.905  1.00 20.00    -0.033 C 
HETATM    8  C10 UNL     1     -33.852  14.758  -6.425  1.00 20.00     0.016 C 
HETATM    9  C11 UNL     1     -32.579  14.328  -4.345  1.00 20.00     0.016 C 
ENDROOT
BRANCH   4  10
HETATM   10  C1  UNL     1     -36.108  13.802  -4.994  1.00 20.00     0.128 C 
HETATM   11  C9  UNL     1     -37.370  14.534  -5.360  1.00 20.00     0.091 C 
HETATM   12  O12 UNL     1     -35.899  12.648  -5.366  1.00 20.00    -0.298 OA
ENDBRANCH   4  10
TORSDOF 1
ENDMDL
MODEL 2
REMARK VINA RESULT:      -4.8      1.308      2.447
REMARK  1 active torsions:
REMARK  status: ('A' for Active; 'I' for Inactive)
REMARK    1  A    between atoms: C1_1  and  C5_5 
ROOT
HETATM    1  C2  UNL     1     -35.376  17.408  -6.406  1.00 20.00     0.006 C 
HETATM    2  C3  UNL     1     -34.199  17.799  -5.500  1.00 20.00     0.006 C 
HETATM    3  C4  UNL     1     -33.534  15.973  -6.831  1.00 20.00     0.011 C 
HETATM    4  C5  UNL     1     -35.341  15.061  -5.528  1.00 20.00     0.067 C 
HETATM    5  C6  UNL     1     -35.061  15.945  -6.767  1.00 20.00    -0.002 C 
HETATM    6  C7  UNL     1     -33.392  16.490  -5.394  1.00 20.00    -0.006 C 
HETATM    7  C8  UNL     1     -34.151  15.394  -4.574  1.00 20.00    -0.033 C 
HETATM    8  C10 UNL     1     -33.209  14.205  -4.293  1.00 20.00     0.016 C 
HETATM    9  C11 UNL     1     -34.662  15.893  -3.212  1.00 20.00     0.016 C 
ENDROOT
BRANCH   4  10
HETATM   10  C1  UNL     1     -35.457  13.618  -5.922  1.00 20.00     0.128 C 
HETATM   11  C9  UNL     1     -34.962  13.250  -7.295  1.00 20.00     0.091 C 
HETATM   12  O12 UNL     1     -35.932  12.777  -5.160  1.00 20.00    -0.298 OA
ENDBRANCH   4  10
TORSDOF 1
ENDMDL
MODEL 3
REMARK VINA RESULT:      -4.6      1.358      2.136
REMARK  1 active torsions:
REMARK  status: ('A' for Active; 'I' for Inactive)
REMARK    1  A    between atoms: C1_1  and  C5_5 
ROOT
HETATM    1  C2  UNL     1     -33.669  15.931  -3.442  1.00 20.00     0.006 C 
HETATM    2  C3  UNL     1     -34.249  17.277  -3.905  1.00 20.00     0.006 C 
HETATM    3  C4  UNL     1     -36.012  15.722  -3.756  1.00 20.00     0.011 C 
HETATM    4  C5  UNL     1     -34.601  14.775  -5.461  1.00 20.00     0.067 C 
HETATM    5  C6  UNL     1     -34.723  14.918  -3.925  1.00 20.00    -0.002 C 
HETATM    6  C7  UNL     1     -35.528  16.863  -4.660  1.00 20.00    -0.006 C 
HETATM    7  C8  UNL     1     -35.208  16.111  -5.996  1.00 20.00    -0.033 C 
HETATM    8  C10 UNL     1     -36.500  15.938  -6.820  1.00 20.00     0.016 C 
HETATM    9  C11 UNL     1     -34.200  16.853  -6.889  1.00 20.00     0.016 C 
ENDROOT
BRANCH   4  10
HETATM   10  C1  UNL     1     -35.291  13.529  -5.934  1.00 20.00     0.128 C 
HETATM   11  C9  UNL     1     -35.045  13.119  -7.360  1.00 20.00     0.091 C 
HETATM   12  O12 UNL     1     -36.022  12.875  -5.191  1.00 20.00    -0.298 OA
ENDBRANCH   4  10
TORSDOF 1
ENDMDL
MODEL 4
REMARK VINA RESULT:      -4.5      1.563      2.750
REMARK  1 active torsions:
REMARK  status: ('A' for Active; 'I' for Inactive)
REMARK    1  A    between atoms: C1_1  and  C5_5 
ROOT
HETATM    1  C2  UNL     1     -33.366  17.075  -4.634  1.00 20.00     0.006 C 
HETATM    2  C3  UNL     1     -33.831  16.402  -3.333  1.00 20.00     0.006 C 
HETATM    3  C4  UNL     1     -33.029  14.731  -4.786  1.00 20.00     0.011 C 
HETATM    4  C5  UNL     1     -34.906  15.637  -5.991  1.00 20.00     0.067 C 
HETATM    5  C6  UNL     1     -33.423  15.925  -5.656  1.00 20.00    -0.002 C 
HETATM    6  C7  UNL     1     -34.167  14.967  -3.785  1.00 20.00    -0.006 C 
HETATM    7  C8  UNL     1     -35.431  14.919  -4.707  1.00 20.00    -0.033 C 
HETATM    8  C10 UNL     1     -35.862  13.454  -4.928  1.00 20.00     0.016 C 
HETATM    9  C11 UNL     1     -36.644  15.661  -4.121  1.00 20.00     0.016 C 
ENDROOT
BRANCH   4  10
HETATM   10  C1  UNL     1     -35.018  14.839  -7.257  1.00 20.00     0.128 C 
HETATM   11  C9  UNL     1     -36.369  14.806  -7.918  1.00 20.00     0.091 C 
HETATM   12  O12 UNL     1     -34.052  14.242  -7.730  1.00 20.00    -0.298 OA
ENDBRANCH   4  10
TORSDOF 1
ENDMDL
MODEL 5
REMARK VINA RESULT:      -4.5      2.207      3.877
REMARK  1 active torsions:
REMARK  status: ('A' for Active; 'I' for Inactive)
REMARK    1  A    between atoms: C1_1  and  C5_5 
ROOT
HETATM    1  C2  UNL     1     -33.614  14.237  -4.592  1.00 20.00     0.006 C 
HETATM    2  C3  UNL     1     -34.582  14.621  -5.721  1.00 20.00     0.006 C 
HETATM    3  C4  UNL     1     -33.422  16.558  -5.051  1.00 20.00     0.011 C 
HETATM    4  C5  UNL     1     -34.635  15.942  -3.064  1.00 20.00     0.067 C 
HETATM    5  C6  UNL     1     -33.369  15.579  -3.877  1.00 20.00    -0.002 C 
HETATM    6  C7  UNL     1     -34.831  16.122  -5.471  1.00 20.00    -0.006 C 
HETATM    7  C8  UNL     1     -35.656  16.374  -4.164  1.00 20.00    -0.033 C 
HETATM    8  C10 UNL     1     -36.081  17.855  -4.092  1.00 20.00     0.016 C 
HETATM    9  C11 UNL     1     -36.941  15.533  -4.081  1.00 20.00     0.016 C 
ENDROOT
BRANCH   4  10
HETATM   10  C1  UNL     1     -34.323  16.991  -2.039  1.00 20.00     0.128 C 
HETATM   11  C9  UNL     1     -35.285  17.120  -0.889  1.00 20.00     0.091 C 
HETATM   12  O12 UNL     1     -33.330  17.711  -2.133  1.00 20.00    -0.298 OA
ENDBRANCH   4  10
TORSDOF 1
ENDMDL
MODEL 6
REMARK VINA RESULT:      -4.4      1.462      2.064
REMARK  1 active torsions:
REMARK  status: ('A' for Active; 'I' for Inactive)
REMARK    1  A    between atoms: C1_1  and  C5_5 
ROOT
HETATM    1  C2  UNL     1     -33.625  15.275  -3.897  1.00 20.00     0.006 C 
HETATM    2  C3  UNL     1     -33.027  15.530  -5.289  1.00 20.00     0.006 C 
HETATM    3  C4  UNL     1     -34.970  16.842  -5.067  1.00 20.00     0.011 C 
HETATM    4  C5  UNL     1     -35.816  14.594  -4.905  1.00 20.00     0.067 C 
HETATM    5  C6  UNL     1     -35.098  15.685  -4.075  1.00 20.00    -0.002 C 
HETATM    6  C7  UNL     1     -34.247  15.986  -6.114  1.00 20.00    -0.006 C 
HETATM    7  C8  UNL     1     -35.268  14.822  -6.349  1.00 20.00    -0.033 C 
HETATM    8  C10 UNL     1     -36.335  15.263  -7.373  1.00 20.00     0.016 C 
HETATM    9  C11 UNL     1     -34.620  13.541  -6.899  1.00 20.00     0.016 C 
ENDROOT
BRANCH   4  10
HETATM   10  C1  UNL     1     -37.305  14.715  -4.763  1.00 20.00     0.128 C 
HETATM   11  C9  UNL     1     -37.832  16.030  -4.257  1.00 20.00     0.091 C 
HETATM   12  O12 UNL     1     -38.058  13.784  -5.047  1.00 20.00    -0.298 OA
ENDBRANCH   4  10
TORSDOF 1
ENDMDL
MODEL 7
REMARK VINA RESULT:      -4.3      1.535      2.999
REMARK  1 active torsions:
REMARK  status: ('A' for Active; 'I' for Inactive)
REMARK    1  A    between atoms: C1_1  and  C5_5 
ROOT
HETATM    1  C2  UNL     1     -33.971  15.136  -6.263  1.00 20.00     0.006 C 
HETATM    2  C3  UNL     1     -32.918  15.512  -5.210  1.00 20.00     0.006 C 
HETATM    3  C4  UNL     1     -34.551  14.167  -4.175  1.00 20.00     0.011 C 
HETATM    4  C5  UNL     1     -35.803  16.108  -4.854  1.00 20.00     0.067 C 
HETATM    5  C6  UNL     1     -35.205  14.793  -5.408  1.00 20.00    -0.002 C 
HETATM    6  C7  UNL     1     -33.698  15.408  -3.885  1.00 20.00    -0.006 C 
HETATM    7  C8  UNL     1     -34.783  16.529  -3.749  1.00 20.00    -0.033 C 
HETATM    8  C10 UNL     1     -35.359  16.528  -2.318  1.00 20.00     0.016 C 
HETATM    9  C11 UNL     1     -34.239  17.942  -4.013  1.00 20.00     0.016 C 
ENDROOT
BRANCH   4  10
HETATM   10  C1  UNL     1     -37.207  15.892  -4.375  1.00 20.00     0.128 C 
HETATM   11  C9  UNL     1     -38.046  17.122  -4.159  1.00 20.00     0.091 C 
HETATM   12  O12 UNL     1     -37.652  14.763  -4.168  1.00 20.00    -0.298 OA
ENDBRANCH   4  10
TORSDOF 1
ENDMDL
MODEL 8
REMARK VINA RESULT:      -4.3      1.537      3.575
REMARK  1 active torsions:
REMARK  status: ('A' for Active; 'I' for Inactive)
REMARK    1  A    between atoms: C1_1  and  C5_5 
ROOT
HETATM    1  C2  UNL     1     -37.663  14.409  -5.700  1.00 20.00     0.006 C 
HETATM    2  C3  UNL     1     -37.380  14.926  -7.119  1.00 20.00     0.006 C 
HETATM    3  C4  UNL     1     -35.637  13.467  -6.501  1.00 20.00     0.011 C 
HETATM    4  C5  UNL     1     -35.443  15.249  -4.893  1.00 20.00     0.067 C 
HETATM    5  C6  UNL     1     -36.270  13.978  -5.206  1.00 20.00    -0.002 C 
HETATM    6  C7  UNL     1     -35.848  14.796  -7.237  1.00 20.00    -0.006 C 
HETATM    7  C8  UNL     1     -35.096  15.809  -6.309  1.00 20.00    -0.033 C 
HETATM    8  C10 UNL     1     -33.590  15.804  -6.643  1.00 20.00     0.016 C 
HETATM    9  C11 UNL     1     -35.586  17.258  -6.461  1.00 20.00     0.016 C 
ENDROOT
BRANCH   4  10
HETATM   10  C1  UNL     1     -34.260  14.913  -4.034  1.00 20.00     0.128 C 
HETATM   11  C9  UNL     1     -33.707  16.022  -3.181  1.00 20.00     0.091 C 
HETATM   12  O12 UNL     1     -33.767  13.785  -4.027  1.00 20.00    -0.298 OA
ENDBRANCH   4  10
TORSDOF 1
ENDMDL
MODEL 9
REMARK VINA RESULT:      -4.2      1.747      3.053
REMARK  1 active torsions:
REMARK  status: ('A' for Active; 'I' for Inactive)
REMARK    1  A    between atoms: C1_1  and  C5_5 
ROOT
HETATM    1  C2  UNL     1     -35.193  18.380  -3.424  1.00 20.00     0.006 C 
HETATM    2  C3  UNL     1     -35.874  17.413  -2.443  1.00 20.00     0.006 C 
HETATM    3  C4  UNL     1     -33.670  16.666  -2.809  1.00 20.00     0.011 C 
HETATM    4  C5  UNL     1     -34.666  16.499  -4.995  1.00 20.00     0.067 C 
HETATM    5  C6  UNL     1     -34.055  17.527  -4.013  1.00 20.00    -0.002 C 
HETATM    6  C7  UNL     1     -35.087  16.103  -2.644  1.00 20.00    -0.006 C 
HETATM    7  C8  UNL     1     -35.353  15.464  -4.048  1.00 20.00    -0.033 C 
HETATM    8  C10 UNL     1     -34.741  14.048  -4.103  1.00 20.00     0.016 C 
HETATM    9  C11 UNL     1     -36.847  15.321  -4.382  1.00 20.00     0.016 C 
ENDROOT
BRANCH   4  10
HETATM   10  C1  UNL     1     -33.609  15.933  -5.896  1.00 20.00     0.128 C 
HETATM   11  C9  UNL     1     -34.004  15.680  -7.326  1.00 20.00     0.091 C 
HETATM   12  O12 UNL     1     -32.475  15.688  -5.487  1.00 20.00    -0.298 OA
ENDBRANCH   4  10
TORSDOF 1
ENDMDL
