MODEL 1
REMARK VINA RESULT:      -5.4      0.000      0.000
REMARK  1 active torsions:
REMARK  status: ('A' for Active; 'I' for Inactive)
REMARK    1  A    between atoms: C1_1  and  C6_6 
ROOT
HETATM    1  C2  UNL     1     -33.697   5.623   5.481  1.00 20.00     0.005 C 
HETATM    2  C3  UNL     1     -34.041   7.101   5.243  1.00 20.00     0.006 C 
HETATM    3  C4  UNL     1     -33.218   5.310   3.045  1.00 20.00     0.017 C 
HETATM    4  C5  UNL     1     -35.418   5.777   3.841  1.00 20.00     0.010 C 
HETATM    5  C6  UNL     1     -33.563   6.781   2.762  1.00 20.00     0.059 C 
HETATM    6  C7  UNL     1     -34.182   4.946   4.189  1.00 20.00    -0.013 C 
HETATM    7  C8  UNL     1     -34.638   7.095   3.823  1.00 20.00    -0.003 C 
ENDROOT
BRANCH   5   8
HETATM    8  C1  UNL     1     -32.376   7.690   2.820  1.00 20.00     0.127 C 
HETATM    9  C9  UNL     1     -32.226   8.679   1.696  1.00 20.00     0.091 C 
HETATM   10  O10 UNL     1     -31.565   7.634   3.743  1.00 20.00    -0.298 OA
ENDBRANCH   5   8
TORSDOF 1
ENDMDL
MODEL 2
REMARK VINA RESULT:      -4.8     11.333     12.400
REMARK  1 active torsions:
REMARK  status: ('A' for Active; 'I' for Inactive)
REMARK    1  A    between atoms: C1_1  and  C6_6 
ROOT
HETATM    1  C2  UNL     1     -34.608  17.167  -5.184  1.00 20.00     0.005 C 
HETATM    2  C3  UNL     1     -35.846  16.386  -4.721  1.00 20.00     0.006 C 
HETATM    3  C4  UNL     1     -33.165  15.155  -4.822  1.00 20.00     0.017 C 
HETATM    4  C5  UNL     1     -34.216  16.289  -3.005  1.00 20.00     0.010 C 
HETATM    5  C6  UNL     1     -34.377  14.340  -4.343  1.00 20.00     0.059 C 
HETATM    6  C7  UNL     1     -33.485  16.575  -4.318  1.00 20.00    -0.013 C 
HETATM    7  C8  UNL     1     -35.272  15.408  -3.679  1.00 20.00    -0.003 C 
ENDROOT
BRANCH   5   8
HETATM    8  C1  UNL     1     -35.055  13.585  -5.442  1.00 20.00     0.127 C 
HETATM    9  C9  UNL     1     -34.523  13.792  -6.834  1.00 20.00     0.091 C 
HETATM   10  O10 UNL     1     -36.001  12.830  -5.218  1.00 20.00    -0.298 OA
ENDBRANCH   5   8
TORSDOF 1
ENDMDL
MODEL 3
REMARK VINA RESULT:      -4.7     11.245     12.657
REMARK  1 active torsions:
REMARK  status: ('A' for Active; 'I' for Inactive)
REMARK    1  A    between atoms: C1_1  and  C6_6 
ROOT
HETATM    1  C2  UNL     1     -33.360  15.537  -6.378  1.00 20.00     0.005 C 
HETATM    2  C3  UNL     1     -34.806  16.050  -6.442  1.00 20.00     0.006 C 
HETATM    3  C4  UNL     1     -33.852  14.322  -4.246  1.00 20.00     0.017 C 
HETATM    4  C5  UNL     1     -33.871  16.705  -4.366  1.00 20.00     0.010 C 
HETATM    5  C6  UNL     1     -35.305  14.822  -4.267  1.00 20.00     0.059 C 
HETATM    6  C7  UNL     1     -33.076  15.499  -4.868  1.00 20.00    -0.013 C 
HETATM    7  C8  UNL     1     -35.189  16.197  -4.957  1.00 20.00    -0.003 C 
ENDROOT
BRANCH   5   8
HETATM    8  C1  UNL     1     -36.245  13.882  -4.953  1.00 20.00     0.127 C 
HETATM    9  C9  UNL     1     -37.654  14.368  -5.164  1.00 20.00     0.091 C 
HETATM   10  O10 UNL     1     -35.884  12.767  -5.329  1.00 20.00    -0.298 OA
ENDBRANCH   5   8
TORSDOF 1
ENDMDL
MODEL 4
REMARK VINA RESULT:      -4.7     11.209     12.473
REMARK  1 active torsions:
REMARK  status: ('A' for Active; 'I' for Inactive)
REMARK    1  A    between atoms: C1_1  and  C6_6 
ROOT
HETATM    1  C2  UNL     1     -34.003  16.555  -4.532  1.00 20.00     0.005 C 
HETATM    2  C3  UNL     1     -34.866  15.666  -3.626  1.00 20.00     0.006 C 
HETATM    3  C4  UNL     1     -34.198  14.898  -6.397  1.00 20.00     0.017 C 
HETATM    4  C5  UNL     1     -33.019  14.391  -4.385  1.00 20.00     0.010 C 
HETATM    5  C6  UNL     1     -35.057  13.974  -5.520  1.00 20.00     0.059 C 
HETATM    6  C7  UNL     1     -33.230  15.533  -5.381  1.00 20.00    -0.013 C 
HETATM    7  C8  UNL     1     -34.517  14.242  -4.099  1.00 20.00    -0.003 C 
ENDROOT
BRANCH   5   8
HETATM    8  C1  UNL     1     -36.527  14.220  -5.661  1.00 20.00     0.127 C 
HETATM    9  C9  UNL     1     -36.947  15.230  -6.694  1.00 20.00     0.091 C 
HETATM   10  O10 UNL     1     -37.350  13.624  -4.968  1.00 20.00    -0.298 OA
ENDBRANCH   5   8
TORSDOF 1
ENDMDL
MODEL 5
REMARK VINA RESULT:      -4.5      1.390      3.021
REMARK  1 active torsions:
REMARK  status: ('A' for Active; 'I' for Inactive)
REMARK    1  A    between atoms: C1_1  and  C6_6 
ROOT
HETATM    1  C2  UNL     1     -32.783   4.802   2.889  1.00 20.00     0.005 C 
HETATM    2  C3  UNL     1     -34.095   4.616   3.665  1.00 20.00     0.006 C 
HETATM    3  C4  UNL     1     -32.814   7.259   3.363  1.00 20.00     0.017 C 
HETATM    4  C5  UNL     1     -34.452   6.229   1.967  1.00 20.00     0.010 C 
HETATM    5  C6  UNL     1     -34.133   7.119   4.140  1.00 20.00     0.059 C 
HETATM    6  C7  UNL     1     -32.951   6.194   2.259  1.00 20.00    -0.013 C 
HETATM    7  C8  UNL     1     -34.834   5.946   3.423  1.00 20.00    -0.003 C 
ENDROOT
BRANCH   5   8
HETATM    8  C1  UNL     1     -33.936   6.896   5.606  1.00 20.00     0.127 C 
HETATM    9  C9  UNL     1     -34.720   5.774   6.232  1.00 20.00     0.091 C 
HETATM   10  O10 UNL     1     -33.168   7.594   6.267  1.00 20.00    -0.298 OA
ENDBRANCH   5   8
TORSDOF 1
ENDMDL
MODEL 6
REMARK VINA RESULT:      -4.4     11.392     12.405
REMARK  1 active torsions:
REMARK  status: ('A' for Active; 'I' for Inactive)
REMARK    1  A    between atoms: C1_1  and  C6_6 
ROOT
HETATM    1  C2  UNL     1     -36.120  14.618  -7.292  1.00 20.00     0.005 C 
HETATM    2  C3  UNL     1     -35.511  13.352  -6.672  1.00 20.00     0.006 C 
HETATM    3  C4  UNL     1     -35.750  15.878  -5.161  1.00 20.00     0.017 C 
HETATM    4  C5  UNL     1     -37.302  14.071  -5.297  1.00 20.00     0.010 C 
HETATM    5  C6  UNL     1     -35.142  14.630  -4.500  1.00 20.00     0.059 C 
HETATM    6  C7  UNL     1     -36.820  15.283  -6.096  1.00 20.00    -0.013 C 
HETATM    7  C8  UNL     1     -35.896  13.472  -5.185  1.00 20.00    -0.003 C 
ENDROOT
BRANCH   5   8
HETATM    8  C1  UNL     1     -33.654  14.548  -4.644  1.00 20.00     0.127 C 
HETATM    9  C9  UNL     1     -32.977  15.703  -5.332  1.00 20.00     0.091 C 
HETATM   10  O10 UNL     1     -33.017  13.586  -4.218  1.00 20.00    -0.298 OA
ENDBRANCH   5   8
TORSDOF 1
ENDMDL
MODEL 7
REMARK VINA RESULT:      -4.2     11.254     12.978
REMARK  1 active torsions:
REMARK  status: ('A' for Active; 'I' for Inactive)
REMARK    1  A    between atoms: C1_1  and  C6_6 
ROOT
HETATM    1  C2  UNL     1     -35.296  15.917  -7.585  1.00 20.00     0.005 C 
HETATM    2  C3  UNL     1     -34.052  15.052  -7.336  1.00 20.00     0.006 C 
HETATM    3  C4  UNL     1     -36.580  14.617  -5.875  1.00 20.00     0.017 C 
HETATM    4  C5  UNL     1     -35.851  13.624  -7.918  1.00 20.00     0.010 C 
HETATM    5  C6  UNL     1     -35.360  13.723  -5.602  1.00 20.00     0.059 C 
HETATM    6  C7  UNL     1     -36.451  14.924  -7.379  1.00 20.00    -0.013 C 
HETATM    7  C8  UNL     1     -34.649  13.680  -6.970  1.00 20.00    -0.003 C 
ENDROOT
BRANCH   5   8
HETATM    8  C1  UNL     1     -34.495  14.224  -4.489  1.00 20.00     0.127 C 
HETATM    9  C9  UNL     1     -34.967  15.458  -3.767  1.00 20.00     0.091 C 
HETATM   10  O10 UNL     1     -33.450  13.654  -4.176  1.00 20.00    -0.298 OA
ENDBRANCH   5   8
TORSDOF 1
ENDMDL
MODEL 8
REMARK VINA RESULT:      -4.2      1.198      2.103
REMARK  1 active torsions:
REMARK  status: ('A' for Active; 'I' for Inactive)
REMARK    1  A    between atoms: C1_1  and  C6_6 
ROOT
HETATM    1  C2  UNL     1     -35.470   6.171   3.579  1.00 20.00     0.005 C 
HETATM    2  C3  UNL     1     -34.683   5.974   2.275  1.00 20.00     0.006 C 
HETATM    3  C4  UNL     1     -33.464   7.192   4.672  1.00 20.00     0.017 C 
HETATM    4  C5  UNL     1     -33.510   4.895   4.028  1.00 20.00     0.010 C 
HETATM    5  C6  UNL     1     -32.638   7.004   3.390  1.00 20.00     0.059 C 
HETATM    6  C7  UNL     1     -34.398   5.967   4.661  1.00 20.00    -0.013 C 
HETATM    7  C8  UNL     1     -33.245   5.728   2.770  1.00 20.00    -0.003 C 
ENDROOT
BRANCH   5   8
HETATM    8  C1  UNL     1     -32.676   8.192   2.480  1.00 20.00     0.127 C 
HETATM    9  C9  UNL     1     -31.580   8.294   1.454  1.00 20.00     0.091 C 
HETATM   10  O10 UNL     1     -33.562   9.042   2.566  1.00 20.00    -0.298 OA
ENDBRANCH   5   8
TORSDOF 1
ENDMDL
MODEL 9
REMARK VINA RESULT:      -4.2     11.273     12.457
REMARK  1 active torsions:
REMARK  status: ('A' for Active; 'I' for Inactive)
REMARK    1  A    between atoms: C1_1  and  C6_6 
ROOT
HETATM    1  C2  UNL     1     -36.754  14.706  -4.900  1.00 20.00     0.005 C 
HETATM    2  C3  UNL     1     -36.187  15.829  -5.781  1.00 20.00     0.006 C 
HETATM    3  C4  UNL     1     -34.449  14.096  -4.139  1.00 20.00     0.017 C 
HETATM    4  C5  UNL     1     -35.146  13.793  -6.401  1.00 20.00     0.010 C 
HETATM    5  C6  UNL     1     -33.840  15.203  -5.015  1.00 20.00     0.059 C 
HETATM    6  C7  UNL     1     -35.660  13.629  -4.970  1.00 20.00    -0.013 C 
HETATM    7  C8  UNL     1     -34.815  15.276  -6.209  1.00 20.00    -0.003 C 
ENDROOT
BRANCH   5   8
HETATM    8  C1  UNL     1     -33.672  16.504  -4.295  1.00 20.00     0.127 C 
HETATM    9  C9  UNL     1     -33.990  16.509  -2.823  1.00 20.00     0.091 C 
HETATM   10  O10 UNL     1     -33.291  17.519  -4.876  1.00 20.00    -0.298 OA
ENDBRANCH   5   8
TORSDOF 1
ENDMDL
