MODEL 1
REMARK VINA RESULT:      -5.5      0.000      0.000
REMARK  1 active torsions:
REMARK  status: ('A' for Active; 'I' for Inactive)
REMARK    1  A    between atoms: C1_1  and  C6_6 
ROOT
HETATM    1  C2  UNL     1     -34.580   4.701   5.320  1.00 20.00     0.005 C 
HETATM    2  C3  UNL     1     -33.903   4.264   4.010  1.00 20.00     0.006 C 
HETATM    3  C4  UNL     1     -33.515   6.966   5.145  1.00 20.00     0.020 C 
HETATM    4  C5  UNL     1     -35.166   6.231   3.596  1.00 20.00     0.010 C 
HETATM    5  C6  UNL     1     -32.796   6.497   3.869  1.00 20.00     0.091 C 
HETATM    6  C7  UNL     1     -34.851   6.198   5.089  1.00 20.00    -0.013 C 
HETATM    7  C8  UNL     1     -33.839   5.573   3.205  1.00 20.00     0.000 C 
ENDROOT
BRANCH   5   8
HETATM    8  C1  UNL     1     -32.480   7.658   2.945  1.00 20.00     0.177 C 
HETATM    9  O9  UNL     1     -33.095   7.654   1.843  1.00 20.00    -0.648 OA
HETATM   10  O10 UNL     1     -31.637   8.481   3.400  1.00 20.00    -0.648 OA
ENDBRANCH   5   8
TORSDOF 1
ENDMDL
MODEL 2
REMARK VINA RESULT:      -5.0     11.554     12.408
REMARK  1 active torsions:
REMARK  status: ('A' for Active; 'I' for Inactive)
REMARK    1  A    between atoms: C1_1  and  C6_6 
ROOT
HETATM    1  C2  UNL     1     -33.647  16.458  -3.052  1.00 20.00     0.005 C 
HETATM    2  C3  UNL     1     -35.141  16.275  -2.736  1.00 20.00     0.006 C 
HETATM    3  C4  UNL     1     -33.682  14.423  -4.520  1.00 20.00     0.020 C 
HETATM    4  C5  UNL     1     -34.871  16.405  -5.091  1.00 20.00     0.010 C 
HETATM    5  C6  UNL     1     -35.160  14.216  -4.148  1.00 20.00     0.091 C 
HETATM    6  C7  UNL     1     -33.535  15.958  -4.503  1.00 20.00    -0.013 C 
HETATM    7  C8  UNL     1     -35.692  15.660  -4.034  1.00 20.00     0.000 C 
ENDROOT
BRANCH   5   8
HETATM    8  C1  UNL     1     -35.914  13.478  -5.238  1.00 20.00     0.177 C 
HETATM    9  O9  UNL     1     -37.163  13.651  -5.242  1.00 20.00    -0.648 OA
HETATM   10  O10 UNL     1     -35.190  12.781  -6.003  1.00 20.00    -0.648 OA
ENDBRANCH   5   8
TORSDOF 1
ENDMDL
MODEL 3
REMARK VINA RESULT:      -4.9     11.635     12.684
REMARK  1 active torsions:
REMARK  status: ('A' for Active; 'I' for Inactive)
REMARK    1  A    between atoms: C1_1  and  C6_6 
ROOT
HETATM    1  C2  UNL     1     -33.374  16.758  -4.648  1.00 20.00     0.005 C 
HETATM    2  C3  UNL     1     -33.332  16.000  -5.986  1.00 20.00     0.006 C 
HETATM    3  C4  UNL     1     -35.525  15.618  -4.040  1.00 20.00     0.020 C 
HETATM    4  C5  UNL     1     -33.475  14.421  -4.219  1.00 20.00     0.010 C 
HETATM    5  C6  UNL     1     -35.503  14.911  -5.406  1.00 20.00     0.091 C 
HETATM    6  C7  UNL     1     -34.028  15.743  -3.693  1.00 20.00    -0.013 C 
HETATM    7  C8  UNL     1     -33.999  14.657  -5.639  1.00 20.00     0.000 C 
ENDROOT
BRANCH   5   8
HETATM    8  C1  UNL     1     -36.245  13.589  -5.365  1.00 20.00     0.177 C 
HETATM    9  O9  UNL     1     -35.591  12.591  -5.777  1.00 20.00    -0.648 OA
HETATM   10  O10 UNL     1     -37.426  13.658  -4.924  1.00 20.00    -0.648 OA
ENDBRANCH   5   8
TORSDOF 1
ENDMDL
MODEL 4
REMARK VINA RESULT:      -4.9     11.645     12.683
REMARK  1 active torsions:
REMARK  status: ('A' for Active; 'I' for Inactive)
REMARK    1  A    between atoms: C1_1  and  C6_6 
ROOT
HETATM    1  C2  UNL     1     -33.393  16.764  -4.635  1.00 20.00     0.005 C 
HETATM    2  C3  UNL     1     -33.357  16.021  -5.981  1.00 20.00     0.006 C 
HETATM    3  C4  UNL     1     -35.535  15.609  -4.025  1.00 20.00     0.020 C 
HETATM    4  C5  UNL     1     -33.482  14.422  -4.231  1.00 20.00     0.010 C 
HETATM    5  C6  UNL     1     -35.519  14.918  -5.399  1.00 20.00     0.091 C 
HETATM    6  C7  UNL     1     -34.036  15.737  -3.687  1.00 20.00    -0.013 C 
HETATM    7  C8  UNL     1     -34.016  14.672  -5.644  1.00 20.00     0.000 C 
ENDROOT
BRANCH   5   8
HETATM    8  C1  UNL     1     -36.256  13.592  -5.367  1.00 20.00     0.177 C 
HETATM    9  O9  UNL     1     -37.438  13.642  -4.929  1.00 20.00    -0.648 OA
HETATM   10  O10 UNL     1     -35.588  12.605  -5.784  1.00 20.00    -0.648 OA
ENDBRANCH   5   8
TORSDOF 1
ENDMDL
MODEL 5
REMARK VINA RESULT:      -4.5      2.416      3.507
REMARK  1 active torsions:
REMARK  status: ('A' for Active; 'I' for Inactive)
REMARK    1  A    between atoms: C1_1  and  C6_6 
ROOT
HETATM    1  C2  UNL     1     -33.138   8.013   2.199  1.00 20.00     0.005 C 
HETATM    2  C3  UNL     1     -34.059   6.904   1.664  1.00 20.00     0.006 C 
HETATM    3  C4  UNL     1     -33.560   7.264   4.556  1.00 20.00     0.020 C 
HETATM    4  C5  UNL     1     -32.369   5.911   3.002  1.00 20.00     0.010 C 
HETATM    5  C6  UNL     1     -34.527   6.198   4.013  1.00 20.00     0.091 C 
HETATM    6  C7  UNL     1     -32.500   7.366   3.441  1.00 20.00    -0.013 C 
HETATM    7  C8  UNL     1     -33.861   5.772   2.687  1.00 20.00     0.000 C 
ENDROOT
BRANCH   5   8
HETATM    8  C1  UNL     1     -34.624   5.004   4.943  1.00 20.00     0.177 C 
HETATM    9  O9  UNL     1     -34.580   3.876   4.379  1.00 20.00    -0.648 OA
HETATM   10  O10 UNL     1     -34.738   5.294   6.167  1.00 20.00    -0.648 OA
ENDBRANCH   5   8
TORSDOF 1
ENDMDL
MODEL 6
REMARK VINA RESULT:      -4.5      2.416      3.611
REMARK  1 active torsions:
REMARK  status: ('A' for Active; 'I' for Inactive)
REMARK    1  A    between atoms: C1_1  and  C6_6 
ROOT
HETATM    1  C2  UNL     1     -33.152   8.018   2.203  1.00 20.00     0.005 C 
HETATM    2  C3  UNL     1     -34.061   6.900   1.666  1.00 20.00     0.006 C 
HETATM    3  C4  UNL     1     -33.575   7.264   4.559  1.00 20.00     0.020 C 
HETATM    4  C5  UNL     1     -32.365   5.923   3.008  1.00 20.00     0.010 C 
HETATM    5  C6  UNL     1     -34.529   6.188   4.012  1.00 20.00     0.091 C 
HETATM    6  C7  UNL     1     -32.512   7.378   3.448  1.00 20.00    -0.013 C 
HETATM    7  C8  UNL     1     -33.855   5.770   2.689  1.00 20.00     0.000 C 
ENDROOT
BRANCH   5   8
HETATM    8  C1  UNL     1     -34.617   4.993   4.943  1.00 20.00     0.177 C 
HETATM    9  O9  UNL     1     -34.727   5.271   6.168  1.00 20.00    -0.648 OA
HETATM   10  O10 UNL     1     -34.565   3.870   4.367  1.00 20.00    -0.648 OA
ENDBRANCH   5   8
TORSDOF 1
ENDMDL
MODEL 7
REMARK VINA RESULT:      -4.4      2.432      3.717
REMARK  1 active torsions:
REMARK  status: ('A' for Active; 'I' for Inactive)
REMARK    1  A    between atoms: C1_1  and  C6_6 
ROOT
HETATM    1  C2  UNL     1     -32.134   7.723   2.631  1.00 20.00     0.005 C 
HETATM    2  C3  UNL     1     -32.255   7.931   4.150  1.00 20.00     0.006 C 
HETATM    3  C4  UNL     1     -33.225   5.472   2.825  1.00 20.00     0.020 C 
HETATM    4  C5  UNL     1     -34.413   7.487   3.267  1.00 20.00     0.010 C 
HETATM    5  C6  UNL     1     -33.286   5.666   4.350  1.00 20.00     0.091 C 
HETATM    6  C7  UNL     1     -33.394   6.908   2.290  1.00 20.00    -0.013 C 
HETATM    7  C8  UNL     1     -33.552   7.179   4.496  1.00 20.00     0.000 C 
ENDROOT
BRANCH   5   8
HETATM    8  C1  UNL     1     -34.428   4.883   4.969  1.00 20.00     0.177 C 
HETATM    9  O9  UNL     1     -34.911   5.378   6.024  1.00 20.00    -0.648 OA
HETATM   10  O10 UNL     1     -34.749   3.833   4.346  1.00 20.00    -0.648 OA
ENDBRANCH   5   8
TORSDOF 1
ENDMDL
MODEL 8
REMARK VINA RESULT:      -4.3     11.957     12.876
REMARK  1 active torsions:
REMARK  status: ('A' for Active; 'I' for Inactive)
REMARK    1  A    between atoms: C1_1  and  C6_6 
ROOT
HETATM    1  C2  UNL     1     -35.233  17.422  -3.991  1.00 20.00     0.005 C 
HETATM    2  C3  UNL     1     -34.419  17.214  -5.279  1.00 20.00     0.006 C 
HETATM    3  C4  UNL     1     -36.284  15.159  -4.258  1.00 20.00     0.020 C 
HETATM    4  C5  UNL     1     -33.964  15.421  -3.791  1.00 20.00     0.010 C 
HETATM    5  C6  UNL     1     -35.509  14.988  -5.576  1.00 20.00     0.091 C 
HETATM    6  C7  UNL     1     -35.320  16.004  -3.401  1.00 20.00    -0.013 C 
HETATM    7  C8  UNL     1     -34.169  15.696  -5.283  1.00 20.00     0.000 C 
ENDROOT
BRANCH   5   8
HETATM    8  C1  UNL     1     -35.257  13.526  -5.892  1.00 20.00     0.177 C 
HETATM    9  O9  UNL     1     -34.358  13.306  -6.749  1.00 20.00    -0.648 OA
HETATM   10  O10 UNL     1     -35.984  12.714  -5.254  1.00 20.00    -0.648 OA
ENDBRANCH   5   8
TORSDOF 1
ENDMDL
MODEL 9
REMARK VINA RESULT:      -4.3      0.977      1.899
REMARK  1 active torsions:
REMARK  status: ('A' for Active; 'I' for Inactive)
REMARK    1  A    between atoms: C1_1  and  C6_6 
ROOT
HETATM    1  C2  UNL     1     -34.881   4.869   4.268  1.00 20.00     0.005 C 
HETATM    2  C3  UNL     1     -35.567   6.132   3.723  1.00 20.00     0.006 C 
HETATM    3  C4  UNL     1     -32.694   5.598   3.277  1.00 20.00     0.020 C 
HETATM    4  C5  UNL     1     -33.722   6.786   5.066  1.00 20.00     0.010 C 
HETATM    5  C6  UNL     1     -33.405   6.828   2.687  1.00 20.00     0.091 C 
HETATM    6  C7  UNL     1     -33.459   5.358   4.594  1.00 20.00    -0.013 C 
HETATM    7  C8  UNL     1     -34.442   7.181   3.774  1.00 20.00     0.000 C 
ENDROOT
BRANCH   5   8
HETATM    8  C1  UNL     1     -32.449   7.990   2.495  1.00 20.00     0.177 C 
HETATM    9  O9  UNL     1     -31.451   8.000   3.268  1.00 20.00    -0.648 OA
HETATM   10  O10 UNL     1     -32.777   8.800   1.585  1.00 20.00    -0.648 OA
ENDBRANCH   5   8
TORSDOF 1
ENDMDL
