MODEL 1
REMARK VINA RESULT:      -4.8      0.000      0.000
REMARK  0 active torsions:
REMARK  status: ('A' for Active; 'I' for Inactive)
ROOT
HETATM    1  C1  UNL     1     -35.226  18.174   0.413  1.00 20.00     0.031 A 
HETATM    2  C2  UNL     1     -34.602  18.870   2.657  1.00 20.00     0.043 A 
HETATM    3  C3  UNL     1     -32.928  18.515   0.964  1.00 20.00     0.033 A 
HETATM    4  C4  UNL     1     -33.887  18.168   0.023  1.00 20.00    -0.045 A 
HETATM    5  C5  UNL     1     -33.270  18.862   2.266  1.00 20.00     0.017 A 
HETATM    6  C6  UNL     1     -35.583  18.523   1.723  1.00 20.00     0.035 A 
HETATM    7  C7  UNL     1     -31.482  18.560   0.726  1.00 20.00     0.171 A 
HETATM    8  C8  UNL     1     -30.684  18.972   1.942  1.00 20.00     0.163 A 
HETATM    9  C9  UNL     1     -33.550  17.788  -1.379  1.00 20.00     0.049 C 
HETATM   10  O10 UNL     1     -30.969  18.290  -0.349  1.00 20.00    -0.291 OA
HETATM   11  S11 UNL     1     -31.880  19.263   3.279  1.00 20.00    -0.121 SA
HETATM   12 CL12 UNL     1     -37.241  18.526   2.185  1.00 20.00    -0.084 Cl
ENDROOT
TORSDOF 0
ENDMDL
MODEL 2
REMARK VINA RESULT:      -4.8      5.627      7.187
REMARK  0 active torsions:
REMARK  status: ('A' for Active; 'I' for Inactive)
ROOT
HETATM    1  C1  UNL     1     -33.788  16.196  -2.901  1.00 20.00     0.031 A 
HETATM    2  C2  UNL     1     -36.144  16.789  -2.805  1.00 20.00     0.043 A 
HETATM    3  C3  UNL     1     -35.368  15.051  -4.277  1.00 20.00     0.033 A 
HETATM    4  C4  UNL     1     -34.054  15.222  -3.863  1.00 20.00    -0.045 A 
HETATM    5  C5  UNL     1     -36.406  15.819  -3.762  1.00 20.00     0.017 A 
HETATM    6  C6  UNL     1     -34.827  16.976  -2.374  1.00 20.00     0.035 A 
HETATM    7  C7  UNL     1     -35.823  14.078  -5.276  1.00 20.00     0.171 A 
HETATM    8  C8  UNL     1     -37.313  14.123  -5.525  1.00 20.00     0.163 A 
HETATM    9  C9  UNL     1     -32.920  14.416  -4.401  1.00 20.00     0.049 C 
HETATM   10  O10 UNL     1     -35.073  13.306  -5.853  1.00 20.00    -0.291 OA
HETATM   11  S11 UNL     1     -37.986  15.419  -4.443  1.00 20.00    -0.121 SA
HETATM   12 CL12 UNL     1     -34.479  18.173  -1.186  1.00 20.00    -0.084 Cl
ENDROOT
TORSDOF 0
ENDMDL
MODEL 3
REMARK VINA RESULT:      -4.4      2.616      3.375
REMARK  0 active torsions:
REMARK  status: ('A' for Active; 'I' for Inactive)
ROOT
HETATM    1  C1  UNL     1     -34.597  17.870  -0.636  1.00 20.00     0.031 A 
HETATM    2  C2  UNL     1     -32.233  18.440  -0.641  1.00 20.00     0.043 A 
HETATM    3  C3  UNL     1     -33.518  18.516   1.393  1.00 20.00     0.033 A 
HETATM    4  C4  UNL     1     -34.671  18.113   0.735  1.00 20.00    -0.045 A 
HETATM    5  C5  UNL     1     -32.310  18.681   0.723  1.00 20.00     0.017 A 
HETATM    6  C6  UNL     1     -33.385  18.032  -1.322  1.00 20.00     0.035 A 
HETATM    7  C7  UNL     1     -33.417  18.814   2.825  1.00 20.00     0.171 A 
HETATM    8  C8  UNL     1     -32.031  19.232   3.258  1.00 20.00     0.163 A 
HETATM    9  C9  UNL     1     -35.980  17.931   1.426  1.00 20.00     0.049 C 
HETATM   10  O10 UNL     1     -34.361  18.733   3.597  1.00 20.00    -0.291 OA
HETATM   11  S11 UNL     1     -30.987  19.201   1.771  1.00 20.00    -0.121 SA
HETATM   12 CL12 UNL     1     -33.313  17.727  -3.015  1.00 20.00    -0.084 Cl
ENDROOT
TORSDOF 0
ENDMDL
MODEL 4
REMARK VINA RESULT:      -4.4      2.111      3.176
REMARK  0 active torsions:
REMARK  status: ('A' for Active; 'I' for Inactive)
ROOT
HETATM    1  C1  UNL     1     -34.535  18.909   2.122  1.00 20.00     0.031 A 
HETATM    2  C2  UNL     1     -36.154  17.831   0.665  1.00 20.00     0.043 A 
HETATM    3  C3  UNL     1     -33.870  18.129  -0.033  1.00 20.00     0.033 A 
HETATM    4  C4  UNL     1     -33.537  18.750   1.163  1.00 20.00    -0.045 A 
HETATM    5  C5  UNL     1     -35.158  17.673  -0.289  1.00 20.00     0.017 A 
HETATM    6  C6  UNL     1     -35.837  18.453   1.876  1.00 20.00     0.035 A 
HETATM    7  C7  UNL     1     -32.949  17.881  -1.148  1.00 20.00     0.171 A 
HETATM    8  C8  UNL     1     -33.598  17.187  -2.323  1.00 20.00     0.163 A 
HETATM    9  C9  UNL     1     -32.165  19.252   1.463  1.00 20.00     0.049 C 
HETATM   10  O10 UNL     1     -31.771  18.204  -1.130  1.00 20.00    -0.291 OA
HETATM   11  S11 UNL     1     -35.339  16.920  -1.877  1.00 20.00    -0.121 SA
HETATM   12 CL12 UNL     1     -37.057  18.659   3.074  1.00 20.00    -0.084 Cl
ENDROOT
TORSDOF 0
ENDMDL
MODEL 5
REMARK VINA RESULT:      -4.3      2.941      3.991
REMARK  0 active torsions:
REMARK  status: ('A' for Active; 'I' for Inactive)
ROOT
HETATM    1  C1  UNL     1     -32.130  18.345  -0.298  1.00 20.00     0.031 A 
HETATM    2  C2  UNL     1     -33.242  19.009   1.760  1.00 20.00     0.043 A 
HETATM    3  C3  UNL     1     -34.503  18.171  -0.111  1.00 20.00     0.033 A 
HETATM    4  C4  UNL     1     -33.354  18.003  -0.871  1.00 20.00    -0.045 A 
HETATM    5  C5  UNL     1     -34.459  18.667   1.187  1.00 20.00     0.017 A 
HETATM    6  C6  UNL     1     -32.073  18.846   1.010  1.00 20.00     0.035 A 
HETATM    7  C7  UNL     1     -35.867  17.864  -0.555  1.00 20.00     0.171 A 
HETATM    8  C8  UNL     1     -36.920  18.152   0.490  1.00 20.00     0.163 A 
HETATM    9  C9  UNL     1     -33.371  17.477  -2.266  1.00 20.00     0.049 C 
HETATM   10  O10 UNL     1     -36.130  17.419  -1.662  1.00 20.00    -0.291 OA
HETATM   11  S11 UNL     1     -36.047  18.793   1.950  1.00 20.00    -0.121 SA
HETATM   12 CL12 UNL     1     -30.551  19.262   1.701  1.00 20.00    -0.084 Cl
ENDROOT
TORSDOF 0
ENDMDL
MODEL 6
REMARK VINA RESULT:      -4.3      5.861      7.318
REMARK  0 active torsions:
REMARK  status: ('A' for Active; 'I' for Inactive)
ROOT
HETATM    1  C1  UNL     1     -34.219  15.792  -3.406  1.00 20.00     0.031 A 
HETATM    2  C2  UNL     1     -35.683  17.667  -2.907  1.00 20.00     0.043 A 
HETATM    3  C3  UNL     1     -36.535  15.684  -3.971  1.00 20.00     0.033 A 
HETATM    4  C4  UNL     1     -35.285  15.083  -3.957  1.00 20.00    -0.045 A 
HETATM    5  C5  UNL     1     -36.743  16.959  -3.456  1.00 20.00     0.017 A 
HETATM    6  C6  UNL     1     -34.415  17.078  -2.883  1.00 20.00     0.035 A 
HETATM    7  C7  UNL     1     -37.761  15.084  -4.510  1.00 20.00     0.171 A 
HETATM    8  C8  UNL     1     -38.973  15.978  -4.387  1.00 20.00     0.163 A 
HETATM    9  C9  UNL     1     -35.033  13.719  -4.506  1.00 20.00     0.049 C 
HETATM   10  O10 UNL     1     -37.800  13.971  -5.010  1.00 20.00    -0.291 OA
HETATM   11  S11 UNL     1     -38.415  17.511  -3.586  1.00 20.00    -0.121 SA
HETATM   12 CL12 UNL     1     -33.086  17.938  -2.206  1.00 20.00    -0.084 Cl
ENDROOT
TORSDOF 0
ENDMDL
MODEL 7
REMARK VINA RESULT:      -4.3      2.246      3.346
REMARK  0 active torsions:
REMARK  status: ('A' for Active; 'I' for Inactive)
ROOT
HETATM    1  C1  UNL     1     -32.129  19.122   3.461  1.00 20.00     0.031 A 
HETATM    2  C2  UNL     1     -34.505  18.645   3.265  1.00 20.00     0.043 A 
HETATM    3  C3  UNL     1     -33.074  18.606   1.331  1.00 20.00     0.033 A 
HETATM    4  C4  UNL     1     -31.960  18.936   2.090  1.00 20.00    -0.045 A 
HETATM    5  C5  UNL     1     -34.334  18.460   1.900  1.00 20.00     0.017 A 
HETATM    6  C6  UNL     1     -33.394  18.978   4.047  1.00 20.00     0.035 A 
HETATM    7  C7  UNL     1     -33.077  18.377  -0.118  1.00 20.00     0.171 A 
HETATM    8  C8  UNL     1     -34.441  18.034  -0.671  1.00 20.00     0.163 A 
HETATM    9  C9  UNL     1     -30.598  19.103   1.506  1.00 20.00     0.049 C 
HETATM   10  O10 UNL     1     -32.075  18.455  -0.813  1.00 20.00    -0.291 OA
HETATM   11  S11 UNL     1     -35.592  18.040   0.735  1.00 20.00    -0.121 SA
HETATM   12 CL12 UNL     1     -33.583  19.210   5.743  1.00 20.00    -0.084 Cl
ENDROOT
TORSDOF 0
ENDMDL
MODEL 8
REMARK VINA RESULT:      -4.1      3.265      4.530
REMARK  0 active torsions:
REMARK  status: ('A' for Active; 'I' for Inactive)
ROOT
HETATM    1  C1  UNL     1     -33.172  18.712   1.840  1.00 20.00     0.031 A 
HETATM    2  C2  UNL     1     -31.971  18.496  -0.263  1.00 20.00     0.043 A 
HETATM    3  C3  UNL     1     -34.362  18.238  -0.174  1.00 20.00     0.033 A 
HETATM    4  C4  UNL     1     -34.383  18.465   1.195  1.00 20.00    -0.045 A 
HETATM    5  C5  UNL     1     -33.177  18.250  -0.903  1.00 20.00     0.017 A 
HETATM    6  C6  UNL     1     -31.971  18.728   1.116  1.00 20.00     0.035 A 
HETATM    7  C7  UNL     1     -35.537  17.962  -1.008  1.00 20.00     0.171 A 
HETATM    8  C8  UNL     1     -35.205  17.754  -2.467  1.00 20.00     0.163 A 
HETATM    9  C9  UNL     1     -35.637  18.454   2.001  1.00 20.00     0.049 C 
HETATM   10  O10 UNL     1     -36.675  17.906  -0.567  1.00 20.00    -0.291 OA
HETATM   11  S11 UNL     1     -33.404  17.934  -2.625  1.00 20.00    -0.121 SA
HETATM   12 CL12 UNL     1     -30.486  19.035   1.930  1.00 20.00    -0.084 Cl
ENDROOT
TORSDOF 0
ENDMDL
MODEL 9
REMARK VINA RESULT:      -4.1      5.700      7.052
REMARK  0 active torsions:
REMARK  status: ('A' for Active; 'I' for Inactive)
ROOT
HETATM    1  C1  UNL     1     -35.869  17.578  -2.809  1.00 20.00     0.031 A 
HETATM    2  C2  UNL     1     -37.795  16.712  -4.015  1.00 20.00     0.043 A 
HETATM    3  C3  UNL     1     -35.715  15.501  -3.976  1.00 20.00     0.033 A 
HETATM    4  C4  UNL     1     -35.111  16.470  -3.187  1.00 20.00    -0.045 A 
HETATM    5  C5  UNL     1     -37.038  15.610  -4.390  1.00 20.00     0.017 A 
HETATM    6  C6  UNL     1     -37.204  17.699  -3.220  1.00 20.00     0.035 A 
HETATM    7  C7  UNL     1     -35.068  14.278  -4.463  1.00 20.00     0.171 A 
HETATM    8  C8  UNL     1     -35.976  13.409  -5.303  1.00 20.00     0.163 A 
HETATM    9  C9  UNL     1     -33.694  16.381  -2.731  1.00 20.00     0.049 C 
HETATM   10  O10 UNL     1     -33.908  13.987  -4.215  1.00 20.00    -0.291 OA
HETATM   11  S11 UNL     1     -37.582  14.256  -5.384  1.00 20.00    -0.121 SA
HETATM   12 CL12 UNL     1     -38.124  19.074  -2.742  1.00 20.00    -0.084 Cl
ENDROOT
TORSDOF 0
ENDMDL
