MODEL 1
REMARK VINA RESULT:      -4.7      0.000      0.000
REMARK  1 active torsions:
REMARK  status: ('A' for Active; 'I' for Inactive)
REMARK    1  A    between atoms: C1_1  and  C6_6 
ROOT
HETATM    1  C2  UNL     1     -32.892   7.532   4.824  1.00 20.00     0.022 C 
HETATM    2  C3  UNL     1     -33.907   6.051   3.018  1.00 20.00     0.022 C 
HETATM    3  C4  UNL     1     -33.935   7.153   5.868  1.00 20.00     0.074 C 
HETATM    4  C5  UNL     1     -35.033   5.549   3.914  1.00 20.00     0.074 C 
HETATM    5  C6  UNL     1     -33.427   7.454   3.393  1.00 20.00     0.048 C 
HETATM    6  S8  UNL     1     -34.518   5.447   5.652  1.00 20.00    -0.169 SA
ENDROOT
BRANCH   5   7
HETATM    7  C1  UNL     1     -32.348   7.866   2.436  1.00 20.00     0.235 C 
HETATM    8  O7  UNL     1     -32.411   8.873   1.739  1.00 20.00    -0.306 OA
ENDBRANCH   5   7
TORSDOF 1
ENDMDL
MODEL 2
REMARK VINA RESULT:      -4.3      0.872      1.973
REMARK  1 active torsions:
REMARK  status: ('A' for Active; 'I' for Inactive)
REMARK    1  A    between atoms: C1_1  and  C6_6 
ROOT
HETATM    1  C2  UNL     1     -33.556   5.687   2.755  1.00 20.00     0.022 C 
HETATM    2  C3  UNL     1     -33.684   7.514   4.525  1.00 20.00     0.022 C 
HETATM    3  C4  UNL     1     -33.769   4.557   3.755  1.00 20.00     0.074 C 
HETATM    4  C5  UNL     1     -33.908   6.533   5.671  1.00 20.00     0.074 C 
HETATM    5  C6  UNL     1     -32.877   6.910   3.374  1.00 20.00     0.048 C 
HETATM    6  S8  UNL     1     -34.834   5.067   5.134  1.00 20.00    -0.169 SA
ENDROOT
BRANCH   5   7
HETATM    7  C1  UNL     1     -32.684   7.958   2.319  1.00 20.00     0.235 C 
HETATM    8  O7  UNL     1     -31.811   8.817   2.372  1.00 20.00    -0.306 OA
ENDBRANCH   5   7
TORSDOF 1
ENDMDL
MODEL 3
REMARK VINA RESULT:      -4.2      2.699      3.794
REMARK  1 active torsions:
REMARK  status: ('A' for Active; 'I' for Inactive)
REMARK    1  A    between atoms: C1_1  and  C6_6 
ROOT
HETATM    1  C2  UNL     1     -33.472   6.001   2.947  1.00 20.00     0.022 C 
HETATM    2  C3  UNL     1     -33.607   6.725   5.386  1.00 20.00     0.022 C 
HETATM    3  C4  UNL     1     -32.869   7.319   2.479  1.00 20.00     0.074 C 
HETATM    4  C5  UNL     1     -33.014   8.104   5.118  1.00 20.00     0.074 C 
HETATM    5  C6  UNL     1     -34.362   6.157   4.182  1.00 20.00     0.048 C 
HETATM    6  S8  UNL     1     -31.817   8.071   3.753  1.00 20.00    -0.169 SA
ENDROOT
BRANCH   5   7
HETATM    7  C1  UNL     1     -34.930   4.821   4.557  1.00 20.00     0.235 C 
HETATM    8  O7  UNL     1     -34.362   3.758   4.335  1.00 20.00    -0.306 OA
ENDBRANCH   5   7
TORSDOF 1
ENDMDL
MODEL 4
REMARK VINA RESULT:      -3.5     11.359     11.922
REMARK  1 active torsions:
REMARK  status: ('A' for Active; 'I' for Inactive)
REMARK    1  A    between atoms: C1_1  and  C6_6 
ROOT
HETATM    1  C2  UNL     1     -34.486  14.718  -4.093  1.00 20.00     0.022 C 
HETATM    2  C3  UNL     1     -36.880  15.583  -4.001  1.00 20.00     0.022 C 
HETATM    3  C4  UNL     1     -33.902  15.957  -3.426  1.00 20.00     0.074 C 
HETATM    4  C5  UNL     1     -36.492  16.893  -3.325  1.00 20.00     0.074 C 
HETATM    5  C6  UNL     1     -35.765  15.012  -4.879  1.00 20.00     0.048 C 
HETATM    6  S8  UNL     1     -35.056  16.689  -2.232  1.00 20.00    -0.169 SA
ENDROOT
BRANCH   5   7
HETATM    7  C1  UNL     1     -36.256  13.749  -5.521  1.00 20.00     0.235 C 
HETATM    8  O7  UNL     1     -35.866  12.632  -5.199  1.00 20.00    -0.306 OA
ENDBRANCH   5   7
TORSDOF 1
ENDMDL
MODEL 5
REMARK VINA RESULT:      -3.4     11.881     12.656
REMARK  1 active torsions:
REMARK  status: ('A' for Active; 'I' for Inactive)
REMARK    1  A    between atoms: C1_1  and  C6_6 
ROOT
HETATM    1  C2  UNL     1     -34.850  15.431  -3.660  1.00 20.00     0.022 C 
HETATM    2  C3  UNL     1     -34.837  15.744  -6.187  1.00 20.00     0.022 C 
HETATM    3  C4  UNL     1     -33.675  16.372  -3.431  1.00 20.00     0.074 C 
HETATM    4  C5  UNL     1     -33.660  16.713  -6.166  1.00 20.00     0.074 C 
HETATM    5  C6  UNL     1     -34.809  14.747  -5.027  1.00 20.00     0.048 C 
HETATM    6  S8  UNL     1     -33.637  17.715  -4.652  1.00 20.00    -0.169 SA
ENDROOT
BRANCH   5   7
HETATM    7  C1  UNL     1     -35.983  13.824  -5.158  1.00 20.00     0.235 C 
HETATM    8  O7  UNL     1     -35.881  12.603  -5.209  1.00 20.00    -0.306 OA
ENDBRANCH   5   7
TORSDOF 1
ENDMDL
MODEL 6
REMARK VINA RESULT:      -3.4     11.697     12.652
REMARK  1 active torsions:
REMARK  status: ('A' for Active; 'I' for Inactive)
REMARK    1  A    between atoms: C1_1  and  C6_6 
ROOT
HETATM    1  C2  UNL     1     -35.867  16.066  -5.807  1.00 20.00     0.022 C 
HETATM    2  C3  UNL     1     -34.529  14.731  -4.100  1.00 20.00     0.022 C 
HETATM    3  C4  UNL     1     -35.333  17.411  -5.330  1.00 20.00     0.074 C 
HETATM    4  C5  UNL     1     -33.885  15.966  -3.483  1.00 20.00     0.074 C 
HETATM    5  C6  UNL     1     -35.909  15.014  -4.698  1.00 20.00     0.048 C 
HETATM    6  S8  UNL     1     -33.632  17.280  -4.710  1.00 20.00    -0.169 SA
ENDROOT
BRANCH   5   7
HETATM    7  C1  UNL     1     -36.468  13.735  -5.246  1.00 20.00     0.235 C 
HETATM    8  O7  UNL     1     -35.856  12.672  -5.239  1.00 20.00    -0.306 OA
ENDBRANCH   5   7
TORSDOF 1
ENDMDL
MODEL 7
REMARK VINA RESULT:      -3.4     11.664     12.587
REMARK  1 active torsions:
REMARK  status: ('A' for Active; 'I' for Inactive)
REMARK    1  A    between atoms: C1_1  and  C6_6 
ROOT
HETATM    1  C2  UNL     1     -33.596  15.516  -6.397  1.00 20.00     0.022 C 
HETATM    2  C3  UNL     1     -34.988  14.160  -4.750  1.00 20.00     0.022 C 
HETATM    3  C4  UNL     1     -33.629  16.779  -5.546  1.00 20.00     0.074 C 
HETATM    4  C5  UNL     1     -35.134  15.312  -3.763  1.00 20.00     0.074 C 
HETATM    5  C6  UNL     1     -34.828  14.631  -6.197  1.00 20.00     0.048 C 
HETATM    6  S8  UNL     1     -33.679  16.398  -3.772  1.00 20.00    -0.169 SA
ENDROOT
BRANCH   5   7
HETATM    7  C1  UNL     1     -34.725  13.428  -7.086  1.00 20.00     0.235 C 
HETATM    8  O7  UNL     1     -35.051  12.299  -6.736  1.00 20.00    -0.306 OA
ENDBRANCH   5   7
TORSDOF 1
ENDMDL
MODEL 8
REMARK VINA RESULT:      -3.3      2.984      3.565
REMARK  1 active torsions:
REMARK  status: ('A' for Active; 'I' for Inactive)
REMARK    1  A    between atoms: C1_1  and  C6_6 
ROOT
HETATM    1  C2  UNL     1     -32.967   7.777   4.940  1.00 20.00     0.022 C 
HETATM    2  C3  UNL     1     -34.078   6.184   3.292  1.00 20.00     0.022 C 
HETATM    3  C4  UNL     1     -31.874   8.192   3.963  1.00 20.00     0.074 C 
HETATM    4  C5  UNL     1     -33.076   6.469   2.179  1.00 20.00     0.074 C 
HETATM    5  C6  UNL     1     -33.481   6.358   4.690  1.00 20.00     0.048 C 
HETATM    6  S8  UNL     1     -32.461   8.176   2.246  1.00 20.00    -0.169 SA
ENDROOT
BRANCH   5   7
HETATM    7  C1  UNL     1     -34.531   6.024   5.707  1.00 20.00     0.235 C 
HETATM    8  O7  UNL     1     -34.908   4.880   5.938  1.00 20.00    -0.306 OA
ENDBRANCH   5   7
TORSDOF 1
ENDMDL
MODEL 9
REMARK VINA RESULT:      -3.3     11.843     12.260
REMARK  1 active torsions:
REMARK  status: ('A' for Active; 'I' for Inactive)
REMARK    1  A    between atoms: C1_1  and  C6_6 
ROOT
HETATM    1  C2  UNL     1     -33.386  17.309  -2.241  1.00 20.00     0.022 C 
HETATM    2  C3  UNL     1     -34.814  18.591  -0.567  1.00 20.00     0.022 C 
HETATM    3  C4  UNL     1     -34.526  16.395  -2.674  1.00 20.00     0.074 C 
HETATM    4  C5  UNL     1     -36.072  17.783  -0.863  1.00 20.00     0.074 C 
HETATM    5  C6  UNL     1     -33.527  17.797  -0.798  1.00 20.00     0.048 C 
HETATM    6  S8  UNL     1     -36.132  17.236  -2.593  1.00 20.00    -0.169 SA
ENDROOT
BRANCH   5   7
HETATM    7  C1  UNL     1     -32.356  18.665  -0.449  1.00 20.00     0.235 C 
HETATM    8  O7  UNL     1     -31.196  18.267  -0.450  1.00 20.00    -0.306 OA
ENDBRANCH   5   7
TORSDOF 1
ENDMDL
