MODEL 1
REMARK VINA RESULT:      -4.5      0.000      0.000
REMARK  4 active torsions:
REMARK  status: ('A' for Active; 'I' for Inactive)
REMARK    1  A    between atoms: C4_4  and  C7_7 
REMARK    2  A    between atoms: C5_5  and  C8_8 
REMARK    3  A    between atoms: C6_6  and  C8_8 
REMARK    4  A    between atoms: C7_7  and  C8_8 
ROOT
HETATM    1  C8  UNL     1     -32.889   7.341   3.194  1.00 20.00     0.036 C 
HETATM    2 CL9  UNL     1     -31.383   8.066   3.903  1.00 20.00    -0.119 Cl
ENDROOT
BRANCH   1   3
HETATM    3  C5  UNL     1     -32.543   5.889   2.783  1.00 20.00     0.021 C 
HETATM    4  C2  UNL     1     -33.638   4.864   3.053  1.00 20.00     0.007 C 
ENDBRANCH   1   3
BRANCH   1   5
HETATM    5  C6  UNL     1     -34.007   7.414   4.270  1.00 20.00     0.021 C 
HETATM    6  C3  UNL     1     -33.548   7.362   5.724  1.00 20.00     0.007 C 
ENDBRANCH   1   5
BRANCH   1   7
HETATM    7  C7  UNL     1     -33.327   8.224   1.991  1.00 20.00     0.025 C 
BRANCH   7   8
HETATM    8  C4  UNL     1     -32.200   8.936   1.229  1.00 20.00    -0.003 C 
HETATM    9  C1  UNL     1     -32.590  10.366   0.883  1.00 20.00     0.005 C 
ENDBRANCH   7   8
ENDBRANCH   1   7
TORSDOF 4
ENDMDL
MODEL 2
REMARK VINA RESULT:      -4.4      1.797      2.760
REMARK  4 active torsions:
REMARK  status: ('A' for Active; 'I' for Inactive)
REMARK    1  A    between atoms: C4_4  and  C7_7 
REMARK    2  A    between atoms: C5_5  and  C8_8 
REMARK    3  A    between atoms: C6_6  and  C8_8 
REMARK    4  A    between atoms: C7_7  and  C8_8 
ROOT
HETATM    1  C8  UNL     1     -33.732   6.403   3.520  1.00 20.00     0.036 C 
HETATM    2 CL9  UNL     1     -35.547   6.356   3.548  1.00 20.00    -0.119 Cl
ENDROOT
BRANCH   1   3
HETATM    3  C5  UNL     1     -33.280   7.178   4.782  1.00 20.00     0.021 C 
HETATM    4  C2  UNL     1     -34.099   6.900   6.037  1.00 20.00     0.007 C 
ENDBRANCH   1   3
BRANCH   1   5
HETATM    5  C6  UNL     1     -33.217   4.937   3.495  1.00 20.00     0.021 C 
HETATM    6  C3  UNL     1     -34.082   3.906   4.212  1.00 20.00     0.007 C 
ENDBRANCH   1   5
BRANCH   1   7
HETATM    7  C7  UNL     1     -33.290   7.086   2.196  1.00 20.00     0.025 C 
BRANCH   7   8
HETATM    8  C4  UNL     1     -32.162   8.122   2.313  1.00 20.00    -0.003 C 
HETATM    9  C1  UNL     1     -32.155   9.064   1.117  1.00 20.00     0.005 C 
ENDBRANCH   7   8
ENDBRANCH   1   7
TORSDOF 4
ENDMDL
MODEL 3
REMARK VINA RESULT:      -4.4      0.659      3.794
REMARK  4 active torsions:
REMARK  status: ('A' for Active; 'I' for Inactive)
REMARK    1  A    between atoms: C4_4  and  C7_7 
REMARK    2  A    between atoms: C5_5  and  C8_8 
REMARK    3  A    between atoms: C6_6  and  C8_8 
REMARK    4  A    between atoms: C7_7  and  C8_8 
ROOT
HETATM    1  C8  UNL     1     -32.793   7.560   3.042  1.00 20.00     0.036 C 
HETATM    2 CL9  UNL     1     -31.397   8.288   3.946  1.00 20.00    -0.119 Cl
ENDROOT
BRANCH   1   3
HETATM    3  C5  UNL     1     -33.037   8.446   1.796  1.00 20.00     0.021 C 
HETATM    4  C2  UNL     1     -31.777   8.877   1.055  1.00 20.00     0.007 C 
ENDBRANCH   1   3
BRANCH   1   5
HETATM    5  C6  UNL     1     -32.417   6.097   2.679  1.00 20.00     0.021 C 
HETATM    6  C3  UNL     1     -33.568   5.097   2.635  1.00 20.00     0.007 C 
ENDBRANCH   1   5
BRANCH   1   7
HETATM    7  C7  UNL     1     -34.015   7.514   4.003  1.00 20.00     0.025 C 
BRANCH   7   8
HETATM    8  C4  UNL     1     -33.703   7.236   5.480  1.00 20.00    -0.003 C 
HETATM    9  C1  UNL     1     -34.426   5.989   5.969  1.00 20.00     0.005 C 
ENDBRANCH   7   8
ENDBRANCH   1   7
TORSDOF 4
ENDMDL
MODEL 4
REMARK VINA RESULT:      -4.4      1.542      1.684
REMARK  4 active torsions:
REMARK  status: ('A' for Active; 'I' for Inactive)
REMARK    1  A    between atoms: C4_4  and  C7_7 
REMARK    2  A    between atoms: C5_5  and  C8_8 
REMARK    3  A    between atoms: C6_6  and  C8_8 
REMARK    4  A    between atoms: C7_7  and  C8_8 
ROOT
HETATM    1  C8  UNL     1     -33.556   6.659   3.428  1.00 20.00     0.036 C 
HETATM    2 CL9  UNL     1     -32.565   5.233   2.898  1.00 20.00    -0.119 Cl
ENDROOT
BRANCH   1   3
HETATM    3  C5  UNL     1     -34.963   6.123   3.789  1.00 20.00     0.021 C 
HETATM    4  C2  UNL     1     -34.979   4.755   4.459  1.00 20.00     0.007 C 
ENDBRANCH   1   3
BRANCH   1   5
HETATM    5  C6  UNL     1     -32.834   7.322   4.634  1.00 20.00     0.021 C 
HETATM    6  C3  UNL     1     -33.634   7.416   5.929  1.00 20.00     0.007 C 
ENDBRANCH   1   5
BRANCH   1   7
HETATM    7  C7  UNL     1     -33.578   7.688   2.262  1.00 20.00     0.025 C 
BRANCH   7   8
HETATM    8  C4  UNL     1     -32.275   8.462   2.018  1.00 20.00    -0.003 C 
HETATM    9  C1  UNL     1     -32.505   9.647   1.092  1.00 20.00     0.005 C 
ENDBRANCH   7   8
ENDBRANCH   1   7
TORSDOF 4
ENDMDL
MODEL 5
REMARK VINA RESULT:      -4.2      0.519      3.819
REMARK  4 active torsions:
REMARK  status: ('A' for Active; 'I' for Inactive)
REMARK    1  A    between atoms: C4_4  and  C7_7 
REMARK    2  A    between atoms: C5_5  and  C8_8 
REMARK    3  A    between atoms: C6_6  and  C8_8 
REMARK    4  A    between atoms: C7_7  and  C8_8 
ROOT
HETATM    1  C8  UNL     1     -32.871   7.426   3.246  1.00 20.00     0.036 C 
HETATM    2 CL9  UNL     1     -31.299   8.100   3.853  1.00 20.00    -0.119 Cl
ENDROOT
BRANCH   1   3
HETATM    3  C5  UNL     1     -33.939   7.725   4.326  1.00 20.00     0.021 C 
HETATM    4  C2  UNL     1     -33.517   7.407   5.755  1.00 20.00     0.007 C 
ENDBRANCH   1   3
BRANCH   1   5
HETATM    5  C6  UNL     1     -33.186   8.100   1.881  1.00 20.00     0.021 C 
HETATM    6  C3  UNL     1     -32.170   9.125   1.387  1.00 20.00     0.007 C 
ENDBRANCH   1   5
BRANCH   1   7
HETATM    7  C7  UNL     1     -32.675   5.904   2.990  1.00 20.00     0.025 C 
BRANCH   7   8
HETATM    8  C4  UNL     1     -33.954   5.058   2.928  1.00 20.00    -0.003 C 
HETATM    9  C1  UNL     1     -34.091   4.179   4.163  1.00 20.00     0.005 C 
ENDBRANCH   7   8
ENDBRANCH   1   7
TORSDOF 4
ENDMDL
MODEL 6
REMARK VINA RESULT:      -3.9      1.821      3.946
REMARK  4 active torsions:
REMARK  status: ('A' for Active; 'I' for Inactive)
REMARK    1  A    between atoms: C4_4  and  C7_7 
REMARK    2  A    between atoms: C5_5  and  C8_8 
REMARK    3  A    between atoms: C6_6  and  C8_8 
REMARK    4  A    between atoms: C7_7  and  C8_8 
ROOT
HETATM    1  C8  UNL     1     -33.491   6.849   3.441  1.00 20.00     0.036 C 
HETATM    2 CL9  UNL     1     -35.189   6.296   3.113  1.00 20.00    -0.119 Cl
ENDROOT
BRANCH   1   3
HETATM    3  C5  UNL     1     -32.544   5.749   2.902  1.00 20.00     0.021 C 
HETATM    4  C2  UNL     1     -33.228   4.442   2.519  1.00 20.00     0.007 C 
ENDBRANCH   1   3
BRANCH   1   5
HETATM    5  C6  UNL     1     -33.290   8.219   2.734  1.00 20.00     0.021 C 
HETATM    6  C3  UNL     1     -31.944   8.432   2.048  1.00 20.00     0.007 C 
ENDBRANCH   1   5
BRANCH   1   7
HETATM    7  C7  UNL     1     -33.347   7.078   4.972  1.00 20.00     0.025 C 
BRANCH   7   8
HETATM    8  C4  UNL     1     -34.471   6.509   5.849  1.00 20.00    -0.003 C 
HETATM    9  C1  UNL     1     -34.427   4.988   5.879  1.00 20.00     0.005 C 
ENDBRANCH   7   8
ENDBRANCH   1   7
TORSDOF 4
ENDMDL
MODEL 7
REMARK VINA RESULT:      -3.8      1.691      3.817
REMARK  4 active torsions:
REMARK  status: ('A' for Active; 'I' for Inactive)
REMARK    1  A    between atoms: C4_4  and  C7_7 
REMARK    2  A    between atoms: C5_5  and  C8_8 
REMARK    3  A    between atoms: C6_6  and  C8_8 
REMARK    4  A    between atoms: C7_7  and  C8_8 
ROOT
HETATM    1  C8  UNL     1     -33.426   7.007   3.348  1.00 20.00     0.036 C 
HETATM    2 CL9  UNL     1     -35.211   6.690   3.439  1.00 20.00    -0.119 Cl
ENDROOT
BRANCH   1   3
HETATM    3  C5  UNL     1     -33.207   8.043   2.219  1.00 20.00     0.021 C 
HETATM    4  C2  UNL     1     -31.759   8.469   2.006  1.00 20.00     0.007 C 
ENDBRANCH   1   3
BRANCH   1   5
HETATM    5  C6  UNL     1     -32.960   7.521   4.739  1.00 20.00     0.021 C 
HETATM    6  C3  UNL     1     -33.871   7.192   5.918  1.00 20.00     0.007 C 
ENDBRANCH   1   5
BRANCH   1   7
HETATM    7  C7  UNL     1     -32.711   5.653   3.077  1.00 20.00     0.025 C 
BRANCH   7   8
HETATM    8  C4  UNL     1     -33.616   4.417   2.984  1.00 20.00    -0.003 C 
HETATM    9  C1  UNL     1     -34.007   3.916   4.367  1.00 20.00     0.005 C 
ENDBRANCH   7   8
ENDBRANCH   1   7
TORSDOF 4
ENDMDL
MODEL 8
REMARK VINA RESULT:      -3.6     10.071     11.182
REMARK  4 active torsions:
REMARK  status: ('A' for Active; 'I' for Inactive)
REMARK    1  A    between atoms: C4_4  and  C7_7 
REMARK    2  A    between atoms: C5_5  and  C8_8 
REMARK    3  A    between atoms: C6_6  and  C8_8 
REMARK    4  A    between atoms: C7_7  and  C8_8 
ROOT
HETATM    1  C8  UNL     1     -33.662  14.908  -4.508  1.00 20.00     0.036 C 
HETATM    2 CL9  UNL     1     -32.207  13.894  -4.115  1.00 20.00    -0.119 Cl
ENDROOT
BRANCH   1   3
HETATM    3  C5  UNL     1     -33.511  15.365  -5.979  1.00 20.00     0.021 C 
HETATM    4  C2  UNL     1     -33.803  16.839  -6.229  1.00 20.00     0.007 C 
ENDBRANCH   1   3
BRANCH   1   5
HETATM    5  C6  UNL     1     -34.928  14.039  -4.271  1.00 20.00     0.021 C 
HETATM    6  C3  UNL     1     -35.717  13.646  -5.516  1.00 20.00     0.007 C 
ENDBRANCH   1   5
BRANCH   1   7
HETATM    7  C7  UNL     1     -33.705  16.095  -3.504  1.00 20.00     0.025 C 
BRANCH   7   8
HETATM    8  C4  UNL     1     -35.018  16.280  -2.732  1.00 20.00    -0.003 C 
HETATM    9  C1  UNL     1     -34.782  16.999  -1.411  1.00 20.00     0.005 C 
ENDBRANCH   7   8
ENDBRANCH   1   7
TORSDOF 4
ENDMDL
MODEL 9
REMARK VINA RESULT:      -3.6     10.418     11.632
REMARK  4 active torsions:
REMARK  status: ('A' for Active; 'I' for Inactive)
REMARK    1  A    between atoms: C4_4  and  C7_7 
REMARK    2  A    between atoms: C5_5  and  C8_8 
REMARK    3  A    between atoms: C6_6  and  C8_8 
REMARK    4  A    between atoms: C7_7  and  C8_8 
ROOT
HETATM    1  C8  UNL     1     -34.239  15.638  -4.413  1.00 20.00     0.036 C 
HETATM    2 CL9  UNL     1     -35.746  16.482  -4.975  1.00 20.00    -0.119 Cl
ENDROOT
BRANCH   1   3
HETATM    3  C5  UNL     1     -33.786  16.342  -3.111  1.00 20.00     0.021 C 
HETATM    4  C2  UNL     1     -34.899  16.627  -2.111  1.00 20.00     0.007 C 
ENDBRANCH   1   3
BRANCH   1   5
HETATM    5  C6  UNL     1     -34.582  14.138  -4.201  1.00 20.00     0.021 C 
HETATM    6  C3  UNL     1     -35.781  13.604  -4.979  1.00 20.00     0.007 C 
ENDBRANCH   1   5
BRANCH   1   7
HETATM    7  C7  UNL     1     -33.185  15.730  -5.553  1.00 20.00     0.025 C 
BRANCH   7   8
HETATM    8  C4  UNL     1     -33.717  16.131  -6.936  1.00 20.00    -0.003 C 
HETATM    9  C1  UNL     1     -33.851  14.918  -7.846  1.00 20.00     0.005 C 
ENDBRANCH   7   8
ENDBRANCH   1   7
TORSDOF 4
ENDMDL
