MODEL 1
REMARK VINA RESULT:      -4.1      0.000      0.000
REMARK  2 active torsions:
REMARK  status: ('A' for Active; 'I' for Inactive)
REMARK    1  A    between atoms: C1_1  and  C3_3 
REMARK    2  A    between atoms: C2_2  and  C3_3 
ROOT
HETATM    1  C3  UNL     1     -34.427   5.987   4.106  1.00 20.00     0.139 C 
HETATM    2 CL6  UNL     1     -33.896   7.031   5.460  1.00 20.00    -0.120 Cl
ENDROOT
BRANCH   1   3
HETATM    3  C1  UNL     1     -33.435   6.097   2.959  1.00 20.00     0.244 C 
HETATM    4  F4  UNL     1     -33.010   4.858   2.597  1.00 20.00    -0.254 F 
ENDBRANCH   1   3
BRANCH   1   5
HETATM    5  C2  UNL     1     -34.571   4.556   4.598  1.00 20.00     0.244 C 
HETATM    6  F5  UNL     1     -34.367   4.524   5.943  1.00 20.00    -0.254 F 
ENDBRANCH   1   5
TORSDOF 2
ENDMDL
MODEL 2
REMARK VINA RESULT:      -4.1      1.901      2.509
REMARK  2 active torsions:
REMARK  status: ('A' for Active; 'I' for Inactive)
REMARK    1  A    between atoms: C1_1  and  C3_3 
REMARK    2  A    between atoms: C2_2  and  C3_3 
ROOT
HETATM    1  C3  UNL     1     -34.454   5.983   4.273  1.00 20.00     0.139 C 
HETATM    2 CL6  UNL     1     -33.458   5.557   2.847  1.00 20.00    -0.120 Cl
ENDROOT
BRANCH   1   3
HETATM    3  C1  UNL     1     -34.654   4.750   5.140  1.00 20.00     0.244 C 
HETATM    4  F4  UNL     1     -34.116   3.662   4.528  1.00 20.00    -0.254 F 
ENDBRANCH   1   3
BRANCH   1   5
HETATM    5  C2  UNL     1     -33.783   7.113   5.037  1.00 20.00     0.244 C 
HETATM    6  F5  UNL     1     -34.208   7.090   6.330  1.00 20.00    -0.254 F 
ENDBRANCH   1   5
TORSDOF 2
ENDMDL
MODEL 3
REMARK VINA RESULT:      -4.0      1.596      2.912
REMARK  2 active torsions:
REMARK  status: ('A' for Active; 'I' for Inactive)
REMARK    1  A    between atoms: C1_1  and  C3_3 
REMARK    2  A    between atoms: C2_2  and  C3_3 
ROOT
HETATM    1  C3  UNL     1     -34.310   6.120   4.064  1.00 20.00     0.139 C 
HETATM    2 CL6  UNL     1     -34.566   4.519   4.823  1.00 20.00    -0.120 Cl
ENDROOT
BRANCH   1   3
HETATM    3  C1  UNL     1     -33.808   7.104   5.108  1.00 20.00     0.244 C 
HETATM    4  F4  UNL     1     -34.297   6.769   6.331  1.00 20.00    -0.254 F 
ENDBRANCH   1   3
BRANCH   1   5
HETATM    5  C2  UNL     1     -33.338   5.978   2.903  1.00 20.00     0.244 C 
HETATM    6  F5  UNL     1     -33.084   4.658   2.692  1.00 20.00    -0.254 F 
ENDBRANCH   1   5
TORSDOF 2
ENDMDL
MODEL 4
REMARK VINA RESULT:      -4.0      2.088      2.400
REMARK  2 active torsions:
REMARK  status: ('A' for Active; 'I' for Inactive)
REMARK    1  A    between atoms: C1_1  and  C3_3 
REMARK    2  A    between atoms: C2_2  and  C3_3 
ROOT
HETATM    1  C3  UNL     1     -33.895   7.119   4.119  1.00 20.00     0.139 C 
HETATM    2 CL6  UNL     1     -32.366   7.328   3.211  1.00 20.00    -0.120 Cl
ENDROOT
BRANCH   1   3
HETATM    3  C1  UNL     1     -34.495   5.759   3.800  1.00 20.00     0.244 C 
HETATM    4  F4  UNL     1     -35.852   5.847   3.778  1.00 20.00    -0.254 F 
ENDBRANCH   1   3
BRANCH   1   5
HETATM    5  C2  UNL     1     -33.625   7.286   5.607  1.00 20.00     0.244 C 
HETATM    6  F5  UNL     1     -34.414   6.424   6.303  1.00 20.00    -0.254 F 
ENDBRANCH   1   5
TORSDOF 2
ENDMDL
MODEL 5
REMARK VINA RESULT:      -3.9      1.228      1.228
REMARK  2 active torsions:
REMARK  status: ('A' for Active; 'I' for Inactive)
REMARK    1  A    between atoms: C1_1  and  C3_3 
REMARK    2  A    between atoms: C2_2  and  C3_3 
ROOT
HETATM    1  C3  UNL     1     -34.518   6.095   4.587  1.00 20.00     0.139 C 
HETATM    2 CL6  UNL     1     -33.719   7.217   5.731  1.00 20.00    -0.120 Cl
ENDROOT
BRANCH   1   3
HETATM    3  C1  UNL     1     -33.764   6.092   3.267  1.00 20.00     0.244 C 
HETATM    4  F4  UNL     1     -32.628   6.831   3.382  1.00 20.00    -0.254 F 
ENDBRANCH   1   3
BRANCH   1   5
HETATM    5  C2  UNL     1     -34.586   4.708   5.206  1.00 20.00     0.244 C 
HETATM    6  F5  UNL     1     -34.278   3.781   4.258  1.00 20.00    -0.254 F 
ENDBRANCH   1   5
TORSDOF 2
ENDMDL
MODEL 6
REMARK VINA RESULT:      -3.8      1.924      2.625
REMARK  2 active torsions:
REMARK  status: ('A' for Active; 'I' for Inactive)
REMARK    1  A    between atoms: C1_1  and  C3_3 
REMARK    2  A    between atoms: C2_2  and  C3_3 
ROOT
HETATM    1  C3  UNL     1     -33.623   6.424   4.211  1.00 20.00     0.139 C 
HETATM    2 CL6  UNL     1     -33.083   7.379   2.796  1.00 20.00    -0.120 Cl
ENDROOT
BRANCH   1   3
HETATM    3  C1  UNL     1     -33.679   7.319   5.439  1.00 20.00     0.244 C 
HETATM    4  F4  UNL     1     -34.423   6.725   6.409  1.00 20.00    -0.254 F 
ENDBRANCH   1   3
BRANCH   1   5
HETATM    5  C2  UNL     1     -34.972   5.790   3.907  1.00 20.00     0.244 C 
HETATM    6  F5  UNL     1     -34.996   4.528   4.414  1.00 20.00    -0.254 F 
ENDBRANCH   1   5
TORSDOF 2
ENDMDL
MODEL 7
REMARK VINA RESULT:      -3.7      2.075      3.038
REMARK  2 active torsions:
REMARK  status: ('A' for Active; 'I' for Inactive)
REMARK    1  A    between atoms: C1_1  and  C3_3 
REMARK    2  A    between atoms: C2_2  and  C3_3 
ROOT
HETATM    1  C3  UNL     1     -34.128   5.924   3.350  1.00 20.00     0.139 C 
HETATM    2 CL6  UNL     1     -32.987   4.773   2.588  1.00 20.00    -0.120 Cl
ENDROOT
BRANCH   1   3
HETATM    3  C1  UNL     1     -34.789   5.266   4.551  1.00 20.00     0.244 C 
HETATM    4  F4  UNL     1     -34.486   3.941   4.576  1.00 20.00    -0.254 F 
ENDBRANCH   1   3
BRANCH   1   5
HETATM    5  C2  UNL     1     -33.382   7.192   3.735  1.00 20.00     0.244 C 
HETATM    6  F5  UNL     1     -32.132   7.154   3.200  1.00 20.00    -0.254 F 
ENDBRANCH   1   5
TORSDOF 2
ENDMDL
MODEL 8
REMARK VINA RESULT:      -3.7      1.528      2.722
REMARK  2 active torsions:
REMARK  status: ('A' for Active; 'I' for Inactive)
REMARK    1  A    between atoms: C1_1  and  C3_3 
REMARK    2  A    between atoms: C2_2  and  C3_3 
ROOT
HETATM    1  C3  UNL     1     -33.727   6.347   4.438  1.00 20.00     0.139 C 
HETATM    2 CL6  UNL     1     -33.844   7.280   5.961  1.00 20.00    -0.120 Cl
ENDROOT
BRANCH   1   3
HETATM    3  C1  UNL     1     -35.050   5.649   4.166  1.00 20.00     0.244 C 
HETATM    4  F4  UNL     1     -34.940   4.323   4.449  1.00 20.00    -0.254 F 
ENDBRANCH   1   3
BRANCH   1   5
HETATM    5  C2  UNL     1     -33.334   7.280   3.303  1.00 20.00     0.244 C 
HETATM    6  F5  UNL     1     -31.978   7.387   3.263  1.00 20.00    -0.254 F 
ENDBRANCH   1   5
TORSDOF 2
ENDMDL
MODEL 9
REMARK VINA RESULT:      -3.7      2.177      2.336
REMARK  2 active torsions:
REMARK  status: ('A' for Active; 'I' for Inactive)
REMARK    1  A    between atoms: C1_1  and  C3_3 
REMARK    2  A    between atoms: C2_2  and  C3_3 
ROOT
HETATM    1  C3  UNL     1     -33.600   6.501   4.174  1.00 20.00     0.139 C 
HETATM    2 CL6  UNL     1     -35.245   5.928   3.760  1.00 20.00    -0.120 Cl
ENDROOT
BRANCH   1   3
HETATM    3  C1  UNL     1     -33.034   7.303   3.013  1.00 20.00     0.244 C 
HETATM    4  F4  UNL     1     -31.774   7.719   3.311  1.00 20.00    -0.254 F 
ENDBRANCH   1   3
BRANCH   1   5
HETATM    5  C2  UNL     1     -33.659   7.319   5.454  1.00 20.00     0.244 C 
HETATM    6  F5  UNL     1     -34.443   6.674   6.360  1.00 20.00    -0.254 F 
ENDBRANCH   1   5
TORSDOF 2
ENDMDL
