MODEL 1
REMARK VINA RESULT:      -5.2      0.000      0.000
REMARK  2 active torsions:
REMARK  status: ('A' for Active; 'I' for Inactive)
REMARK    1  A    between atoms: C2_2  and  C3_3 
REMARK    2  A    between atoms: C3_3  and  C4_4 
ROOT
HETATM    1  C1  UNL     1     -32.344   7.938   2.546  1.00 20.00     0.059 C 
HETATM    2  C2  UNL     1     -33.030   7.297   3.675  1.00 20.00     0.132 C 
HETATM    3  N5  UNL     1     -31.802   8.447   1.654  1.00 20.00    -0.197 NA
ENDROOT
BRANCH   2   4
HETATM    4  C3  UNL     1     -33.682   5.983   3.247  1.00 20.00     0.131 C 
BRANCH   4   5
HETATM    5  C4  UNL     1     -34.767   5.551   4.209  1.00 20.00     0.388 C 
HETATM    6  F6  UNL     1     -34.608   6.124   5.421  1.00 20.00    -0.171 F 
HETATM    7  F7  UNL     1     -35.992   5.880   3.748  1.00 20.00    -0.171 F 
HETATM    8  F8  UNL     1     -34.740   4.211   4.383  1.00 20.00    -0.171 F 
ENDBRANCH   4   5
ENDBRANCH   2   4
TORSDOF 2
ENDMDL
MODEL 2
REMARK VINA RESULT:      -5.2      0.052      1.347
REMARK  2 active torsions:
REMARK  status: ('A' for Active; 'I' for Inactive)
REMARK    1  A    between atoms: C2_2  and  C3_3 
REMARK    2  A    between atoms: C3_3  and  C4_4 
ROOT
HETATM    1  C1  UNL     1     -32.327   7.955   2.547  1.00 20.00     0.059 C 
HETATM    2  C2  UNL     1     -32.973   7.277   3.678  1.00 20.00     0.132 C 
HETATM    3  N5  UNL     1     -31.816   8.493   1.653  1.00 20.00    -0.197 NA
ENDROOT
BRANCH   2   4
HETATM    4  C3  UNL     1     -33.694   6.010   3.220  1.00 20.00     0.131 C 
BRANCH   4   5
HETATM    5  C4  UNL     1     -34.764   5.583   4.201  1.00 20.00     0.388 C 
HETATM    6  F6  UNL     1     -35.998   5.893   3.749  1.00 20.00    -0.171 F 
HETATM    7  F7  UNL     1     -34.722   4.253   4.426  1.00 20.00    -0.171 F 
HETATM    8  F8  UNL     1     -34.594   6.206   5.388  1.00 20.00    -0.171 F 
ENDBRANCH   4   5
ENDBRANCH   2   4
TORSDOF 2
ENDMDL
MODEL 3
REMARK VINA RESULT:      -5.2      0.040      1.341
REMARK  2 active torsions:
REMARK  status: ('A' for Active; 'I' for Inactive)
REMARK    1  A    between atoms: C2_2  and  C3_3 
REMARK    2  A    between atoms: C3_3  and  C4_4 
ROOT
HETATM    1  C1  UNL     1     -32.353   7.955   2.561  1.00 20.00     0.059 C 
HETATM    2  C2  UNL     1     -33.068   7.322   3.678  1.00 20.00     0.132 C 
HETATM    3  N5  UNL     1     -31.789   8.457   1.680  1.00 20.00    -0.197 NA
ENDROOT
BRANCH   2   4
HETATM    4  C3  UNL     1     -33.673   5.984   3.254  1.00 20.00     0.131 C 
BRANCH   4   5
HETATM    5  C4  UNL     1     -34.739   5.516   4.220  1.00 20.00     0.388 C 
HETATM    6  F6  UNL     1     -34.712   4.175   4.372  1.00 20.00    -0.171 F 
HETATM    7  F7  UNL     1     -34.581   6.078   5.437  1.00 20.00    -0.171 F 
HETATM    8  F8  UNL     1     -35.968   5.853   3.770  1.00 20.00    -0.171 F 
ENDBRANCH   4   5
ENDBRANCH   2   4
TORSDOF 2
ENDMDL
MODEL 4
REMARK VINA RESULT:      -4.9      2.781      3.277
REMARK  2 active torsions:
REMARK  status: ('A' for Active; 'I' for Inactive)
REMARK    1  A    between atoms: C2_2  and  C3_3 
REMARK    2  A    between atoms: C3_3  and  C4_4 
ROOT
HETATM    1  C1  UNL     1     -34.193   6.549   5.499  1.00 20.00     0.059 C 
HETATM    2  C2  UNL     1     -34.904   5.460   4.816  1.00 20.00     0.132 C 
HETATM    3  N5  UNL     1     -33.632   7.411   6.038  1.00 20.00    -0.197 NA
ENDROOT
BRANCH   2   4
HETATM    4  C3  UNL     1     -33.931   4.556   4.061  1.00 20.00     0.131 C 
BRANCH   4   5
HETATM    5  C4  UNL     1     -33.403   5.218   2.807  1.00 20.00     0.388 C 
HETATM    6  F6  UNL     1     -34.383   5.864   2.141  1.00 20.00    -0.171 F 
HETATM    7  F7  UNL     1     -32.433   6.112   3.095  1.00 20.00    -0.171 F 
HETATM    8  F8  UNL     1     -32.877   4.297   1.970  1.00 20.00    -0.171 F 
ENDBRANCH   4   5
ENDBRANCH   2   4
TORSDOF 2
ENDMDL
MODEL 5
REMARK VINA RESULT:      -4.8      3.259      3.953
REMARK  2 active torsions:
REMARK  status: ('A' for Active; 'I' for Inactive)
REMARK    1  A    between atoms: C2_2  and  C3_3 
REMARK    2  A    between atoms: C3_3  and  C4_4 
ROOT
HETATM    1  C1  UNL     1     -34.497   4.945   4.244  1.00 20.00     0.059 C 
HETATM    2  C2  UNL     1     -34.707   6.367   3.945  1.00 20.00     0.132 C 
HETATM    3  N5  UNL     1     -34.333   3.820   4.480  1.00 20.00    -0.197 NA
ENDROOT
BRANCH   2   4
HETATM    4  C3  UNL     1     -33.521   7.208   4.415  1.00 20.00     0.131 C 
BRANCH   4   5
HETATM    5  C4  UNL     1     -32.576   7.536   3.280  1.00 20.00     0.388 C 
HETATM    6  F6  UNL     1     -31.435   8.096   3.736  1.00 20.00    -0.171 F 
HETATM    7  F7  UNL     1     -32.249   6.431   2.578  1.00 20.00    -0.171 F 
HETATM    8  F8  UNL     1     -33.148   8.412   2.425  1.00 20.00    -0.171 F 
ENDBRANCH   4   5
ENDBRANCH   2   4
TORSDOF 2
ENDMDL
MODEL 6
REMARK VINA RESULT:      -4.8      0.936      1.451
REMARK  2 active torsions:
REMARK  status: ('A' for Active; 'I' for Inactive)
REMARK    1  A    between atoms: C2_2  and  C3_3 
REMARK    2  A    between atoms: C3_3  and  C4_4 
ROOT
HETATM    1  C1  UNL     1     -32.487   8.303   2.166  1.00 20.00     0.059 C 
HETATM    2  C2  UNL     1     -32.482   7.241   3.180  1.00 20.00     0.132 C 
HETATM    3  N5  UNL     1     -32.488   9.143   1.364  1.00 20.00    -0.197 NA
ENDROOT
BRANCH   2   4
HETATM    4  C3  UNL     1     -33.794   7.223   3.963  1.00 20.00     0.131 C 
BRANCH   4   5
HETATM    5  C4  UNL     1     -34.462   5.867   3.916  1.00 20.00     0.388 C 
HETATM    6  F6  UNL     1     -35.749   5.965   3.523  1.00 20.00    -0.171 F 
HETATM    7  F7  UNL     1     -33.826   5.035   3.064  1.00 20.00    -0.171 F 
HETATM    8  F8  UNL     1     -34.449   5.289   5.138  1.00 20.00    -0.171 F 
ENDBRANCH   4   5
ENDBRANCH   2   4
TORSDOF 2
ENDMDL
MODEL 7
REMARK VINA RESULT:      -4.8      3.266      3.960
REMARK  2 active torsions:
REMARK  status: ('A' for Active; 'I' for Inactive)
REMARK    1  A    between atoms: C2_2  and  C3_3 
REMARK    2  A    between atoms: C3_3  and  C4_4 
ROOT
HETATM    1  C1  UNL     1     -34.502   4.927   4.238  1.00 20.00     0.059 C 
HETATM    2  C2  UNL     1     -34.708   6.339   3.889  1.00 20.00     0.132 C 
HETATM    3  N5  UNL     1     -34.341   3.811   4.513  1.00 20.00    -0.197 NA
ENDROOT
BRANCH   2   4
HETATM    4  C3  UNL     1     -33.550   7.203   4.387  1.00 20.00     0.131 C 
BRANCH   4   5
HETATM    5  C4  UNL     1     -32.585   7.549   3.274  1.00 20.00     0.388 C 
HETATM    6  F6  UNL     1     -33.130   8.426   2.405  1.00 20.00    -0.171 F 
HETATM    7  F7  UNL     1     -31.449   8.093   3.760  1.00 20.00    -0.171 F 
HETATM    8  F8  UNL     1     -32.245   6.441   2.579  1.00 20.00    -0.171 F 
ENDBRANCH   4   5
ENDBRANCH   2   4
TORSDOF 2
ENDMDL
MODEL 8
REMARK VINA RESULT:      -4.8      3.253      3.947
REMARK  2 active torsions:
REMARK  status: ('A' for Active; 'I' for Inactive)
REMARK    1  A    between atoms: C2_2  and  C3_3 
REMARK    2  A    between atoms: C3_3  and  C4_4 
ROOT
HETATM    1  C1  UNL     1     -34.489   4.951   4.236  1.00 20.00     0.059 C 
HETATM    2  C2  UNL     1     -34.712   6.374   3.950  1.00 20.00     0.132 C 
HETATM    3  N5  UNL     1     -34.314   3.826   4.462  1.00 20.00    -0.197 NA
ENDROOT
BRANCH   2   4
HETATM    4  C3  UNL     1     -33.529   7.221   4.416  1.00 20.00     0.131 C 
BRANCH   4   5
HETATM    5  C4  UNL     1     -32.582   7.541   3.280  1.00 20.00     0.388 C 
HETATM    6  F6  UNL     1     -32.235   6.429   2.599  1.00 20.00    -0.171 F 
HETATM    7  F7  UNL     1     -33.138   8.410   2.408  1.00 20.00    -0.171 F 
HETATM    8  F8  UNL     1     -31.448   8.104   3.752  1.00 20.00    -0.171 F 
ENDBRANCH   4   5
ENDBRANCH   2   4
TORSDOF 2
ENDMDL
MODEL 9
REMARK VINA RESULT:      -4.7      1.398      1.843
REMARK  2 active torsions:
REMARK  status: ('A' for Active; 'I' for Inactive)
REMARK    1  A    between atoms: C2_2  and  C3_3 
REMARK    2  A    between atoms: C3_3  and  C4_4 
ROOT
HETATM    1  C1  UNL     1     -32.845   7.633   4.412  1.00 20.00     0.059 C 
HETATM    2  C2  UNL     1     -33.888   7.334   5.402  1.00 20.00     0.132 C 
HETATM    3  N5  UNL     1     -32.022   7.872   3.628  1.00 20.00    -0.197 NA
ENDROOT
BRANCH   2   4
HETATM    4  C3  UNL     1     -34.081   5.826   5.557  1.00 20.00     0.131 C 
BRANCH   4   5
HETATM    5  C4  UNL     1     -34.651   5.198   4.304  1.00 20.00     0.388 C 
HETATM    6  F6  UNL     1     -35.736   5.870   3.866  1.00 20.00    -0.171 F 
HETATM    7  F7  UNL     1     -33.741   5.177   3.308  1.00 20.00    -0.171 F 
HETATM    8  F8  UNL     1     -35.027   3.922   4.543  1.00 20.00    -0.171 F 
ENDBRANCH   4   5
ENDBRANCH   2   4
TORSDOF 2
ENDMDL
