MODEL 1
REMARK VINA RESULT:      -4.6      0.000      0.000
REMARK  1 active torsions:
REMARK  status: ('A' for Active; 'I' for Inactive)
REMARK    1  A    between atoms: C4_4  and  C7_7 
ROOT
HETATM    1  C1  UNL     1     -32.490   9.392   1.417  1.00 20.00     0.063 C 
HETATM    2  C7  UNL     1     -31.785   8.177   1.854  1.00 20.00     0.165 C 
HETATM    3  N8  UNL     1     -33.047  10.350   1.072  1.00 20.00    -0.197 NA
ENDROOT
BRANCH   2   4
HETATM    4  C4  UNL     1     -32.586   7.441   2.872  1.00 20.00    -0.006 A 
HETATM    5  C3  UNL     1     -33.391   6.386   2.473  1.00 20.00     0.128 A 
HETATM    6  N9  UNL     1     -34.156   5.656   3.316  1.00 20.00    -0.248 NA
HETATM    7  C6  UNL     1     -34.110   6.004   4.621  1.00 20.00     0.127 A 
HETATM    8  C2  UNL     1     -33.339   7.042   5.121  1.00 20.00     0.068 A 
HETATM    9 CL11 UNL     1     -35.095   5.052   5.654  1.00 20.00    -0.062 Cl
HETATM   10  C5  UNL     1     -32.567   7.769   4.222  1.00 20.00     0.045 A 
HETATM   11 CL10 UNL     1     -31.597   9.066   4.818  1.00 20.00    -0.084 Cl
ENDBRANCH   2   4
TORSDOF 1
ENDMDL
MODEL 2
REMARK VINA RESULT:      -4.6     11.045     11.609
REMARK  1 active torsions:
REMARK  status: ('A' for Active; 'I' for Inactive)
REMARK    1  A    between atoms: C4_4  and  C7_7 
ROOT
HETATM    1  C1  UNL     1     -35.915  13.913  -5.299  1.00 20.00     0.063 C 
HETATM    2  C7  UNL     1     -35.949  15.382  -5.373  1.00 20.00     0.165 C 
HETATM    3  N8  UNL     1     -35.886  12.755  -5.240  1.00 20.00    -0.197 NA
ENDROOT
BRANCH   2   4
HETATM    4  C4  UNL     1     -35.396  15.985  -4.128  1.00 20.00    -0.006 A 
HETATM    5  C3  UNL     1     -36.262  16.420  -3.138  1.00 20.00     0.128 A 
HETATM    6  N9  UNL     1     -35.862  16.981  -1.974  1.00 20.00    -0.248 NA
HETATM    7  C6  UNL     1     -34.528  17.110  -1.798  1.00 20.00     0.127 A 
HETATM    8  C2  UNL     1     -33.580  16.709  -2.726  1.00 20.00     0.068 A 
HETATM    9 CL11 UNL     1     -34.066  17.827  -0.310  1.00 20.00    -0.062 Cl
HETATM   10  C5  UNL     1     -34.031  16.137  -3.910  1.00 20.00     0.045 A 
HETATM   11 CL10 UNL     1     -32.873  15.627  -5.082  1.00 20.00    -0.084 Cl
ENDBRANCH   2   4
TORSDOF 1
ENDMDL
MODEL 3
REMARK VINA RESULT:      -4.4     11.046     11.564
REMARK  1 active torsions:
REMARK  status: ('A' for Active; 'I' for Inactive)
REMARK    1  A    between atoms: C4_4  and  C7_7 
ROOT
HETATM    1  C1  UNL     1     -31.825  18.901   0.923  1.00 20.00     0.063 C 
HETATM    2  C7  UNL     1     -33.261  19.116   0.687  1.00 20.00     0.165 C 
HETATM    3  N8  UNL     1     -30.693  18.731   1.110  1.00 20.00    -0.197 NA
ENDROOT
BRANCH   2   4
HETATM    4  C4  UNL     1     -33.759  18.210  -0.386  1.00 20.00    -0.006 A 
HETATM    5  C3  UNL     1     -32.969  17.973  -1.500  1.00 20.00     0.128 A 
HETATM    6  N9  UNL     1     -33.328  17.171  -2.526  1.00 20.00    -0.248 NA
HETATM    7  C6  UNL     1     -34.540  16.579  -2.429  1.00 20.00     0.127 A 
HETATM    8  C2  UNL     1     -35.405  16.751  -1.360  1.00 20.00     0.068 A 
HETATM    9 CL11 UNL     1     -34.955  15.570  -3.753  1.00 20.00    -0.062 Cl
HETATM   10  C5  UNL     1     -34.999  17.584  -0.324  1.00 20.00     0.045 A 
HETATM   11 CL10 UNL     1     -36.055  17.816   1.020  1.00 20.00    -0.084 Cl
ENDBRANCH   2   4
TORSDOF 1
ENDMDL
MODEL 4
REMARK VINA RESULT:      -4.4      2.139      4.746
REMARK  1 active torsions:
REMARK  status: ('A' for Active; 'I' for Inactive)
REMARK    1  A    between atoms: C4_4  and  C7_7 
ROOT
HETATM    1  C1  UNL     1     -34.249   5.734   5.868  1.00 20.00     0.063 C 
HETATM    2  C7  UNL     1     -33.866   7.153   5.809  1.00 20.00     0.165 C 
HETATM    3  N8  UNL     1     -34.553   4.615   5.914  1.00 20.00    -0.197 NA
ENDROOT
BRANCH   2   4
HETATM    4  C4  UNL     1     -33.259   7.480   4.489  1.00 20.00    -0.006 A 
HETATM    5  C3  UNL     1     -32.084   8.214   4.442  1.00 20.00     0.128 A 
HETATM    6  N9  UNL     1     -31.455   8.563   3.297  1.00 20.00    -0.248 NA
HETATM    7  C6  UNL     1     -32.034   8.155   2.146  1.00 20.00     0.127 A 
HETATM    8  C2  UNL     1     -33.207   7.419   2.085  1.00 20.00     0.068 A 
HETATM    9 CL11 UNL     1     -31.203   8.620   0.719  1.00 20.00    -0.062 Cl
HETATM   10  C5  UNL     1     -33.824   7.080   3.283  1.00 20.00     0.045 A 
HETATM   11 CL10 UNL     1     -35.285   6.164   3.237  1.00 20.00    -0.084 Cl
ENDBRANCH   2   4
TORSDOF 1
ENDMDL
MODEL 5
REMARK VINA RESULT:      -4.3     10.917     11.598
REMARK  1 active torsions:
REMARK  status: ('A' for Active; 'I' for Inactive)
REMARK    1  A    between atoms: C4_4  and  C7_7 
ROOT
HETATM    1  C1  UNL     1     -34.782  16.184  -2.753  1.00 20.00     0.063 C 
HETATM    2  C7  UNL     1     -35.314  17.213  -1.846  1.00 20.00     0.165 C 
HETATM    3  N8  UNL     1     -34.362  15.374  -3.469  1.00 20.00    -0.197 NA
ENDROOT
BRANCH   2   4
HETATM    4  C4  UNL     1     -34.240  17.733  -0.953  1.00 20.00    -0.006 A 
HETATM    5  C3  UNL     1     -32.965  17.925  -1.461  1.00 20.00     0.128 A 
HETATM    6  N9  UNL     1     -31.924  18.390  -0.735  1.00 20.00    -0.248 NA
HETATM    7  C6  UNL     1     -32.175  18.676   0.562  1.00 20.00     0.127 A 
HETATM    8  C2  UNL     1     -33.413  18.518   1.165  1.00 20.00     0.068 A 
HETATM    9 CL11 UNL     1     -30.826  19.263   1.444  1.00 20.00    -0.062 Cl
HETATM   10  C5  UNL     1     -34.459  18.037   0.386  1.00 20.00     0.045 A 
HETATM   11 CL10 UNL     1     -36.011  17.832   1.111  1.00 20.00    -0.084 Cl
ENDBRANCH   2   4
TORSDOF 1
ENDMDL
MODEL 6
REMARK VINA RESULT:      -4.2     11.010     11.642
REMARK  1 active torsions:
REMARK  status: ('A' for Active; 'I' for Inactive)
REMARK    1  A    between atoms: C4_4  and  C7_7 
ROOT
HETATM    1  C1  UNL     1     -35.545  13.914  -5.346  1.00 20.00     0.063 C 
HETATM    2  C7  UNL     1     -35.169  15.330  -5.476  1.00 20.00     0.165 C 
HETATM    3  N8  UNL     1     -35.840  12.796  -5.243  1.00 20.00    -0.197 NA
ENDROOT
BRANCH   2   4
HETATM    4  C4  UNL     1     -35.036  15.964  -4.134  1.00 20.00    -0.006 A 
HETATM    5  C3  UNL     1     -33.776  16.129  -3.580  1.00 20.00     0.128 A 
HETATM    6  N9  UNL     1     -33.548  16.690  -2.372  1.00 20.00    -0.248 NA
HETATM    7  C6  UNL     1     -34.637  17.105  -1.687  1.00 20.00     0.127 A 
HETATM    8  C2  UNL     1     -35.938  16.986  -2.152  1.00 20.00     0.068 A 
HETATM    9 CL11 UNL     1     -34.302  17.811  -0.160  1.00 20.00    -0.062 Cl
HETATM   10  C5  UNL     1     -36.131  16.403  -3.399  1.00 20.00     0.045 A 
HETATM   11 CL10 UNL     1     -37.740  16.242  -4.002  1.00 20.00    -0.084 Cl
ENDBRANCH   2   4
TORSDOF 1
ENDMDL
MODEL 7
REMARK VINA RESULT:      -4.2     10.959     11.410
REMARK  1 active torsions:
REMARK  status: ('A' for Active; 'I' for Inactive)
REMARK    1  A    between atoms: C4_4  and  C7_7 
ROOT
HETATM    1  C1  UNL     1     -34.097  17.325  -1.220  1.00 20.00     0.063 C 
HETATM    2  C7  UNL     1     -33.628  16.791  -2.508  1.00 20.00     0.165 C 
HETATM    3  N8  UNL     1     -34.468  17.747  -0.205  1.00 20.00    -0.197 NA
ENDROOT
BRANCH   2   4
HETATM    4  C4  UNL     1     -34.739  16.115  -3.234  1.00 20.00    -0.006 A 
HETATM    5  C3  UNL     1     -36.028  16.614  -3.124  1.00 20.00     0.128 A 
HETATM    6  N9  UNL     1     -37.103  16.074  -3.741  1.00 20.00    -0.248 NA
HETATM    7  C6  UNL     1     -36.873  14.982  -4.503  1.00 20.00     0.127 A 
HETATM    8  C2  UNL     1     -35.624  14.406  -4.677  1.00 20.00     0.068 A 
HETATM    9 CL11 UNL     1     -38.265  14.331  -5.266  1.00 20.00    -0.062 Cl
HETATM   10  C5  UNL     1     -34.543  14.990  -4.027  1.00 20.00     0.045 A 
HETATM   11 CL10 UNL     1     -32.977  14.295  -4.226  1.00 20.00    -0.084 Cl
ENDBRANCH   2   4
TORSDOF 1
ENDMDL
MODEL 8
REMARK VINA RESULT:      -4.2     11.190     12.107
REMARK  1 active torsions:
REMARK  status: ('A' for Active; 'I' for Inactive)
REMARK    1  A    between atoms: C4_4  and  C7_7 
ROOT
HETATM    1  C1  UNL     1     -34.639  16.875  -1.784  1.00 20.00     0.063 C 
HETATM    2  C7  UNL     1     -33.419  16.888  -2.607  1.00 20.00     0.165 C 
HETATM    3  N8  UNL     1     -35.601  16.866  -1.136  1.00 20.00    -0.197 NA
ENDROOT
BRANCH   2   4
HETATM    4  C4  UNL     1     -33.640  16.160  -3.887  1.00 20.00    -0.006 A 
HETATM    5  C3  UNL     1     -33.800  14.783  -3.869  1.00 20.00     0.128 A 
HETATM    6  N9  UNL     1     -34.004  14.030  -4.973  1.00 20.00    -0.248 NA
HETATM    7  C6  UNL     1     -34.049  14.692  -6.151  1.00 20.00     0.127 A 
HETATM    8  C2  UNL     1     -33.900  16.064  -6.277  1.00 20.00     0.068 A 
HETATM    9 CL11 UNL     1     -34.310  13.698  -7.525  1.00 20.00    -0.062 Cl
HETATM   10  C5  UNL     1     -33.691  16.804  -5.118  1.00 20.00     0.045 A 
HETATM   11 CL10 UNL     1     -33.503  18.514  -5.245  1.00 20.00    -0.084 Cl
ENDBRANCH   2   4
TORSDOF 1
ENDMDL
MODEL 9
REMARK VINA RESULT:      -4.1      1.781      2.213
REMARK  1 active torsions:
REMARK  status: ('A' for Active; 'I' for Inactive)
REMARK    1  A    between atoms: C4_4  and  C7_7 
ROOT
HETATM    1  C1  UNL     1     -32.428   9.474   1.479  1.00 20.00     0.063 C 
HETATM    2  C7  UNL     1     -31.875   8.168   1.870  1.00 20.00     0.165 C 
HETATM    3  N8  UNL     1     -32.866  10.504   1.170  1.00 20.00    -0.197 NA
ENDROOT
BRANCH   2   4
HETATM    4  C4  UNL     1     -32.694   7.552   2.952  1.00 20.00    -0.006 A 
HETATM    5  C3  UNL     1     -32.445   7.893   4.272  1.00 20.00     0.128 A 
HETATM    6  N9  UNL     1     -33.129   7.392   5.325  1.00 20.00    -0.248 NA
HETATM    7  C6  UNL     1     -34.108   6.505   5.037  1.00 20.00     0.127 A 
HETATM    8  C2  UNL     1     -34.434   6.098   3.753  1.00 20.00     0.068 A 
HETATM    9 CL11 UNL     1     -34.949   5.894   6.402  1.00 20.00    -0.062 Cl
HETATM   10  C5  UNL     1     -33.708   6.636   2.697  1.00 20.00     0.045 A 
HETATM   11 CL10 UNL     1     -34.092   6.148   1.087  1.00 20.00    -0.084 Cl
ENDBRANCH   2   4
TORSDOF 1
ENDMDL
