MODEL 1
REMARK VINA RESULT:      -4.9      0.000      0.000
REMARK  1 active torsions:
REMARK  status: ('A' for Active; 'I' for Inactive)
REMARK    1  A    between atoms: C1_1  and  C6_6 
ROOT
HETATM    1  C2  UNL     1     -33.781   5.585   3.322  1.00 20.00     0.038 C 
HETATM    2  C3  UNL     1     -33.372   7.285   5.118  1.00 20.00     0.038 C 
HETATM    3  C4  UNL     1     -34.745   4.901   4.284  1.00 20.00     0.168 C 
HETATM    4  C5  UNL     1     -34.359   6.509   5.983  1.00 20.00     0.168 C 
HETATM    5  C6  UNL     1     -33.677   7.070   3.642  1.00 20.00     0.051 C 
HETATM    6  O8  UNL     1     -34.350   5.123   5.639  1.00 20.00    -0.391 OA
ENDROOT
BRANCH   5   7
HETATM    7  C1  UNL     1     -32.537   7.653   2.831  1.00 20.00     0.235 C 
HETATM    8  O7  UNL     1     -31.535   8.151   3.332  1.00 20.00    -0.306 OA
ENDBRANCH   5   7
TORSDOF 1
ENDMDL
MODEL 2
REMARK VINA RESULT:      -4.7      1.023      3.533
REMARK  1 active torsions:
REMARK  status: ('A' for Active; 'I' for Inactive)
REMARK    1  A    between atoms: C1_1  and  C6_6 
ROOT
HETATM    1  C2  UNL     1     -33.807   6.642   5.531  1.00 20.00     0.038 C 
HETATM    2  C3  UNL     1     -33.531   6.005   3.122  1.00 20.00     0.038 C 
HETATM    3  C4  UNL     1     -33.144   7.969   5.186  1.00 20.00     0.168 C 
HETATM    4  C5  UNL     1     -32.884   7.368   2.907  1.00 20.00     0.168 C 
HETATM    5  C6  UNL     1     -34.491   6.055   4.304  1.00 20.00     0.051 C 
HETATM    6  O8  UNL     1     -32.231   7.811   4.098  1.00 20.00    -0.391 OA
ENDROOT
BRANCH   5   7
HETATM    7  C1  UNL     1     -34.919   4.638   4.629  1.00 20.00     0.235 C 
HETATM    8  O7  UNL     1     -34.291   3.644   4.279  1.00 20.00    -0.306 OA
ENDBRANCH   5   7
TORSDOF 1
ENDMDL
MODEL 3
REMARK VINA RESULT:      -4.7      0.658      1.836
REMARK  1 active torsions:
REMARK  status: ('A' for Active; 'I' for Inactive)
REMARK    1  A    between atoms: C1_1  and  C6_6 
ROOT
HETATM    1  C2  UNL     1     -33.736   7.401   4.718  1.00 20.00     0.038 C 
HETATM    2  C3  UNL     1     -33.772   5.591   2.983  1.00 20.00     0.038 C 
HETATM    3  C4  UNL     1     -34.203   6.354   5.721  1.00 20.00     0.168 C 
HETATM    4  C5  UNL     1     -34.237   4.642   4.082  1.00 20.00     0.168 C 
HETATM    5  C6  UNL     1     -32.969   6.740   3.580  1.00 20.00     0.051 C 
HETATM    6  O8  UNL     1     -34.982   5.346   5.075  1.00 20.00    -0.391 OA
ENDROOT
BRANCH   5   7
HETATM    7  C1  UNL     1     -32.742   7.775   2.495  1.00 20.00     0.235 C 
HETATM    8  O7  UNL     1     -31.703   8.416   2.379  1.00 20.00    -0.306 OA
ENDBRANCH   5   7
TORSDOF 1
ENDMDL
MODEL 4
REMARK VINA RESULT:      -4.0      1.699      2.571
REMARK  1 active torsions:
REMARK  status: ('A' for Active; 'I' for Inactive)
REMARK    1  A    between atoms: C1_1  and  C6_6 
ROOT
HETATM    1  C2  UNL     1     -33.460   6.680   3.698  1.00 20.00     0.038 C 
HETATM    2  C3  UNL     1     -34.214   4.983   5.383  1.00 20.00     0.038 C 
HETATM    3  C4  UNL     1     -33.655   5.607   2.633  1.00 20.00     0.168 C 
HETATM    4  C5  UNL     1     -34.369   4.003   4.226  1.00 20.00     0.168 C 
HETATM    5  C6  UNL     1     -34.372   6.415   4.889  1.00 20.00     0.051 C 
HETATM    6  O8  UNL     1     -33.443   4.305   3.181  1.00 20.00    -0.391 OA
ENDROOT
BRANCH   5   7
HETATM    7  C1  UNL     1     -33.972   7.352   6.011  1.00 20.00     0.235 C 
HETATM    8  O7  UNL     1     -32.889   7.926   6.060  1.00 20.00    -0.306 OA
ENDBRANCH   5   7
TORSDOF 1
ENDMDL
MODEL 5
REMARK VINA RESULT:      -3.8      1.710      2.043
REMARK  1 active torsions:
REMARK  status: ('A' for Active; 'I' for Inactive)
REMARK    1  A    between atoms: C1_1  and  C6_6 
ROOT
HETATM    1  C2  UNL     1     -34.420   5.027   4.513  1.00 20.00     0.038 C 
HETATM    2  C3  UNL     1     -33.201   7.181   4.110  1.00 20.00     0.038 C 
HETATM    3  C4  UNL     1     -34.856   5.604   5.854  1.00 20.00     0.168 C 
HETATM    4  C5  UNL     1     -33.705   7.641   5.473  1.00 20.00     0.168 C 
HETATM    5  C6  UNL     1     -34.149   6.147   3.516  1.00 20.00     0.051 C 
HETATM    6  O8  UNL     1     -33.885   6.527   6.348  1.00 20.00    -0.391 OA
ENDROOT
BRANCH   5   7
HETATM    7  C1  UNL     1     -33.490   5.545   2.292  1.00 20.00     0.235 C 
HETATM    8  O7  UNL     1     -32.816   4.521   2.320  1.00 20.00    -0.306 OA
ENDBRANCH   5   7
TORSDOF 1
ENDMDL
MODEL 6
REMARK VINA RESULT:      -3.6     11.844     13.120
REMARK  1 active torsions:
REMARK  status: ('A' for Active; 'I' for Inactive)
REMARK    1  A    between atoms: C1_1  and  C6_6 
ROOT
HETATM    1  C2  UNL     1     -34.454  14.739  -4.036  1.00 20.00     0.038 C 
HETATM    2  C3  UNL     1     -34.564  14.969  -6.530  1.00 20.00     0.038 C 
HETATM    3  C4  UNL     1     -33.343  15.781  -4.057  1.00 20.00     0.168 C 
HETATM    4  C5  UNL     1     -33.446  16.000  -6.415  1.00 20.00     0.168 C 
HETATM    5  C6  UNL     1     -35.371  14.917  -5.239  1.00 20.00     0.051 C 
HETATM    6  O8  UNL     1     -32.617  15.723  -5.286  1.00 20.00    -0.391 OA
ENDROOT
BRANCH   5   7
HETATM    7  C1  UNL     1     -36.301  13.722  -5.309  1.00 20.00     0.235 C 
HETATM    8  O7  UNL     1     -35.913  12.559  -5.282  1.00 20.00    -0.306 OA
ENDBRANCH   5   7
TORSDOF 1
ENDMDL
MODEL 7
REMARK VINA RESULT:      -3.6      1.043      3.728
REMARK  1 active torsions:
REMARK  status: ('A' for Active; 'I' for Inactive)
REMARK    1  A    between atoms: C1_1  and  C6_6 
ROOT
HETATM    1  C2  UNL     1     -33.035   7.635   5.346  1.00 20.00     0.038 C 
HETATM    2  C3  UNL     1     -33.140   6.416   3.158  1.00 20.00     0.038 C 
HETATM    3  C4  UNL     1     -32.236   8.715   4.628  1.00 20.00     0.168 C 
HETATM    4  C5  UNL     1     -32.336   7.563   2.558  1.00 20.00     0.168 C 
HETATM    5  C6  UNL     1     -33.937   6.900   4.363  1.00 20.00     0.051 C 
HETATM    6  O8  UNL     1     -31.491   8.158   3.544  1.00 20.00    -0.391 OA
ENDROOT
BRANCH   5   7
HETATM    7  C1  UNL     1     -34.519   5.689   5.065  1.00 20.00     0.235 C 
HETATM    8  O7  UNL     1     -34.880   4.675   4.478  1.00 20.00    -0.306 OA
ENDBRANCH   5   7
TORSDOF 1
ENDMDL
MODEL 8
REMARK VINA RESULT:      -3.6     11.915     12.848
REMARK  1 active torsions:
REMARK  status: ('A' for Active; 'I' for Inactive)
REMARK    1  A    between atoms: C1_1  and  C6_6 
ROOT
HETATM    1  C2  UNL     1     -34.097  14.994  -5.850  1.00 20.00     0.038 C 
HETATM    2  C3  UNL     1     -34.948  15.547  -3.557  1.00 20.00     0.038 C 
HETATM    3  C4  UNL     1     -32.939  15.945  -5.575  1.00 20.00     0.168 C 
HETATM    4  C5  UNL     1     -33.742  16.468  -3.406  1.00 20.00     0.168 C 
HETATM    5  C6  UNL     1     -34.641  14.429  -4.544  1.00 20.00     0.051 C 
HETATM    6  O8  UNL     1     -33.336  16.981  -4.676  1.00 20.00    -0.391 OA
ENDROOT
BRANCH   5   7
HETATM    7  C1  UNL     1     -35.931  13.693  -4.845  1.00 20.00     0.235 C 
HETATM    8  O7  UNL     1     -35.972  12.577  -5.353  1.00 20.00    -0.306 OA
ENDBRANCH   5   7
TORSDOF 1
ENDMDL
MODEL 9
REMARK VINA RESULT:      -3.5     12.200     12.461
REMARK  1 active torsions:
REMARK  status: ('A' for Active; 'I' for Inactive)
REMARK    1  A    between atoms: C1_1  and  C6_6 
ROOT
HETATM    1  C2  UNL     1     -33.215  17.486  -1.731  1.00 20.00     0.038 C 
HETATM    2  C3  UNL     1     -34.428  18.088   0.378  1.00 20.00     0.038 C 
HETATM    3  C4  UNL     1     -34.563  17.069  -2.307  1.00 20.00     0.168 C 
HETATM    4  C5  UNL     1     -35.711  17.638  -0.312  1.00 20.00     0.168 C 
HETATM    5  C6  UNL     1     -33.403  18.544  -0.652  1.00 20.00     0.051 C 
HETATM    6  O8  UNL     1     -35.437  16.617  -1.272  1.00 20.00    -0.391 OA
ENDROOT
BRANCH   5   7
HETATM    7  C1  UNL     1     -32.077  18.745   0.053  1.00 20.00     0.235 C 
HETATM    8  O7  UNL     1     -31.026  18.237  -0.323  1.00 20.00    -0.306 OA
ENDBRANCH   5   7
TORSDOF 1
ENDMDL
