MODEL 1
REMARK VINA RESULT:      -4.2      0.000      0.000
REMARK  0 active torsions:
REMARK  status: ('A' for Active; 'I' for Inactive)
ROOT
HETATM    1  C1  UNL     1     -33.512   8.114   2.053  1.00 20.00     0.048 C 
HETATM    2  C2  UNL     1     -31.526   8.953   3.018  1.00 20.00     0.177 C 
HETATM    3  C3  UNL     1     -32.311   8.995   1.714  1.00 20.00    -0.023 C 
HETATM    4  C4  UNL     1     -33.002   7.158   3.144  1.00 20.00     0.054 C 
HETATM    5  C5  UNL     1     -32.721  10.420   1.340  1.00 20.00     0.017 C 
HETATM    6  C6  UNL     1     -31.486   8.391   0.566  1.00 20.00     0.017 C 
HETATM    7  C7  UNL     1     -32.871   5.719   2.647  1.00 20.00     0.045 C 
HETATM    8  C8  UNL     1     -33.897   7.195   4.384  1.00 20.00     0.045 C 
HETATM    9  O9  UNL     1     -31.692   7.623   3.526  1.00 20.00    -0.380 OA
ENDROOT
TORSDOF 0
ENDMDL
MODEL 2
REMARK VINA RESULT:      -4.1      1.292      3.754
REMARK  0 active torsions:
REMARK  status: ('A' for Active; 'I' for Inactive)
ROOT
HETATM    1  C1  UNL     1     -33.915   7.740   3.537  1.00 20.00     0.048 C 
HETATM    2  C2  UNL     1     -33.377   5.528   2.908  1.00 20.00     0.177 C 
HETATM    3  C3  UNL     1     -34.251   6.293   3.893  1.00 20.00    -0.023 C 
HETATM    4  C4  UNL     1     -32.495   7.681   2.951  1.00 20.00     0.054 C 
HETATM    5  C5  UNL     1     -35.735   5.977   3.705  1.00 20.00     0.017 C 
HETATM    6  C6  UNL     1     -33.846   5.970   5.340  1.00 20.00     0.017 C 
HETATM    7  C7  UNL     1     -31.454   8.317   3.872  1.00 20.00     0.045 C 
HETATM    8  C8  UNL     1     -32.431   8.337   1.570  1.00 20.00     0.045 C 
HETATM    9  O9  UNL     1     -32.166   6.286   2.797  1.00 20.00    -0.380 OA
ENDROOT
TORSDOF 0
ENDMDL
MODEL 3
REMARK VINA RESULT:      -4.1      1.667      2.767
REMARK  0 active torsions:
REMARK  status: ('A' for Active; 'I' for Inactive)
ROOT
HETATM    1  C1  UNL     1     -33.730   7.271   4.356  1.00 20.00     0.048 C 
HETATM    2  C2  UNL     1     -32.426   5.959   2.886  1.00 20.00     0.177 C 
HETATM    3  C3  UNL     1     -32.687   7.415   3.250  1.00 20.00    -0.023 C 
HETATM    4  C4  UNL     1     -34.438   5.939   4.057  1.00 20.00     0.054 C 
HETATM    5  C5  UNL     1     -31.419   8.119   3.734  1.00 20.00     0.017 C 
HETATM    6  C6  UNL     1     -33.259   8.180   2.045  1.00 20.00     0.017 C 
HETATM    7  C7  UNL     1     -35.876   6.133   3.578  1.00 20.00     0.045 C 
HETATM    8  C8  UNL     1     -34.421   5.010   5.273  1.00 20.00     0.045 C 
HETATM    9  O9  UNL     1     -33.693   5.300   3.000  1.00 20.00    -0.380 OA
ENDROOT
TORSDOF 0
ENDMDL
MODEL 4
REMARK VINA RESULT:      -4.1      1.563      3.956
REMARK  0 active torsions:
REMARK  status: ('A' for Active; 'I' for Inactive)
ROOT
HETATM    1  C1  UNL     1     -33.164   6.066   3.011  1.00 20.00     0.048 C 
HETATM    2  C2  UNL     1     -33.903   6.801   5.131  1.00 20.00     0.177 C 
HETATM    3  C3  UNL     1     -34.235   5.770   4.060  1.00 20.00    -0.023 C 
HETATM    4  C4  UNL     1     -32.814   7.550   3.215  1.00 20.00     0.054 C 
HETATM    5  C5  UNL     1     -34.145   4.341   4.595  1.00 20.00     0.017 C 
HETATM    6  C6  UNL     1     -35.644   6.010   3.496  1.00 20.00     0.017 C 
HETATM    7  C7  UNL     1     -33.304   8.431   2.067  1.00 20.00     0.045 C 
HETATM    8  C8  UNL     1     -31.310   7.748   3.412  1.00 20.00     0.045 C 
HETATM    9  O9  UNL     1     -33.480   7.972   4.422  1.00 20.00    -0.380 OA
ENDROOT
TORSDOF 0
ENDMDL
MODEL 5
REMARK VINA RESULT:      -3.8      9.698     11.038
REMARK  0 active torsions:
REMARK  status: ('A' for Active; 'I' for Inactive)
ROOT
HETATM    1  C1  UNL     1     -34.843  15.552  -5.944  1.00 20.00     0.048 C 
HETATM    2  C2  UNL     1     -35.340  13.643  -4.643  1.00 20.00     0.177 C 
HETATM    3  C3  UNL     1     -34.529  14.931  -4.584  1.00 20.00    -0.023 C 
HETATM    4  C4  UNL     1     -35.179  14.357  -6.852  1.00 20.00     0.054 C 
HETATM    5  C5  UNL     1     -34.961  15.826  -3.422  1.00 20.00     0.017 C 
HETATM    6  C6  UNL     1     -33.030  14.620  -4.450  1.00 20.00     0.017 C 
HETATM    7  C7  UNL     1     -34.104  14.104  -7.909  1.00 20.00     0.045 C 
HETATM    8  C8  UNL     1     -36.538  14.535  -7.532  1.00 20.00     0.045 C 
HETATM    9  O9  UNL     1     -35.255  13.196  -6.001  1.00 20.00    -0.380 OA
ENDROOT
TORSDOF 0
ENDMDL
MODEL 6
REMARK VINA RESULT:      -3.7     10.031     11.419
REMARK  0 active torsions:
REMARK  status: ('A' for Active; 'I' for Inactive)
ROOT
HETATM    1  C1  UNL     1     -35.844  15.365  -6.446  1.00 20.00     0.048 C 
HETATM    2  C2  UNL     1     -35.769  13.398  -5.139  1.00 20.00     0.177 C 
HETATM    3  C3  UNL     1     -36.496  14.735  -5.216  1.00 20.00    -0.023 C 
HETATM    4  C4  UNL     1     -34.448  14.725  -6.521  1.00 20.00     0.054 C 
HETATM    5  C5  UNL     1     -38.005  14.556  -5.386  1.00 20.00     0.017 C 
HETATM    6  C6  UNL     1     -36.225  15.571  -3.956  1.00 20.00     0.017 C 
HETATM    7  C7  UNL     1     -33.331  15.713  -6.189  1.00 20.00     0.045 C 
HETATM    8  C8  UNL     1     -34.191  14.101  -7.895  1.00 20.00     0.045 C 
HETATM    9  O9  UNL     1     -34.421  13.668  -5.541  1.00 20.00    -0.380 OA
ENDROOT
TORSDOF 0
ENDMDL
MODEL 7
REMARK VINA RESULT:      -3.7      0.816      3.476
REMARK  0 active torsions:
REMARK  status: ('A' for Active; 'I' for Inactive)
ROOT
HETATM    1  C1  UNL     1     -33.228   7.695   1.598  1.00 20.00     0.048 C 
HETATM    2  C2  UNL     1     -31.612   7.633   3.320  1.00 20.00     0.177 C 
HETATM    3  C3  UNL     1     -32.989   7.079   2.975  1.00 20.00    -0.023 C 
HETATM    4  C4  UNL     1     -32.392   8.986   1.594  1.00 20.00     0.054 C 
HETATM    5  C5  UNL     1     -32.997   5.551   2.938  1.00 20.00     0.017 C 
HETATM    6  C6  UNL     1     -34.037   7.565   3.989  1.00 20.00     0.017 C 
HETATM    7  C7  UNL     1     -33.257  10.245   1.624  1.00 20.00     0.045 C 
HETATM    8  C8  UNL     1     -31.448   9.037   0.391  1.00 20.00     0.045 C 
HETATM    9  O9  UNL     1     -31.588   8.964   2.790  1.00 20.00    -0.380 OA
ENDROOT
TORSDOF 0
ENDMDL
MODEL 8
REMARK VINA RESULT:      -3.7      9.335     10.698
REMARK  0 active torsions:
REMARK  status: ('A' for Active; 'I' for Inactive)
ROOT
HETATM    1  C1  UNL     1     -35.537  15.815  -5.132  1.00 20.00     0.048 C 
HETATM    2  C2  UNL     1     -34.467  13.996  -4.070  1.00 20.00     0.177 C 
HETATM    3  C3  UNL     1     -34.231  15.459  -4.425  1.00 20.00    -0.023 C 
HETATM    4  C4  UNL     1     -36.048  14.483  -5.707  1.00 20.00     0.054 C 
HETATM    5  C5  UNL     1     -33.990  16.316  -3.182  1.00 20.00     0.017 C 
HETATM    6  C6  UNL     1     -33.031  15.598  -5.375  1.00 20.00     0.017 C 
HETATM    7  C7  UNL     1     -35.958  14.430  -7.231  1.00 20.00     0.045 C 
HETATM    8  C8  UNL     1     -37.485  14.198  -5.265  1.00 20.00     0.045 C 
HETATM    9  O9  UNL     1     -35.203  13.446  -5.169  1.00 20.00    -0.380 OA
ENDROOT
TORSDOF 0
ENDMDL
MODEL 9
REMARK VINA RESULT:      -3.6      9.867     10.899
REMARK  0 active torsions:
REMARK  status: ('A' for Active; 'I' for Inactive)
ROOT
HETATM    1  C1  UNL     1     -35.460  15.709  -5.515  1.00 20.00     0.048 C 
HETATM    2  C2  UNL     1     -35.694  13.363  -5.372  1.00 20.00     0.177 C 
HETATM    3  C3  UNL     1     -36.489  14.605  -5.753  1.00 20.00    -0.023 C 
HETATM    4  C4  UNL     1     -34.516  15.142  -4.442  1.00 20.00     0.054 C 
HETATM    5  C5  UNL     1     -36.965  14.556  -7.205  1.00 20.00     0.017 C 
HETATM    6  C6  UNL     1     -37.706  14.773  -4.829  1.00 20.00     0.017 C 
HETATM    7  C7  UNL     1     -34.669  15.847  -3.095  1.00 20.00     0.045 C 
HETATM    8  C8  UNL     1     -33.055  15.203  -4.894  1.00 20.00     0.045 C 
HETATM    9  O9  UNL     1     -34.871  13.755  -4.267  1.00 20.00    -0.380 OA
ENDROOT
TORSDOF 0
ENDMDL
