MODEL 1
REMARK VINA RESULT:      -5.0      0.000      0.000
REMARK  3 active torsions:
REMARK  status: ('A' for Active; 'I' for Inactive)
REMARK    1  A    between atoms: C3_3  and  C4_4 
REMARK    2  A    between atoms: C4_4  and  C6_6 
REMARK    3  A    between atoms: C5_5  and  C6_6 
ROOT
HETATM    1  C2  UNL     1     -33.642   7.238   5.453  1.00 20.00     0.011 C 
HETATM    2  C6  UNL     1     -34.099   6.923   4.025  1.00 20.00    -0.005 C 
ENDROOT
BRANCH   2   3
HETATM    3  C4  UNL     1     -32.869   6.757   3.108  1.00 20.00     0.005 C 
BRANCH   3   4
HETATM    4  C3  UNL     1     -31.969   7.994   3.060  1.00 20.00    -0.004 C 
HETATM    5  C1  UNL     1     -32.051   8.688   1.708  1.00 20.00     0.005 C 
ENDBRANCH   3   4
ENDBRANCH   2   3
BRANCH   2   6
HETATM    6  C5  UNL     1     -35.075   5.736   3.997  1.00 20.00     0.119 C 
HETATM    7 CL7  UNL     1     -34.372   4.221   4.614  1.00 20.00    -0.130 Cl
ENDBRANCH   2   6
TORSDOF 3
ENDMDL
MODEL 2
REMARK VINA RESULT:      -4.7      2.428      4.031
REMARK  3 active torsions:
REMARK  status: ('A' for Active; 'I' for Inactive)
REMARK    1  A    between atoms: C3_3  and  C4_4 
REMARK    2  A    between atoms: C4_4  and  C6_6 
REMARK    3  A    between atoms: C5_5  and  C6_6 
ROOT
HETATM    1  C2  UNL     1     -32.934   4.798   2.589  1.00 20.00     0.011 C 
HETATM    2  C6  UNL     1     -33.604   6.173   2.694  1.00 20.00    -0.005 C 
ENDROOT
BRANCH   2   3
HETATM    3  C4  UNL     1     -34.905   6.058   3.516  1.00 20.00     0.005 C 
BRANCH   3   4
HETATM    4  C3  UNL     1     -34.842   4.997   4.617  1.00 20.00    -0.004 C 
HETATM    5  C1  UNL     1     -34.497   5.615   5.964  1.00 20.00     0.005 C 
ENDBRANCH   3   4
ENDBRANCH   2   3
BRANCH   2   6
HETATM    6  C5  UNL     1     -32.622   7.238   3.207  1.00 20.00     0.119 C 
HETATM    7 CL7  UNL     1     -32.092   8.383   1.951  1.00 20.00    -0.130 Cl
ENDBRANCH   2   6
TORSDOF 3
ENDMDL
MODEL 3
REMARK VINA RESULT:      -4.4      1.160      1.606
REMARK  3 active torsions:
REMARK  status: ('A' for Active; 'I' for Inactive)
REMARK    1  A    between atoms: C3_3  and  C4_4 
REMARK    2  A    between atoms: C4_4  and  C6_6 
REMARK    3  A    between atoms: C5_5  and  C6_6 
ROOT
HETATM    1  C2  UNL     1     -33.045   5.057   2.564  1.00 20.00     0.011 C 
HETATM    2  C6  UNL     1     -33.475   6.150   3.549  1.00 20.00    -0.005 C 
ENDROOT
BRANCH   2   3
HETATM    3  C4  UNL     1     -33.399   7.530   2.864  1.00 20.00     0.005 C 
BRANCH   3   4
HETATM    4  C3  UNL     1     -31.968   8.005   2.600  1.00 20.00    -0.004 C 
HETATM    5  C1  UNL     1     -31.879   8.810   1.312  1.00 20.00     0.005 C 
ENDBRANCH   3   4
ENDBRANCH   2   3
BRANCH   2   6
HETATM    6  C5  UNL     1     -34.839   5.830   4.181  1.00 20.00     0.119 C 
HETATM    7 CL7  UNL     1     -34.720   4.968   5.734  1.00 20.00    -0.130 Cl
ENDBRANCH   2   6
TORSDOF 3
ENDMDL
MODEL 4
REMARK VINA RESULT:      -4.4      2.562      3.896
REMARK  3 active torsions:
REMARK  status: ('A' for Active; 'I' for Inactive)
REMARK    1  A    between atoms: C3_3  and  C4_4 
REMARK    2  A    between atoms: C4_4  and  C6_6 
REMARK    3  A    between atoms: C5_5  and  C6_6 
ROOT
HETATM    1  C2  UNL     1     -32.952   7.641   4.594  1.00 20.00     0.011 C 
HETATM    2  C6  UNL     1     -32.731   7.185   3.147  1.00 20.00    -0.005 C 
ENDROOT
BRANCH   2   3
HETATM    3  C4  UNL     1     -33.673   6.007   2.821  1.00 20.00     0.005 C 
BRANCH   3   4
HETATM    4  C3  UNL     1     -34.730   5.752   3.898  1.00 20.00    -0.004 C 
HETATM    5  C1  UNL     1     -34.515   4.409   4.580  1.00 20.00     0.005 C 
ENDBRANCH   3   4
ENDBRANCH   2   3
BRANCH   2   6
HETATM    6  C5  UNL     1     -32.829   8.364   2.167  1.00 20.00     0.119 C 
HETATM    7 CL7  UNL     1     -31.415   8.520   1.096  1.00 20.00    -0.130 Cl
ENDBRANCH   2   6
TORSDOF 3
ENDMDL
MODEL 5
REMARK VINA RESULT:      -4.4      1.410      3.232
REMARK  3 active torsions:
REMARK  status: ('A' for Active; 'I' for Inactive)
REMARK    1  A    between atoms: C3_3  and  C4_4 
REMARK    2  A    between atoms: C4_4  and  C6_6 
REMARK    3  A    between atoms: C5_5  and  C6_6 
ROOT
HETATM    1  C2  UNL     1     -31.810   8.197   3.203  1.00 20.00     0.011 C 
HETATM    2  C6  UNL     1     -32.752   7.072   3.647  1.00 20.00    -0.005 C 
ENDROOT
BRANCH   2   3
HETATM    3  C4  UNL     1     -33.837   7.640   4.587  1.00 20.00     0.005 C 
BRANCH   3   4
HETATM    4  C3  UNL     1     -33.963   6.877   5.908  1.00 20.00    -0.004 C 
HETATM    5  C1  UNL     1     -34.549   5.490   5.694  1.00 20.00     0.005 C 
ENDBRANCH   3   4
ENDBRANCH   2   3
BRANCH   2   6
HETATM    6  C5  UNL     1     -33.302   6.293   2.443  1.00 20.00     0.119 C 
HETATM    7 CL7  UNL     1     -33.001   4.540   2.529  1.00 20.00    -0.130 Cl
ENDBRANCH   2   6
TORSDOF 3
ENDMDL
MODEL 6
REMARK VINA RESULT:      -4.3      1.724      3.553
REMARK  3 active torsions:
REMARK  status: ('A' for Active; 'I' for Inactive)
REMARK    1  A    between atoms: C3_3  and  C4_4 
REMARK    2  A    between atoms: C4_4  and  C6_6 
REMARK    3  A    between atoms: C5_5  and  C6_6 
ROOT
HETATM    1  C2  UNL     1     -32.463   8.034   2.078  1.00 20.00     0.011 C 
HETATM    2  C6  UNL     1     -33.294   7.478   3.239  1.00 20.00    -0.005 C 
ENDROOT
BRANCH   2   3
HETATM    3  C4  UNL     1     -33.679   6.012   2.952  1.00 20.00     0.005 C 
BRANCH   3   4
HETATM    4  C3  UNL     1     -34.869   5.519   3.778  1.00 20.00    -0.004 C 
HETATM    5  C1  UNL     1     -34.485   4.334   4.651  1.00 20.00     0.005 C 
ENDBRANCH   3   4
ENDBRANCH   2   3
BRANCH   2   6
HETATM    6  C5  UNL     1     -32.589   7.696   4.587  1.00 20.00     0.119 C 
HETATM    7 CL7  UNL     1     -33.663   7.501   5.994  1.00 20.00    -0.130 Cl
ENDBRANCH   2   6
TORSDOF 3
ENDMDL
MODEL 7
REMARK VINA RESULT:      -4.3      1.804      2.552
REMARK  3 active torsions:
REMARK  status: ('A' for Active; 'I' for Inactive)
REMARK    1  A    between atoms: C3_3  and  C4_4 
REMARK    2  A    between atoms: C4_4  and  C6_6 
REMARK    3  A    between atoms: C5_5  and  C6_6 
ROOT
HETATM    1  C2  UNL     1     -31.696   8.232   3.925  1.00 20.00     0.011 C 
HETATM    2  C6  UNL     1     -32.571   8.004   2.687  1.00 20.00    -0.005 C 
ENDROOT
BRANCH   2   3
HETATM    3  C4  UNL     1     -31.813   8.454   1.421  1.00 20.00     0.005 C 
BRANCH   3   4
HETATM    4  C3  UNL     1     -32.354   9.750   0.812  1.00 20.00    -0.004 C 
HETATM    5  C1  UNL     1     -33.178   9.475  -0.437  1.00 20.00     0.005 C 
ENDBRANCH   3   4
ENDBRANCH   2   3
BRANCH   2   6
HETATM    6  C5  UNL     1     -33.097   6.561   2.631  1.00 20.00     0.119 C 
HETATM    7 CL7  UNL     1     -34.510   6.276   3.677  1.00 20.00    -0.130 Cl
ENDBRANCH   2   6
TORSDOF 3
ENDMDL
MODEL 8
REMARK VINA RESULT:      -4.3      1.742      2.192
REMARK  3 active torsions:
REMARK  status: ('A' for Active; 'I' for Inactive)
REMARK    1  A    between atoms: C3_3  and  C4_4 
REMARK    2  A    between atoms: C4_4  and  C6_6 
REMARK    3  A    between atoms: C5_5  and  C6_6 
ROOT
HETATM    1  C2  UNL     1     -35.658   6.114   3.588  1.00 20.00     0.011 C 
HETATM    2  C6  UNL     1     -34.497   5.303   4.174  1.00 20.00    -0.005 C 
ENDROOT
BRANCH   2   3
HETATM    3  C4  UNL     1     -33.212   5.570   3.363  1.00 20.00     0.005 C 
BRANCH   3   4
HETATM    4  C3  UNL     1     -33.206   6.925   2.653  1.00 20.00    -0.004 C 
HETATM    5  C1  UNL     1     -32.017   7.771   3.082  1.00 20.00     0.005 C 
ENDBRANCH   3   4
ENDBRANCH   2   3
BRANCH   2   6
HETATM    6  C5  UNL     1     -34.353   5.542   5.686  1.00 20.00     0.119 C 
HETATM    7 CL7  UNL     1     -33.982   7.231   6.109  1.00 20.00    -0.130 Cl
ENDBRANCH   2   6
TORSDOF 3
ENDMDL
MODEL 9
REMARK VINA RESULT:      -4.1      1.286      1.917
REMARK  3 active torsions:
REMARK  status: ('A' for Active; 'I' for Inactive)
REMARK    1  A    between atoms: C3_3  and  C4_4 
REMARK    2  A    between atoms: C4_4  and  C6_6 
REMARK    3  A    between atoms: C5_5  and  C6_6 
ROOT
HETATM    1  C2  UNL     1     -33.574   7.362   5.909  1.00 20.00     0.011 C 
HETATM    2  C6  UNL     1     -34.184   7.084   4.530  1.00 20.00    -0.005 C 
ENDROOT
BRANCH   2   3
HETATM    3  C4  UNL     1     -33.070   7.051   3.463  1.00 20.00     0.005 C 
BRANCH   3   4
HETATM    4  C3  UNL     1     -33.375   6.119   2.288  1.00 20.00    -0.004 C 
HETATM    5  C1  UNL     1     -32.848   4.714   2.542  1.00 20.00     0.005 C 
ENDBRANCH   3   4
ENDBRANCH   2   3
BRANCH   2   6
HETATM    6  C5  UNL     1     -35.076   5.833   4.555  1.00 20.00     0.119 C 
HETATM    7 CL7  UNL     1     -34.548   4.603   5.729  1.00 20.00    -0.130 Cl
ENDBRANCH   2   6
TORSDOF 3
ENDMDL
