MODEL 1
REMARK VINA RESULT:      -5.5      0.000      0.000
REMARK  2 active torsions:
REMARK  status: ('A' for Active; 'I' for Inactive)
REMARK    1  A    between atoms: C1_1  and  C4_4 
REMARK    2  A    between atoms: C3_3  and  C4_4 
ROOT
HETATM    1  C4  UNL     1     -34.689   5.721   4.606  1.00 20.00     0.359 C 
HETATM    2  F8  UNL     1     -35.823   6.073   3.940  1.00 20.00    -0.191 F 
HETATM    3  F9  UNL     1     -35.081   5.343   5.851  1.00 20.00    -0.191 F 
ENDROOT
BRANCH   1   4
HETATM    4  C1  UNL     1     -33.982   4.592   3.893  1.00 20.00     0.200 C 
HETATM    5  C2  UNL     1     -33.103   4.950   2.725  1.00 20.00     0.098 C 
HETATM    6  O5  UNL     1     -34.144   3.420   4.235  1.00 20.00    -0.292 OA
ENDBRANCH   1   4
BRANCH   1   7
HETATM    7  C3  UNL     1     -33.802   6.938   4.723  1.00 20.00     0.432 C 
HETATM    8  F6  UNL     1     -34.133   7.847   3.772  1.00 20.00    -0.207 F 
HETATM    9  F7  UNL     1     -34.018   7.535   5.923  1.00 20.00    -0.207 F 
ENDBRANCH   1   7
TORSDOF 2
ENDMDL
MODEL 2
REMARK VINA RESULT:      -5.5      2.150      3.250
REMARK  2 active torsions:
REMARK  status: ('A' for Active; 'I' for Inactive)
REMARK    1  A    between atoms: C1_1  and  C4_4 
REMARK    2  A    between atoms: C3_3  and  C4_4 
ROOT
HETATM    1  C4  UNL     1     -34.371   5.783   3.812  1.00 20.00     0.359 C 
HETATM    2  F8  UNL     1     -35.703   6.050   3.719  1.00 20.00    -0.191 F 
HETATM    3  F9  UNL     1     -33.974   5.397   2.570  1.00 20.00    -0.191 F 
ENDROOT
BRANCH   1   4
HETATM    4  C1  UNL     1     -33.612   7.007   4.268  1.00 20.00     0.200 C 
HETATM    5  C2  UNL     1     -33.692   7.369   5.728  1.00 20.00     0.098 C 
HETATM    6  O5  UNL     1     -32.980   7.701   3.471  1.00 20.00    -0.292 OA
ENDBRANCH   1   4
BRANCH   1   7
HETATM    7  C3  UNL     1     -34.177   4.628   4.766  1.00 20.00     0.432 C 
HETATM    8  F6  UNL     1     -35.157   4.631   5.703  1.00 20.00    -0.207 F 
HETATM    9  F7  UNL     1     -34.295   3.460   4.084  1.00 20.00    -0.207 F 
ENDBRANCH   1   7
TORSDOF 2
ENDMDL
MODEL 3
REMARK VINA RESULT:      -5.5      2.468      3.136
REMARK  2 active torsions:
REMARK  status: ('A' for Active; 'I' for Inactive)
REMARK    1  A    between atoms: C1_1  and  C4_4 
REMARK    2  A    between atoms: C3_3  and  C4_4 
ROOT
HETATM    1  C4  UNL     1     -33.608   5.842   3.044  1.00 20.00     0.359 C 
HETATM    2  F8  UNL     1     -34.402   6.016   1.953  1.00 20.00    -0.191 F 
HETATM    3  F9  UNL     1     -32.686   4.906   2.697  1.00 20.00    -0.191 F 
ENDROOT
BRANCH   1   4
HETATM    4  C1  UNL     1     -32.942   7.142   3.432  1.00 20.00     0.200 C 
HETATM    5  C2  UNL     1     -32.299   7.948   2.335  1.00 20.00     0.098 C 
HETATM    6  O5  UNL     1     -32.899   7.512   4.606  1.00 20.00    -0.292 OA
ENDBRANCH   1   4
BRANCH   1   7
HETATM    7  C3  UNL     1     -34.453   5.299   4.173  1.00 20.00     0.432 C 
HETATM    8  F6  UNL     1     -35.738   5.704   4.026  1.00 20.00    -0.207 F 
HETATM    9  F7  UNL     1     -34.463   3.943   4.111  1.00 20.00    -0.207 F 
ENDBRANCH   1   7
TORSDOF 2
ENDMDL
MODEL 4
REMARK VINA RESULT:      -5.4      1.391      1.718
REMARK  2 active torsions:
REMARK  status: ('A' for Active; 'I' for Inactive)
REMARK    1  A    between atoms: C1_1  and  C4_4 
REMARK    2  A    between atoms: C3_3  and  C4_4 
ROOT
HETATM    1  C4  UNL     1     -34.516   5.472   4.104  1.00 20.00     0.359 C 
HETATM    2  F8  UNL     1     -35.661   6.078   3.686  1.00 20.00    -0.191 F 
HETATM    3  F9  UNL     1     -34.823   4.160   4.278  1.00 20.00    -0.191 F 
ENDROOT
BRANCH   1   4
HETATM    4  C1  UNL     1     -33.418   5.642   3.080  1.00 20.00     0.200 C 
HETATM    5  C2  UNL     1     -33.003   7.047   2.733  1.00 20.00     0.098 C 
HETATM    6  O5  UNL     1     -32.906   4.669   2.526  1.00 20.00    -0.292 OA
ENDBRANCH   1   4
BRANCH   1   7
HETATM    7  C3  UNL     1     -34.119   6.061   5.438  1.00 20.00     0.432 C 
HETATM    8  F6  UNL     1     -34.404   7.386   5.463  1.00 20.00    -0.207 F 
HETATM    9  F7  UNL     1     -34.861   5.485   6.418  1.00 20.00    -0.207 F 
ENDBRANCH   1   7
TORSDOF 2
ENDMDL
MODEL 5
REMARK VINA RESULT:      -5.4      1.942      2.797
REMARK  2 active torsions:
REMARK  status: ('A' for Active; 'I' for Inactive)
REMARK    1  A    between atoms: C1_1  and  C4_4 
REMARK    2  A    between atoms: C3_3  and  C4_4 
ROOT
HETATM    1  C4  UNL     1     -34.457   5.443   3.958  1.00 20.00     0.359 C 
HETATM    2  F8  UNL     1     -34.523   4.084   3.906  1.00 20.00    -0.191 F 
HETATM    3  F9  UNL     1     -35.584   5.900   3.351  1.00 20.00    -0.191 F 
ENDROOT
BRANCH   1   4
HETATM    4  C1  UNL     1     -34.380   5.920   5.390  1.00 20.00     0.200 C 
HETATM    5  C2  UNL     1     -33.738   7.258   5.642  1.00 20.00     0.098 C 
HETATM    6  O5  UNL     1     -34.797   5.225   6.317  1.00 20.00    -0.292 OA
ENDBRANCH   1   4
BRANCH   1   7
HETATM    7  C3  UNL     1     -33.256   5.897   3.162  1.00 20.00     0.432 C 
HETATM    8  F6  UNL     1     -32.704   4.843   2.513  1.00 20.00    -0.207 F 
HETATM    9  F7  UNL     1     -33.659   6.774   2.207  1.00 20.00    -0.207 F 
ENDBRANCH   1   7
TORSDOF 2
ENDMDL
MODEL 6
REMARK VINA RESULT:      -5.3      1.786      2.460
REMARK  2 active torsions:
REMARK  status: ('A' for Active; 'I' for Inactive)
REMARK    1  A    between atoms: C1_1  and  C4_4 
REMARK    2  A    between atoms: C3_3  and  C4_4 
ROOT
HETATM    1  C4  UNL     1     -33.665   5.686   3.186  1.00 20.00     0.359 C 
HETATM    2  F8  UNL     1     -32.666   4.989   2.579  1.00 20.00    -0.191 F 
HETATM    3  F9  UNL     1     -34.595   5.930   2.225  1.00 20.00    -0.191 F 
ENDROOT
BRANCH   1   4
HETATM    4  C1  UNL     1     -34.256   4.889   4.325  1.00 20.00     0.200 C 
HETATM    5  C2  UNL     1     -34.591   5.632   5.591  1.00 20.00     0.098 C 
HETATM    6  O5  UNL     1     -34.426   3.673   4.233  1.00 20.00    -0.292 OA
ENDBRANCH   1   4
BRANCH   1   7
HETATM    7  C3  UNL     1     -33.107   7.004   3.669  1.00 20.00     0.432 C 
HETATM    8  F6  UNL     1     -32.013   7.340   2.941  1.00 20.00    -0.207 F 
HETATM    9  F7  UNL     1     -34.026   7.981   3.461  1.00 20.00    -0.207 F 
ENDBRANCH   1   7
TORSDOF 2
ENDMDL
MODEL 7
REMARK VINA RESULT:      -5.3      1.548      2.624
REMARK  2 active torsions:
REMARK  status: ('A' for Active; 'I' for Inactive)
REMARK    1  A    between atoms: C1_1  and  C4_4 
REMARK    2  A    between atoms: C3_3  and  C4_4 
ROOT
HETATM    1  C4  UNL     1     -34.385   6.115   4.075  1.00 20.00     0.359 C 
HETATM    2  F8  UNL     1     -34.347   7.271   4.791  1.00 20.00    -0.191 F 
HETATM    3  F9  UNL     1     -35.600   6.087   3.464  1.00 20.00    -0.191 F 
ENDROOT
BRANCH   1   4
HETATM    4  C1  UNL     1     -33.267   6.078   3.059  1.00 20.00     0.200 C 
HETATM    5  C2  UNL     1     -32.634   7.389   2.676  1.00 20.00     0.098 C 
HETATM    6  O5  UNL     1     -32.910   5.020   2.541  1.00 20.00    -0.292 OA
ENDBRANCH   1   4
BRANCH   1   7
HETATM    7  C3  UNL     1     -34.295   4.952   5.034  1.00 20.00     0.432 C 
HETATM    8  F6  UNL     1     -35.015   5.215   6.152  1.00 20.00    -0.207 F 
HETATM    9  F7  UNL     1     -34.854   3.855   4.461  1.00 20.00    -0.207 F 
ENDBRANCH   1   7
TORSDOF 2
ENDMDL
MODEL 8
REMARK VINA RESULT:      -5.2      1.612      2.329
REMARK  2 active torsions:
REMARK  status: ('A' for Active; 'I' for Inactive)
REMARK    1  A    between atoms: C1_1  and  C4_4 
REMARK    2  A    between atoms: C3_3  and  C4_4 
ROOT
HETATM    1  C4  UNL     1     -34.368   6.519   4.031  1.00 20.00     0.359 C 
HETATM    2  F8  UNL     1     -34.554   7.867   4.061  1.00 20.00    -0.191 F 
HETATM    3  F9  UNL     1     -35.543   5.984   3.606  1.00 20.00    -0.191 F 
ENDROOT
BRANCH   1   4
HETATM    4  C1  UNL     1     -33.237   6.157   3.097  1.00 20.00     0.200 C 
HETATM    5  C2  UNL     1     -33.100   4.712   2.700  1.00 20.00     0.098 C 
HETATM    6  O5  UNL     1     -32.438   7.007   2.703  1.00 20.00    -0.292 OA
ENDBRANCH   1   4
BRANCH   1   7
HETATM    7  C3  UNL     1     -34.095   6.040   5.437  1.00 20.00     0.432 C 
HETATM    8  F6  UNL     1     -34.241   7.064   6.314  1.00 20.00    -0.207 F 
HETATM    9  F7  UNL     1     -35.016   5.103   5.777  1.00 20.00    -0.207 F 
ENDBRANCH   1   7
TORSDOF 2
ENDMDL
MODEL 9
REMARK VINA RESULT:      -5.2      2.397      3.209
REMARK  2 active torsions:
REMARK  status: ('A' for Active; 'I' for Inactive)
REMARK    1  A    between atoms: C1_1  and  C4_4 
REMARK    2  A    between atoms: C3_3  and  C4_4 
ROOT
HETATM    1  C4  UNL     1     -33.552   6.891   3.873  1.00 20.00     0.359 C 
HETATM    2  F8  UNL     1     -34.276   7.921   3.358  1.00 20.00    -0.191 F 
HETATM    3  F9  UNL     1     -32.248   7.262   3.786  1.00 20.00    -0.191 F 
ENDROOT
BRANCH   1   4
HETATM    4  C1  UNL     1     -33.947   6.626   5.308  1.00 20.00     0.200 C 
HETATM    5  C2  UNL     1     -34.606   5.308   5.614  1.00 20.00     0.098 C 
HETATM    6  O5  UNL     1     -33.767   7.470   6.185  1.00 20.00    -0.292 OA
ENDBRANCH   1   4
BRANCH   1   7
HETATM    7  C3  UNL     1     -33.770   5.671   3.009  1.00 20.00     0.432 C 
HETATM    8  F6  UNL     1     -34.415   6.018   1.869  1.00 20.00    -0.207 F 
HETATM    9  F7  UNL     1     -32.566   5.166   2.637  1.00 20.00    -0.207 F 
ENDBRANCH   1   7
TORSDOF 2
ENDMDL
