MODEL 1
REMARK VINA RESULT:      -5.6      0.000      0.000
REMARK  0 active torsions:
REMARK  status: ('A' for Active; 'I' for Inactive)
ROOT
HETATM    1  C1  UNL     1     -34.591   6.019   5.983  1.00 20.00    -0.003 A 
HETATM    2  C2  UNL     1     -33.787   7.203   5.754  1.00 20.00    -0.003 A 
HETATM    3  C3  UNL     1     -34.649   5.323   4.831  1.00 20.00    -0.013 A 
HETATM    4  C4  UNL     1     -33.380   7.191   4.470  1.00 20.00    -0.013 A 
HETATM    5  C5  UNL     1     -34.334   6.029   2.350  1.00 20.00     0.019 A 
HETATM    6  C6  UNL     1     -33.094   5.264   2.749  1.00 20.00     0.019 A 
HETATM    7  C7  UNL     1     -33.889   6.002   3.774  1.00 20.00    -0.005 A 
ENDROOT
TORSDOF 0
ENDMDL
MODEL 2
REMARK VINA RESULT:      -5.6      0.034      1.657
REMARK  0 active torsions:
REMARK  status: ('A' for Active; 'I' for Inactive)
ROOT
HETATM    1  C1  UNL     1     -33.818   7.200   5.753  1.00 20.00    -0.003 A 
HETATM    2  C2  UNL     1     -34.577   5.988   5.990  1.00 20.00    -0.003 A 
HETATM    3  C3  UNL     1     -33.424   7.202   4.465  1.00 20.00    -0.013 A 
HETATM    4  C4  UNL     1     -34.620   5.290   4.840  1.00 20.00    -0.013 A 
HETATM    5  C5  UNL     1     -33.084   5.285   2.743  1.00 20.00     0.019 A 
HETATM    6  C6  UNL     1     -34.354   6.003   2.355  1.00 20.00     0.019 A 
HETATM    7  C7  UNL     1     -33.896   5.995   3.775  1.00 20.00    -0.005 A 
ENDROOT
TORSDOF 0
ENDMDL
MODEL 3
REMARK VINA RESULT:      -5.4      1.065      2.034
REMARK  0 active torsions:
REMARK  status: ('A' for Active; 'I' for Inactive)
ROOT
HETATM    1  C1  UNL     1     -34.402   6.204   5.827  1.00 20.00    -0.003 A 
HETATM    2  C2  UNL     1     -34.734   5.218   4.818  1.00 20.00    -0.003 A 
HETATM    3  C3  UNL     1     -33.683   7.179   5.238  1.00 20.00    -0.013 A 
HETATM    4  C4  UNL     1     -34.207   5.624   3.647  1.00 20.00    -0.013 A 
HETATM    5  C5  UNL     1     -32.235   7.218   3.081  1.00 20.00     0.019 A 
HETATM    6  C6  UNL     1     -33.508   7.967   2.768  1.00 20.00     0.019 A 
HETATM    7  C7  UNL     1     -33.498   6.899   3.809  1.00 20.00    -0.005 A 
ENDROOT
TORSDOF 0
ENDMDL
MODEL 4
REMARK VINA RESULT:      -5.4      1.064      1.533
REMARK  0 active torsions:
REMARK  status: ('A' for Active; 'I' for Inactive)
ROOT
HETATM    1  C1  UNL     1     -34.719   5.191   4.782  1.00 20.00    -0.003 A 
HETATM    2  C2  UNL     1     -34.414   6.172   5.804  1.00 20.00    -0.003 A 
HETATM    3  C3  UNL     1     -34.183   5.615   3.621  1.00 20.00    -0.013 A 
HETATM    4  C4  UNL     1     -33.702   7.163   5.234  1.00 20.00    -0.013 A 
HETATM    5  C5  UNL     1     -33.506   7.976   2.773  1.00 20.00     0.019 A 
HETATM    6  C6  UNL     1     -32.227   7.243   3.096  1.00 20.00     0.019 A 
HETATM    7  C7  UNL     1     -33.493   6.898   3.805  1.00 20.00    -0.005 A 
ENDROOT
TORSDOF 0
ENDMDL
MODEL 5
REMARK VINA RESULT:      -5.3      1.070      2.208
REMARK  0 active torsions:
REMARK  status: ('A' for Active; 'I' for Inactive)
ROOT
HETATM    1  C1  UNL     1     -32.662   7.926   4.567  1.00 20.00    -0.003 A 
HETATM    2  C2  UNL     1     -32.364   7.481   3.221  1.00 20.00    -0.003 A 
HETATM    3  C3  UNL     1     -33.657   7.157   5.052  1.00 20.00    -0.013 A 
HETATM    4  C4  UNL     1     -33.186   6.455   2.927  1.00 20.00    -0.013 A 
HETATM    5  C5  UNL     1     -35.497   5.745   3.880  1.00 20.00     0.019 A 
HETATM    6  C6  UNL     1     -34.480   4.773   4.427  1.00 20.00     0.019 A 
HETATM    7  C7  UNL     1     -34.075   6.161   4.058  1.00 20.00    -0.005 A 
ENDROOT
TORSDOF 0
ENDMDL
MODEL 6
REMARK VINA RESULT:      -5.3      1.064      2.344
REMARK  0 active torsions:
REMARK  status: ('A' for Active; 'I' for Inactive)
ROOT
HETATM    1  C1  UNL     1     -32.362   7.484   3.257  1.00 20.00    -0.003 A 
HETATM    2  C2  UNL     1     -32.679   7.929   4.600  1.00 20.00    -0.003 A 
HETATM    3  C3  UNL     1     -33.177   6.455   2.954  1.00 20.00    -0.013 A 
HETATM    4  C4  UNL     1     -33.678   7.159   5.071  1.00 20.00    -0.013 A 
HETATM    5  C5  UNL     1     -34.486   4.771   4.438  1.00 20.00     0.019 A 
HETATM    6  C6  UNL     1     -35.499   5.740   3.877  1.00 20.00     0.019 A 
HETATM    7  C7  UNL     1     -34.081   6.160   4.073  1.00 20.00    -0.005 A 
ENDROOT
TORSDOF 0
ENDMDL
MODEL 7
REMARK VINA RESULT:      -4.8      1.236      2.307
REMARK  0 active torsions:
REMARK  status: ('A' for Active; 'I' for Inactive)
ROOT
HETATM    1  C1  UNL     1     -33.817   4.269   3.419  1.00 20.00    -0.003 A 
HETATM    2  C2  UNL     1     -34.587   4.991   4.412  1.00 20.00    -0.003 A 
HETATM    3  C3  UNL     1     -33.057   5.158   2.751  1.00 20.00    -0.013 A 
HETATM    4  C4  UNL     1     -34.271   6.297   4.318  1.00 20.00    -0.013 A 
HETATM    5  C5  UNL     1     -33.291   7.719   2.376  1.00 20.00     0.019 A 
HETATM    6  C6  UNL     1     -32.181   7.523   3.379  1.00 20.00     0.019 A 
HETATM    7  C7  UNL     1     -33.277   6.517   3.261  1.00 20.00    -0.005 A 
ENDROOT
TORSDOF 0
ENDMDL
MODEL 8
REMARK VINA RESULT:      -4.4      3.151      3.821
REMARK  0 active torsions:
REMARK  status: ('A' for Active; 'I' for Inactive)
ROOT
HETATM    1  C1  UNL     1     -32.976   7.140   3.176  1.00 20.00    -0.003 A 
HETATM    2  C2  UNL     1     -31.831   7.819   3.747  1.00 20.00    -0.003 A 
HETATM    3  C3  UNL     1     -33.284   7.745   2.012  1.00 20.00    -0.013 A 
HETATM    4  C4  UNL     1     -31.476   8.816   2.914  1.00 20.00    -0.013 A 
HETATM    5  C5  UNL     1     -32.801  10.134   1.108  1.00 20.00     0.019 A 
HETATM    6  C6  UNL     1     -31.877   9.192   0.374  1.00 20.00     0.019 A 
HETATM    7  C7  UNL     1     -32.363   8.857   1.745  1.00 20.00    -0.005 A 
ENDROOT
TORSDOF 0
ENDMDL
MODEL 9
REMARK VINA RESULT:      -4.3      3.155      4.084
REMARK  0 active torsions:
REMARK  status: ('A' for Active; 'I' for Inactive)
ROOT
HETATM    1  C1  UNL     1     -31.820   7.827   3.739  1.00 20.00    -0.003 A 
HETATM    2  C2  UNL     1     -32.979   7.156   3.183  1.00 20.00    -0.003 A 
HETATM    3  C3  UNL     1     -31.467   8.819   2.899  1.00 20.00    -0.013 A 
HETATM    4  C4  UNL     1     -33.295   7.761   2.022  1.00 20.00    -0.013 A 
HETATM    5  C5  UNL     1     -31.897   9.192   0.363  1.00 20.00     0.019 A 
HETATM    6  C6  UNL     1     -32.804  10.143   1.106  1.00 20.00     0.019 A 
HETATM    7  C7  UNL     1     -32.369   8.865   1.740  1.00 20.00    -0.005 A 
ENDROOT
TORSDOF 0
ENDMDL
