MODEL 1
REMARK VINA RESULT:      -4.9      0.000      0.000
REMARK  3 active torsions:
REMARK  status: ('A' for Active; 'I' for Inactive)
REMARK    1  A    between atoms: C1_1  and  C7_7 
REMARK    2  A    between atoms: C5_5  and  C6_6 
REMARK    3  A    between atoms: C6_6  and  C7_7 
ROOT
HETATM    1  C3  UNL     1     -35.620   6.154   3.258  1.00 20.00     0.024 C 
HETATM    2  C4  UNL     1     -33.394   5.061   3.092  1.00 20.00     0.024 C 
HETATM    3  C7  UNL     1     -34.172   6.200   3.783  1.00 20.00     0.029 C 
ENDROOT
BRANCH   3   4
HETATM    4  C1  UNL     1     -34.178   5.956   5.310  1.00 20.00     0.226 C 
HETATM    5  O8  UNL     1     -34.482   4.866   5.791  1.00 20.00    -0.279 OA
HETATM    6 CL9  UNL     1     -33.727   7.348   6.268  1.00 20.00    -0.043 Cl
ENDBRANCH   3   4
BRANCH   3   7
HETATM    7  C6  UNL     1     -33.542   7.572   3.424  1.00 20.00     0.017 C 
BRANCH   7   8
HETATM    8  C5  UNL     1     -32.165   7.494   2.753  1.00 20.00    -0.003 C 
HETATM    9  C2  UNL     1     -31.994   8.595   1.716  1.00 20.00     0.005 C 
ENDBRANCH   7   8
ENDBRANCH   3   7
TORSDOF 3
ENDMDL
MODEL 2
REMARK VINA RESULT:      -4.7      1.261      1.261
REMARK  3 active torsions:
REMARK  status: ('A' for Active; 'I' for Inactive)
REMARK    1  A    between atoms: C1_1  and  C7_7 
REMARK    2  A    between atoms: C5_5  and  C6_6 
REMARK    3  A    between atoms: C6_6  and  C7_7 
ROOT
HETATM    1  C3  UNL     1     -35.538   6.238   3.330  1.00 20.00     0.024 C 
HETATM    2  C4  UNL     1     -33.266   5.251   3.131  1.00 20.00     0.024 C 
HETATM    3  C7  UNL     1     -34.066   6.416   3.751  1.00 20.00     0.029 C 
ENDROOT
BRANCH   3   4
HETATM    4  C1  UNL     1     -33.967   6.335   5.292  1.00 20.00     0.226 C 
HETATM    5  O8  UNL     1     -33.503   7.256   5.962  1.00 20.00    -0.279 OA
HETATM    6 CL9  UNL     1     -34.560   4.839   5.978  1.00 20.00    -0.043 Cl
ENDBRANCH   3   4
BRANCH   3   7
HETATM    7  C6  UNL     1     -33.540   7.772   3.212  1.00 20.00     0.017 C 
BRANCH   7   8
HETATM    8  C5  UNL     1     -32.122   7.729   2.629  1.00 20.00    -0.003 C 
HETATM    9  C2  UNL     1     -31.961   8.734   1.497  1.00 20.00     0.005 C 
ENDBRANCH   7   8
ENDBRANCH   3   7
TORSDOF 3
ENDMDL
MODEL 3
REMARK VINA RESULT:      -4.7      1.864      2.317
REMARK  3 active torsions:
REMARK  status: ('A' for Active; 'I' for Inactive)
REMARK    1  A    between atoms: C1_1  and  C7_7 
REMARK    2  A    between atoms: C5_5  and  C6_6 
REMARK    3  A    between atoms: C6_6  and  C7_7 
ROOT
HETATM    1  C3  UNL     1     -33.972   6.616   5.264  1.00 20.00     0.024 C 
HETATM    2  C4  UNL     1     -35.780   6.198   3.611  1.00 20.00     0.024 C 
HETATM    3  C7  UNL     1     -34.259   6.086   3.846  1.00 20.00     0.029 C 
ENDROOT
BRANCH   3   4
HETATM    4  C1  UNL     1     -33.843   4.598   3.767  1.00 20.00     0.226 C 
HETATM    5  O8  UNL     1     -34.246   3.768   4.579  1.00 20.00    -0.279 OA
HETATM    6 CL9  UNL     1     -32.762   4.219   2.446  1.00 20.00    -0.043 Cl
ENDBRANCH   3   4
BRANCH   3   7
HETATM    7  C6  UNL     1     -33.493   6.952   2.812  1.00 20.00     0.017 C 
BRANCH   7   8
HETATM    8  C5  UNL     1     -32.263   7.681   3.367  1.00 20.00    -0.003 C 
HETATM    9  C2  UNL     1     -31.696   8.660   2.347  1.00 20.00     0.005 C 
ENDBRANCH   7   8
ENDBRANCH   3   7
TORSDOF 3
ENDMDL
MODEL 4
REMARK VINA RESULT:      -4.3      2.259      3.639
REMARK  3 active torsions:
REMARK  status: ('A' for Active; 'I' for Inactive)
REMARK    1  A    between atoms: C1_1  and  C7_7 
REMARK    2  A    between atoms: C5_5  and  C6_6 
REMARK    3  A    between atoms: C6_6  and  C7_7 
ROOT
HETATM    1  C3  UNL     1     -32.888   4.856   2.722  1.00 20.00     0.024 C 
HETATM    2  C4  UNL     1     -34.236   6.461   1.388  1.00 20.00     0.024 C 
HETATM    3  C7  UNL     1     -33.736   6.139   2.811  1.00 20.00     0.029 C 
ENDROOT
BRANCH   3   4
HETATM    4  C1  UNL     1     -32.845   7.301   3.311  1.00 20.00     0.226 C 
HETATM    5  O8  UNL     1     -32.747   7.576   4.505  1.00 20.00    -0.279 OA
HETATM    6 CL9  UNL     1     -32.012   8.171   2.042  1.00 20.00    -0.043 Cl
ENDBRANCH   3   4
BRANCH   3   7
HETATM    7  C6  UNL     1     -34.940   5.891   3.758  1.00 20.00     0.017 C 
BRANCH   7   8
HETATM    8  C5  UNL     1     -34.808   4.657   4.659  1.00 20.00    -0.003 C 
HETATM    9  C2  UNL     1     -34.564   5.056   6.108  1.00 20.00     0.005 C 
ENDBRANCH   7   8
ENDBRANCH   3   7
TORSDOF 3
ENDMDL
MODEL 5
REMARK VINA RESULT:      -4.2      1.836      2.522
REMARK  3 active torsions:
REMARK  status: ('A' for Active; 'I' for Inactive)
REMARK    1  A    between atoms: C1_1  and  C7_7 
REMARK    2  A    between atoms: C5_5  and  C6_6 
REMARK    3  A    between atoms: C6_6  and  C7_7 
ROOT
HETATM    1  C3  UNL     1     -32.486   6.046   2.531  1.00 20.00     0.024 C 
HETATM    2  C4  UNL     1     -31.533   7.984   3.760  1.00 20.00     0.024 C 
HETATM    3  C7  UNL     1     -32.844   7.380   3.215  1.00 20.00     0.029 C 
ENDROOT
BRANCH   3   4
HETATM    4  C1  UNL     1     -33.804   7.102   4.395  1.00 20.00     0.226 C 
HETATM    5  O8  UNL     1     -33.631   7.604   5.504  1.00 20.00    -0.279 OA
HETATM    6 CL9  UNL     1     -35.130   6.028   4.012  1.00 20.00    -0.043 Cl
ENDBRANCH   3   4
BRANCH   3   7
HETATM    7  C6  UNL     1     -33.479   8.335   2.170  1.00 20.00     0.017 C 
BRANCH   7   8
HETATM    8  C5  UNL     1     -32.487   9.269   1.464  1.00 20.00    -0.003 C 
HETATM    9  C2  UNL     1     -32.868   9.475   0.004  1.00 20.00     0.005 C 
ENDBRANCH   7   8
ENDBRANCH   3   7
TORSDOF 3
ENDMDL
MODEL 6
REMARK VINA RESULT:      -3.9     11.609     12.203
REMARK  3 active torsions:
REMARK  status: ('A' for Active; 'I' for Inactive)
REMARK    1  A    between atoms: C1_1  and  C7_7 
REMARK    2  A    between atoms: C5_5  and  C6_6 
REMARK    3  A    between atoms: C6_6  and  C7_7 
ROOT
HETATM    1  C3  UNL     1     -34.795  15.901  -5.812  1.00 20.00     0.024 C 
HETATM    2  C4  UNL     1     -33.683  14.305  -4.266  1.00 20.00     0.024 C 
HETATM    3  C7  UNL     1     -35.038  14.951  -4.623  1.00 20.00     0.029 C 
ENDROOT
BRANCH   3   4
HETATM    4  C1  UNL     1     -36.030  13.845  -5.052  1.00 20.00     0.226 C 
HETATM    5  O8  UNL     1     -35.649  12.721  -5.371  1.00 20.00    -0.279 OA
HETATM    6 CL9  UNL     1     -37.708  14.337  -5.046  1.00 20.00    -0.043 Cl
ENDBRANCH   3   4
BRANCH   3   7
HETATM    7  C6  UNL     1     -35.575  15.769  -3.418  1.00 20.00     0.017 C 
BRANCH   7   8
HETATM    8  C5  UNL     1     -34.495  16.453  -2.571  1.00 20.00    -0.003 C 
HETATM    9  C2  UNL     1     -35.075  16.995  -1.272  1.00 20.00     0.005 C 
ENDBRANCH   7   8
ENDBRANCH   3   7
TORSDOF 3
ENDMDL
MODEL 7
REMARK VINA RESULT:      -3.8     11.646     12.399
REMARK  3 active torsions:
REMARK  status: ('A' for Active; 'I' for Inactive)
REMARK    1  A    between atoms: C1_1  and  C7_7 
REMARK    2  A    between atoms: C5_5  and  C6_6 
REMARK    3  A    between atoms: C6_6  and  C7_7 
ROOT
HETATM    1  C3  UNL     1     -33.385  15.887  -5.783  1.00 20.00     0.024 C 
HETATM    2  C4  UNL     1     -32.790  14.115  -4.146  1.00 20.00     0.024 C 
HETATM    3  C7  UNL     1     -33.974  14.814  -4.847  1.00 20.00     0.029 C 
ENDROOT
BRANCH   3   4
HETATM    4  C1  UNL     1     -34.748  13.775  -5.691  1.00 20.00     0.226 C 
HETATM    5  O8  UNL     1     -35.573  13.015  -5.188  1.00 20.00    -0.279 OA
HETATM    6 CL9  UNL     1     -34.345  13.781  -7.393  1.00 20.00    -0.043 Cl
ENDBRANCH   3   4
BRANCH   3   7
HETATM    7  C6  UNL     1     -34.889  15.498  -3.797  1.00 20.00     0.017 C 
BRANCH   7   8
HETATM    8  C5  UNL     1     -34.167  16.453  -2.838  1.00 20.00    -0.003 C 
HETATM    9  C2  UNL     1     -35.036  16.783  -1.632  1.00 20.00     0.005 C 
ENDBRANCH   7   8
ENDBRANCH   3   7
TORSDOF 3
ENDMDL
MODEL 8
REMARK VINA RESULT:      -3.8     11.624     12.701
REMARK  3 active torsions:
REMARK  status: ('A' for Active; 'I' for Inactive)
REMARK    1  A    between atoms: C1_1  and  C7_7 
REMARK    2  A    between atoms: C5_5  and  C6_6 
REMARK    3  A    between atoms: C6_6  and  C7_7 
ROOT
HETATM    1  C3  UNL     1     -34.034  14.396  -4.149  1.00 20.00     0.024 C 
HETATM    2  C4  UNL     1     -35.965  15.891  -3.687  1.00 20.00     0.024 C 
HETATM    3  C7  UNL     1     -35.319  14.989  -4.759  1.00 20.00     0.029 C 
ENDROOT
BRANCH   3   4
HETATM    4  C1  UNL     1     -36.291  13.839  -5.108  1.00 20.00     0.226 C 
HETATM    5  O8  UNL     1     -35.900  12.684  -5.264  1.00 20.00    -0.279 OA
HETATM    6 CL9  UNL     1     -37.964  14.327  -5.261  1.00 20.00    -0.043 Cl
ENDBRANCH   3   4
BRANCH   3   7
HETATM    7  C6  UNL     1     -34.949  15.828  -6.011  1.00 20.00     0.017 C 
BRANCH   7   8
HETATM    8  C5  UNL     1     -33.653  15.403  -6.712  1.00 20.00    -0.003 C 
HETATM    9  C2  UNL     1     -33.943  14.518  -7.916  1.00 20.00     0.005 C 
ENDBRANCH   7   8
ENDBRANCH   3   7
TORSDOF 3
ENDMDL
MODEL 9
REMARK VINA RESULT:      -3.8      3.197      4.319
REMARK  3 active torsions:
REMARK  status: ('A' for Active; 'I' for Inactive)
REMARK    1  A    between atoms: C1_1  and  C7_7 
REMARK    2  A    between atoms: C5_5  and  C6_6 
REMARK    3  A    between atoms: C6_6  and  C7_7 
ROOT
HETATM    1  C3  UNL     1     -31.322   8.019   3.823  1.00 20.00     0.024 C 
HETATM    2  C4  UNL     1     -32.470   6.309   2.434  1.00 20.00     0.024 C 
HETATM    3  C7  UNL     1     -32.588   7.744   2.989  1.00 20.00     0.029 C 
ENDROOT
BRANCH   3   4
HETATM    4  C1  UNL     1     -32.645   8.742   1.809  1.00 20.00     0.226 C 
HETATM    5  O8  UNL     1     -33.541   9.577   1.709  1.00 20.00    -0.279 OA
HETATM    6 CL9  UNL     1     -31.343   8.571   0.654  1.00 20.00    -0.043 Cl
ENDBRANCH   3   4
BRANCH   3   7
HETATM    7  C6  UNL     1     -33.837   7.863   3.903  1.00 20.00     0.017 C 
BRANCH   7   8
HETATM    8  C5  UNL     1     -33.636   7.361   5.338  1.00 20.00    -0.003 C 
HETATM    9  C2  UNL     1     -34.412   6.074   5.585  1.00 20.00     0.005 C 
ENDBRANCH   7   8
ENDBRANCH   3   7
TORSDOF 3
ENDMDL
