MODEL 1
REMARK VINA RESULT:      -5.0      0.000      0.000
REMARK  2 active torsions:
REMARK  status: ('A' for Active; 'I' for Inactive)
REMARK    1  A    between atoms: C7_7  and  C10_10 
REMARK    2  A    between atoms: C8_8  and  C9_9 
ROOT
HETATM    1  C1  UNL     1     -33.098  17.681  -1.585  1.00 20.00    -0.019 A 
HETATM    2  C3  UNL     1     -33.405  18.285  -0.433  1.00 20.00    -0.087 A 
HETATM    3  C5  UNL     1     -34.776  17.934   0.056  1.00 20.00     0.039 A 
HETATM    4  C8  UNL     1     -34.194  16.794  -2.076  1.00 20.00     0.021 A 
HETATM    5  C10 UNL     1     -35.322  16.962  -1.000  1.00 20.00     0.005 A 
HETATM    6  C11 UNL     1     -32.543  19.224   0.332  1.00 20.00     0.043 C 
ENDROOT
BRANCH   4   7
HETATM    7  C9  UNL     1     -34.893  17.263  -3.377  1.00 20.00     0.022 C 
HETATM    8  C4  UNL     1     -33.815  17.408  -4.432  1.00 20.00    -0.082 C 
HETATM    9  C2  UNL     1     -33.402  16.172  -4.754  1.00 20.00    -0.019 C 
HETATM   10  C12 UNL     1     -33.327  18.717  -4.919  1.00 20.00     0.043 C 
HETATM   11  C7  UNL     1     -34.203  15.201  -3.913  1.00 20.00     0.014 C 
HETATM   12  C6  UNL     1     -35.531  15.966  -3.897  1.00 20.00     0.018 C 
ENDBRANCH   4   7
TORSDOF 2
ENDMDL
MODEL 2
REMARK VINA RESULT:      -4.8      1.490      2.005
REMARK  2 active torsions:
REMARK  status: ('A' for Active; 'I' for Inactive)
REMARK    1  A    between atoms: C7_7  and  C10_10 
REMARK    2  A    between atoms: C8_8  and  C9_9 
ROOT
HETATM    1  C1  UNL     1     -33.505  16.448  -2.980  1.00 20.00    -0.019 A 
HETATM    2  C3  UNL     1     -33.668  17.281  -1.948  1.00 20.00    -0.087 A 
HETATM    3  C5  UNL     1     -35.077  17.302  -1.441  1.00 20.00     0.039 A 
HETATM    4  C8  UNL     1     -34.765  15.737  -3.347  1.00 20.00     0.021 A 
HETATM    5  C10 UNL     1     -35.822  16.304  -2.338  1.00 20.00     0.005 A 
HETATM    6  C11 UNL     1     -32.622  18.135  -1.325  1.00 20.00     0.043 C 
ENDROOT
BRANCH   4   7
HETATM    7  C9  UNL     1     -35.367  16.121  -4.723  1.00 20.00     0.022 C 
HETATM    8  C4  UNL     1     -34.408  15.619  -5.783  1.00 20.00    -0.082 C 
HETATM    9  C2  UNL     1     -34.491  14.279  -5.794  1.00 20.00    -0.019 C 
HETATM   10  C12 UNL     1     -33.533  16.511  -6.575  1.00 20.00     0.043 C 
HETATM   11  C7  UNL     1     -35.504  13.886  -4.741  1.00 20.00     0.014 C 
HETATM   12  C6  UNL     1     -36.468  15.066  -4.910  1.00 20.00     0.018 C 
ENDBRANCH   4   7
TORSDOF 2
ENDMDL
MODEL 3
REMARK VINA RESULT:      -4.8      1.459      3.016
REMARK  2 active torsions:
REMARK  status: ('A' for Active; 'I' for Inactive)
REMARK    1  A    between atoms: C7_7  and  C10_10 
REMARK    2  A    between atoms: C8_8  and  C9_9 
ROOT
HETATM    1  C1  UNL     1     -35.648  16.581  -2.463  1.00 20.00    -0.019 A 
HETATM    2  C3  UNL     1     -35.153  17.077  -1.325  1.00 20.00    -0.087 A 
HETATM    3  C5  UNL     1     -33.682  17.346  -1.403  1.00 20.00     0.039 A 
HETATM    4  C8  UNL     1     -34.609  16.443  -3.526  1.00 20.00     0.021 A 
HETATM    5  C10 UNL     1     -33.293  16.937  -2.831  1.00 20.00     0.005 A 
HETATM    6  C11 UNL     1     -35.910  17.349  -0.074  1.00 20.00     0.043 C 
ENDROOT
BRANCH   4   7
HETATM    7  C9  UNL     1     -34.257  14.986  -3.923  1.00 20.00     0.022 C 
HETATM    8  C4  UNL     1     -35.142  14.621  -5.098  1.00 20.00    -0.082 C 
HETATM    9  C2  UNL     1     -34.709  15.323  -6.158  1.00 20.00    -0.019 C 
HETATM   10  C12 UNL     1     -36.289  13.692  -4.992  1.00 20.00     0.043 C 
HETATM   11  C7  UNL     1     -33.537  16.159  -5.690  1.00 20.00     0.014 C 
HETATM   12  C6  UNL     1     -32.938  15.162  -4.692  1.00 20.00     0.018 C 
ENDBRANCH   4   7
TORSDOF 2
ENDMDL
MODEL 4
REMARK VINA RESULT:      -4.6     11.238     12.496
REMARK  2 active torsions:
REMARK  status: ('A' for Active; 'I' for Inactive)
REMARK    1  A    between atoms: C7_7  and  C10_10 
REMARK    2  A    between atoms: C8_8  and  C9_9 
ROOT
HETATM    1  C1  UNL     1     -32.886   7.195   2.303  1.00 20.00    -0.019 A 
HETATM    2  C3  UNL     1     -32.117   8.242   1.989  1.00 20.00    -0.087 A 
HETATM    3  C5  UNL     1     -31.523   8.903   3.194  1.00 20.00     0.039 A 
HETATM    4  C8  UNL     1     -32.937   6.941   3.773  1.00 20.00     0.021 A 
HETATM    5  C10 UNL     1     -32.043   8.078   4.379  1.00 20.00     0.005 A 
HETATM    6  C11 UNL     1     -31.844   8.763   0.623  1.00 20.00     0.043 C 
ENDROOT
BRANCH   4   7
HETATM    7  C9  UNL     1     -34.311   7.196   4.443  1.00 20.00     0.022 C 
HETATM    8  C4  UNL     1     -35.231   6.072   4.008  1.00 20.00    -0.082 C 
HETATM    9  C2  UNL     1     -34.812   4.953   4.622  1.00 20.00    -0.019 C 
HETATM   10  C12 UNL     1     -36.331   6.253   3.036  1.00 20.00     0.043 C 
HETATM   11  C7  UNL     1     -33.611   5.329   5.464  1.00 20.00     0.014 C 
HETATM   12  C6  UNL     1     -34.068   6.730   5.886  1.00 20.00     0.018 C 
ENDBRANCH   4   7
TORSDOF 2
ENDMDL
MODEL 5
REMARK VINA RESULT:      -4.5     10.232     11.517
REMARK  2 active torsions:
REMARK  status: ('A' for Active; 'I' for Inactive)
REMARK    1  A    between atoms: C7_7  and  C10_10 
REMARK    2  A    between atoms: C8_8  and  C9_9 
ROOT
HETATM    1  C1  UNL     1     -33.300   9.141   2.433  1.00 20.00    -0.019 A 
HETATM    2  C3  UNL     1     -32.446   9.854   1.693  1.00 20.00    -0.087 A 
HETATM    3  C5  UNL     1     -31.596   8.998   0.806  1.00 20.00     0.039 A 
HETATM    4  C8  UNL     1     -33.201   7.675   2.169  1.00 20.00     0.021 A 
HETATM    5  C10 UNL     1     -32.063   7.565   1.096  1.00 20.00     0.005 A 
HETATM    6  C11 UNL     1     -32.287  11.333   1.702  1.00 20.00     0.043 C 
ENDROOT
BRANCH   4   7
HETATM    7  C9  UNL     1     -32.647   6.825   3.341  1.00 20.00     0.022 C 
HETATM    8  C4  UNL     1     -33.706   6.820   4.424  1.00 20.00    -0.082 C 
HETATM    9  C2  UNL     1     -34.728   6.071   3.980  1.00 20.00    -0.019 C 
HETATM   10  C12 UNL     1     -33.579   7.580   5.687  1.00 20.00     0.043 C 
HETATM   11  C7  UNL     1     -34.352   5.577   2.600  1.00 20.00     0.014 C 
HETATM   12  C6  UNL     1     -32.849   5.389   2.834  1.00 20.00     0.018 C 
ENDBRANCH   4   7
TORSDOF 2
ENDMDL
MODEL 6
REMARK VINA RESULT:      -4.5      1.441      4.665
REMARK  2 active torsions:
REMARK  status: ('A' for Active; 'I' for Inactive)
REMARK    1  A    between atoms: C7_7  and  C10_10 
REMARK    2  A    between atoms: C8_8  and  C9_9 
ROOT
HETATM    1  C1  UNL     1     -35.073  15.103  -3.645  1.00 20.00    -0.019 A 
HETATM    2  C3  UNL     1     -35.035  14.483  -4.828  1.00 20.00    -0.087 A 
HETATM    3  C5  UNL     1     -33.942  14.994  -5.714  1.00 20.00     0.039 A 
HETATM    4  C8  UNL     1     -34.001  16.132  -3.504  1.00 20.00     0.021 A 
HETATM    5  C10 UNL     1     -33.248  16.079  -4.878  1.00 20.00     0.005 A 
HETATM    6  C11 UNL     1     -35.949  13.405  -5.293  1.00 20.00     0.043 C 
ENDROOT
BRANCH   4   7
HETATM    7  C9  UNL     1     -34.496  17.600  -3.444  1.00 20.00     0.022 C 
HETATM    8  C4  UNL     1     -35.378  17.721  -2.218  1.00 20.00    -0.082 C 
HETATM    9  C2  UNL     1     -34.580  17.639  -1.141  1.00 20.00    -0.019 C 
HETATM   10  C12 UNL     1     -36.851  17.845  -2.286  1.00 20.00     0.043 C 
HETATM   11  C7  UNL     1     -33.165  17.462  -1.648  1.00 20.00     0.014 C 
HETATM   12  C6  UNL     1     -33.266  18.342  -2.898  1.00 20.00     0.018 C 
ENDBRANCH   4   7
TORSDOF 2
ENDMDL
MODEL 7
REMARK VINA RESULT:      -4.4      1.326      2.539
REMARK  2 active torsions:
REMARK  status: ('A' for Active; 'I' for Inactive)
REMARK    1  A    between atoms: C7_7  and  C10_10 
REMARK    2  A    between atoms: C8_8  and  C9_9 
ROOT
HETATM    1  C1  UNL     1     -33.590  16.845  -2.233  1.00 20.00    -0.019 A 
HETATM    2  C3  UNL     1     -33.142  18.055  -1.882  1.00 20.00    -0.087 A 
HETATM    3  C5  UNL     1     -33.582  19.130  -2.827  1.00 20.00     0.039 A 
HETATM    4  C8  UNL     1     -34.432  16.882  -3.465  1.00 20.00     0.021 A 
HETATM    5  C10 UNL     1     -34.426  18.394  -3.878  1.00 20.00     0.005 A 
HETATM    6  C11 UNL     1     -32.288  18.378  -0.709  1.00 20.00     0.043 C 
ENDROOT
BRANCH   4   7
HETATM    7  C9  UNL     1     -33.818  16.187  -4.708  1.00 20.00     0.022 C 
HETATM    8  C4  UNL     1     -33.675  14.717  -4.368  1.00 20.00    -0.082 C 
HETATM    9  C2  UNL     1     -34.911  14.195  -4.325  1.00 20.00    -0.019 C 
HETATM   10  C12 UNL     1     -32.373  14.071  -4.094  1.00 20.00     0.043 C 
HETATM   11  C7  UNL     1     -35.880  15.316  -4.633  1.00 20.00     0.014 C 
HETATM   12  C6  UNL     1     -35.024  16.074  -5.653  1.00 20.00     0.018 C 
ENDBRANCH   4   7
TORSDOF 2
ENDMDL
MODEL 8
REMARK VINA RESULT:      -4.3      1.613      4.965
REMARK  2 active torsions:
REMARK  status: ('A' for Active; 'I' for Inactive)
REMARK    1  A    between atoms: C7_7  and  C10_10 
REMARK    2  A    between atoms: C8_8  and  C9_9 
ROOT
HETATM    1  C1  UNL     1     -35.625  16.676  -1.572  1.00 20.00    -0.019 A 
HETATM    2  C3  UNL     1     -34.946  16.458  -2.703  1.00 20.00    -0.087 A 
HETATM    3  C5  UNL     1     -33.568  17.040  -2.670  1.00 20.00     0.039 A 
HETATM    4  C8  UNL     1     -34.824  17.426  -0.559  1.00 20.00     0.021 A 
HETATM    5  C10 UNL     1     -33.456  17.685  -1.281  1.00 20.00     0.005 A 
HETATM    6  C11 UNL     1     -35.440  15.739  -3.907  1.00 20.00     0.043 C 
ENDROOT
BRANCH   4   7
HETATM    7  C9  UNL     1     -35.322  18.861  -0.250  1.00 20.00     0.022 C 
HETATM    8  C4  UNL     1     -36.642  18.723   0.482  1.00 20.00    -0.082 C 
HETATM    9  C2  UNL     1     -36.371  18.240   1.706  1.00 20.00    -0.019 C 
HETATM   10  C12 UNL     1     -37.949  19.034  -0.136  1.00 20.00     0.043 C 
HETATM   11  C7  UNL     1     -34.872  18.053   1.790  1.00 20.00     0.014 C 
HETATM   12  C6  UNL     1     -34.450  19.263   0.949  1.00 20.00     0.018 C 
ENDBRANCH   4   7
TORSDOF 2
ENDMDL
MODEL 9
REMARK VINA RESULT:      -4.3      2.624      4.544
REMARK  2 active torsions:
REMARK  status: ('A' for Active; 'I' for Inactive)
REMARK    1  A    between atoms: C7_7  and  C10_10 
REMARK    2  A    between atoms: C8_8  and  C9_9 
ROOT
HETATM    1  C1  UNL     1     -35.332  16.085  -4.273  1.00 20.00    -0.019 A 
HETATM    2  C3  UNL     1     -34.371  16.050  -3.344  1.00 20.00    -0.087 A 
HETATM    3  C5  UNL     1     -33.256  15.118  -3.702  1.00 20.00     0.039 A 
HETATM    4  C8  UNL     1     -35.033  15.202  -5.439  1.00 20.00     0.021 A 
HETATM    5  C10 UNL     1     -33.660  14.543  -5.067  1.00 20.00     0.005 A 
HETATM    6  C11 UNL     1     -34.347  16.810  -2.066  1.00 20.00     0.043 C 
ENDROOT
BRANCH   4   7
HETATM    7  C9  UNL     1     -35.967  13.975  -5.597  1.00 20.00     0.022 C 
HETATM    8  C4  UNL     1     -37.315  14.499  -6.050  1.00 20.00    -0.082 C 
HETATM    9  C2  UNL     1     -37.174  14.922  -7.317  1.00 20.00    -0.019 C 
HETATM   10  C12 UNL     1     -38.503  14.552  -5.170  1.00 20.00     0.043 C 
HETATM   11  C7  UNL     1     -35.732  14.682  -7.709  1.00 20.00     0.014 C 
HETATM   12  C6  UNL     1     -35.507  13.378  -6.936  1.00 20.00     0.018 C 
ENDBRANCH   4   7
TORSDOF 2
ENDMDL
