MODEL 1
REMARK VINA RESULT:      -4.3      0.000      0.000
REMARK  0 active torsions:
REMARK  status: ('A' for Active; 'I' for Inactive)
ROOT
HETATM    1  C1  UNL     1     -35.572  17.103  -5.438  1.00 20.00     0.009 C 
HETATM    2  C2  UNL     1     -34.661  16.401  -3.209  1.00 20.00     0.009 C 
HETATM    3  C3  UNL     1     -33.293  16.065  -5.285  1.00 20.00     0.009 C 
HETATM    4  C4  UNL     1     -36.552  15.126  -4.249  1.00 20.00     0.048 C 
HETATM    5  C5  UNL     1     -35.185  14.790  -6.324  1.00 20.00     0.048 C 
HETATM    6  C6  UNL     1     -34.275  14.087  -4.096  1.00 20.00     0.048 C 
HETATM    7  C7  UNL     1     -35.938  16.523  -4.060  1.00 20.00    -0.011 C 
HETATM    8  C8  UNL     1     -34.561  16.185  -6.150  1.00 20.00    -0.011 C 
HETATM    9  C9  UNL     1     -33.645  15.477  -3.906  1.00 20.00    -0.011 C 
HETATM   10  C10 UNL     1     -35.544  14.207  -4.951  1.00 20.00     0.104 C 
HETATM   11  F11 UNL     1     -36.092  12.978  -5.113  1.00 20.00    -0.243 F 
ENDROOT
TORSDOF 0
ENDMDL
MODEL 2
REMARK VINA RESULT:      -4.3      0.179      2.260
REMARK  0 active torsions:
REMARK  status: ('A' for Active; 'I' for Inactive)
ROOT
HETATM    1  C1  UNL     1     -33.314  16.115  -5.119  1.00 20.00     0.009 C 
HETATM    2  C2  UNL     1     -35.570  17.210  -5.190  1.00 20.00     0.009 C 
HETATM    3  C3  UNL     1     -34.689  16.293  -3.027  1.00 20.00     0.009 C 
HETATM    4  C4  UNL     1     -35.226  14.977  -6.277  1.00 20.00     0.048 C 
HETATM    5  C5  UNL     1     -34.345  14.061  -4.115  1.00 20.00     0.048 C 
HETATM    6  C6  UNL     1     -36.600  15.156  -4.186  1.00 20.00     0.048 C 
HETATM    7  C7  UNL     1     -34.575  16.337  -5.975  1.00 20.00    -0.011 C 
HETATM    8  C8  UNL     1     -33.687  15.414  -3.799  1.00 20.00    -0.011 C 
HETATM    9  C9  UNL     1     -35.957  16.517  -3.871  1.00 20.00    -0.011 C 
HETATM   10  C10 UNL     1     -35.605  14.283  -4.963  1.00 20.00     0.104 C 
HETATM   11  F11 UNL     1     -36.178  13.085  -5.237  1.00 20.00    -0.243 F 
ENDROOT
TORSDOF 0
ENDMDL
MODEL 3
REMARK VINA RESULT:      -4.3      0.193      2.246
REMARK  0 active torsions:
REMARK  status: ('A' for Active; 'I' for Inactive)
ROOT
HETATM    1  C1  UNL     1     -34.917  16.272  -3.111  1.00 20.00     0.009 C 
HETATM    2  C2  UNL     1     -33.366  16.112  -5.076  1.00 20.00     0.009 C 
HETATM    3  C3  UNL     1     -35.655  17.098  -5.363  1.00 20.00     0.009 C 
HETATM    4  C4  UNL     1     -34.382  14.035  -4.109  1.00 20.00     0.048 C 
HETATM    5  C5  UNL     1     -36.670  15.020  -4.394  1.00 20.00     0.048 C 
HETATM    6  C6  UNL     1     -35.119  14.860  -6.359  1.00 20.00     0.048 C 
HETATM    7  C7  UNL     1     -33.815  15.425  -3.774  1.00 20.00    -0.011 C 
HETATM    8  C8  UNL     1     -36.120  16.417  -4.062  1.00 20.00    -0.011 C 
HETATM    9  C9  UNL     1     -34.558  16.256  -6.040  1.00 20.00    -0.011 C 
HETATM   10  C10 UNL     1     -35.575  14.178  -5.062  1.00 20.00     0.104 C 
HETATM   11  F11 UNL     1     -36.068  12.948  -5.352  1.00 20.00    -0.243 F 
ENDROOT
TORSDOF 0
ENDMDL
MODEL 4
REMARK VINA RESULT:      -4.3      1.208      2.057
REMARK  0 active torsions:
REMARK  status: ('A' for Active; 'I' for Inactive)
ROOT
HETATM    1  C1  UNL     1     -33.528  17.026  -4.921  1.00 20.00     0.009 C 
HETATM    2  C2  UNL     1     -33.085  14.623  -4.353  1.00 20.00     0.009 C 
HETATM    3  C3  UNL     1     -34.105  15.221  -6.566  1.00 20.00     0.009 C 
HETATM    4  C4  UNL     1     -34.910  15.875  -3.174  1.00 20.00     0.048 C 
HETATM    5  C5  UNL     1     -35.929  16.472  -5.386  1.00 20.00     0.048 C 
HETATM    6  C6  UNL     1     -35.486  14.070  -4.818  1.00 20.00     0.048 C 
HETATM    7  C7  UNL     1     -33.502  15.991  -3.782  1.00 20.00    -0.011 C 
HETATM    8  C8  UNL     1     -34.528  16.593  -6.009  1.00 20.00    -0.011 C 
HETATM    9  C9  UNL     1     -34.082  14.174  -5.437  1.00 20.00    -0.011 C 
HETATM   10  C10 UNL     1     -35.905  15.435  -4.255  1.00 20.00     0.104 C 
HETATM   11  F11 UNL     1     -37.144  15.335  -3.712  1.00 20.00    -0.243 F 
ENDROOT
TORSDOF 0
ENDMDL
MODEL 5
REMARK VINA RESULT:      -4.3      1.828      3.074
REMARK  0 active torsions:
REMARK  status: ('A' for Active; 'I' for Inactive)
ROOT
HETATM    1  C1  UNL     1     -35.387  13.950  -5.057  1.00 20.00     0.009 C 
HETATM    2  C2  UNL     1     -33.963  15.114  -6.763  1.00 20.00     0.009 C 
HETATM    3  C3  UNL     1     -33.049  14.650  -4.473  1.00 20.00     0.009 C 
HETATM    4  C4  UNL     1     -35.920  16.302  -5.741  1.00 20.00     0.048 C 
HETATM    5  C5  UNL     1     -35.007  15.838  -3.452  1.00 20.00     0.048 C 
HETATM    6  C6  UNL     1     -33.584  17.002  -5.158  1.00 20.00     0.048 C 
HETATM    7  C7  UNL     1     -35.399  14.942  -6.234  1.00 20.00    -0.011 C 
HETATM    8  C8  UNL     1     -34.479  14.475  -3.929  1.00 20.00    -0.011 C 
HETATM    9  C9  UNL     1     -33.046  15.646  -5.646  1.00 20.00    -0.011 C 
HETATM   10  C10 UNL     1     -35.012  16.830  -4.623  1.00 20.00     0.104 C 
HETATM   11  F11 UNL     1     -35.478  18.029  -4.195  1.00 20.00    -0.243 F 
ENDROOT
TORSDOF 0
ENDMDL
MODEL 6
REMARK VINA RESULT:      -4.3      1.221      2.022
REMARK  0 active torsions:
REMARK  status: ('A' for Active; 'I' for Inactive)
ROOT
HETATM    1  C1  UNL     1     -34.060  15.355  -6.568  1.00 20.00     0.009 C 
HETATM    2  C2  UNL     1     -33.555  17.101  -4.839  1.00 20.00     0.009 C 
HETATM    3  C3  UNL     1     -33.062  14.687  -4.365  1.00 20.00     0.009 C 
HETATM    4  C4  UNL     1     -35.933  16.511  -5.368  1.00 20.00     0.048 C 
HETATM    5  C5  UNL     1     -35.441  14.098  -4.895  1.00 20.00     0.048 C 
HETATM    6  C6  UNL     1     -34.937  15.844  -3.166  1.00 20.00     0.048 C 
HETATM    7  C7  UNL     1     -34.526  16.691  -5.961  1.00 20.00    -0.011 C 
HETATM    8  C8  UNL     1     -34.030  14.261  -5.484  1.00 20.00    -0.011 C 
HETATM    9  C9  UNL     1     -33.522  16.019  -3.744  1.00 20.00    -0.011 C 
HETATM   10  C10 UNL     1     -35.903  15.427  -4.283  1.00 20.00     0.104 C 
HETATM   11  F11 UNL     1     -37.148  15.275  -3.765  1.00 20.00    -0.243 F 
ENDROOT
TORSDOF 0
ENDMDL
MODEL 7
REMARK VINA RESULT:      -4.2      1.216      2.796
REMARK  0 active torsions:
REMARK  status: ('A' for Active; 'I' for Inactive)
ROOT
HETATM    1  C1  UNL     1     -33.071  14.673  -4.397  1.00 20.00     0.009 C 
HETATM    2  C2  UNL     1     -34.095  15.319  -6.594  1.00 20.00     0.009 C 
HETATM    3  C3  UNL     1     -33.553  17.084  -4.895  1.00 20.00     0.009 C 
HETATM    4  C4  UNL     1     -35.461  14.095  -4.885  1.00 20.00     0.048 C 
HETATM    5  C5  UNL     1     -34.919  15.859  -3.187  1.00 20.00     0.048 C 
HETATM    6  C6  UNL     1     -35.943  16.505  -5.383  1.00 20.00     0.048 C 
HETATM    7  C7  UNL     1     -34.058  14.240  -5.497  1.00 20.00    -0.011 C 
HETATM    8  C8  UNL     1     -33.512  16.016  -3.786  1.00 20.00    -0.011 C 
HETATM    9  C9  UNL     1     -34.543  16.667  -5.998  1.00 20.00    -0.011 C 
HETATM   10  C10 UNL     1     -35.905  15.435  -4.284  1.00 20.00     0.104 C 
HETATM   11  F11 UNL     1     -37.143  15.299  -3.747  1.00 20.00    -0.243 F 
ENDROOT
TORSDOF 0
ENDMDL
MODEL 8
REMARK VINA RESULT:      -4.2      1.821      3.037
REMARK  0 active torsions:
REMARK  status: ('A' for Active; 'I' for Inactive)
ROOT
HETATM    1  C1  UNL     1     -33.063  14.602  -4.478  1.00 20.00     0.009 C 
HETATM    2  C2  UNL     1     -35.393  13.928  -5.119  1.00 20.00     0.009 C 
HETATM    3  C3  UNL     1     -33.934  15.127  -6.771  1.00 20.00     0.009 C 
HETATM    4  C4  UNL     1     -35.033  15.774  -3.462  1.00 20.00     0.048 C 
HETATM    5  C5  UNL     1     -33.575  16.972  -5.113  1.00 20.00     0.048 C 
HETATM    6  C6  UNL     1     -35.903  16.300  -5.754  1.00 20.00     0.048 C 
HETATM    7  C7  UNL     1     -34.504  14.421  -3.963  1.00 20.00    -0.011 C 
HETATM    8  C8  UNL     1     -33.034  15.627  -5.626  1.00 20.00    -0.011 C 
HETATM    9  C9  UNL     1     -35.379  14.950  -6.272  1.00 20.00    -0.011 C 
HETATM   10  C10 UNL     1     -35.012  16.795  -4.607  1.00 20.00     0.104 C 
HETATM   11  F11 UNL     1     -35.481  17.985  -4.157  1.00 20.00    -0.243 F 
ENDROOT
TORSDOF 0
ENDMDL
MODEL 9
REMARK VINA RESULT:      -4.2      1.412      2.579
REMARK  0 active torsions:
REMARK  status: ('A' for Active; 'I' for Inactive)
ROOT
HETATM    1  C1  UNL     1     -36.156  15.932  -3.651  1.00 20.00     0.009 C 
HETATM    2  C2  UNL     1     -34.795  17.486  -5.074  1.00 20.00     0.009 C 
HETATM    3  C3  UNL     1     -35.827  15.437  -6.089  1.00 20.00     0.009 C 
HETATM    4  C4  UNL     1     -33.671  16.062  -3.343  1.00 20.00     0.048 C 
HETATM    5  C5  UNL     1     -34.704  14.014  -4.358  1.00 20.00     0.048 C 
HETATM    6  C6  UNL     1     -33.342  15.567  -5.780  1.00 20.00     0.048 C 
HETATM    7  C7  UNL     1     -34.937  16.872  -3.669  1.00 20.00    -0.011 C 
HETATM    8  C8  UNL     1     -35.977  14.809  -4.691  1.00 20.00    -0.011 C 
HETATM    9  C9  UNL     1     -34.606  16.374  -6.122  1.00 20.00    -0.011 C 
HETATM   10  C10 UNL     1     -33.487  14.949  -4.383  1.00 20.00     0.104 C 
HETATM   11  F11 UNL     1     -32.369  14.239  -4.089  1.00 20.00    -0.243 F 
ENDROOT
TORSDOF 0
ENDMDL
