MODEL 1
REMARK VINA RESULT:      -4.6      0.000      0.000
REMARK  0 active torsions:
REMARK  status: ('A' for Active; 'I' for Inactive)
ROOT
HETATM    1  C1  UNL     1     -35.608  13.795  -4.951  1.00 20.00     0.135 C 
HETATM    2  C2  UNL     1     -34.447  14.177  -4.070  1.00 20.00     0.088 C 
HETATM    3  C3  UNL     1     -35.734  16.155  -4.644  1.00 20.00     0.025 C 
HETATM    4  C4  UNL     1     -36.464  14.989  -5.344  1.00 20.00     0.014 C 
HETATM    5  C5  UNL     1     -34.298  15.683  -4.327  1.00 20.00    -0.040 C 
HETATM    6  C6  UNL     1     -36.515  15.144  -6.862  1.00 20.00     0.023 C 
HETATM    7  C7  UNL     1     -37.878  14.816  -4.786  1.00 20.00     0.023 C 
HETATM    8  C8  UNL     1     -33.333  15.945  -5.495  1.00 20.00     0.015 C 
HETATM    9  C9  UNL     1     -33.758  16.400  -3.083  1.00 20.00     0.015 C 
HETATM   10  O10 UNL     1     -35.851  12.639  -5.276  1.00 20.00    -0.297 OA
ENDROOT
TORSDOF 0
ENDMDL
MODEL 2
REMARK VINA RESULT:      -4.4     11.074     12.277
REMARK  0 active torsions:
REMARK  status: ('A' for Active; 'I' for Inactive)
ROOT
HETATM    1  C1  UNL     1     -33.479   5.261   3.228  1.00 20.00     0.135 C 
HETATM    2  C2  UNL     1     -32.254   6.064   2.875  1.00 20.00     0.088 C 
HETATM    3  C3  UNL     1     -33.648   7.317   4.421  1.00 20.00     0.025 C 
HETATM    4  C4  UNL     1     -34.396   5.985   4.201  1.00 20.00     0.014 C 
HETATM    5  C5  UNL     1     -32.662   7.497   3.245  1.00 20.00    -0.040 C 
HETATM    6  C6  UNL     1     -35.786   6.175   3.597  1.00 20.00     0.023 C 
HETATM    7  C7  UNL     1     -34.494   5.191   5.505  1.00 20.00     0.023 C 
HETATM    8  C8  UNL     1     -33.314   8.206   2.047  1.00 20.00     0.015 C 
HETATM    9  C9  UNL     1     -31.443   8.317   3.687  1.00 20.00     0.015 C 
HETATM   10  O10 UNL     1     -33.683   4.130   2.802  1.00 20.00    -0.297 OA
ENDROOT
TORSDOF 0
ENDMDL
MODEL 3
REMARK VINA RESULT:      -4.3      1.461      1.791
REMARK  0 active torsions:
REMARK  status: ('A' for Active; 'I' for Inactive)
ROOT
HETATM    1  C1  UNL     1     -35.197  13.553  -6.039  1.00 20.00     0.135 C 
HETATM    2  C2  UNL     1     -35.123  13.827  -4.559  1.00 20.00     0.088 C 
HETATM    3  C3  UNL     1     -35.002  15.916  -5.794  1.00 20.00     0.025 C 
HETATM    4  C4  UNL     1     -35.134  14.821  -6.875  1.00 20.00     0.014 C 
HETATM    5  C5  UNL     1     -34.511  15.234  -4.498  1.00 20.00    -0.040 C 
HETATM    6  C6  UNL     1     -33.944  14.783  -7.831  1.00 20.00     0.023 C 
HETATM    7  C7  UNL     1     -36.435  14.985  -7.663  1.00 20.00     0.023 C 
HETATM    8  C8  UNL     1     -32.977  15.159  -4.431  1.00 20.00     0.015 C 
HETATM    9  C9  UNL     1     -35.012  15.997  -3.265  1.00 20.00     0.015 C 
HETATM   10  O10 UNL     1     -35.334  12.428  -6.505  1.00 20.00    -0.297 OA
ENDROOT
TORSDOF 0
ENDMDL
MODEL 4
REMARK VINA RESULT:      -4.1      1.317      2.776
REMARK  0 active torsions:
REMARK  status: ('A' for Active; 'I' for Inactive)
ROOT
HETATM    1  C1  UNL     1     -35.527  14.089  -4.913  1.00 20.00     0.135 C 
HETATM    2  C2  UNL     1     -36.643  14.979  -4.432  1.00 20.00     0.088 C 
HETATM    3  C3  UNL     1     -34.712  16.325  -5.031  1.00 20.00     0.025 C 
HETATM    4  C4  UNL     1     -34.285  14.869  -5.314  1.00 20.00     0.014 C 
HETATM    5  C5  UNL     1     -35.914  16.278  -4.062  1.00 20.00    -0.040 C 
HETATM    6  C6  UNL     1     -33.079  14.431  -4.487  1.00 20.00     0.023 C 
HETATM    7  C7  UNL     1     -34.003  14.662  -6.804  1.00 20.00     0.023 C 
HETATM    8  C8  UNL     1     -35.469  16.256  -2.591  1.00 20.00     0.015 C 
HETATM    9  C9  UNL     1     -36.823  17.496  -4.273  1.00 20.00     0.015 C 
HETATM   10  O10 UNL     1     -35.635  12.872  -5.007  1.00 20.00    -0.297 OA
ENDROOT
TORSDOF 0
ENDMDL
MODEL 5
REMARK VINA RESULT:      -4.1      1.875      2.898
REMARK  0 active torsions:
REMARK  status: ('A' for Active; 'I' for Inactive)
ROOT
HETATM    1  C1  UNL     1     -35.775  15.627  -3.765  1.00 20.00     0.135 C 
HETATM    2  C2  UNL     1     -34.900  14.525  -4.305  1.00 20.00     0.088 C 
HETATM    3  C3  UNL     1     -33.529  16.216  -3.227  1.00 20.00     0.025 C 
HETATM    4  C4  UNL     1     -34.979  16.719  -3.068  1.00 20.00     0.014 C 
HETATM    5  C5  UNL     1     -33.517  15.187  -4.379  1.00 20.00    -0.040 C 
HETATM    6  C6  UNL     1     -35.216  18.073  -3.734  1.00 20.00     0.023 C 
HETATM    7  C7  UNL     1     -35.376  16.785  -1.591  1.00 20.00     0.023 C 
HETATM    8  C8  UNL     1     -33.303  15.854  -5.748  1.00 20.00     0.015 C 
HETATM    9  C9  UNL     1     -32.404  14.153  -4.166  1.00 20.00     0.015 C 
HETATM   10  O10 UNL     1     -36.997  15.613  -3.847  1.00 20.00    -0.297 OA
ENDROOT
TORSDOF 0
ENDMDL
MODEL 6
REMARK VINA RESULT:      -4.0      1.325      1.833
REMARK  0 active torsions:
REMARK  status: ('A' for Active; 'I' for Inactive)
ROOT
HETATM    1  C1  UNL     1     -36.321  14.314  -5.186  1.00 20.00     0.135 C 
HETATM    2  C2  UNL     1     -35.641  15.152  -4.134  1.00 20.00     0.088 C 
HETATM    3  C3  UNL     1     -34.553  15.478  -6.281  1.00 20.00     0.025 C 
HETATM    4  C4  UNL     1     -35.694  14.475  -6.561  1.00 20.00     0.014 C 
HETATM    5  C5  UNL     1     -34.273  15.452  -4.763  1.00 20.00    -0.040 C 
HETATM    6  C6  UNL     1     -35.190  13.134  -7.090  1.00 20.00     0.023 C 
HETATM    7  C7  UNL     1     -36.718  15.070  -7.530  1.00 20.00     0.023 C 
HETATM    8  C8  UNL     1     -33.248  14.372  -4.382  1.00 20.00     0.015 C 
HETATM    9  C9  UNL     1     -33.741  16.812  -4.291  1.00 20.00     0.015 C 
HETATM   10  O10 UNL     1     -37.299  13.613  -4.954  1.00 20.00    -0.297 OA
ENDROOT
TORSDOF 0
ENDMDL
MODEL 7
REMARK VINA RESULT:      -4.0      1.958      2.756
REMARK  0 active torsions:
REMARK  status: ('A' for Active; 'I' for Inactive)
ROOT
HETATM    1  C1  UNL     1     -33.800  15.884  -4.264  1.00 20.00     0.135 C 
HETATM    2  C2  UNL     1     -33.636  16.551  -2.923  1.00 20.00     0.088 C 
HETATM    3  C3  UNL     1     -35.968  15.970  -3.279  1.00 20.00     0.025 C 
HETATM    4  C4  UNL     1     -35.238  15.485  -4.550  1.00 20.00     0.014 C 
HETATM    5  C5  UNL     1     -35.062  17.015  -2.593  1.00 20.00    -0.040 C 
HETATM    6  C6  UNL     1     -35.746  16.160  -5.822  1.00 20.00     0.023 C 
HETATM    7  C7  UNL     1     -35.335  13.964  -4.689  1.00 20.00     0.023 C 
HETATM    8  C8  UNL     1     -35.312  18.436  -3.126  1.00 20.00     0.015 C 
HETATM    9  C9  UNL     1     -35.299  17.020  -1.077  1.00 20.00     0.015 C 
HETATM   10  O10 UNL     1     -32.860  15.655  -5.017  1.00 20.00    -0.297 OA
ENDROOT
TORSDOF 0
ENDMDL
MODEL 8
REMARK VINA RESULT:      -3.9      0.994      3.440
REMARK  0 active torsions:
REMARK  status: ('A' for Active; 'I' for Inactive)
ROOT
HETATM    1  C1  UNL     1     -34.873  14.206  -4.514  1.00 20.00     0.135 C 
HETATM    2  C2  UNL     1     -35.963  13.800  -5.473  1.00 20.00     0.088 C 
HETATM    3  C3  UNL     1     -35.825  16.223  -5.353  1.00 20.00     0.025 C 
HETATM    4  C4  UNL     1     -34.726  15.714  -4.396  1.00 20.00     0.014 C 
HETATM    5  C5  UNL     1     -36.826  15.066  -5.569  1.00 20.00    -0.040 C 
HETATM    6  C6  UNL     1     -34.936  16.168  -2.952  1.00 20.00     0.023 C 
HETATM    7  C7  UNL     1     -33.339  16.138  -4.882  1.00 20.00     0.023 C 
HETATM    8  C8  UNL     1     -37.935  15.054  -4.504  1.00 20.00     0.015 C 
HETATM    9  C9  UNL     1     -37.484  15.176  -6.951  1.00 20.00     0.015 C 
HETATM   10  O10 UNL     1     -34.160  13.397  -3.930  1.00 20.00    -0.297 OA
ENDROOT
TORSDOF 0
ENDMDL
MODEL 9
REMARK VINA RESULT:      -3.9      1.175      1.175
REMARK  0 active torsions:
REMARK  status: ('A' for Active; 'I' for Inactive)
ROOT
HETATM    1  C1  UNL     1     -34.534  14.457  -5.255  1.00 20.00     0.135 C 
HETATM    2  C2  UNL     1     -33.656  14.951  -4.134  1.00 20.00     0.088 C 
HETATM    3  C3  UNL     1     -35.735  16.206  -4.170  1.00 20.00     0.025 C 
HETATM    4  C4  UNL     1     -35.860  15.197  -5.331  1.00 20.00     0.014 C 
HETATM    5  C5  UNL     1     -34.235  16.339  -3.828  1.00 20.00    -0.040 C 
HETATM    6  C6  UNL     1     -36.027  15.872  -6.691  1.00 20.00     0.023 C 
HETATM    7  C7  UNL     1     -37.011  14.220  -5.085  1.00 20.00     0.023 C 
HETATM    8  C8  UNL     1     -33.542  17.419  -4.675  1.00 20.00     0.015 C 
HETATM    9  C9  UNL     1     -34.050  16.694  -2.346  1.00 20.00     0.015 C 
HETATM   10  O10 UNL     1     -34.220  13.530  -5.993  1.00 20.00    -0.297 OA
ENDROOT
TORSDOF 0
ENDMDL
