MODEL 1
REMARK VINA RESULT:      -4.5      0.000      0.000
REMARK  0 active torsions:
REMARK  status: ('A' for Active; 'I' for Inactive)
ROOT
HETATM    1  C1  UNL     1     -33.179   7.098   2.641  1.00 20.00     0.027 A 
HETATM    2  C2  UNL     1     -32.764   5.773   3.226  1.00 20.00     0.027 A 
HETATM    3  C3  UNL     1     -33.860   6.579   3.892  1.00 20.00     0.120 A 
HETATM    4  C4  UNL     1     -32.227   8.246   2.657  1.00 20.00     0.014 C 
HETATM    5  C5  UNL     1     -33.030   4.512   2.474  1.00 20.00     0.014 C 
HETATM    6 CL6  UNL     1     -33.502   7.302   5.459  1.00 20.00    -0.101 Cl
HETATM    7 CL7  UNL     1     -35.543   6.072   3.749  1.00 20.00    -0.101 Cl
ENDROOT
TORSDOF 0
ENDMDL
MODEL 2
REMARK VINA RESULT:      -4.5      0.040      2.699
REMARK  0 active torsions:
REMARK  status: ('A' for Active; 'I' for Inactive)
ROOT
HETATM    1  C1  UNL     1     -32.776   5.786   3.220  1.00 20.00     0.027 A 
HETATM    2  C2  UNL     1     -33.224   7.103   2.642  1.00 20.00     0.027 A 
HETATM    3  C3  UNL     1     -33.880   6.572   3.900  1.00 20.00     0.120 A 
HETATM    4  C4  UNL     1     -33.029   4.522   2.471  1.00 20.00     0.014 C 
HETATM    5  C5  UNL     1     -32.295   8.270   2.644  1.00 20.00     0.014 C 
HETATM    6 CL6  UNL     1     -35.553   6.032   3.780  1.00 20.00    -0.101 Cl
HETATM    7 CL7  UNL     1     -33.514   7.301   5.464  1.00 20.00    -0.101 Cl
ENDROOT
TORSDOF 0
ENDMDL
MODEL 3
REMARK VINA RESULT:      -4.1      1.765      2.573
REMARK  0 active torsions:
REMARK  status: ('A' for Active; 'I' for Inactive)
ROOT
HETATM    1  C1  UNL     1     -33.920   7.223   4.295  1.00 20.00     0.027 A 
HETATM    2  C2  UNL     1     -32.677   6.940   3.491  1.00 20.00     0.027 A 
HETATM    3  C3  UNL     1     -33.900   6.062   3.320  1.00 20.00     0.120 A 
HETATM    4  C4  UNL     1     -33.904   7.036   5.774  1.00 20.00     0.014 C 
HETATM    5  C5  UNL     1     -32.228   7.912   2.452  1.00 20.00     0.014 C 
HETATM    6 CL6  UNL     1     -33.802   4.406   3.918  1.00 20.00    -0.101 Cl
HETATM    7 CL7  UNL     1     -34.894   6.201   1.871  1.00 20.00    -0.101 Cl
ENDROOT
TORSDOF 0
ENDMDL
MODEL 4
REMARK VINA RESULT:      -4.1      1.765      2.571
REMARK  0 active torsions:
REMARK  status: ('A' for Active; 'I' for Inactive)
ROOT
HETATM    1  C1  UNL     1     -32.680   6.940   3.501  1.00 20.00     0.027 A 
HETATM    2  C2  UNL     1     -33.926   7.220   4.302  1.00 20.00     0.027 A 
HETATM    3  C3  UNL     1     -33.904   6.060   3.327  1.00 20.00     0.120 A 
HETATM    4  C4  UNL     1     -32.232   7.912   2.464  1.00 20.00     0.014 C 
HETATM    5  C5  UNL     1     -33.915   7.032   5.782  1.00 20.00     0.014 C 
HETATM    6 CL6  UNL     1     -34.893   6.198   1.875  1.00 20.00    -0.101 Cl
HETATM    7 CL7  UNL     1     -33.804   4.404   3.924  1.00 20.00    -0.101 Cl
ENDROOT
TORSDOF 0
ENDMDL
MODEL 5
REMARK VINA RESULT:      -3.8      2.082      3.314
REMARK  0 active torsions:
REMARK  status: ('A' for Active; 'I' for Inactive)
ROOT
HETATM    1  C1  UNL     1     -34.682   6.823   3.829  1.00 20.00     0.027 A 
HETATM    2  C2  UNL     1     -33.708   6.498   4.932  1.00 20.00     0.027 A 
HETATM    3  C3  UNL     1     -33.240   6.497   3.490  1.00 20.00     0.120 A 
HETATM    4  C4  UNL     1     -35.810   5.892   3.538  1.00 20.00     0.014 C 
HETATM    5  C5  UNL     1     -33.313   7.554   5.909  1.00 20.00     0.014 C 
HETATM    6 CL6  UNL     1     -32.831   4.942   2.769  1.00 20.00    -0.101 Cl
HETATM    7 CL7  UNL     1     -32.231   7.811   2.886  1.00 20.00    -0.101 Cl
ENDROOT
TORSDOF 0
ENDMDL
MODEL 6
REMARK VINA RESULT:      -3.8      2.089      2.738
REMARK  0 active torsions:
REMARK  status: ('A' for Active; 'I' for Inactive)
ROOT
HETATM    1  C1  UNL     1     -33.672   6.521   4.924  1.00 20.00     0.027 A 
HETATM    2  C2  UNL     1     -34.661   6.829   3.830  1.00 20.00     0.027 A 
HETATM    3  C3  UNL     1     -33.223   6.508   3.476  1.00 20.00     0.120 A 
HETATM    4  C4  UNL     1     -33.271   7.589   5.884  1.00 20.00     0.014 C 
HETATM    5  C5  UNL     1     -35.789   5.889   3.562  1.00 20.00     0.014 C 
HETATM    6 CL6  UNL     1     -32.228   7.820   2.846  1.00 20.00    -0.101 Cl
HETATM    7 CL7  UNL     1     -32.814   4.947   2.766  1.00 20.00    -0.101 Cl
ENDROOT
TORSDOF 0
ENDMDL
MODEL 7
REMARK VINA RESULT:      -3.7      1.858      2.854
REMARK  0 active torsions:
REMARK  status: ('A' for Active; 'I' for Inactive)
ROOT
HETATM    1  C1  UNL     1     -33.877   5.174   3.992  1.00 20.00     0.027 A 
HETATM    2  C2  UNL     1     -34.818   6.191   3.400  1.00 20.00     0.027 A 
HETATM    3  C3  UNL     1     -33.612   6.654   4.192  1.00 20.00     0.120 A 
HETATM    4  C4  UNL     1     -34.345   4.282   5.091  1.00 20.00     0.014 C 
HETATM    5  C5  UNL     1     -34.917   6.338   1.918  1.00 20.00     0.014 C 
HETATM    6 CL6  UNL     1     -33.907   7.401   5.761  1.00 20.00    -0.101 Cl
HETATM    7 CL7  UNL     1     -32.221   7.349   3.361  1.00 20.00    -0.101 Cl
ENDROOT
TORSDOF 0
ENDMDL
MODEL 8
REMARK VINA RESULT:      -3.7      1.848      2.410
REMARK  0 active torsions:
REMARK  status: ('A' for Active; 'I' for Inactive)
ROOT
HETATM    1  C1  UNL     1     -34.812   6.195   3.371  1.00 20.00     0.027 A 
HETATM    2  C2  UNL     1     -33.882   5.177   3.978  1.00 20.00     0.027 A 
HETATM    3  C3  UNL     1     -33.614   6.654   4.179  1.00 20.00     0.120 A 
HETATM    4  C4  UNL     1     -34.890   6.340   1.889  1.00 20.00     0.014 C 
HETATM    5  C5  UNL     1     -34.367   4.286   5.072  1.00 20.00     0.014 C 
HETATM    6 CL6  UNL     1     -32.211   7.345   3.366  1.00 20.00    -0.101 Cl
HETATM    7 CL7  UNL     1     -33.929   7.406   5.743  1.00 20.00    -0.101 Cl
ENDROOT
TORSDOF 0
ENDMDL
MODEL 9
REMARK VINA RESULT:      -3.2      9.291     10.148
REMARK  0 active torsions:
REMARK  status: ('A' for Active; 'I' for Inactive)
ROOT
HETATM    1  C1  UNL     1     -43.234   5.681  -0.679  1.00 20.00     0.027 A 
HETATM    2  C2  UNL     1     -42.736   5.684   0.744  1.00 20.00     0.027 A 
HETATM    3  C3  UNL     1     -41.872   6.264  -0.357  1.00 20.00     0.120 A 
HETATM    4  C4  UNL     1     -43.409   4.388  -1.400  1.00 20.00     0.014 C 
HETATM    5  C5  UNL     1     -43.417   6.530   1.767  1.00 20.00     0.014 C 
HETATM    6 CL6  UNL     1     -40.408   5.383  -0.791  1.00 20.00    -0.101 Cl
HETATM    7 CL7  UNL     1     -41.681   8.010  -0.506  1.00 20.00    -0.101 Cl
ENDROOT
TORSDOF 0
ENDMDL
