MODEL 1
REMARK VINA RESULT:      -5.7      0.000      0.000
REMARK  0 active torsions:
REMARK  status: ('A' for Active; 'I' for Inactive)
ROOT
HETATM    1  C1  UNL     1     -34.504   4.780   5.643  1.00 20.00    -0.025 C 
HETATM    2  C2  UNL     1     -34.458   6.056   6.057  1.00 20.00    -0.025 C 
HETATM    3  C3  UNL     1     -33.031   5.363   2.146  1.00 20.00    -0.024 A 
HETATM    4  C4  UNL     1     -32.889   6.622   1.726  1.00 20.00    -0.025 A 
HETATM    5  C5  UNL     1     -35.420   6.066   3.964  1.00 20.00     0.018 C 
HETATM    6  C6  UNL     1     -34.565   4.802   4.132  1.00 20.00     0.016 C 
HETATM    7  C7  UNL     1     -34.487   6.929   4.820  1.00 20.00     0.014 C 
HETATM    8  C8  UNL     1     -33.175   5.267   3.628  1.00 20.00     0.021 A 
HETATM    9  C9  UNL     1     -32.935   7.623   2.842  1.00 20.00     0.009 A 
HETATM   10  C10 UNL     1     -33.114   6.761   4.110  1.00 20.00     0.009 A 
HETATM   11  C11 UNL     1     -31.655   8.450   2.894  1.00 20.00     0.014 C 
ENDROOT
TORSDOF 0
ENDMDL
MODEL 2
REMARK VINA RESULT:      -5.3      1.132      2.373
REMARK  0 active torsions:
REMARK  status: ('A' for Active; 'I' for Inactive)
ROOT
HETATM    1  C1  UNL     1     -34.828   5.907   4.638  1.00 20.00    -0.025 C 
HETATM    2  C2  UNL     1     -35.294   5.973   3.382  1.00 20.00    -0.025 C 
HETATM    3  C3  UNL     1     -31.702   8.069   4.097  1.00 20.00    -0.024 A 
HETATM    4  C4  UNL     1     -31.368   8.389   2.845  1.00 20.00    -0.025 A 
HETATM    5  C5  UNL     1     -33.058   5.437   3.238  1.00 20.00     0.018 C 
HETATM    6  C6  UNL     1     -33.335   6.141   4.574  1.00 20.00     0.016 C 
HETATM    7  C7  UNL     1     -34.111   6.252   2.479  1.00 20.00     0.014 C 
HETATM    8  C8  UNL     1     -33.125   7.635   4.218  1.00 20.00     0.021 A 
HETATM    9  C9  UNL     1     -32.494   8.207   1.871  1.00 20.00     0.009 A 
HETATM   10  C10 UNL     1     -33.669   7.719   2.747  1.00 20.00     0.009 A 
HETATM   11  C11 UNL     1     -32.823   9.514   1.158  1.00 20.00     0.014 C 
ENDROOT
TORSDOF 0
ENDMDL
MODEL 3
REMARK VINA RESULT:      -4.9     11.589     12.911
REMARK  0 active torsions:
REMARK  status: ('A' for Active; 'I' for Inactive)
ROOT
HETATM    1  C1  UNL     1     -34.632  15.464  -6.158  1.00 20.00    -0.025 C 
HETATM    2  C2  UNL     1     -33.327  15.556  -5.857  1.00 20.00    -0.025 C 
HETATM    3  C3  UNL     1     -35.985  16.641  -2.764  1.00 20.00    -0.024 A 
HETATM    4  C4  UNL     1     -35.124  16.757  -1.751  1.00 20.00    -0.025 A 
HETATM    5  C5  UNL     1     -34.336  14.420  -4.125  1.00 20.00     0.018 C 
HETATM    6  C6  UNL     1     -35.379  15.275  -4.857  1.00 20.00     0.016 C 
HETATM    7  C7  UNL     1     -33.205  15.429  -4.354  1.00 20.00     0.014 C 
HETATM    8  C8  UNL     1     -35.306  16.622  -4.093  1.00 20.00     0.021 A 
HETATM    9  C9  UNL     1     -33.694  16.813  -2.198  1.00 20.00     0.009 A 
HETATM   10  C10 UNL     1     -33.780  16.736  -3.737  1.00 20.00     0.009 A 
HETATM   11  C11 UNL     1     -33.021  18.100  -1.731  1.00 20.00     0.014 C 
ENDROOT
TORSDOF 0
ENDMDL
MODEL 4
REMARK VINA RESULT:      -4.7     12.015     12.865
REMARK  0 active torsions:
REMARK  status: ('A' for Active; 'I' for Inactive)
ROOT
HETATM    1  C1  UNL     1     -34.079  18.298  -0.063  1.00 20.00    -0.025 C 
HETATM    2  C2  UNL     1     -32.870  18.272  -0.645  1.00 20.00    -0.025 C 
HETATM    3  C3  UNL     1     -35.984  16.461  -2.844  1.00 20.00    -0.024 A 
HETATM    4  C4  UNL     1     -35.357  16.254  -4.004  1.00 20.00    -0.025 A 
HETATM    5  C5  UNL     1     -34.363  19.012  -2.236  1.00 20.00     0.018 C 
HETATM    6  C6  UNL     1     -35.109  18.202  -1.166  1.00 20.00     0.016 C 
HETATM    7  C7  UNL     1     -33.095  18.157  -2.138  1.00 20.00     0.014 C 
HETATM    8  C8  UNL     1     -35.040  16.759  -1.727  1.00 20.00     0.021 A 
HETATM    9  C9  UNL     1     -33.868  16.397  -3.901  1.00 20.00     0.009 A 
HETATM   10  C10 UNL     1     -33.626  16.721  -2.411  1.00 20.00     0.009 A 
HETATM   11  C11 UNL     1     -33.160  15.114  -4.325  1.00 20.00     0.014 C 
ENDROOT
TORSDOF 0
ENDMDL
MODEL 5
REMARK VINA RESULT:      -4.6      1.026      3.451
REMARK  0 active torsions:
REMARK  status: ('A' for Active; 'I' for Inactive)
ROOT
HETATM    1  C1  UNL     1     -33.644   7.080   1.411  1.00 20.00    -0.025 C 
HETATM    2  C2  UNL     1     -32.789   7.879   2.068  1.00 20.00    -0.025 C 
HETATM    3  C3  UNL     1     -35.103   5.313   4.490  1.00 20.00    -0.024 A 
HETATM    4  C4  UNL     1     -34.504   5.503   5.667  1.00 20.00    -0.025 A 
HETATM    5  C5  UNL     1     -32.496   5.752   2.905  1.00 20.00     0.018 C 
HETATM    6  C6  UNL     1     -33.898   5.876   2.290  1.00 20.00     0.016 C 
HETATM    7  C7  UNL     1     -32.473   7.206   3.388  1.00 20.00     0.014 C 
HETATM    8  C8  UNL     1     -34.750   6.362   3.490  1.00 20.00     0.021 A 
HETATM    9  C9  UNL     1     -33.607   6.705   5.683  1.00 20.00     0.009 A 
HETATM   10  C10 UNL     1     -33.754   7.299   4.265  1.00 20.00     0.009 A 
HETATM   11  C11 UNL     1     -34.033   7.697   6.760  1.00 20.00     0.014 C 
ENDROOT
TORSDOF 0
ENDMDL
MODEL 6
REMARK VINA RESULT:      -4.6     11.920     12.885
REMARK  0 active torsions:
REMARK  status: ('A' for Active; 'I' for Inactive)
ROOT
HETATM    1  C1  UNL     1     -34.597  15.857  -3.931  1.00 20.00    -0.025 C 
HETATM    2  C2  UNL     1     -35.861  15.836  -3.480  1.00 20.00    -0.025 C 
HETATM    3  C3  UNL     1     -33.140  18.073  -1.156  1.00 20.00    -0.024 A 
HETATM    4  C4  UNL     1     -33.989  18.673  -0.320  1.00 20.00    -0.025 A 
HETATM    5  C5  UNL     1     -35.181  18.037  -3.467  1.00 20.00     0.018 C 
HETATM    6  C6  UNL     1     -33.953  17.118  -3.401  1.00 20.00     0.016 C 
HETATM    7  C7  UNL     1     -36.059  17.085  -2.648  1.00 20.00     0.014 C 
HETATM    8  C8  UNL     1     -33.761  16.922  -1.876  1.00 20.00     0.021 A 
HETATM    9  C9  UNL     1     -35.358  18.060  -0.332  1.00 20.00     0.009 A 
HETATM   10  C10 UNL     1     -35.237  16.897  -1.340  1.00 20.00     0.009 A 
HETATM   11  C11 UNL     1     -35.754  17.567   1.057  1.00 20.00     0.014 C 
ENDROOT
TORSDOF 0
ENDMDL
MODEL 7
REMARK VINA RESULT:      -4.6     11.712     12.539
REMARK  0 active torsions:
REMARK  status: ('A' for Active; 'I' for Inactive)
ROOT
HETATM    1  C1  UNL     1     -36.300  13.652  -5.519  1.00 20.00    -0.025 C 
HETATM    2  C2  UNL     1     -37.290  14.360  -4.955  1.00 20.00    -0.025 C 
HETATM    3  C3  UNL     1     -33.381  15.500  -3.846  1.00 20.00    -0.024 A 
HETATM    4  C4  UNL     1     -33.649  16.624  -3.179  1.00 20.00    -0.025 A 
HETATM    5  C5  UNL     1     -35.761  15.879  -5.769  1.00 20.00     0.018 C 
HETATM    6  C6  UNL     1     -35.069  14.531  -5.526  1.00 20.00     0.016 C 
HETATM    7  C7  UNL     1     -36.718  15.712  -4.584  1.00 20.00     0.014 C 
HETATM    8  C8  UNL     1     -34.594  14.656  -4.056  1.00 20.00     0.021 A 
HETATM    9  C9  UNL     1     -35.101  16.771  -2.832  1.00 20.00     0.009 A 
HETATM   10  C10 UNL     1     -35.749  15.484  -3.388  1.00 20.00     0.009 A 
HETATM   11  C11 UNL     1     -35.297  16.898  -1.324  1.00 20.00     0.014 C 
ENDROOT
TORSDOF 0
ENDMDL
MODEL 8
REMARK VINA RESULT:      -4.5     11.645     13.034
REMARK  0 active torsions:
REMARK  status: ('A' for Active; 'I' for Inactive)
ROOT
HETATM    1  C1  UNL     1     -34.843  14.216  -5.666  1.00 20.00    -0.025 C 
HETATM    2  C2  UNL     1     -33.982  14.988  -6.347  1.00 20.00    -0.025 C 
HETATM    3  C3  UNL     1     -34.851  16.266  -2.421  1.00 20.00    -0.024 A 
HETATM    4  C4  UNL     1     -33.943  17.235  -2.287  1.00 20.00    -0.025 A 
HETATM    5  C5  UNL     1     -33.042  14.600  -4.280  1.00 20.00     0.018 C 
HETATM    6  C6  UNL     1     -34.565  14.427  -4.195  1.00 20.00     0.016 C 
HETATM    7  C7  UNL     1     -33.130  15.715  -5.329  1.00 20.00     0.014 C 
HETATM    8  C8  UNL     1     -35.047  15.857  -3.843  1.00 20.00     0.021 A 
HETATM    9  C9  UNL     1     -33.329  17.650  -3.591  1.00 20.00     0.009 A 
HETATM   10  C10 UNL     1     -34.043  16.767  -4.637  1.00 20.00     0.009 A 
HETATM   11  C11 UNL     1     -33.552  19.136  -3.856  1.00 20.00     0.014 C 
ENDROOT
TORSDOF 0
ENDMDL
MODEL 9
REMARK VINA RESULT:      -4.5     11.662     13.204
REMARK  0 active torsions:
REMARK  status: ('A' for Active; 'I' for Inactive)
ROOT
HETATM    1  C1  UNL     1     -33.698  16.411  -3.570  1.00 20.00    -0.025 C 
HETATM    2  C2  UNL     1     -34.812  15.726  -3.272  1.00 20.00    -0.025 C 
HETATM    3  C3  UNL     1     -33.499  15.406  -7.269  1.00 20.00    -0.024 A 
HETATM    4  C4  UNL     1     -34.312  14.440  -7.703  1.00 20.00    -0.025 A 
HETATM    5  C5  UNL     1     -33.420  14.279  -4.401  1.00 20.00     0.018 C 
HETATM    6  C6  UNL     1     -33.056  15.728  -4.757  1.00 20.00     0.016 C 
HETATM    7  C7  UNL     1     -34.915  14.585  -4.262  1.00 20.00     0.014 C 
HETATM    8  C8  UNL     1     -33.960  16.009  -5.984  1.00 20.00     0.021 A 
HETATM    9  C9  UNL     1     -35.466  14.185  -6.780  1.00 20.00     0.009 A 
HETATM   10  C10 UNL     1     -35.268  15.210  -5.642  1.00 20.00     0.009 A 
HETATM   11  C11 UNL     1     -36.798  14.383  -7.496  1.00 20.00     0.014 C 
ENDROOT
TORSDOF 0
ENDMDL
