MODEL 1
REMARK VINA RESULT:      -4.7      0.000      0.000
REMARK  2 active torsions:
REMARK  status: ('A' for Active; 'I' for Inactive)
REMARK    1  A    between atoms: C1_1  and  C2_2 
REMARK    2  A    between atoms: C1_1  and  C3_3 
ROOT
HETATM    1  C3  UNL     1     -34.705   5.277   4.224  1.00 20.00     0.390 C 
HETATM    2  F5  UNL     1     -34.795   3.932   4.330  1.00 20.00    -0.171 F 
HETATM    3  F6  UNL     1     -35.878   5.726   3.729  1.00 20.00    -0.171 F 
HETATM    4  F7  UNL     1     -33.739   5.553   3.324  1.00 20.00    -0.171 F 
ENDROOT
BRANCH   1   5
HETATM    5  C1  UNL     1     -34.403   5.896   5.571  1.00 20.00     0.148 C 
BRANCH   5   6
HETATM    6  C2  UNL     1     -33.679   7.223   5.442  1.00 20.00     0.230 C 
HETATM    7  F4  UNL     1     -33.671   7.849   6.649  1.00 20.00    -0.255 F 
ENDBRANCH   5   6
ENDBRANCH   1   5
TORSDOF 2
ENDMDL
MODEL 2
REMARK VINA RESULT:      -4.7      1.612      2.132
REMARK  2 active torsions:
REMARK  status: ('A' for Active; 'I' for Inactive)
REMARK    1  A    between atoms: C1_1  and  C2_2 
REMARK    2  A    between atoms: C1_1  and  C3_3 
ROOT
HETATM    1  C3  UNL     1     -33.855   5.724   3.194  1.00 20.00     0.390 C 
HETATM    2  F5  UNL     1     -34.297   6.052   1.959  1.00 20.00    -0.171 F 
HETATM    3  F6  UNL     1     -32.945   6.651   3.562  1.00 20.00    -0.171 F 
HETATM    4  F7  UNL     1     -33.224   4.535   3.100  1.00 20.00    -0.171 F 
ENDROOT
BRANCH   1   5
HETATM    5  C1  UNL     1     -35.008   5.665   4.171  1.00 20.00     0.148 C 
BRANCH   5   6
HETATM    6  C2  UNL     1     -34.541   5.409   5.593  1.00 20.00     0.230 C 
HETATM    7  F4  UNL     1     -34.327   6.598   6.216  1.00 20.00    -0.255 F 
ENDBRANCH   5   6
ENDBRANCH   1   5
TORSDOF 2
ENDMDL
MODEL 3
REMARK VINA RESULT:      -4.7      1.592      1.774
REMARK  2 active torsions:
REMARK  status: ('A' for Active; 'I' for Inactive)
REMARK    1  A    between atoms: C1_1  and  C2_2 
REMARK    2  A    between atoms: C1_1  and  C3_3 
ROOT
HETATM    1  C3  UNL     1     -33.874   5.715   3.201  1.00 20.00     0.390 C 
HETATM    2  F5  UNL     1     -33.249   4.519   3.124  1.00 20.00    -0.171 F 
HETATM    3  F6  UNL     1     -34.312   6.028   1.962  1.00 20.00    -0.171 F 
HETATM    4  F7  UNL     1     -32.954   6.635   3.563  1.00 20.00    -0.171 F 
ENDROOT
BRANCH   1   5
HETATM    5  C1  UNL     1     -35.016   5.653   4.190  1.00 20.00     0.148 C 
BRANCH   5   6
HETATM    6  C2  UNL     1     -34.533   5.431   5.612  1.00 20.00     0.230 C 
HETATM    7  F4  UNL     1     -34.322   6.635   6.207  1.00 20.00    -0.255 F 
ENDBRANCH   5   6
ENDBRANCH   1   5
TORSDOF 2
ENDMDL
MODEL 4
REMARK VINA RESULT:      -4.7      1.641      2.203
REMARK  2 active torsions:
REMARK  status: ('A' for Active; 'I' for Inactive)
REMARK    1  A    between atoms: C1_1  and  C2_2 
REMARK    2  A    between atoms: C1_1  and  C3_3 
ROOT
HETATM    1  C3  UNL     1     -33.850   5.729   3.162  1.00 20.00     0.390 C 
HETATM    2  F5  UNL     1     -32.940   6.653   3.539  1.00 20.00    -0.171 F 
HETATM    3  F6  UNL     1     -33.219   4.537   3.098  1.00 20.00    -0.171 F 
HETATM    4  F7  UNL     1     -34.266   6.048   1.918  1.00 20.00    -0.171 F 
ENDROOT
BRANCH   1   5
HETATM    5  C1  UNL     1     -35.004   5.690   4.140  1.00 20.00     0.148 C 
BRANCH   5   6
HETATM    6  C2  UNL     1     -34.548   5.365   5.551  1.00 20.00     0.230 C 
HETATM    7  F4  UNL     1     -34.327   6.523   6.229  1.00 20.00    -0.255 F 
ENDBRANCH   5   6
ENDBRANCH   1   5
TORSDOF 2
ENDMDL
MODEL 5
REMARK VINA RESULT:      -4.7      1.693      2.313
REMARK  2 active torsions:
REMARK  status: ('A' for Active; 'I' for Inactive)
REMARK    1  A    between atoms: C1_1  and  C2_2 
REMARK    2  A    between atoms: C1_1  and  C3_3 
ROOT
HETATM    1  C3  UNL     1     -34.719   5.535   4.205  1.00 20.00     0.390 C 
HETATM    2  F5  UNL     1     -34.790   4.250   4.618  1.00 20.00    -0.171 F 
HETATM    3  F6  UNL     1     -34.436   6.296   5.284  1.00 20.00    -0.171 F 
HETATM    4  F7  UNL     1     -35.942   5.888   3.754  1.00 20.00    -0.171 F 
ENDROOT
BRANCH   1   5
HETATM    5  C1  UNL     1     -33.666   5.689   3.131  1.00 20.00     0.148 C 
BRANCH   5   6
HETATM    6  C2  UNL     1     -33.222   7.132   2.965  1.00 20.00     0.230 C 
HETATM    7  F4  UNL     1     -31.923   7.249   3.346  1.00 20.00    -0.255 F 
ENDBRANCH   5   6
ENDBRANCH   1   5
TORSDOF 2
ENDMDL
MODEL 6
REMARK VINA RESULT:      -4.7      1.695      2.350
REMARK  2 active torsions:
REMARK  status: ('A' for Active; 'I' for Inactive)
REMARK    1  A    between atoms: C1_1  and  C2_2 
REMARK    2  A    between atoms: C1_1  and  C3_3 
ROOT
HETATM    1  C3  UNL     1     -34.729   5.545   4.212  1.00 20.00     0.390 C 
HETATM    2  F5  UNL     1     -34.453   6.353   5.260  1.00 20.00    -0.171 F 
HETATM    3  F6  UNL     1     -35.946   5.890   3.739  1.00 20.00    -0.171 F 
HETATM    4  F7  UNL     1     -34.806   4.281   4.679  1.00 20.00    -0.171 F 
ENDROOT
BRANCH   1   5
HETATM    5  C1  UNL     1     -33.666   5.678   3.145  1.00 20.00     0.148 C 
BRANCH   5   6
HETATM    6  C2  UNL     1     -33.229   7.119   2.947  1.00 20.00     0.230 C 
HETATM    7  F4  UNL     1     -31.939   7.256   3.354  1.00 20.00    -0.255 F 
ENDBRANCH   5   6
ENDBRANCH   1   5
TORSDOF 2
ENDMDL
MODEL 7
REMARK VINA RESULT:      -4.7      1.665      2.415
REMARK  2 active torsions:
REMARK  status: ('A' for Active; 'I' for Inactive)
REMARK    1  A    between atoms: C1_1  and  C2_2 
REMARK    2  A    between atoms: C1_1  and  C3_3 
ROOT
HETATM    1  C3  UNL     1     -34.682   5.488   4.228  1.00 20.00     0.390 C 
HETATM    2  F5  UNL     1     -35.930   5.838   3.846  1.00 20.00    -0.171 F 
HETATM    3  F6  UNL     1     -34.685   4.158   4.462  1.00 20.00    -0.171 F 
HETATM    4  F7  UNL     1     -34.418   6.117   5.392  1.00 20.00    -0.171 F 
ENDROOT
BRANCH   1   5
HETATM    5  C1  UNL     1     -33.677   5.856   3.158  1.00 20.00     0.148 C 
BRANCH   5   6
HETATM    6  C2  UNL     1     -33.226   7.301   3.269  1.00 20.00     0.230 C 
HETATM    7  F4  UNL     1     -31.867   7.348   3.278  1.00 20.00    -0.255 F 
ENDBRANCH   5   6
ENDBRANCH   1   5
TORSDOF 2
ENDMDL
MODEL 8
REMARK VINA RESULT:      -4.6      1.444      2.690
REMARK  2 active torsions:
REMARK  status: ('A' for Active; 'I' for Inactive)
REMARK    1  A    between atoms: C1_1  and  C2_2 
REMARK    2  A    between atoms: C1_1  and  C3_3 
ROOT
HETATM    1  C3  UNL     1     -34.762   5.488   4.599  1.00 20.00     0.390 C 
HETATM    2  F5  UNL     1     -35.901   5.751   3.921  1.00 20.00    -0.171 F 
HETATM    3  F6  UNL     1     -34.322   4.274   4.203  1.00 20.00    -0.171 F 
HETATM    4  F7  UNL     1     -35.074   5.411   5.910  1.00 20.00    -0.171 F 
ENDROOT
BRANCH   1   5
HETATM    5  C1  UNL     1     -33.729   6.561   4.337  1.00 20.00     0.148 C 
BRANCH   5   6
HETATM    6  C2  UNL     1     -33.322   6.620   2.876  1.00 20.00     0.230 C 
HETATM    7  F4  UNL     1     -32.510   5.567   2.593  1.00 20.00    -0.255 F 
ENDBRANCH   5   6
ENDBRANCH   1   5
TORSDOF 2
ENDMDL
MODEL 9
REMARK VINA RESULT:      -4.6      1.450      2.496
REMARK  2 active torsions:
REMARK  status: ('A' for Active; 'I' for Inactive)
REMARK    1  A    between atoms: C1_1  and  C2_2 
REMARK    2  A    between atoms: C1_1  and  C3_3 
ROOT
HETATM    1  C3  UNL     1     -34.770   5.513   4.610  1.00 20.00     0.390 C 
HETATM    2  F5  UNL     1     -34.324   4.297   4.224  1.00 20.00    -0.171 F 
HETATM    3  F6  UNL     1     -35.075   5.439   5.923  1.00 20.00    -0.171 F 
HETATM    4  F7  UNL     1     -35.908   5.766   3.930  1.00 20.00    -0.171 F 
ENDROOT
BRANCH   1   5
HETATM    5  C1  UNL     1     -33.721   6.571   4.348  1.00 20.00     0.148 C 
BRANCH   5   6
HETATM    6  C2  UNL     1     -33.319   6.630   2.885  1.00 20.00     0.230 C 
HETATM    7  F4  UNL     1     -32.510   5.576   2.599  1.00 20.00    -0.255 F 
ENDBRANCH   5   6
ENDBRANCH   1   5
TORSDOF 2
ENDMDL
