MODEL 1
REMARK VINA RESULT:      -4.6      0.000      0.000
REMARK  2 active torsions:
REMARK  status: ('A' for Active; 'I' for Inactive)
REMARK    1  A    between atoms: C5_5  and  C6_6 
REMARK    2  A    between atoms: C5_5  and  N7_7 
ROOT
HETATM    1  C1  UNL     1     -32.395   8.059   2.474  1.00 20.00     0.157 C 
HETATM    2  N7  UNL     1     -32.536   7.355   3.402  1.00 20.00    -0.275 NA
HETATM    3  S8  UNL     1     -32.190   9.036   1.233  1.00 20.00    -0.055 SA
ENDROOT
BRANCH   2   4
HETATM    4  C5  UNL     1     -33.210   6.085   3.114  1.00 20.00     0.158 C 
BRANCH   4   5
HETATM    5  C6  UNL     1     -34.280   5.770   4.180  1.00 20.00    -0.033 C 
HETATM    6  C2  UNL     1     -34.271   4.273   4.535  1.00 20.00     0.016 C 
HETATM    7  C3  UNL     1     -35.662   6.132   3.606  1.00 20.00     0.016 C 
HETATM    8  C4  UNL     1     -34.041   6.599   5.454  1.00 20.00     0.016 C 
ENDBRANCH   4   5
ENDBRANCH   2   4
TORSDOF 2
ENDMDL
MODEL 2
REMARK VINA RESULT:      -4.6      0.027      1.535
REMARK  2 active torsions:
REMARK  status: ('A' for Active; 'I' for Inactive)
REMARK    1  A    between atoms: C5_5  and  C6_6 
REMARK    2  A    between atoms: C5_5  and  N7_7 
ROOT
HETATM    1  C1  UNL     1     -32.383   8.038   2.479  1.00 20.00     0.157 C 
HETATM    2  N7  UNL     1     -32.527   7.332   3.406  1.00 20.00    -0.275 NA
HETATM    3  S8  UNL     1     -32.175   9.018   1.241  1.00 20.00    -0.055 SA
ENDROOT
BRANCH   2   4
HETATM    4  C5  UNL     1     -33.209   6.068   3.115  1.00 20.00     0.158 C 
BRANCH   4   5
HETATM    5  C6  UNL     1     -34.300   5.771   4.165  1.00 20.00    -0.033 C 
HETATM    6  C2  UNL     1     -34.052   6.579   5.451  1.00 20.00     0.016 C 
HETATM    7  C3  UNL     1     -34.253   4.272   4.507  1.00 20.00     0.016 C 
HETATM    8  C4  UNL     1     -35.695   6.109   3.611  1.00 20.00     0.016 C 
ENDBRANCH   4   5
ENDBRANCH   2   4
TORSDOF 2
ENDMDL
MODEL 3
REMARK VINA RESULT:      -3.7      2.726      4.743
REMARK  2 active torsions:
REMARK  status: ('A' for Active; 'I' for Inactive)
REMARK    1  A    between atoms: C5_5  and  C6_6 
REMARK    2  A    between atoms: C5_5  and  N7_7 
ROOT
HETATM    1  C1  UNL     1     -32.886   7.567   3.926  1.00 20.00     0.157 C 
HETATM    2  N7  UNL     1     -32.329   7.888   2.944  1.00 20.00    -0.275 NA
HETATM    3  S8  UNL     1     -33.613   7.126   5.273  1.00 20.00    -0.055 SA
ENDROOT
BRANCH   2   4
HETATM    4  C5  UNL     1     -33.209   8.227   1.822  1.00 20.00     0.158 C 
BRANCH   4   5
HETATM    5  C6  UNL     1     -32.529   9.231   0.867  1.00 20.00    -0.033 C 
HETATM    6  C2  UNL     1     -33.222   9.229  -0.507  1.00 20.00     0.016 C 
HETATM    7  C3  UNL     1     -31.061   8.809   0.680  1.00 20.00     0.016 C 
HETATM    8  C4  UNL     1     -32.565  10.652   1.455  1.00 20.00     0.016 C 
ENDBRANCH   4   5
ENDBRANCH   2   4
TORSDOF 2
ENDMDL
MODEL 4
REMARK VINA RESULT:      -3.7      2.702      4.754
REMARK  2 active torsions:
REMARK  status: ('A' for Active; 'I' for Inactive)
REMARK    1  A    between atoms: C5_5  and  C6_6 
REMARK    2  A    between atoms: C5_5  and  N7_7 
ROOT
HETATM    1  C1  UNL     1     -32.925   7.528   3.909  1.00 20.00     0.157 C 
HETATM    2  N7  UNL     1     -32.387   7.814   2.906  1.00 20.00    -0.275 NA
HETATM    3  S8  UNL     1     -33.627   7.130   5.282  1.00 20.00    -0.055 SA
ENDROOT
BRANCH   2   4
HETATM    4  C5  UNL     1     -33.278   8.289   1.844  1.00 20.00     0.158 C 
BRANCH   4   5
HETATM    5  C6  UNL     1     -32.534   9.228   0.871  1.00 20.00    -0.033 C 
HETATM    6  C2  UNL     1     -31.068   8.788   0.706  1.00 20.00     0.016 C 
HETATM    7  C3  UNL     1     -32.559  10.652   1.453  1.00 20.00     0.016 C 
HETATM    8  C4  UNL     1     -33.221   9.242  -0.505  1.00 20.00     0.016 C 
ENDBRANCH   4   5
ENDBRANCH   2   4
TORSDOF 2
ENDMDL
MODEL 5
REMARK VINA RESULT:      -3.7      2.723      4.743
REMARK  2 active torsions:
REMARK  status: ('A' for Active; 'I' for Inactive)
REMARK    1  A    between atoms: C5_5  and  C6_6 
REMARK    2  A    between atoms: C5_5  and  N7_7 
ROOT
HETATM    1  C1  UNL     1     -32.887   7.559   3.930  1.00 20.00     0.157 C 
HETATM    2  N7  UNL     1     -32.322   7.891   2.956  1.00 20.00    -0.275 NA
HETATM    3  S8  UNL     1     -33.625   7.105   5.266  1.00 20.00    -0.055 SA
ENDROOT
BRANCH   2   4
HETATM    4  C5  UNL     1     -33.191   8.232   1.827  1.00 20.00     0.158 C 
BRANCH   4   5
HETATM    5  C6  UNL     1     -32.500   9.231   0.875  1.00 20.00    -0.033 C 
HETATM    6  C2  UNL     1     -32.557  10.658   1.450  1.00 20.00     0.016 C 
HETATM    7  C3  UNL     1     -33.241   9.213  -0.474  1.00 20.00     0.016 C 
HETATM    8  C4  UNL     1     -31.033   8.833   0.640  1.00 20.00     0.016 C 
ENDBRANCH   4   5
ENDBRANCH   2   4
TORSDOF 2
ENDMDL
MODEL 6
REMARK VINA RESULT:      -3.2      2.400      4.447
REMARK  2 active torsions:
REMARK  status: ('A' for Active; 'I' for Inactive)
REMARK    1  A    between atoms: C5_5  and  C6_6 
REMARK    2  A    between atoms: C5_5  and  N7_7 
ROOT
HETATM    1  C1  UNL     1     -33.727   6.159   3.440  1.00 20.00     0.157 C 
HETATM    2  N7  UNL     1     -32.888   6.653   2.784  1.00 20.00    -0.275 NA
HETATM    3  S8  UNL     1     -34.844   5.467   4.339  1.00 20.00    -0.055 SA
ENDROOT
BRANCH   2   4
HETATM    4  C5  UNL     1     -33.335   7.781   1.961  1.00 20.00     0.158 C 
BRANCH   4   5
HETATM    5  C6  UNL     1     -32.206   8.817   1.778  1.00 20.00    -0.033 C 
HETATM    6  C2  UNL     1     -31.336   8.464   0.560  1.00 20.00     0.016 C 
HETATM    7  C3  UNL     1     -31.322   8.802   3.038  1.00 20.00     0.016 C 
HETATM    8  C4  UNL     1     -32.789  10.230   1.599  1.00 20.00     0.016 C 
ENDBRANCH   4   5
ENDBRANCH   2   4
TORSDOF 2
ENDMDL
MODEL 7
REMARK VINA RESULT:      -3.1      9.596     10.648
REMARK  2 active torsions:
REMARK  status: ('A' for Active; 'I' for Inactive)
REMARK    1  A    between atoms: C5_5  and  C6_6 
REMARK    2  A    between atoms: C5_5  and  N7_7 
ROOT
HETATM    1  C1  UNL     1     -43.188   3.898  -2.260  1.00 20.00     0.157 C 
HETATM    2  N7  UNL     1     -43.112   4.398  -1.201  1.00 20.00    -0.275 NA
HETATM    3  S8  UNL     1     -43.287   3.191  -3.683  1.00 20.00    -0.055 SA
ENDROOT
BRANCH   2   4
HETATM    4  C5  UNL     1     -43.229   5.859  -1.201  1.00 20.00     0.158 C 
BRANCH   4   5
HETATM    5  C6  UNL     1     -42.130   6.505  -0.331  1.00 20.00    -0.033 C 
HETATM    6  C2  UNL     1     -40.821   5.700  -0.422  1.00 20.00     0.016 C 
HETATM    7  C3  UNL     1     -42.606   6.509   1.132  1.00 20.00     0.016 C 
HETATM    8  C4  UNL     1     -41.870   7.956  -0.771  1.00 20.00     0.016 C 
ENDBRANCH   4   5
ENDBRANCH   2   4
TORSDOF 2
ENDMDL
MODEL 8
REMARK VINA RESULT:      -3.0     11.470     12.270
REMARK  2 active torsions:
REMARK  status: ('A' for Active; 'I' for Inactive)
REMARK    1  A    between atoms: C5_5  and  C6_6 
REMARK    2  A    between atoms: C5_5  and  N7_7 
ROOT
HETATM    1  C1  UNL     1     -35.488  13.615  -6.382  1.00 20.00     0.157 C 
HETATM    2  N7  UNL     1     -35.173  13.562  -5.253  1.00 20.00    -0.275 NA
HETATM    3  S8  UNL     1     -35.909  13.656  -7.918  1.00 20.00    -0.055 SA
ENDROOT
BRANCH   2   4
HETATM    4  C5  UNL     1     -35.230  14.841  -4.538  1.00 20.00     0.158 C 
BRANCH   4   5
HETATM    5  C6  UNL     1     -33.816  15.413  -4.309  1.00 20.00    -0.033 C 
HETATM    6  C2  UNL     1     -32.787  14.278  -4.161  1.00 20.00     0.016 C 
HETATM    7  C3  UNL     1     -33.828  16.239  -3.010  1.00 20.00     0.016 C 
HETATM    8  C4  UNL     1     -33.403  16.329  -5.474  1.00 20.00     0.016 C 
ENDBRANCH   4   5
ENDBRANCH   2   4
TORSDOF 2
ENDMDL
MODEL 9
REMARK VINA RESULT:      -3.0     11.698     12.285
REMARK  2 active torsions:
REMARK  status: ('A' for Active; 'I' for Inactive)
REMARK    1  A    between atoms: C5_5  and  C6_6 
REMARK    2  A    between atoms: C5_5  and  N7_7 
ROOT
HETATM    1  C1  UNL     1     -35.747  14.947  -4.461  1.00 20.00     0.157 C 
HETATM    2  N7  UNL     1     -35.629  15.968  -3.893  1.00 20.00    -0.275 NA
HETATM    3  S8  UNL     1     -35.934  13.572  -5.242  1.00 20.00    -0.055 SA
ENDROOT
BRANCH   2   4
HETATM    4  C5  UNL     1     -34.415  16.083  -3.081  1.00 20.00     0.158 C 
BRANCH   4   5
HETATM    5  C6  UNL     1     -34.469  17.332  -2.176  1.00 20.00    -0.033 C 
HETATM    6  C2  UNL     1     -33.070  17.667  -1.627  1.00 20.00     0.016 C 
HETATM    7  C3  UNL     1     -35.406  17.037  -0.991  1.00 20.00     0.016 C 
HETATM    8  C4  UNL     1     -35.017  18.543  -2.950  1.00 20.00     0.016 C 
ENDBRANCH   4   5
ENDBRANCH   2   4
TORSDOF 2
ENDMDL
