MODEL 1
REMARK VINA RESULT:      -5.3      0.000      0.000
REMARK  4 active torsions:
REMARK  status: ('A' for Active; 'I' for Inactive)
REMARK    1  A    between atoms: C1_1  and  C4_4 
REMARK    2  A    between atoms: C2_2  and  C6_6 
REMARK    3  A    between atoms: C6_6  and  C7_7 
REMARK    4  A    between atoms: C7_7  and  O8_8 
ROOT
HETATM    1  C1  UNL     1     -33.234   7.392   3.354  1.00 20.00    -0.072 C 
HETATM    2  C2  UNL     1     -32.603   7.944   2.494  1.00 20.00    -0.099 C 
ENDROOT
BRANCH   2   3
HETATM    3  C6  UNL     1     -31.831   8.619   1.440  1.00 20.00     0.120 C 
BRANCH   3   4
HETATM    4  C7  UNL     1     -32.615   9.770   0.825  1.00 20.00     0.176 C 
BRANCH   4   5
HETATM    5  O8  UNL     1     -33.146   9.367  -0.432  1.00 20.00    -0.400 OA
HETATM    6  H18 UNL     1     -33.242  10.173  -0.965  1.00 20.00     0.209 HD
ENDBRANCH   4   5
ENDBRANCH   3   4
ENDBRANCH   2   3
BRANCH   1   7
HETATM    7  C4  UNL     1     -33.987   6.739   4.375  1.00 20.00    -0.018 C 
HETATM    8  C3  UNL     1     -34.840   5.760   4.038  1.00 20.00     0.028 C 
HETATM    9  C5  UNL     1     -33.802   7.169   5.801  1.00 20.00     0.057 C 
ENDBRANCH   1   7
TORSDOF 4
ENDMDL
MODEL 2
REMARK VINA RESULT:      -5.3      0.100      1.244
REMARK  4 active torsions:
REMARK  status: ('A' for Active; 'I' for Inactive)
REMARK    1  A    between atoms: C1_1  and  C4_4 
REMARK    2  A    between atoms: C2_2  and  C6_6 
REMARK    3  A    between atoms: C6_6  and  C7_7 
REMARK    4  A    between atoms: C7_7  and  O8_8 
ROOT
HETATM    1  C1  UNL     1     -33.224   7.390   3.448  1.00 20.00    -0.072 C 
HETATM    2  C2  UNL     1     -32.599   7.917   2.568  1.00 20.00    -0.099 C 
ENDROOT
BRANCH   2   3
HETATM    3  C6  UNL     1     -31.833   8.560   1.489  1.00 20.00     0.120 C 
BRANCH   3   4
HETATM    4  C7  UNL     1     -32.617   9.699   0.853  1.00 20.00     0.176 C 
BRANCH   4   5
HETATM    5  O8  UNL     1     -33.126   9.282  -0.408  1.00 20.00    -0.400 OA
HETATM    6  H18 UNL     1     -32.403   8.818  -0.861  1.00 20.00     0.209 HD
ENDBRANCH   4   5
ENDBRANCH   3   4
ENDBRANCH   2   3
BRANCH   1   7
HETATM    7  C4  UNL     1     -33.971   6.767   4.493  1.00 20.00    -0.018 C 
HETATM    8  C3  UNL     1     -33.805   7.186   5.756  1.00 20.00     0.028 C 
HETATM    9  C5  UNL     1     -34.921   5.659   4.145  1.00 20.00     0.057 C 
ENDBRANCH   1   7
TORSDOF 4
ENDMDL
MODEL 3
REMARK VINA RESULT:      -4.8      2.650      4.783
REMARK  4 active torsions:
REMARK  status: ('A' for Active; 'I' for Inactive)
REMARK    1  A    between atoms: C1_1  and  C4_4 
REMARK    2  A    between atoms: C2_2  and  C6_6 
REMARK    3  A    between atoms: C6_6  and  C7_7 
REMARK    4  A    between atoms: C7_7  and  O8_8 
ROOT
HETATM    1  C1  UNL     1     -32.844   8.135   2.491  1.00 20.00    -0.072 C 
HETATM    2  C2  UNL     1     -33.289   7.425   3.352  1.00 20.00    -0.099 C 
ENDROOT
BRANCH   2   3
HETATM    3  C6  UNL     1     -33.834   6.558   4.408  1.00 20.00     0.120 C 
BRANCH   3   4
HETATM    4  C7  UNL     1     -35.012   5.738   3.900  1.00 20.00     0.176 C 
BRANCH   4   5
HETATM    5  O8  UNL     1     -35.067   4.500   4.598  1.00 20.00    -0.400 OA
HETATM    6  H18 UNL     1     -34.324   4.498   5.223  1.00 20.00     0.209 HD
ENDBRANCH   4   5
ENDBRANCH   3   4
ENDBRANCH   2   3
BRANCH   1   7
HETATM    7  C4  UNL     1     -32.317   8.974   1.464  1.00 20.00    -0.018 C 
HETATM    8  C3  UNL     1     -31.310   8.523   0.701  1.00 20.00     0.028 C 
HETATM    9  C5  UNL     1     -32.907  10.340   1.268  1.00 20.00     0.057 C 
ENDBRANCH   1   7
TORSDOF 4
ENDMDL
MODEL 4
REMARK VINA RESULT:      -4.7      2.354      4.652
REMARK  4 active torsions:
REMARK  status: ('A' for Active; 'I' for Inactive)
REMARK    1  A    between atoms: C1_1  and  C4_4 
REMARK    2  A    between atoms: C2_2  and  C6_6 
REMARK    3  A    between atoms: C6_6  and  C7_7 
REMARK    4  A    between atoms: C7_7  and  O8_8 
ROOT
HETATM    1  C1  UNL     1     -32.829   8.100   2.320  1.00 20.00    -0.072 C 
HETATM    2  C2  UNL     1     -33.296   7.313   3.098  1.00 20.00    -0.099 C 
ENDROOT
BRANCH   2   3
HETATM    3  C6  UNL     1     -33.867   6.348   4.051  1.00 20.00     0.120 C 
BRANCH   3   4
HETATM    4  C7  UNL     1     -34.014   6.957   5.438  1.00 20.00     0.176 C 
BRANCH   4   5
HETATM    5  O8  UNL     1     -32.842   7.694   5.762  1.00 20.00    -0.400 OA
HETATM    6  H18 UNL     1     -32.162   7.045   6.005  1.00 20.00     0.209 HD
ENDBRANCH   4   5
ENDBRANCH   3   4
ENDBRANCH   2   3
BRANCH   1   7
HETATM    7  C4  UNL     1     -32.272   9.037   1.399  1.00 20.00    -0.018 C 
HETATM    8  C3  UNL     1     -31.241   8.663   0.626  1.00 20.00     0.028 C 
HETATM    9  C5  UNL     1     -32.858  10.417   1.322  1.00 20.00     0.057 C 
ENDBRANCH   1   7
TORSDOF 4
ENDMDL
MODEL 5
REMARK VINA RESULT:      -4.2      1.957      2.438
REMARK  4 active torsions:
REMARK  status: ('A' for Active; 'I' for Inactive)
REMARK    1  A    between atoms: C1_1  and  C4_4 
REMARK    2  A    between atoms: C2_2  and  C6_6 
REMARK    3  A    between atoms: C6_6  and  C7_7 
REMARK    4  A    between atoms: C7_7  and  O8_8 
ROOT
HETATM    1  C1  UNL     1     -33.761   6.426   3.746  1.00 20.00    -0.072 C 
HETATM    2  C2  UNL     1     -33.336   7.185   2.918  1.00 20.00    -0.099 C 
ENDROOT
BRANCH   2   3
HETATM    3  C6  UNL     1     -32.814   8.113   1.902  1.00 20.00     0.120 C 
BRANCH   3   4
HETATM    4  C7  UNL     1     -31.498   8.738   2.344  1.00 20.00     0.176 C 
BRANCH   4   5
HETATM    5  O8  UNL     1     -31.263   8.438   3.714  1.00 20.00    -0.400 OA
HETATM    6  H18 UNL     1     -30.610   7.720   3.734  1.00 20.00     0.209 HD
ENDBRANCH   4   5
ENDBRANCH   3   4
ENDBRANCH   2   3
BRANCH   1   7
HETATM    7  C4  UNL     1     -34.271   5.526   4.729  1.00 20.00    -0.018 C 
HETATM    8  C3  UNL     1     -34.656   6.007   5.921  1.00 20.00     0.028 C 
HETATM    9  C5  UNL     1     -34.361   4.065   4.399  1.00 20.00     0.057 C 
ENDBRANCH   1   7
TORSDOF 4
ENDMDL
MODEL 6
REMARK VINA RESULT:      -4.2     10.127     10.385
REMARK  4 active torsions:
REMARK  status: ('A' for Active; 'I' for Inactive)
REMARK    1  A    between atoms: C1_1  and  C4_4 
REMARK    2  A    between atoms: C2_2  and  C6_6 
REMARK    3  A    between atoms: C6_6  and  C7_7 
REMARK    4  A    between atoms: C7_7  and  O8_8 
ROOT
HETATM    1  C1  UNL     1     -34.287  16.214  -2.698  1.00 20.00    -0.072 C 
HETATM    2  C2  UNL     1     -34.355  15.432  -3.608  1.00 20.00    -0.099 C 
ENDROOT
BRANCH   2   3
HETATM    3  C6  UNL     1     -34.438  14.477  -4.723  1.00 20.00     0.120 C 
BRANCH   3   4
HETATM    4  C7  UNL     1     -35.875  14.040  -4.975  1.00 20.00     0.176 C 
BRANCH   4   5
HETATM    5  O8  UNL     1     -35.933  12.621  -5.063  1.00 20.00    -0.400 OA
HETATM    6  H18 UNL     1     -36.873  12.379  -5.046  1.00 20.00     0.209 HD
ENDBRANCH   4   5
ENDBRANCH   3   4
ENDBRANCH   2   3
BRANCH   1   7
HETATM    7  C4  UNL     1     -34.202  17.141  -1.616  1.00 20.00    -0.018 C 
HETATM    8  C3  UNL     1     -35.240  17.264  -0.775  1.00 20.00     0.028 C 
HETATM    9  C5  UNL     1     -32.950  17.953  -1.452  1.00 20.00     0.057 C 
ENDBRANCH   1   7
TORSDOF 4
ENDMDL
MODEL 7
REMARK VINA RESULT:      -4.2     10.136     10.412
REMARK  4 active torsions:
REMARK  status: ('A' for Active; 'I' for Inactive)
REMARK    1  A    between atoms: C1_1  and  C4_4 
REMARK    2  A    between atoms: C2_2  and  C6_6 
REMARK    3  A    between atoms: C6_6  and  C7_7 
REMARK    4  A    between atoms: C7_7  and  O8_8 
ROOT
HETATM    1  C1  UNL     1     -34.280  16.238  -2.711  1.00 20.00    -0.072 C 
HETATM    2  C2  UNL     1     -34.365  15.468  -3.628  1.00 20.00    -0.099 C 
ENDROOT
BRANCH   2   3
HETATM    3  C6  UNL     1     -34.471  14.524  -4.752  1.00 20.00     0.120 C 
BRANCH   3   4
HETATM    4  C7  UNL     1     -35.905  14.050  -4.946  1.00 20.00     0.176 C 
BRANCH   4   5
HETATM    5  O8  UNL     1     -35.928  12.632  -5.050  1.00 20.00    -0.400 OA
HETATM    6  H18 UNL     1     -35.371  12.290  -4.331  1.00 20.00     0.209 HD
ENDBRANCH   4   5
ENDBRANCH   3   4
ENDBRANCH   2   3
BRANCH   1   7
HETATM    7  C4  UNL     1     -34.176  17.157  -1.623  1.00 20.00    -0.018 C 
HETATM    8  C3  UNL     1     -33.057  17.882  -1.482  1.00 20.00     0.028 C 
HETATM    9  C5  UNL     1     -35.327  17.283  -0.667  1.00 20.00     0.057 C 
ENDBRANCH   1   7
TORSDOF 4
ENDMDL
MODEL 8
REMARK VINA RESULT:      -3.6     10.063     11.008
REMARK  4 active torsions:
REMARK  status: ('A' for Active; 'I' for Inactive)
REMARK    1  A    between atoms: C1_1  and  C4_4 
REMARK    2  A    between atoms: C2_2  and  C6_6 
REMARK    3  A    between atoms: C6_6  and  C7_7 
REMARK    4  A    between atoms: C7_7  and  O8_8 
ROOT
HETATM    1  C1  UNL     1     -33.914  16.268  -2.928  1.00 20.00    -0.072 C 
HETATM    2  C2  UNL     1     -33.949  16.974  -1.957  1.00 20.00    -0.099 C 
ENDROOT
BRANCH   2   3
HETATM    3  C6  UNL     1     -33.992  17.840  -0.769  1.00 20.00     0.120 C 
BRANCH   3   4
HETATM    4  C7  UNL     1     -32.915  18.915  -0.825  1.00 20.00     0.176 C 
BRANCH   4   5
HETATM    5  O8  UNL     1     -31.630  18.306  -0.801  1.00 20.00    -0.400 OA
HETATM    6  H18 UNL     1     -31.005  18.958  -1.155  1.00 20.00     0.209 HD
ENDBRANCH   4   5
ENDBRANCH   3   4
ENDBRANCH   2   3
BRANCH   1   7
HETATM    7  C4  UNL     1     -33.876  15.430  -4.082  1.00 20.00    -0.018 C 
HETATM    8  C3  UNL     1     -34.581  14.289  -4.087  1.00 20.00     0.028 C 
HETATM    9  C5  UNL     1     -33.047  15.852  -5.260  1.00 20.00     0.057 C 
ENDBRANCH   1   7
TORSDOF 4
ENDMDL
MODEL 9
REMARK VINA RESULT:      -3.2      9.695     10.903
REMARK  4 active torsions:
REMARK  status: ('A' for Active; 'I' for Inactive)
REMARK    1  A    between atoms: C1_1  and  C4_4 
REMARK    2  A    between atoms: C2_2  and  C6_6 
REMARK    3  A    between atoms: C6_6  and  C7_7 
REMARK    4  A    between atoms: C7_7  and  O8_8 
ROOT
HETATM    1  C1  UNL     1     -42.523   5.273  -0.780  1.00 20.00    -0.072 C 
HETATM    2  C2  UNL     1     -42.829   4.463  -1.613  1.00 20.00    -0.099 C 
ENDROOT
BRANCH   2   3
HETATM    3  C6  UNL     1     -43.203   3.469  -2.630  1.00 20.00     0.120 C 
BRANCH   3   4
HETATM    4  C7  UNL     1     -41.978   2.921  -3.349  1.00 20.00     0.176 C 
BRANCH   4   5
HETATM    5  O8  UNL     1     -42.151   3.053  -4.755  1.00 20.00    -0.400 OA
HETATM    6  H18 UNL     1     -43.029   3.444  -4.893  1.00 20.00     0.209 HD
ENDBRANCH   4   5
ENDBRANCH   3   4
ENDBRANCH   2   3
BRANCH   1   7
HETATM    7  C4  UNL     1     -42.164   6.238   0.208  1.00 20.00    -0.018 C 
HETATM    8  C3  UNL     1     -41.102   7.030  -0.004  1.00 20.00     0.028 C 
HETATM    9  C5  UNL     1     -42.988   6.338   1.459  1.00 20.00     0.057 C 
ENDBRANCH   1   7
TORSDOF 4
ENDMDL
