MODEL 1
REMARK VINA RESULT:      -5.7      0.000      0.000
REMARK  2 active torsions:
REMARK  status: ('A' for Active; 'I' for Inactive)
REMARK    1  A    between atoms: C1_1  and  C3_3 
REMARK    2  A    between atoms: C2_2  and  C3_3 
ROOT
HETATM    1  C3  UNL     1     -34.498   5.523   4.007  1.00 20.00     0.358 C 
HETATM    2  F8  UNL     1     -35.735   5.982   3.690  1.00 20.00    -0.194 F 
HETATM    3  F9  UNL     1     -34.624   4.200   4.275  1.00 20.00    -0.194 F 
ENDROOT
BRANCH   1   4
HETATM    4  C1  UNL     1     -33.585   5.700   2.819  1.00 20.00     0.430 C 
HETATM    5  F4  UNL     1     -32.573   6.540   3.154  1.00 20.00    -0.208 F 
HETATM    6  F5  UNL     1     -33.017   4.516   2.487  1.00 20.00    -0.208 F 
ENDBRANCH   1   4
BRANCH   1   7
HETATM    7  C2  UNL     1     -34.011   6.235   5.246  1.00 20.00     0.430 C 
HETATM    8  F6  UNL     1     -34.285   7.560   5.136  1.00 20.00    -0.208 F 
HETATM    9  F7  UNL     1     -34.680   5.786   6.335  1.00 20.00    -0.208 F 
ENDBRANCH   1   7
TORSDOF 2
ENDMDL
MODEL 2
REMARK VINA RESULT:      -5.7      0.008      2.913
REMARK  2 active torsions:
REMARK  status: ('A' for Active; 'I' for Inactive)
REMARK    1  A    between atoms: C1_1  and  C3_3 
REMARK    2  A    between atoms: C2_2  and  C3_3 
ROOT
HETATM    1  C3  UNL     1     -34.500   5.519   4.006  1.00 20.00     0.358 C 
HETATM    2  F8  UNL     1     -34.626   4.194   4.268  1.00 20.00    -0.194 F 
HETATM    3  F9  UNL     1     -35.736   5.979   3.691  1.00 20.00    -0.194 F 
ENDROOT
BRANCH   1   4
HETATM    4  C1  UNL     1     -34.014   6.225   5.248  1.00 20.00     0.430 C 
HETATM    5  F4  UNL     1     -34.287   7.551   5.144  1.00 20.00    -0.208 F 
HETATM    6  F5  UNL     1     -34.682   5.771   6.336  1.00 20.00    -0.208 F 
ENDBRANCH   1   4
BRANCH   1   7
HETATM    7  C2  UNL     1     -33.586   5.701   2.819  1.00 20.00     0.430 C 
HETATM    8  F6  UNL     1     -32.574   6.540   3.158  1.00 20.00    -0.208 F 
HETATM    9  F7  UNL     1     -33.018   4.518   2.484  1.00 20.00    -0.208 F 
ENDBRANCH   1   7
TORSDOF 2
ENDMDL
MODEL 3
REMARK VINA RESULT:      -5.7      0.884      1.265
REMARK  2 active torsions:
REMARK  status: ('A' for Active; 'I' for Inactive)
REMARK    1  A    between atoms: C1_1  and  C3_3 
REMARK    2  A    between atoms: C2_2  and  C3_3 
ROOT
HETATM    1  C3  UNL     1     -34.501   6.259   4.011  1.00 20.00     0.358 C 
HETATM    2  F8  UNL     1     -34.321   7.597   3.869  1.00 20.00    -0.194 F 
HETATM    3  F9  UNL     1     -35.813   6.010   3.778  1.00 20.00    -0.194 F 
ENDROOT
BRANCH   1   4
HETATM    4  C1  UNL     1     -33.672   5.536   2.978  1.00 20.00     0.430 C 
HETATM    5  F4  UNL     1     -32.461   6.141   2.873  1.00 20.00    -0.208 F 
HETATM    6  F5  UNL     1     -33.440   4.261   3.375  1.00 20.00    -0.208 F 
ENDBRANCH   1   4
BRANCH   1   7
HETATM    7  C2  UNL     1     -34.165   5.865   5.428  1.00 20.00     0.430 C 
HETATM    8  F6  UNL     1     -34.336   6.936   6.244  1.00 20.00    -0.208 F 
HETATM    9  F7  UNL     1     -35.019   4.905   5.859  1.00 20.00    -0.208 F 
ENDBRANCH   1   7
TORSDOF 2
ENDMDL
MODEL 4
REMARK VINA RESULT:      -5.7      0.898      3.106
REMARK  2 active torsions:
REMARK  status: ('A' for Active; 'I' for Inactive)
REMARK    1  A    between atoms: C1_1  and  C3_3 
REMARK    2  A    between atoms: C2_2  and  C3_3 
ROOT
HETATM    1  C3  UNL     1     -34.738   5.415   4.143  1.00 20.00     0.358 C 
HETATM    2  F8  UNL     1     -34.820   4.065   4.253  1.00 20.00    -0.194 F 
HETATM    3  F9  UNL     1     -35.941   5.848   3.691  1.00 20.00    -0.194 F 
ENDROOT
BRANCH   1   4
HETATM    4  C1  UNL     1     -34.482   6.008   5.506  1.00 20.00     0.430 C 
HETATM    5  F4  UNL     1     -34.037   5.035   6.342  1.00 20.00    -0.208 F 
HETATM    6  F5  UNL     1     -33.501   6.940   5.433  1.00 20.00    -0.208 F 
ENDBRANCH   1   4
BRANCH   1   7
HETATM    7  C2  UNL     1     -33.674   5.763   3.131  1.00 20.00     0.430 C 
HETATM    8  F6  UNL     1     -32.937   4.657   2.857  1.00 20.00    -0.208 F 
HETATM    9  F7  UNL     1     -34.247   6.149   1.966  1.00 20.00    -0.208 F 
ENDBRANCH   1   7
TORSDOF 2
ENDMDL
MODEL 5
REMARK VINA RESULT:      -5.7      0.976      2.910
REMARK  2 active torsions:
REMARK  status: ('A' for Active; 'I' for Inactive)
REMARK    1  A    between atoms: C1_1  and  C3_3 
REMARK    2  A    between atoms: C2_2  and  C3_3 
ROOT
HETATM    1  C3  UNL     1     -34.635   5.834   4.135  1.00 20.00     0.358 C 
HETATM    2  F8  UNL     1     -35.855   6.071   3.589  1.00 20.00    -0.194 F 
HETATM    3  F9  UNL     1     -34.332   6.908   4.905  1.00 20.00    -0.194 F 
ENDROOT
BRANCH   1   4
HETATM    4  C1  UNL     1     -34.714   4.607   5.010  1.00 20.00     0.430 C 
HETATM    5  F4  UNL     1     -34.037   3.591   4.418  1.00 20.00    -0.208 F 
HETATM    6  F5  UNL     1     -34.108   4.842   6.199  1.00 20.00    -0.208 F 
ENDBRANCH   1   4
BRANCH   1   7
HETATM    7  C2  UNL     1     -33.616   5.713   3.029  1.00 20.00     0.430 C 
HETATM    8  F6  UNL     1     -34.210   5.989   1.840  1.00 20.00    -0.208 F 
HETATM    9  F7  UNL     1     -32.634   6.631   3.198  1.00 20.00    -0.208 F 
ENDBRANCH   1   7
TORSDOF 2
ENDMDL
MODEL 6
REMARK VINA RESULT:      -5.7      0.980      2.126
REMARK  2 active torsions:
REMARK  status: ('A' for Active; 'I' for Inactive)
REMARK    1  A    between atoms: C1_1  and  C3_3 
REMARK    2  A    between atoms: C2_2  and  C3_3 
ROOT
HETATM    1  C3  UNL     1     -34.637   5.831   4.135  1.00 20.00     0.358 C 
HETATM    2  F8  UNL     1     -34.335   6.901   4.911  1.00 20.00    -0.194 F 
HETATM    3  F9  UNL     1     -35.855   6.069   3.589  1.00 20.00    -0.194 F 
ENDROOT
BRANCH   1   4
HETATM    4  C1  UNL     1     -33.616   5.717   3.029  1.00 20.00     0.430 C 
HETATM    5  F4  UNL     1     -34.211   5.995   1.841  1.00 20.00    -0.208 F 
HETATM    6  F5  UNL     1     -32.637   6.636   3.202  1.00 20.00    -0.208 F 
ENDBRANCH   1   4
BRANCH   1   7
HETATM    7  C2  UNL     1     -34.715   4.599   5.004  1.00 20.00     0.430 C 
HETATM    8  F6  UNL     1     -34.037   3.586   4.407  1.00 20.00    -0.208 F 
HETATM    9  F7  UNL     1     -34.109   4.829   6.193  1.00 20.00    -0.208 F 
ENDBRANCH   1   7
TORSDOF 2
ENDMDL
MODEL 7
REMARK VINA RESULT:      -5.6      1.026      2.319
REMARK  2 active torsions:
REMARK  status: ('A' for Active; 'I' for Inactive)
REMARK    1  A    between atoms: C1_1  and  C3_3 
REMARK    2  A    between atoms: C2_2  and  C3_3 
ROOT
HETATM    1  C3  UNL     1     -34.440   5.852   3.821  1.00 20.00     0.358 C 
HETATM    2  F8  UNL     1     -35.779   6.021   3.677  1.00 20.00    -0.194 F 
HETATM    3  F9  UNL     1     -33.950   5.522   2.600  1.00 20.00    -0.194 F 
ENDROOT
BRANCH   1   4
HETATM    4  C1  UNL     1     -33.821   7.155   4.264  1.00 20.00     0.430 C 
HETATM    5  F4  UNL     1     -33.738   7.173   5.618  1.00 20.00    -0.208 F 
HETATM    6  F5  UNL     1     -32.555   7.255   3.792  1.00 20.00    -0.208 F 
ENDBRANCH   1   4
BRANCH   1   7
HETATM    7  C2  UNL     1     -34.188   4.715   4.781  1.00 20.00     0.430 C 
HETATM    8  F6  UNL     1     -35.134   4.732   5.754  1.00 20.00    -0.208 F 
HETATM    9  F7  UNL     1     -34.308   3.528   4.139  1.00 20.00    -0.208 F 
ENDBRANCH   1   7
TORSDOF 2
ENDMDL
MODEL 8
REMARK VINA RESULT:      -5.6      1.013      2.428
REMARK  2 active torsions:
REMARK  status: ('A' for Active; 'I' for Inactive)
REMARK    1  A    between atoms: C1_1  and  C3_3 
REMARK    2  A    between atoms: C2_2  and  C3_3 
ROOT
HETATM    1  C3  UNL     1     -34.395   5.849   3.805  1.00 20.00     0.358 C 
HETATM    2  F8  UNL     1     -33.876   5.508   2.599  1.00 20.00    -0.194 F 
HETATM    3  F9  UNL     1     -35.728   6.027   3.626  1.00 20.00    -0.194 F 
ENDROOT
BRANCH   1   4
HETATM    4  C1  UNL     1     -34.177   4.715   4.776  1.00 20.00     0.430 C 
HETATM    5  F4  UNL     1     -35.127   4.766   5.745  1.00 20.00    -0.208 F 
HETATM    6  F5  UNL     1     -34.324   3.525   4.145  1.00 20.00    -0.208 F 
ENDBRANCH   1   4
BRANCH   1   7
HETATM    7  C2  UNL     1     -33.777   7.149   4.258  1.00 20.00     0.430 C 
HETATM    8  F6  UNL     1     -33.670   7.147   5.611  1.00 20.00    -0.208 F 
HETATM    9  F7  UNL     1     -32.520   7.262   3.767  1.00 20.00    -0.208 F 
ENDBRANCH   1   7
TORSDOF 2
ENDMDL
MODEL 9
REMARK VINA RESULT:      -5.6      0.977      2.451
REMARK  2 active torsions:
REMARK  status: ('A' for Active; 'I' for Inactive)
REMARK    1  A    between atoms: C1_1  and  C3_3 
REMARK    2  A    between atoms: C2_2  and  C3_3 
ROOT
HETATM    1  C3  UNL     1     -34.424   5.699   3.888  1.00 20.00     0.358 C 
HETATM    2  F8  UNL     1     -33.792   5.185   2.803  1.00 20.00    -0.194 F 
HETATM    3  F9  UNL     1     -35.632   6.148   3.466  1.00 20.00    -0.194 F 
ENDROOT
BRANCH   1   4
HETATM    4  C1  UNL     1     -34.633   4.604   4.905  1.00 20.00     0.430 C 
HETATM    5  F4  UNL     1     -33.948   3.498   4.519  1.00 20.00    -0.208 F 
HETATM    6  F5  UNL     1     -34.129   4.979   6.105  1.00 20.00    -0.208 F 
ENDBRANCH   1   4
BRANCH   1   7
HETATM    7  C2  UNL     1     -33.621   6.861   4.419  1.00 20.00     0.430 C 
HETATM    8  F6  UNL     1     -33.382   7.738   3.412  1.00 20.00    -0.208 F 
HETATM    9  F7  UNL     1     -34.334   7.529   5.358  1.00 20.00    -0.208 F 
ENDBRANCH   1   7
TORSDOF 2
ENDMDL
