MODEL 1
REMARK VINA RESULT:      -5.9      0.000      0.000
REMARK  2 active torsions:
REMARK  status: ('A' for Active; 'I' for Inactive)
REMARK    1  A    between atoms: C2_2  and  C3_3 
REMARK    2  A    between atoms: C3_3  and  O9_9 
ROOT
HETATM    1  C1  UNL     1     -34.043   6.020   3.363  1.00 20.00    -0.013 C 
HETATM    2  C2  UNL     1     -33.331   7.021   3.893  1.00 20.00     0.013 C 
HETATM    3  C4  UNL     1     -34.958   5.403   4.368  1.00 20.00     0.028 C 
HETATM    4  C5  UNL     1     -33.657   7.231   5.338  1.00 20.00     0.045 C 
HETATM    5  C6  UNL     1     -34.439   5.965   5.691  1.00 20.00     0.009 C 
ENDROOT
BRANCH   2   6
HETATM    6  C3  UNL     1     -32.377   7.835   3.208  1.00 20.00     0.288 C 
HETATM    7  O8  UNL     1     -31.360   8.289   3.726  1.00 20.00    -0.260 OA
BRANCH   6   8
HETATM    8  O9  UNL     1     -32.781   8.012   1.920  1.00 20.00    -0.323 OA
HETATM    9  C7  UNL     1     -32.205   9.126   1.231  1.00 20.00     0.213 C 
ENDBRANCH   6   8
ENDBRANCH   2   6
TORSDOF 2
ENDMDL
MODEL 2
REMARK VINA RESULT:      -4.7      1.003      1.488
REMARK  2 active torsions:
REMARK  status: ('A' for Active; 'I' for Inactive)
REMARK    1  A    between atoms: C2_2  and  C3_3 
REMARK    2  A    between atoms: C3_3  and  O9_9 
ROOT
HETATM    1  C1  UNL     1     -34.128   5.176   3.628  1.00 20.00    -0.013 C 
HETATM    2  C2  UNL     1     -33.728   6.415   3.933  1.00 20.00     0.013 C 
HETATM    3  C4  UNL     1     -34.841   4.531   4.771  1.00 20.00     0.028 C 
HETATM    4  C5  UNL     1     -34.109   6.795   5.329  1.00 20.00     0.045 C 
HETATM    5  C6  UNL     1     -34.508   5.452   5.943  1.00 20.00     0.009 C 
ENDROOT
BRANCH   2   6
HETATM    6  C3  UNL     1     -33.036   7.317   3.067  1.00 20.00     0.288 C 
HETATM    7  O8  UNL     1     -33.319   7.490   1.884  1.00 20.00    -0.260 OA
BRANCH   6   8
HETATM    8  O9  UNL     1     -32.040   7.932   3.762  1.00 20.00    -0.323 OA
HETATM    9  C7  UNL     1     -31.128   8.716   2.987  1.00 20.00     0.213 C 
ENDBRANCH   6   8
ENDBRANCH   2   6
TORSDOF 2
ENDMDL
MODEL 3
REMARK VINA RESULT:      -4.6      2.049      3.739
REMARK  2 active torsions:
REMARK  status: ('A' for Active; 'I' for Inactive)
REMARK    1  A    between atoms: C2_2  and  C3_3 
REMARK    2  A    between atoms: C3_3  and  O9_9 
ROOT
HETATM    1  C1  UNL     1     -33.387   7.101   2.578  1.00 20.00    -0.013 C 
HETATM    2  C2  UNL     1     -33.200   7.293   3.889  1.00 20.00     0.013 C 
HETATM    3  C4  UNL     1     -32.329   7.771   1.767  1.00 20.00     0.028 C 
HETATM    4  C5  UNL     1     -31.987   8.123   4.162  1.00 20.00     0.045 C 
HETATM    5  C6  UNL     1     -31.658   8.695   2.782  1.00 20.00     0.009 C 
ENDROOT
BRANCH   2   6
HETATM    6  C3  UNL     1     -34.015   6.776   4.944  1.00 20.00     0.288 C 
HETATM    7  O8  UNL     1     -33.945   7.146   6.113  1.00 20.00    -0.260 OA
BRANCH   6   8
HETATM    8  O9  UNL     1     -34.857   5.832   4.440  1.00 20.00    -0.323 OA
HETATM    9  C7  UNL     1     -34.550   4.476   4.778  1.00 20.00     0.213 C 
ENDBRANCH   6   8
ENDBRANCH   2   6
TORSDOF 2
ENDMDL
MODEL 4
REMARK VINA RESULT:      -4.4      1.038      1.664
REMARK  2 active torsions:
REMARK  status: ('A' for Active; 'I' for Inactive)
REMARK    1  A    between atoms: C2_2  and  C3_3 
REMARK    2  A    between atoms: C3_3  and  O9_9 
ROOT
HETATM    1  C1  UNL     1     -33.528   7.763   4.560  1.00 20.00    -0.013 C 
HETATM    2  C2  UNL     1     -33.070   7.538   3.323  1.00 20.00     0.013 C 
HETATM    3  C4  UNL     1     -34.271   6.584   5.094  1.00 20.00     0.028 C 
HETATM    4  C5  UNL     1     -33.435   6.173   2.834  1.00 20.00     0.045 C 
HETATM    5  C6  UNL     1     -34.490   5.727   3.848  1.00 20.00     0.009 C 
ENDROOT
BRANCH   2   6
HETATM    6  C3  UNL     1     -32.303   8.445   2.527  1.00 20.00     0.288 C 
HETATM    7  O8  UNL     1     -31.078   8.424   2.446  1.00 20.00    -0.260 OA
BRANCH   6   8
HETATM    8  O9  UNL     1     -33.145   9.308   1.894  1.00 20.00    -0.323 OA
HETATM    9  C7  UNL     1     -32.530  10.447   1.285  1.00 20.00     0.213 C 
ENDBRANCH   6   8
ENDBRANCH   2   6
TORSDOF 2
ENDMDL
MODEL 5
REMARK VINA RESULT:      -4.2      2.389      4.055
REMARK  2 active torsions:
REMARK  status: ('A' for Active; 'I' for Inactive)
REMARK    1  A    between atoms: C2_2  and  C3_3 
REMARK    2  A    between atoms: C3_3  and  O9_9 
ROOT
HETATM    1  C1  UNL     1     -33.282   7.461   5.096  1.00 20.00    -0.013 C 
HETATM    2  C2  UNL     1     -33.832   6.791   4.077  1.00 20.00     0.013 C 
HETATM    3  C4  UNL     1     -32.169   8.344   4.639  1.00 20.00     0.028 C 
HETATM    4  C5  UNL     1     -33.173   7.121   2.776  1.00 20.00     0.045 C 
HETATM    5  C6  UNL     1     -31.901   7.845   3.220  1.00 20.00     0.009 C 
ENDROOT
BRANCH   2   6
HETATM    6  C3  UNL     1     -34.928   5.877   4.159  1.00 20.00     0.288 C 
HETATM    7  O8  UNL     1     -35.990   6.020   3.560  1.00 20.00    -0.260 OA
BRANCH   6   8
HETATM    8  O9  UNL     1     -34.595   4.851   4.991  1.00 20.00    -0.323 OA
HETATM    9  C7  UNL     1     -33.946   3.734   4.377  1.00 20.00     0.213 C 
ENDBRANCH   6   8
ENDBRANCH   2   6
TORSDOF 2
ENDMDL
MODEL 6
REMARK VINA RESULT:      -4.2     11.221     11.624
REMARK  2 active torsions:
REMARK  status: ('A' for Active; 'I' for Inactive)
REMARK    1  A    between atoms: C2_2  and  C3_3 
REMARK    2  A    between atoms: C3_3  and  O9_9 
ROOT
HETATM    1  C1  UNL     1     -36.260  15.399  -3.785  1.00 20.00    -0.013 C 
HETATM    2  C2  UNL     1     -35.181  14.799  -4.299  1.00 20.00     0.013 C 
HETATM    3  C4  UNL     1     -35.885  16.556  -2.919  1.00 20.00     0.028 C 
HETATM    4  C5  UNL     1     -33.913  15.459  -3.858  1.00 20.00     0.045 C 
HETATM    5  C6  UNL     1     -34.385  16.353  -2.711  1.00 20.00     0.009 C 
ENDROOT
BRANCH   2   6
HETATM    6  C3  UNL     1     -35.180  13.674  -5.182  1.00 20.00     0.288 C 
HETATM    7  O8  UNL     1     -36.026  12.784  -5.165  1.00 20.00    -0.260 OA
BRANCH   6   8
HETATM    8  O9  UNL     1     -34.110  13.762  -6.020  1.00 20.00    -0.323 OA
HETATM    9  C7  UNL     1     -34.404  13.707  -7.419  1.00 20.00     0.213 C 
ENDBRANCH   6   8
ENDBRANCH   2   6
TORSDOF 2
ENDMDL
MODEL 7
REMARK VINA RESULT:      -4.1      2.021      4.080
REMARK  2 active torsions:
REMARK  status: ('A' for Active; 'I' for Inactive)
REMARK    1  A    between atoms: C2_2  and  C3_3 
REMARK    2  A    between atoms: C3_3  and  O9_9 
ROOT
HETATM    1  C1  UNL     1     -32.163   7.653   3.736  1.00 20.00    -0.013 C 
HETATM    2  C2  UNL     1     -32.914   6.956   2.876  1.00 20.00     0.013 C 
HETATM    3  C4  UNL     1     -31.630   8.901   3.115  1.00 20.00     0.028 C 
HETATM    4  C5  UNL     1     -33.002   7.628   1.543  1.00 20.00     0.045 C 
HETATM    5  C6  UNL     1     -31.896   8.680   1.627  1.00 20.00     0.009 C 
ENDROOT
BRANCH   2   6
HETATM    6  C3  UNL     1     -33.589   5.725   3.148  1.00 20.00     0.288 C 
HETATM    7  O8  UNL     1     -33.225   4.631   2.724  1.00 20.00    -0.260 OA
BRANCH   6   8
HETATM    8  O9  UNL     1     -34.671   5.972   3.936  1.00 20.00    -0.323 OA
HETATM    9  C7  UNL     1     -34.679   5.319   5.209  1.00 20.00     0.213 C 
ENDBRANCH   6   8
ENDBRANCH   2   6
TORSDOF 2
ENDMDL
MODEL 8
REMARK VINA RESULT:      -4.0     11.074     11.566
REMARK  2 active torsions:
REMARK  status: ('A' for Active; 'I' for Inactive)
REMARK    1  A    between atoms: C2_2  and  C3_3 
REMARK    2  A    between atoms: C3_3  and  O9_9 
ROOT
HETATM    1  C1  UNL     1     -35.557  16.060  -2.773  1.00 20.00    -0.013 C 
HETATM    2  C2  UNL     1     -34.281  15.949  -3.162  1.00 20.00     0.013 C 
HETATM    3  C4  UNL     1     -35.727  17.121  -1.737  1.00 20.00     0.028 C 
HETATM    4  C5  UNL     1     -33.396  16.919  -2.445  1.00 20.00     0.045 C 
HETATM    5  C6  UNL     1     -34.290  17.406  -1.304  1.00 20.00     0.009 C 
ENDROOT
BRANCH   2   6
HETATM    6  C3  UNL     1     -33.773  15.049  -4.149  1.00 20.00     0.288 C 
HETATM    7  O8  UNL     1     -34.068  13.858  -4.212  1.00 20.00    -0.260 OA
BRANCH   6   8
HETATM    8  O9  UNL     1     -32.932  15.723  -4.980  1.00 20.00    -0.323 OA
HETATM    9  C7  UNL     1     -33.499  16.166  -6.217  1.00 20.00     0.213 C 
ENDBRANCH   6   8
ENDBRANCH   2   6
TORSDOF 2
ENDMDL
MODEL 9
REMARK VINA RESULT:      -4.0     11.095     12.111
REMARK  2 active torsions:
REMARK  status: ('A' for Active; 'I' for Inactive)
REMARK    1  A    between atoms: C2_2  and  C3_3 
REMARK    2  A    between atoms: C3_3  and  O9_9 
ROOT
HETATM    1  C1  UNL     1     -34.569  14.781  -3.824  1.00 20.00    -0.013 C 
HETATM    2  C2  UNL     1     -34.921  14.457  -5.073  1.00 20.00     0.013 C 
HETATM    3  C4  UNL     1     -33.637  15.947  -3.800  1.00 20.00     0.028 C 
HETATM    4  C5  UNL     1     -34.279  15.354  -6.082  1.00 20.00     0.045 C 
HETATM    5  C6  UNL     1     -33.204  16.066  -5.260  1.00 20.00     0.009 C 
ENDROOT
BRANCH   2   6
HETATM    6  C3  UNL     1     -35.812  13.406  -5.455  1.00 20.00     0.288 C 
HETATM    7  O8  UNL     1     -35.508  12.485  -6.210  1.00 20.00    -0.260 OA
BRANCH   6   8
HETATM    8  O9  UNL     1     -37.017  13.598  -4.852  1.00 20.00    -0.323 OA
HETATM    9  C7  UNL     1     -37.907  14.505  -5.509  1.00 20.00     0.213 C 
ENDBRANCH   6   8
ENDBRANCH   2   6
TORSDOF 2
ENDMDL
