MODEL 1
REMARK VINA RESULT:      -5.1      0.000      0.000
REMARK  5 active torsions:
REMARK  status: ('A' for Active; 'I' for Inactive)
REMARK    1  A    between atoms: C1_1  and  C6_6 
REMARK    2  A    between atoms: C2_2  and  C7_7 
REMARK    3  A    between atoms: C2_2  and  C8_8 
REMARK    4  A    between atoms: C7_7  and  C9_9 
REMARK    5  A    between atoms: C8_8  and  C10_10 
ROOT
HETATM    1  C1  UNL     1     -32.210   7.827   1.910  1.00 20.00    -0.024 C 
HETATM    2  C2  UNL     1     -32.941   7.125   2.799  1.00 20.00    -0.084 C 
ENDROOT
BRANCH   2   3
HETATM    3  C7  UNL     1     -32.918   5.609   2.767  1.00 20.00     0.033 C 
BRANCH   3   4
HETATM    4  C9  UNL     1     -34.251   4.997   3.205  1.00 20.00    -0.000 C 
HETATM    5  C4  UNL     1     -34.062   4.027   4.362  1.00 20.00     0.005 C 
ENDBRANCH   3   4
ENDBRANCH   2   3
BRANCH   2   6
HETATM    6  C8  UNL     1     -33.809   7.757   3.864  1.00 20.00     0.033 C 
BRANCH   6   7
HETATM    7  C10 UNL     1     -33.135   7.742   5.238  1.00 20.00    -0.000 C 
HETATM    8  C5  UNL     1     -33.994   7.027   6.269  1.00 20.00     0.005 C 
ENDBRANCH   6   7
ENDBRANCH   2   6
BRANCH   1   9
HETATM    9  C6  UNL     1     -32.139   9.320   1.766  1.00 20.00     0.023 C 
HETATM   10  C3  UNL     1     -32.668   9.769   0.413  1.00 20.00     0.009 C 
ENDBRANCH   1   9
TORSDOF 5
ENDMDL
MODEL 2
REMARK VINA RESULT:      -5.0      0.859      2.462
REMARK  5 active torsions:
REMARK  status: ('A' for Active; 'I' for Inactive)
REMARK    1  A    between atoms: C1_1  and  C6_6 
REMARK    2  A    between atoms: C2_2  and  C7_7 
REMARK    3  A    between atoms: C2_2  and  C8_8 
REMARK    4  A    between atoms: C7_7  and  C9_9 
REMARK    5  A    between atoms: C8_8  and  C10_10 
ROOT
HETATM    1  C1  UNL     1     -32.106   8.488   2.568  1.00 20.00    -0.024 C 
HETATM    2  C2  UNL     1     -32.767   7.516   3.228  1.00 20.00    -0.084 C 
ENDROOT
BRANCH   2   3
HETATM    3  C7  UNL     1     -32.698   7.450   4.742  1.00 20.00     0.033 C 
BRANCH   3   4
HETATM    4  C9  UNL     1     -34.086   7.440   5.387  1.00 20.00    -0.000 C 
HETATM    5  C4  UNL     1     -34.390   6.094   6.029  1.00 20.00     0.005 C 
ENDBRANCH   3   4
ENDBRANCH   2   3
BRANCH   2   6
HETATM    6  C8  UNL     1     -33.603   6.453   2.551  1.00 20.00     0.033 C 
BRANCH   6   7
HETATM    7  C10 UNL     1     -32.983   5.060   2.690  1.00 20.00    -0.000 C 
HETATM    8  C5  UNL     1     -33.864   4.141   3.521  1.00 20.00     0.005 C 
ENDBRANCH   6   7
ENDBRANCH   2   6
BRANCH   1   9
HETATM    9  C6  UNL     1     -32.026   8.687   1.082  1.00 20.00     0.023 C 
HETATM   10  C3  UNL     1     -32.539  10.061   0.681  1.00 20.00     0.009 C 
ENDBRANCH   1   9
TORSDOF 5
ENDMDL
MODEL 3
REMARK VINA RESULT:      -4.9      0.725      3.893
REMARK  5 active torsions:
REMARK  status: ('A' for Active; 'I' for Inactive)
REMARK    1  A    between atoms: C1_1  and  C6_6 
REMARK    2  A    between atoms: C2_2  and  C7_7 
REMARK    3  A    between atoms: C2_2  and  C8_8 
REMARK    4  A    between atoms: C7_7  and  C9_9 
REMARK    5  A    between atoms: C8_8  and  C10_10 
ROOT
HETATM    1  C1  UNL     1     -32.949   6.074   2.557  1.00 20.00    -0.024 C 
HETATM    2  C2  UNL     1     -32.873   7.268   3.178  1.00 20.00    -0.084 C 
ENDROOT
BRANCH   2   3
HETATM    3  C7  UNL     1     -31.704   8.193   2.898  1.00 20.00     0.033 C 
BRANCH   3   4
HETATM    4  C9  UNL     1     -31.669   8.660   1.441  1.00 20.00    -0.000 C 
HETATM    5  C4  UNL     1     -32.551   9.882   1.229  1.00 20.00     0.005 C 
ENDBRANCH   3   4
ENDBRANCH   2   3
BRANCH   2   6
HETATM    6  C8  UNL     1     -33.902   7.773   4.165  1.00 20.00     0.033 C 
BRANCH   6   7
HETATM    7  C10 UNL     1     -33.545   7.404   5.607  1.00 20.00    -0.000 C 
HETATM    8  C5  UNL     1     -34.459   6.313   6.142  1.00 20.00     0.005 C 
ENDBRANCH   6   7
ENDBRANCH   2   6
BRANCH   1   9
HETATM    9  C6  UNL     1     -34.002   5.019   2.737  1.00 20.00     0.023 C 
HETATM   10  C3  UNL     1     -33.625   4.046   3.842  1.00 20.00     0.009 C 
ENDBRANCH   1   9
TORSDOF 5
ENDMDL
MODEL 4
REMARK VINA RESULT:      -4.8      1.084      4.439
REMARK  5 active torsions:
REMARK  status: ('A' for Active; 'I' for Inactive)
REMARK    1  A    between atoms: C1_1  and  C6_6 
REMARK    2  A    between atoms: C2_2  and  C7_7 
REMARK    3  A    between atoms: C2_2  and  C8_8 
REMARK    4  A    between atoms: C7_7  and  C9_9 
REMARK    5  A    between atoms: C8_8  and  C10_10 
ROOT
HETATM    1  C1  UNL     1     -32.997   7.545   5.087  1.00 20.00    -0.024 C 
HETATM    2  C2  UNL     1     -33.014   7.477   3.740  1.00 20.00    -0.084 C 
ENDROOT
BRANCH   2   3
HETATM    3  C7  UNL     1     -31.847   8.024   2.942  1.00 20.00     0.033 C 
BRANCH   3   4
HETATM    4  C9  UNL     1     -32.271   9.135   1.978  1.00 20.00    -0.000 C 
HETATM    5  C4  UNL     1     -31.695   8.912   0.587  1.00 20.00     0.005 C 
ENDBRANCH   3   4
ENDBRANCH   2   3
BRANCH   2   6
HETATM    6  C8  UNL     1     -34.146   6.873   2.940  1.00 20.00     0.033 C 
BRANCH   6   7
HETATM    7  C10 UNL     1     -33.658   5.773   1.995  1.00 20.00    -0.000 C 
HETATM    8  C5  UNL     1     -33.020   4.625   2.762  1.00 20.00     0.005 C 
ENDBRANCH   6   7
ENDBRANCH   2   6
BRANCH   1   9
HETATM    9  C6  UNL     1     -34.070   7.095   6.035  1.00 20.00     0.023 C 
HETATM   10  C3  UNL     1     -34.395   5.622   5.843  1.00 20.00     0.009 C 
ENDBRANCH   1   9
TORSDOF 5
ENDMDL
MODEL 5
REMARK VINA RESULT:      -3.9     10.834     12.119
REMARK  5 active torsions:
REMARK  status: ('A' for Active; 'I' for Inactive)
REMARK    1  A    between atoms: C1_1  and  C6_6 
REMARK    2  A    between atoms: C2_2  and  C7_7 
REMARK    3  A    between atoms: C2_2  and  C8_8 
REMARK    4  A    between atoms: C7_7  and  C9_9 
REMARK    5  A    between atoms: C8_8  and  C10_10 
ROOT
HETATM    1  C1  UNL     1     -34.611  15.869  -3.037  1.00 20.00    -0.024 C 
HETATM    2  C2  UNL     1     -34.272  15.129  -4.112  1.00 20.00    -0.084 C 
ENDROOT
BRANCH   2   3
HETATM    3  C7  UNL     1     -35.177  14.002  -4.569  1.00 20.00     0.033 C 
BRANCH   3   4
HETATM    4  C9  UNL     1     -36.597  14.484  -4.876  1.00 20.00    -0.000 C 
HETATM    5  C4  UNL     1     -36.905  14.391  -6.363  1.00 20.00     0.005 C 
ENDBRANCH   3   4
ENDBRANCH   2   3
BRANCH   2   6
HETATM    6  C8  UNL     1     -33.017  15.350  -4.926  1.00 20.00     0.033 C 
BRANCH   6   7
HETATM    7  C10 UNL     1     -33.332  15.715  -6.379  1.00 20.00    -0.000 C 
HETATM    8  C5  UNL     1     -33.991  17.082  -6.478  1.00 20.00     0.005 C 
ENDBRANCH   6   7
ENDBRANCH   2   6
BRANCH   1   9
HETATM    9  C6  UNL     1     -33.827  16.990  -2.419  1.00 20.00     0.023 C 
HETATM   10  C3  UNL     1     -34.370  17.352  -1.046  1.00 20.00     0.009 C 
ENDBRANCH   1   9
TORSDOF 5
ENDMDL
MODEL 6
REMARK VINA RESULT:      -3.9     10.622     11.662
REMARK  5 active torsions:
REMARK  status: ('A' for Active; 'I' for Inactive)
REMARK    1  A    between atoms: C1_1  and  C6_6 
REMARK    2  A    between atoms: C2_2  and  C7_7 
REMARK    3  A    between atoms: C2_2  and  C8_8 
REMARK    4  A    between atoms: C7_7  and  C9_9 
REMARK    5  A    between atoms: C8_8  and  C10_10 
ROOT
HETATM    1  C1  UNL     1     -35.116  16.944  -1.045  1.00 20.00    -0.024 C 
HETATM    2  C2  UNL     1     -34.065  17.348  -1.788  1.00 20.00    -0.084 C 
ENDROOT
BRANCH   2   3
HETATM    3  C7  UNL     1     -33.650  16.547  -3.008  1.00 20.00     0.033 C 
BRANCH   3   4
HETATM    4  C9  UNL     1     -34.751  15.595  -3.481  1.00 20.00    -0.000 C 
HETATM    5  C4  UNL     1     -34.165  14.361  -4.152  1.00 20.00     0.005 C 
ENDBRANCH   3   4
ENDBRANCH   2   3
BRANCH   2   6
HETATM    6  C8  UNL     1     -33.245  18.582  -1.488  1.00 20.00     0.033 C 
BRANCH   6   7
HETATM    7  C10 UNL     1     -32.039  18.268  -0.599  1.00 20.00    -0.000 C 
HETATM    8  C5  UNL     1     -32.171  18.926   0.766  1.00 20.00     0.005 C 
ENDBRANCH   6   7
ENDBRANCH   2   6
BRANCH   1   9
HETATM    9  C6  UNL     1     -35.644  17.581   0.207  1.00 20.00     0.023 C 
HETATM   10  C3  UNL     1     -36.901  18.389  -0.072  1.00 20.00     0.009 C 
ENDBRANCH   1   9
TORSDOF 5
ENDMDL
MODEL 7
REMARK VINA RESULT:      -3.9      1.216      3.791
REMARK  5 active torsions:
REMARK  status: ('A' for Active; 'I' for Inactive)
REMARK    1  A    between atoms: C1_1  and  C6_6 
REMARK    2  A    between atoms: C2_2  and  C7_7 
REMARK    3  A    between atoms: C2_2  and  C8_8 
REMARK    4  A    between atoms: C7_7  and  C9_9 
REMARK    5  A    between atoms: C8_8  and  C10_10 
ROOT
HETATM    1  C1  UNL     1     -33.916   6.226   3.189  1.00 20.00    -0.024 C 
HETATM    2  C2  UNL     1     -33.235   7.262   3.718  1.00 20.00    -0.084 C 
ENDROOT
BRANCH   2   3
HETATM    3  C7  UNL     1     -33.772   7.972   4.946  1.00 20.00     0.033 C 
BRANCH   3   4
HETATM    4  C9  UNL     1     -33.801   7.062   6.177  1.00 20.00    -0.000 C 
HETATM    5  C4  UNL     1     -34.581   5.784   5.904  1.00 20.00     0.005 C 
ENDBRANCH   3   4
ENDBRANCH   2   3
BRANCH   2   6
HETATM    6  C8  UNL     1     -31.930   7.786   3.161  1.00 20.00     0.033 C 
BRANCH   6   7
HETATM    7  C10 UNL     1     -32.144   8.967   2.211  1.00 20.00    -0.000 C 
HETATM    8  C5  UNL     1     -31.628   8.655   0.815  1.00 20.00     0.005 C 
ENDBRANCH   6   7
ENDBRANCH   2   6
BRANCH   1   9
HETATM    9  C6  UNL     1     -33.563   5.434   1.964  1.00 20.00     0.023 C 
HETATM   10  C3  UNL     1     -32.761   4.193   2.320  1.00 20.00     0.009 C 
ENDBRANCH   1   9
TORSDOF 5
ENDMDL
MODEL 8
REMARK VINA RESULT:      -3.8     10.726     11.688
REMARK  5 active torsions:
REMARK  status: ('A' for Active; 'I' for Inactive)
REMARK    1  A    between atoms: C1_1  and  C6_6 
REMARK    2  A    between atoms: C2_2  and  C7_7 
REMARK    3  A    between atoms: C2_2  and  C8_8 
REMARK    4  A    between atoms: C7_7  and  C9_9 
REMARK    5  A    between atoms: C8_8  and  C10_10 
ROOT
HETATM    1  C1  UNL     1     -33.650  16.635  -3.160  1.00 20.00    -0.024 C 
HETATM    2  C2  UNL     1     -34.050  17.275  -2.042  1.00 20.00    -0.084 C 
ENDROOT
BRANCH   2   3
HETATM    3  C7  UNL     1     -33.322  18.524  -1.584  1.00 20.00     0.033 C 
BRANCH   3   4
HETATM    4  C9  UNL     1     -32.145  18.205  -0.659  1.00 20.00    -0.000 C 
HETATM    5  C4  UNL     1     -32.291  18.903   0.685  1.00 20.00     0.005 C 
ENDBRANCH   3   4
ENDBRANCH   2   3
BRANCH   2   6
HETATM    6  C8  UNL     1     -35.212  16.826  -1.184  1.00 20.00     0.033 C 
BRANCH   6   7
HETATM    7  C10 UNL     1     -35.834  17.989  -0.407  1.00 20.00    -0.000 C 
HETATM    8  C5  UNL     1     -35.903  17.687   1.082  1.00 20.00     0.005 C 
ENDBRANCH   6   7
ENDBRANCH   2   6
BRANCH   1   9
HETATM    9  C6  UNL     1     -34.219  15.373  -3.741  1.00 20.00     0.023 C 
HETATM   10  C3  UNL     1     -33.136  14.529  -4.394  1.00 20.00     0.009 C 
ENDBRANCH   1   9
TORSDOF 5
ENDMDL
MODEL 9
REMARK VINA RESULT:      -3.8     10.439     12.173
REMARK  5 active torsions:
REMARK  status: ('A' for Active; 'I' for Inactive)
REMARK    1  A    between atoms: C1_1  and  C6_6 
REMARK    2  A    between atoms: C2_2  and  C7_7 
REMARK    3  A    between atoms: C2_2  and  C8_8 
REMARK    4  A    between atoms: C7_7  and  C9_9 
REMARK    5  A    between atoms: C8_8  and  C10_10 
ROOT
HETATM    1  C1  UNL     1     -34.070  16.467  -3.415  1.00 20.00    -0.024 C 
HETATM    2  C2  UNL     1     -33.923  15.409  -4.238  1.00 20.00    -0.084 C 
ENDROOT
BRANCH   2   3
HETATM    3  C7  UNL     1     -33.064  15.533  -5.482  1.00 20.00     0.033 C 
BRANCH   3   4
HETATM    4  C9  UNL     1     -33.657  16.507  -6.503  1.00 20.00    -0.000 C 
HETATM    5  C4  UNL     1     -34.085  15.786  -7.773  1.00 20.00     0.005 C 
ENDBRANCH   3   4
ENDBRANCH   2   3
BRANCH   2   6
HETATM    6  C8  UNL     1     -34.568  14.061  -4.003  1.00 20.00     0.033 C 
BRANCH   6   7
HETATM    7  C10 UNL     1     -35.607  13.728  -5.077  1.00 20.00    -0.000 C 
HETATM    8  C5  UNL     1     -36.888  14.522  -4.874  1.00 20.00     0.005 C 
ENDBRANCH   6   7
ENDBRANCH   2   6
BRANCH   1   9
HETATM    9  C6  UNL     1     -34.906  16.543  -2.170  1.00 20.00     0.023 C 
HETATM   10  C3  UNL     1     -34.220  17.371  -1.095  1.00 20.00     0.009 C 
ENDBRANCH   1   9
TORSDOF 5
ENDMDL
