MODEL 1
REMARK VINA RESULT:      -5.0      0.000      0.000
REMARK  2 active torsions:
REMARK  status: ('A' for Active; 'I' for Inactive)
REMARK    1  A    between atoms: C5_5  and  C7_7 
REMARK    2  A    between atoms: C6_6  and  O10_10 
ROOT
HETATM    1  C1  UNL     1     -32.507   6.479   2.587  1.00 20.00     0.006 A 
HETATM    2  C2  UNL     1     -32.897   7.762   4.718  1.00 20.00     0.006 A 
HETATM    3  C3  UNL     1     -33.594   5.732   2.836  1.00 20.00    -0.008 A 
HETATM    4  C4  UNL     1     -33.985   7.017   4.971  1.00 20.00    -0.008 A 
HETATM    5  C6  UNL     1     -32.039   7.576   3.499  1.00 20.00     0.163 A 
HETATM    6  C7  UNL     1     -34.471   5.935   4.043  1.00 20.00     0.044 A 
HETATM    7  C8  UNL     1     -35.916   6.201   3.618  1.00 20.00     0.031 C 
ENDROOT
BRANCH   6   8
HETATM    8  C5  UNL     1     -34.387   4.654   4.829  1.00 20.00     0.248 C 
HETATM    9  O9  UNL     1     -34.172   3.561   4.318  1.00 20.00    -0.305 OA
ENDBRANCH   6   8
BRANCH   5  10
HETATM   10  O10 UNL     1     -32.012   8.790   2.754  1.00 20.00    -0.388 OA
HETATM   11  H20 UNL     1     -31.217   9.271   3.037  1.00 20.00     0.210 HD
ENDBRANCH   5  10
TORSDOF 2
ENDMDL
MODEL 2
REMARK VINA RESULT:      -4.7      1.056      3.835
REMARK  2 active torsions:
REMARK  status: ('A' for Active; 'I' for Inactive)
REMARK    1  A    between atoms: C5_5  and  C7_7 
REMARK    2  A    between atoms: C6_6  and  O10_10 
ROOT
HETATM    1  C1  UNL     1     -33.327   5.029   2.918  1.00 20.00     0.006 A 
HETATM    2  C2  UNL     1     -34.634   6.490   4.497  1.00 20.00     0.006 A 
HETATM    3  C3  UNL     1     -32.587   6.085   2.549  1.00 20.00    -0.008 A 
HETATM    4  C4  UNL     1     -33.896   7.550   4.131  1.00 20.00    -0.008 A 
HETATM    5  C6  UNL     1     -34.430   5.113   3.932  1.00 20.00     0.163 A 
HETATM    6  C7  UNL     1     -32.771   7.462   3.134  1.00 20.00     0.044 A 
HETATM    7  C8  UNL     1     -31.464   7.960   3.753  1.00 20.00     0.031 C 
ENDROOT
BRANCH   6   8
HETATM    8  C5  UNL     1     -33.173   8.344   1.984  1.00 20.00     0.248 C 
HETATM    9  O9  UNL     1     -32.438   9.196   1.497  1.00 20.00    -0.305 OA
ENDBRANCH   6   8
BRANCH   5  10
HETATM   10  O10 UNL     1     -34.128   4.210   4.992  1.00 20.00    -0.388 OA
HETATM   11  H20 UNL     1     -33.201   3.946   4.875  1.00 20.00     0.210 HD
ENDBRANCH   5  10
TORSDOF 2
ENDMDL
MODEL 3
REMARK VINA RESULT:      -4.5      1.127      3.895
REMARK  2 active torsions:
REMARK  status: ('A' for Active; 'I' for Inactive)
REMARK    1  A    between atoms: C5_5  and  C7_7 
REMARK    2  A    between atoms: C6_6  and  O10_10 
ROOT
HETATM    1  C1  UNL     1     -34.231   6.119   5.316  1.00 20.00     0.006 A 
HETATM    2  C2  UNL     1     -33.409   4.842   3.308  1.00 20.00     0.006 A 
HETATM    3  C3  UNL     1     -33.789   7.263   4.772  1.00 20.00    -0.008 A 
HETATM    4  C4  UNL     1     -32.965   5.984   2.760  1.00 20.00    -0.008 A 
HETATM    5  C6  UNL     1     -34.091   4.784   4.645  1.00 20.00     0.163 A 
HETATM    6  C7  UNL     1     -33.129   7.329   3.418  1.00 20.00     0.044 A 
HETATM    7  C8  UNL     1     -33.885   8.289   2.499  1.00 20.00     0.031 C 
ENDROOT
BRANCH   6   8
HETATM    8  C5  UNL     1     -31.735   7.835   3.668  1.00 20.00     0.248 C 
HETATM    9  O9  UNL     1     -31.133   8.569   2.892  1.00 20.00    -0.305 OA
ENDBRANCH   6   8
BRANCH   5  10
HETATM   10  O10 UNL     1     -35.394   4.230   4.484  1.00 20.00    -0.388 OA
HETATM   11  H20 UNL     1     -35.794   4.203   5.368  1.00 20.00     0.210 HD
ENDBRANCH   5  10
TORSDOF 2
ENDMDL
MODEL 4
REMARK VINA RESULT:      -4.2     11.743     12.988
REMARK  2 active torsions:
REMARK  status: ('A' for Active; 'I' for Inactive)
REMARK    1  A    between atoms: C5_5  and  C7_7 
REMARK    2  A    between atoms: C6_6  and  O10_10 
ROOT
HETATM    1  C1  UNL     1     -35.675  13.538  -4.889  1.00 20.00     0.006 A 
HETATM    2  C2  UNL     1     -36.659  15.735  -5.623  1.00 20.00     0.006 A 
HETATM    3  C3  UNL     1     -34.651  14.187  -4.313  1.00 20.00    -0.008 A 
HETATM    4  C4  UNL     1     -35.638  16.389  -5.049  1.00 20.00    -0.008 A 
HETATM    5  C6  UNL     1     -36.791  14.239  -5.606  1.00 20.00     0.163 A 
HETATM    6  C7  UNL     1     -34.531  15.689  -4.305  1.00 20.00     0.044 A 
HETATM    7  C8  UNL     1     -34.433  16.211  -2.870  1.00 20.00     0.031 C 
ENDROOT
BRANCH   6   8
HETATM    8  C5  UNL     1     -33.268  16.001  -5.060  1.00 20.00     0.248 C 
HETATM    9  O9  UNL     1     -33.137  15.812  -6.265  1.00 20.00    -0.305 OA
ENDBRANCH   6   8
BRANCH   5  10
HETATM   10  O10 UNL     1     -38.017  13.882  -4.974  1.00 20.00    -0.388 OA
HETATM   11  H20 UNL     1     -37.784  13.497  -4.115  1.00 20.00     0.210 HD
ENDBRANCH   5  10
TORSDOF 2
ENDMDL
MODEL 5
REMARK VINA RESULT:      -4.2     11.566     12.793
REMARK  2 active torsions:
REMARK  status: ('A' for Active; 'I' for Inactive)
REMARK    1  A    between atoms: C5_5  and  C7_7 
REMARK    2  A    between atoms: C6_6  and  O10_10 
ROOT
HETATM    1  C1  UNL     1     -34.098  14.244  -4.541  1.00 20.00     0.006 A 
HETATM    2  C2  UNL     1     -36.432  15.059  -5.017  1.00 20.00     0.006 A 
HETATM    3  C3  UNL     1     -33.879  15.318  -3.767  1.00 20.00    -0.008 A 
HETATM    4  C4  UNL     1     -36.217  16.135  -4.243  1.00 20.00    -0.008 A 
HETATM    5  C6  UNL     1     -35.397  13.995  -5.250  1.00 20.00     0.163 A 
HETATM    6  C7  UNL     1     -34.924  16.372  -3.509  1.00 20.00     0.044 A 
HETATM    7  C8  UNL     1     -35.178  16.520  -2.008  1.00 20.00     0.031 C 
ENDROOT
BRANCH   6   8
HETATM    8  C5  UNL     1     -34.363  17.650  -4.070  1.00 20.00     0.248 C 
HETATM    9  O9  UNL     1     -33.398  17.689  -4.826  1.00 20.00    -0.305 OA
ENDBRANCH   6   8
BRANCH   5  10
HETATM   10  O10 UNL     1     -35.908  12.739  -4.813  1.00 20.00    -0.388 OA
HETATM   11  H20 UNL     1     -36.271  12.882  -3.925  1.00 20.00     0.210 HD
ENDBRANCH   5  10
TORSDOF 2
ENDMDL
MODEL 6
REMARK VINA RESULT:      -4.1     11.673     12.723
REMARK  2 active torsions:
REMARK  status: ('A' for Active; 'I' for Inactive)
REMARK    1  A    between atoms: C5_5  and  C7_7 
REMARK    2  A    between atoms: C6_6  and  O10_10 
ROOT
HETATM    1  C1  UNL     1     -33.218  15.659  -5.736  1.00 20.00     0.006 A 
HETATM    2  C2  UNL     1     -34.530  14.306  -4.068  1.00 20.00     0.006 A 
HETATM    3  C3  UNL     1     -34.068  15.291  -6.706  1.00 20.00    -0.008 A 
HETATM    4  C4  UNL     1     -35.383  13.934  -5.035  1.00 20.00    -0.008 A 
HETATM    5  C6  UNL     1     -33.355  15.209  -4.310  1.00 20.00     0.163 A 
HETATM    6  C7  UNL     1     -35.263  14.407  -6.460  1.00 20.00     0.044 A 
HETATM    7  C8  UNL     1     -36.549  15.107  -6.904  1.00 20.00     0.031 C 
ENDROOT
BRANCH   6   8
HETATM    8  C5  UNL     1     -35.033  13.170  -7.284  1.00 20.00     0.248 C 
HETATM    9  O9  UNL     1     -35.128  12.032  -6.836  1.00 20.00    -0.305 OA
ENDBRANCH   6   8
BRANCH   5  10
HETATM   10  O10 UNL     1     -33.475  16.367  -3.489  1.00 20.00    -0.388 OA
HETATM   11  H20 UNL     1     -34.230  16.873  -3.832  1.00 20.00     0.210 HD
ENDBRANCH   5  10
TORSDOF 2
ENDMDL
MODEL 7
REMARK VINA RESULT:      -4.1      1.375      2.360
REMARK  2 active torsions:
REMARK  status: ('A' for Active; 'I' for Inactive)
REMARK    1  A    between atoms: C5_5  and  C7_7 
REMARK    2  A    between atoms: C6_6  and  O10_10 
ROOT
HETATM    1  C1  UNL     1     -33.187   7.661   5.093  1.00 20.00     0.006 A 
HETATM    2  C2  UNL     1     -32.760   6.907   2.730  1.00 20.00     0.006 A 
HETATM    3  C3  UNL     1     -33.950   6.579   5.303  1.00 20.00    -0.008 A 
HETATM    4  C4  UNL     1     -33.523   5.822   2.935  1.00 20.00    -0.008 A 
HETATM    5  C6  UNL     1     -32.507   7.946   3.785  1.00 20.00     0.163 A 
HETATM    6  C7  UNL     1     -34.183   5.521   4.255  1.00 20.00     0.044 A 
HETATM    7  C8  UNL     1     -33.750   4.149   4.772  1.00 20.00     0.031 C 
ENDROOT
BRANCH   6   8
HETATM    8  C5  UNL     1     -35.663   5.534   3.985  1.00 20.00     0.248 C 
HETATM    9  O9  UNL     1     -36.208   6.345   3.245  1.00 20.00    -0.305 OA
ENDBRANCH   6   8
BRANCH   5  10
HETATM   10  O10 UNL     1     -31.106   8.040   4.025  1.00 20.00    -0.388 OA
HETATM   11  H20 UNL     1     -30.806   8.857   3.594  1.00 20.00     0.210 HD
ENDBRANCH   5  10
TORSDOF 2
ENDMDL
MODEL 8
REMARK VINA RESULT:      -4.1     11.909     12.815
REMARK  2 active torsions:
REMARK  status: ('A' for Active; 'I' for Inactive)
REMARK    1  A    between atoms: C5_5  and  C7_7 
REMARK    2  A    between atoms: C6_6  and  O10_10 
ROOT
HETATM    1  C1  UNL     1     -34.538  16.533  -6.371  1.00 20.00     0.006 A 
HETATM    2  C2  UNL     1     -33.645  15.444  -4.285  1.00 20.00     0.006 A 
HETATM    3  C3  UNL     1     -35.716  15.916  -6.192  1.00 20.00    -0.008 A 
HETATM    4  C4  UNL     1     -34.821  14.824  -4.101  1.00 20.00    -0.008 A 
HETATM    5  C6  UNL     1     -33.374  16.367  -5.438  1.00 20.00     0.163 A 
HETATM    6  C7  UNL     1     -35.999  15.011  -5.021  1.00 20.00     0.044 A 
HETATM    7  C8  UNL     1     -37.216  15.509  -4.240  1.00 20.00     0.031 C 
ENDROOT
BRANCH   6   8
HETATM    8  C5  UNL     1     -36.278  13.655  -5.610  1.00 20.00     0.248 C 
HETATM    9  O9  UNL     1     -35.823  12.613  -5.153  1.00 20.00    -0.305 OA
ENDBRANCH   6   8
BRANCH   5  10
HETATM   10  O10 UNL     1     -33.019  17.653  -4.937  1.00 20.00    -0.388 OA
HETATM   11  H20 UNL     1     -33.828  18.190  -4.956  1.00 20.00     0.210 HD
ENDBRANCH   5  10
TORSDOF 2
ENDMDL
MODEL 9
REMARK VINA RESULT:      -4.0     12.207     13.264
REMARK  2 active torsions:
REMARK  status: ('A' for Active; 'I' for Inactive)
REMARK    1  A    between atoms: C5_5  and  C7_7 
REMARK    2  A    between atoms: C6_6  and  O10_10 
ROOT
HETATM    1  C1  UNL     1     -33.542  15.496  -4.670  1.00 20.00     0.006 A 
HETATM    2  C2  UNL     1     -35.170  16.867  -6.013  1.00 20.00     0.006 A 
HETATM    3  C3  UNL     1     -33.857  14.410  -5.393  1.00 20.00    -0.008 A 
HETATM    4  C4  UNL     1     -35.490  15.784  -6.738  1.00 20.00    -0.008 A 
HETATM    5  C6  UNL     1     -34.162  16.843  -4.900  1.00 20.00     0.163 A 
HETATM    6  C7  UNL     1     -34.848  14.437  -6.527  1.00 20.00     0.044 A 
HETATM    7  C8  UNL     1     -34.198  13.943  -7.820  1.00 20.00     0.031 C 
ENDROOT
BRANCH   6   8
HETATM    8  C5  UNL     1     -35.963  13.513  -6.118  1.00 20.00     0.248 C 
HETATM    9  O9  UNL     1     -35.883  12.734  -5.175  1.00 20.00    -0.305 OA
ENDBRANCH   6   8
BRANCH   5  10
HETATM   10  O10 UNL     1     -33.118  17.768  -5.193  1.00 20.00    -0.388 OA
HETATM   11  H20 UNL     1     -32.551  17.803  -4.405  1.00 20.00     0.210 HD
ENDBRANCH   5  10
TORSDOF 2
ENDMDL
