MODEL 1
REMARK VINA RESULT:      -5.9      0.000      0.000
REMARK  1 active torsions:
REMARK  status: ('A' for Active; 'I' for Inactive)
REMARK    1  A    between atoms: C5_5  and  C10_10 
ROOT
HETATM    1  C1  UNL     1     -33.133   7.472   4.634  1.00 20.00     0.011 C 
HETATM    2  C2  UNL     1     -33.157   5.985   2.584  1.00 20.00     0.011 C 
HETATM    3  C3  UNL     1     -34.150   6.594   5.372  1.00 20.00     0.079 C 
HETATM    4  C4  UNL     1     -33.698   4.914   3.535  1.00 20.00     0.079 C 
HETATM    5  C5  UNL     1     -33.310   7.423   3.114  1.00 20.00    -0.007 C 
HETATM    6  C6  UNL     1     -34.714   5.471   4.512  1.00 20.00     0.243 C 
HETATM    7  F11 UNL     1     -35.177   4.480   5.313  1.00 20.00    -0.206 F 
HETATM    8  F12 UNL     1     -35.788   5.932   3.818  1.00 20.00    -0.206 F 
ENDROOT
BRANCH   5   9
HETATM    9  C10 UNL     1     -32.332   8.364   2.414  1.00 20.00    -0.048 C 
HETATM   10  C7  UNL     1     -33.027   9.701   2.107  1.00 20.00     0.015 C 
HETATM   11  C8  UNL     1     -31.852   7.730   1.097  1.00 20.00     0.015 C 
HETATM   12  C9  UNL     1     -31.118   8.622   3.323  1.00 20.00     0.015 C 
ENDBRANCH   5   9
TORSDOF 1
ENDMDL
MODEL 2
REMARK VINA RESULT:      -5.9      0.041      1.257
REMARK  1 active torsions:
REMARK  status: ('A' for Active; 'I' for Inactive)
REMARK    1  A    between atoms: C5_5  and  C10_10 
ROOT
HETATM    1  C1  UNL     1     -33.158   7.451   4.616  1.00 20.00     0.011 C 
HETATM    2  C2  UNL     1     -33.149   5.972   2.561  1.00 20.00     0.011 C 
HETATM    3  C3  UNL     1     -34.171   6.560   5.343  1.00 20.00     0.079 C 
HETATM    4  C4  UNL     1     -33.687   4.891   3.503  1.00 20.00     0.079 C 
HETATM    5  C5  UNL     1     -33.322   7.406   3.095  1.00 20.00    -0.007 C 
HETATM    6  C6  UNL     1     -34.716   5.434   4.474  1.00 20.00     0.243 C 
HETATM    7  F11 UNL     1     -35.176   4.436   5.268  1.00 20.00    -0.206 F 
HETATM    8  F12 UNL     1     -35.789   5.886   3.773  1.00 20.00    -0.206 F 
ENDROOT
BRANCH   5   9
HETATM    9  C10 UNL     1     -32.348   8.360   2.406  1.00 20.00    -0.048 C 
HETATM   10  C7  UNL     1     -31.135   8.612   3.318  1.00 20.00     0.015 C 
HETATM   11  C8  UNL     1     -33.049   9.698   2.115  1.00 20.00     0.015 C 
HETATM   12  C9  UNL     1     -31.866   7.743   1.082  1.00 20.00     0.015 C 
ENDBRANCH   5   9
TORSDOF 1
ENDMDL
MODEL 3
REMARK VINA RESULT:      -5.0     11.102     11.886
REMARK  1 active torsions:
REMARK  status: ('A' for Active; 'I' for Inactive)
REMARK    1  A    between atoms: C5_5  and  C10_10 
ROOT
HETATM    1  C1  UNL     1     -33.494  16.564  -3.929  1.00 20.00     0.011 C 
HETATM    2  C2  UNL     1     -35.864  16.011  -3.229  1.00 20.00     0.011 C 
HETATM    3  C3  UNL     1     -33.405  15.345  -4.854  1.00 20.00     0.079 C 
HETATM    4  C4  UNL     1     -35.909  15.188  -4.519  1.00 20.00     0.079 C 
HETATM    5  C5  UNL     1     -34.438  16.335  -2.746  1.00 20.00    -0.007 C 
HETATM    6  C6  UNL     1     -34.619  14.430  -4.764  1.00 20.00     0.243 C 
HETATM    7  F11 UNL     1     -34.719  13.702  -5.903  1.00 20.00    -0.206 F 
HETATM    8  F12 UNL     1     -34.435  13.536  -3.757  1.00 20.00    -0.206 F 
ENDROOT
BRANCH   5   9
HETATM    9  C10 UNL     1     -34.447  17.539  -1.806  1.00 20.00    -0.048 C 
HETATM   10  C7  UNL     1     -35.300  17.223  -0.565  1.00 20.00     0.015 C 
HETATM   11  C8  UNL     1     -35.039  18.760  -2.529  1.00 20.00     0.015 C 
HETATM   12  C9  UNL     1     -33.010  17.862  -1.362  1.00 20.00     0.015 C 
ENDBRANCH   5   9
TORSDOF 1
ENDMDL
MODEL 4
REMARK VINA RESULT:      -4.7      2.480      4.396
REMARK  1 active torsions:
REMARK  status: ('A' for Active; 'I' for Inactive)
REMARK    1  A    between atoms: C5_5  and  C10_10 
ROOT
HETATM    1  C1  UNL     1     -33.428   7.511   5.028  1.00 20.00     0.011 C 
HETATM    2  C2  UNL     1     -33.488   6.693   2.633  1.00 20.00     0.011 C 
HETATM    3  C3  UNL     1     -32.323   8.530   4.729  1.00 20.00     0.079 C 
HETATM    4  C4  UNL     1     -32.832   8.036   2.301  1.00 20.00     0.079 C 
HETATM    5  C5  UNL     1     -33.360   6.286   4.112  1.00 20.00    -0.007 C 
HETATM    6  C6  UNL     1     -31.774   8.426   3.313  1.00 20.00     0.243 C 
HETATM    7  F11 UNL     1     -31.210   9.608   2.961  1.00 20.00    -0.206 F 
HETATM    8  F12 UNL     1     -30.774   7.506   3.284  1.00 20.00    -0.206 F 
ENDROOT
BRANCH   5   9
HETATM    9  C10 UNL     1     -34.427   5.259   4.485  1.00 20.00    -0.048 C 
HETATM   10  C7  UNL     1     -33.983   3.860   4.025  1.00 20.00     0.015 C 
HETATM   11  C8  UNL     1     -35.757   5.618   3.800  1.00 20.00     0.015 C 
HETATM   12  C9  UNL     1     -34.630   5.250   6.010  1.00 20.00     0.015 C 
ENDBRANCH   5   9
TORSDOF 1
ENDMDL
MODEL 5
REMARK VINA RESULT:      -4.7      2.480      4.393
REMARK  1 active torsions:
REMARK  status: ('A' for Active; 'I' for Inactive)
REMARK    1  A    between atoms: C5_5  and  C10_10 
ROOT
HETATM    1  C1  UNL     1     -33.429   7.510   5.025  1.00 20.00     0.011 C 
HETATM    2  C2  UNL     1     -33.486   6.691   2.629  1.00 20.00     0.011 C 
HETATM    3  C3  UNL     1     -32.324   8.530   4.727  1.00 20.00     0.079 C 
HETATM    4  C4  UNL     1     -32.830   8.035   2.297  1.00 20.00     0.079 C 
HETATM    5  C5  UNL     1     -33.359   6.285   4.109  1.00 20.00    -0.007 C 
HETATM    6  C6  UNL     1     -31.773   8.426   3.311  1.00 20.00     0.243 C 
HETATM    7  F11 UNL     1     -31.210   9.608   2.960  1.00 20.00    -0.206 F 
HETATM    8  F12 UNL     1     -30.773   7.506   3.283  1.00 20.00    -0.206 F 
ENDROOT
BRANCH   5   9
HETATM    9  C10 UNL     1     -34.426   5.257   4.480  1.00 20.00    -0.048 C 
HETATM   10  C7  UNL     1     -35.755   5.618   3.797  1.00 20.00     0.015 C 
HETATM   11  C8  UNL     1     -34.628   5.244   6.005  1.00 20.00     0.015 C 
HETATM   12  C9  UNL     1     -33.982   3.858   4.018  1.00 20.00     0.015 C 
ENDBRANCH   5   9
TORSDOF 1
ENDMDL
MODEL 6
REMARK VINA RESULT:      -4.7      2.417      4.550
REMARK  1 active torsions:
REMARK  status: ('A' for Active; 'I' for Inactive)
REMARK    1  A    between atoms: C5_5  and  C10_10 
ROOT
HETATM    1  C1  UNL     1     -33.139   6.327   2.138  1.00 20.00     0.011 C 
HETATM    2  C2  UNL     1     -32.559   7.703   4.183  1.00 20.00     0.011 C 
HETATM    3  C3  UNL     1     -32.515   7.351   1.182  1.00 20.00     0.079 C 
HETATM    4  C4  UNL     1     -31.518   8.365   3.276  1.00 20.00     0.079 C 
HETATM    5  C5  UNL     1     -33.678   6.971   3.418  1.00 20.00    -0.007 C 
HETATM    6  C6  UNL     1     -32.051   8.622   1.880  1.00 20.00     0.243 C 
HETATM    7  F11 UNL     1     -31.100   9.228   1.126  1.00 20.00    -0.206 F 
HETATM    8  F12 UNL     1     -33.087   9.498   1.958  1.00 20.00    -0.206 F 
ENDROOT
BRANCH   5   9
HETATM    9  C10 UNL     1     -34.357   5.937   4.312  1.00 20.00    -0.048 C 
HETATM   10  C7  UNL     1     -33.688   4.566   4.122  1.00 20.00     0.015 C 
HETATM   11  C8  UNL     1     -35.847   5.829   3.944  1.00 20.00     0.015 C 
HETATM   12  C9  UNL     1     -34.231   6.362   5.786  1.00 20.00     0.015 C 
ENDBRANCH   5   9
TORSDOF 1
ENDMDL
MODEL 7
REMARK VINA RESULT:      -4.7      2.417      4.548
REMARK  1 active torsions:
REMARK  status: ('A' for Active; 'I' for Inactive)
REMARK    1  A    between atoms: C5_5  and  C10_10 
ROOT
HETATM    1  C1  UNL     1     -33.142   6.327   2.138  1.00 20.00     0.011 C 
HETATM    2  C2  UNL     1     -32.563   7.706   4.181  1.00 20.00     0.011 C 
HETATM    3  C3  UNL     1     -32.520   7.350   1.181  1.00 20.00     0.079 C 
HETATM    4  C4  UNL     1     -31.523   8.367   3.272  1.00 20.00     0.079 C 
HETATM    5  C5  UNL     1     -33.681   6.973   3.418  1.00 20.00    -0.007 C 
HETATM    6  C6  UNL     1     -32.057   8.622   1.877  1.00 20.00     0.243 C 
HETATM    7  F11 UNL     1     -31.107   9.228   1.121  1.00 20.00    -0.206 F 
HETATM    8  F12 UNL     1     -33.094   9.497   1.954  1.00 20.00    -0.206 F 
ENDROOT
BRANCH   5   9
HETATM    9  C10 UNL     1     -34.359   5.939   4.314  1.00 20.00    -0.048 C 
HETATM   10  C7  UNL     1     -34.238   6.369   5.786  1.00 20.00     0.015 C 
HETATM   11  C8  UNL     1     -33.686   4.569   4.130  1.00 20.00     0.015 C 
HETATM   12  C9  UNL     1     -35.848   5.825   3.941  1.00 20.00     0.015 C 
ENDBRANCH   5   9
TORSDOF 1
ENDMDL
MODEL 8
REMARK VINA RESULT:      -4.6      2.417      4.552
REMARK  1 active torsions:
REMARK  status: ('A' for Active; 'I' for Inactive)
REMARK    1  A    between atoms: C5_5  and  C10_10 
ROOT
HETATM    1  C1  UNL     1     -33.151   6.332   2.129  1.00 20.00     0.011 C 
HETATM    2  C2  UNL     1     -32.562   7.701   4.176  1.00 20.00     0.011 C 
HETATM    3  C3  UNL     1     -32.530   7.358   1.174  1.00 20.00     0.079 C 
HETATM    4  C4  UNL     1     -31.523   8.364   3.266  1.00 20.00     0.079 C 
HETATM    5  C5  UNL     1     -33.684   6.973   3.413  1.00 20.00    -0.007 C 
HETATM    6  C6  UNL     1     -32.061   8.626   1.874  1.00 20.00     0.243 C 
HETATM    7  F11 UNL     1     -31.112   9.233   1.118  1.00 20.00    -0.206 F 
HETATM    8  F12 UNL     1     -33.096   9.503   1.958  1.00 20.00    -0.206 F 
ENDROOT
BRANCH   5   9
HETATM    9  C10 UNL     1     -34.362   5.937   4.307  1.00 20.00    -0.048 C 
HETATM   10  C7  UNL     1     -35.851   5.829   3.940  1.00 20.00     0.015 C 
HETATM   11  C8  UNL     1     -34.233   6.359   5.781  1.00 20.00     0.015 C 
HETATM   12  C9  UNL     1     -33.692   4.566   4.113  1.00 20.00     0.015 C 
ENDBRANCH   5   9
TORSDOF 1
ENDMDL
MODEL 9
REMARK VINA RESULT:      -4.6     11.250     12.546
REMARK  1 active torsions:
REMARK  status: ('A' for Active; 'I' for Inactive)
REMARK    1  A    between atoms: C5_5  and  C10_10 
ROOT
HETATM    1  C1  UNL     1     -34.900  16.677  -2.207  1.00 20.00     0.011 C 
HETATM    2  C2  UNL     1     -33.332  18.017  -3.675  1.00 20.00     0.011 C 
HETATM    3  C3  UNL     1     -34.432  17.387  -0.932  1.00 20.00     0.079 C 
HETATM    4  C4  UNL     1     -33.321  19.018  -2.516  1.00 20.00     0.079 C 
HETATM    5  C5  UNL     1     -33.806  16.608  -3.276  1.00 20.00    -0.007 C 
HETATM    6  C6  UNL     1     -33.263  18.335  -1.164  1.00 20.00     0.243 C 
HETATM    7  F11 UNL     1     -33.233  19.263  -0.177  1.00 20.00    -0.206 F 
HETATM    8  F12 UNL     1     -32.097  17.643  -1.070  1.00 20.00    -0.206 F 
ENDROOT
BRANCH   5   9
HETATM    9  C10 UNL     1     -34.281  15.831  -4.502  1.00 20.00    -0.048 C 
HETATM   10  C7  UNL     1     -35.681  16.315  -4.914  1.00 20.00     0.015 C 
HETATM   11  C8  UNL     1     -34.340  14.329  -4.175  1.00 20.00     0.015 C 
HETATM   12  C9  UNL     1     -33.304  16.055  -5.669  1.00 20.00     0.015 C 
ENDBRANCH   5   9
TORSDOF 1
ENDMDL
