MODEL 1
REMARK VINA RESULT:      -5.4      0.000      0.000
REMARK  1 active torsions:
REMARK  status: ('A' for Active; 'I' for Inactive)
REMARK    1  A    between atoms: C1_1  and  C4_4 
ROOT
HETATM    1  C3  UNL     1     -34.161   5.491   3.883  1.00 20.00    -0.024 C 
HETATM    2  C4  UNL     1     -33.769   6.747   4.187  1.00 20.00    -0.066 C 
HETATM    3  C6  UNL     1     -34.598   4.398   4.805  1.00 20.00     0.036 C 
HETATM    4  C7  UNL     1     -33.697   7.290   5.590  1.00 20.00     0.048 C 
ENDROOT
BRANCH   2   5
HETATM    5  C1  UNL     1     -33.388   7.644   3.094  1.00 20.00     0.002 C 
HETATM    6  C2  UNL     1     -32.158   7.812   2.582  1.00 20.00    -0.030 C 
HETATM    7  C5  UNL     1     -31.852   8.753   1.462  1.00 20.00     0.036 C 
ENDBRANCH   2   5
TORSDOF 1
ENDMDL
MODEL 2
REMARK VINA RESULT:      -5.2      0.878      1.535
REMARK  1 active torsions:
REMARK  status: ('A' for Active; 'I' for Inactive)
REMARK    1  A    between atoms: C1_1  and  C4_4 
ROOT
HETATM    1  C3  UNL     1     -34.297   6.194   4.754  1.00 20.00    -0.024 C 
HETATM    2  C4  UNL     1     -33.650   6.252   3.571  1.00 20.00    -0.066 C 
HETATM    3  C6  UNL     1     -34.677   4.989   5.554  1.00 20.00     0.036 C 
HETATM    4  C7  UNL     1     -33.177   5.042   2.809  1.00 20.00     0.048 C 
ENDROOT
BRANCH   2   5
HETATM    5  C1  UNL     1     -33.387   7.567   2.982  1.00 20.00     0.002 C 
HETATM    6  C2  UNL     1     -32.356   7.903   2.190  1.00 20.00    -0.030 C 
HETATM    7  C5  UNL     1     -32.159   9.275   1.629  1.00 20.00     0.036 C 
ENDBRANCH   2   5
TORSDOF 1
ENDMDL
MODEL 3
REMARK VINA RESULT:      -5.0      1.006      4.143
REMARK  1 active torsions:
REMARK  status: ('A' for Active; 'I' for Inactive)
REMARK    1  A    between atoms: C1_1  and  C4_4 
ROOT
HETATM    1  C3  UNL     1     -32.795   8.471   1.413  1.00 20.00    -0.024 C 
HETATM    2  C4  UNL     1     -32.506   7.856   2.579  1.00 20.00    -0.066 C 
HETATM    3  C6  UNL     1     -32.148   9.675   0.805  1.00 20.00     0.036 C 
HETATM    4  C7  UNL     1     -31.423   8.306   3.523  1.00 20.00     0.048 C 
ENDROOT
BRANCH   2   5
HETATM    5  C1  UNL     1     -33.289   6.678   2.960  1.00 20.00     0.002 C 
HETATM    6  C2  UNL     1     -34.069   6.546   4.045  1.00 20.00    -0.030 C 
HETATM    7  C5  UNL     1     -34.837   5.303   4.363  1.00 20.00     0.036 C 
ENDBRANCH   2   5
TORSDOF 1
ENDMDL
MODEL 4
REMARK VINA RESULT:      -4.6      1.398      2.241
REMARK  1 active torsions:
REMARK  status: ('A' for Active; 'I' for Inactive)
REMARK    1  A    between atoms: C1_1  and  C4_4 
ROOT
HETATM    1  C3  UNL     1     -33.711   7.298   3.885  1.00 20.00    -0.024 C 
HETATM    2  C4  UNL     1     -32.685   7.845   3.199  1.00 20.00    -0.066 C 
HETATM    3  C6  UNL     1     -33.779   6.937   5.335  1.00 20.00     0.036 C 
HETATM    4  C7  UNL     1     -31.357   8.202   3.812  1.00 20.00     0.048 C 
ENDROOT
BRANCH   2   5
HETATM    5  C1  UNL     1     -32.864   8.112   1.770  1.00 20.00     0.002 C 
HETATM    6  C2  UNL     1     -32.651   9.276   1.135  1.00 20.00    -0.030 C 
HETATM    7  C5  UNL     1     -32.860   9.465  -0.333  1.00 20.00     0.036 C 
ENDBRANCH   2   5
TORSDOF 1
ENDMDL
MODEL 5
REMARK VINA RESULT:      -4.2      1.373      4.182
REMARK  1 active torsions:
REMARK  status: ('A' for Active; 'I' for Inactive)
REMARK    1  A    between atoms: C1_1  and  C4_4 
ROOT
HETATM    1  C3  UNL     1     -32.077   8.665   2.104  1.00 20.00    -0.024 C 
HETATM    2  C4  UNL     1     -32.670   7.600   2.684  1.00 20.00    -0.066 C 
HETATM    3  C6  UNL     1     -31.769   8.892   0.659  1.00 20.00     0.036 C 
HETATM    4  C7  UNL     1     -33.146   6.387   1.929  1.00 20.00     0.048 C 
ENDROOT
BRANCH   2   5
HETATM    5  C1  UNL     1     -32.868   7.613   4.135  1.00 20.00     0.002 C 
HETATM    6  C2  UNL     1     -33.847   7.002   4.820  1.00 20.00    -0.030 C 
HETATM    7  C5  UNL     1     -33.978   7.066   6.308  1.00 20.00     0.036 C 
ENDBRANCH   2   5
TORSDOF 1
ENDMDL
MODEL 6
REMARK VINA RESULT:      -3.8     11.316     11.685
REMARK  1 active torsions:
REMARK  status: ('A' for Active; 'I' for Inactive)
REMARK    1  A    between atoms: C1_1  and  C4_4 
ROOT
HETATM    1  C3  UNL     1     -35.135  16.902  -1.230  1.00 20.00    -0.024 C 
HETATM    2  C4  UNL     1     -33.965  17.083  -1.879  1.00 20.00    -0.066 C 
HETATM    3  C6  UNL     1     -35.617  17.552   0.028  1.00 20.00     0.036 C 
HETATM    4  C7  UNL     1     -32.882  18.022  -1.416  1.00 20.00     0.048 C 
ENDROOT
BRANCH   2   5
HETATM    5  C1  UNL     1     -33.724  16.325  -3.109  1.00 20.00     0.002 C 
HETATM    6  C2  UNL     1     -34.466  15.316  -3.592  1.00 20.00    -0.030 C 
HETATM    7  C5  UNL     1     -34.147  14.590  -4.860  1.00 20.00     0.036 C 
ENDBRANCH   2   5
TORSDOF 1
ENDMDL
MODEL 7
REMARK VINA RESULT:      -3.7     11.367     11.849
REMARK  1 active torsions:
REMARK  status: ('A' for Active; 'I' for Inactive)
REMARK    1  A    between atoms: C1_1  and  C4_4 
ROOT
HETATM    1  C3  UNL     1     -33.273  17.586  -1.688  1.00 20.00    -0.024 C 
HETATM    2  C4  UNL     1     -34.524  17.105  -1.533  1.00 20.00    -0.066 C 
HETATM    3  C6  UNL     1     -32.483  18.456  -0.763  1.00 20.00     0.036 C 
HETATM    4  C7  UNL     1     -35.390  17.382  -0.332  1.00 20.00     0.048 C 
ENDROOT
BRANCH   2   5
HETATM    5  C1  UNL     1     -35.085  16.262  -2.591  1.00 20.00     0.002 C 
HETATM    6  C2  UNL     1     -34.402  15.505  -3.465  1.00 20.00    -0.030 C 
HETATM    7  C5  UNL     1     -35.054  14.670  -4.520  1.00 20.00     0.036 C 
ENDBRANCH   2   5
TORSDOF 1
ENDMDL
MODEL 8
REMARK VINA RESULT:      -3.5     11.323     11.632
REMARK  1 active torsions:
REMARK  status: ('A' for Active; 'I' for Inactive)
REMARK    1  A    between atoms: C1_1  and  C4_4 
ROOT
HETATM    1  C3  UNL     1     -35.519  14.864  -4.154  1.00 20.00    -0.024 C 
HETATM    2  C4  UNL     1     -34.271  15.269  -3.836  1.00 20.00    -0.066 C 
HETATM    3  C6  UNL     1     -35.940  13.807  -5.125  1.00 20.00     0.036 C 
HETATM    4  C7  UNL     1     -33.018  14.695  -4.444  1.00 20.00     0.048 C 
ENDROOT
BRANCH   2   5
HETATM    5  C1  UNL     1     -34.114  16.333  -2.842  1.00 20.00     0.002 C 
HETATM    6  C2  UNL     1     -34.957  16.629  -1.839  1.00 20.00    -0.030 C 
HETATM    7  C5  UNL     1     -34.722  17.737  -0.864  1.00 20.00     0.036 C 
ENDBRANCH   2   5
TORSDOF 1
ENDMDL
MODEL 9
REMARK VINA RESULT:      -3.5     11.478     11.952
REMARK  1 active torsions:
REMARK  status: ('A' for Active; 'I' for Inactive)
REMARK    1  A    between atoms: C1_1  and  C4_4 
ROOT
HETATM    1  C3  UNL     1     -34.455  16.180  -2.816  1.00 20.00    -0.024 C 
HETATM    2  C4  UNL     1     -34.227  17.014  -1.780  1.00 20.00    -0.066 C 
HETATM    3  C6  UNL     1     -33.551  15.836  -3.957  1.00 20.00     0.036 C 
HETATM    4  C7  UNL     1     -32.950  17.789  -1.587  1.00 20.00     0.048 C 
ENDROOT
BRANCH   2   5
HETATM    5  C1  UNL     1     -35.279  17.185  -0.776  1.00 20.00     0.002 C 
HETATM    6  C2  UNL     1     -35.177  17.834   0.396  1.00 20.00    -0.030 C 
HETATM    7  C5  UNL     1     -36.304  17.961   1.369  1.00 20.00     0.036 C 
ENDBRANCH   2   5
TORSDOF 1
ENDMDL
