MODEL 1
REMARK VINA RESULT:      -4.6      0.000      0.000
REMARK  3 active torsions:
REMARK  status: ('A' for Active; 'I' for Inactive)
REMARK    1  A    between atoms: C1_1  and  C3_3 
REMARK    2  A    between atoms: C1_1  and  N4_4 
REMARK    3  A    between atoms: C2_2  and  C3_3 
ROOT
HETATM    1  C1  UNL     1     -32.843   6.648   3.113  1.00 20.00     0.222 C 
ENDROOT
BRANCH   1   2
HETATM    2  C3  UNL     1     -34.070   6.925   3.976  1.00 20.00     0.120 C 
HETATM    3 CL8  UNL     1     -33.584   7.289   5.667  1.00 20.00    -0.122 Cl
BRANCH   2   4
HETATM    4  C2  UNL     1     -35.082   5.776   3.953  1.00 20.00     0.136 C 
HETATM    5 CL7  UNL     1     -34.432   4.243   4.590  1.00 20.00    -0.129 Cl
ENDBRANCH   2   4
ENDBRANCH   1   2
BRANCH   1   6
HETATM    6  N4  UNL     1     -32.213   7.932   2.753  1.00 20.00    -0.154 N 
HETATM    7  O5  UNL     1     -32.657   8.527   1.757  1.00 20.00    -0.536 OA
HETATM    8  O6  UNL     1     -31.290   8.345   3.475  1.00 20.00    -0.536 OA
ENDBRANCH   1   6
TORSDOF 3
ENDMDL
MODEL 2
REMARK VINA RESULT:      -4.6      0.063      1.103
REMARK  3 active torsions:
REMARK  status: ('A' for Active; 'I' for Inactive)
REMARK    1  A    between atoms: C1_1  and  C3_3 
REMARK    2  A    between atoms: C1_1  and  N4_4 
REMARK    3  A    between atoms: C2_2  and  C3_3 
ROOT
HETATM    1  C1  UNL     1     -32.853   6.620   3.138  1.00 20.00     0.222 C 
ENDROOT
BRANCH   1   2
HETATM    2  C3  UNL     1     -34.080   6.904   3.999  1.00 20.00     0.120 C 
HETATM    3 CL8  UNL     1     -33.594   7.300   5.683  1.00 20.00    -0.122 Cl
BRANCH   2   4
HETATM    4  C2  UNL     1     -35.084   5.747   3.998  1.00 20.00     0.136 C 
HETATM    5 CL7  UNL     1     -34.369   4.185   4.476  1.00 20.00    -0.129 Cl
ENDBRANCH   2   4
ENDBRANCH   1   2
BRANCH   1   6
HETATM    6  N4  UNL     1     -32.234   7.903   2.755  1.00 20.00    -0.154 N 
HETATM    7  O5  UNL     1     -31.304   8.324   3.463  1.00 20.00    -0.536 OA
HETATM    8  O6  UNL     1     -32.669   8.474   1.740  1.00 20.00    -0.536 OA
ENDBRANCH   1   6
TORSDOF 3
ENDMDL
MODEL 3
REMARK VINA RESULT:      -4.2      3.533      3.979
REMARK  3 active torsions:
REMARK  status: ('A' for Active; 'I' for Inactive)
REMARK    1  A    between atoms: C1_1  and  C3_3 
REMARK    2  A    between atoms: C1_1  and  N4_4 
REMARK    3  A    between atoms: C2_2  and  C3_3 
ROOT
HETATM    1  C1  UNL     1     -34.683   5.916   3.940  1.00 20.00     0.222 C 
ENDROOT
BRANCH   1   2
HETATM    2  C3  UNL     1     -33.371   6.679   4.089  1.00 20.00     0.120 C 
HETATM    3 CL8  UNL     1     -33.363   7.631   5.613  1.00 20.00    -0.122 Cl
BRANCH   2   4
HETATM    4  C2  UNL     1     -33.079   7.593   2.895  1.00 20.00     0.136 C 
HETATM    5 CL7  UNL     1     -31.507   8.427   3.005  1.00 20.00    -0.129 Cl
ENDBRANCH   2   4
ENDBRANCH   1   2
BRANCH   1   6
HETATM    6  N4  UNL     1     -34.611   4.683   4.748  1.00 20.00    -0.154 N 
HETATM    7  O5  UNL     1     -34.310   3.631   4.160  1.00 20.00    -0.536 OA
HETATM    8  O6  UNL     1     -34.840   4.777   5.965  1.00 20.00    -0.536 OA
ENDBRANCH   1   6
TORSDOF 3
ENDMDL
MODEL 4
REMARK VINA RESULT:      -4.2      3.519      4.037
REMARK  3 active torsions:
REMARK  status: ('A' for Active; 'I' for Inactive)
REMARK    1  A    between atoms: C1_1  and  C3_3 
REMARK    2  A    between atoms: C1_1  and  N4_4 
REMARK    3  A    between atoms: C2_2  and  C3_3 
ROOT
HETATM    1  C1  UNL     1     -34.675   5.958   3.892  1.00 20.00     0.222 C 
ENDROOT
BRANCH   1   2
HETATM    2  C3  UNL     1     -33.348   6.701   4.015  1.00 20.00     0.120 C 
HETATM    3 CL8  UNL     1     -33.305   7.672   5.526  1.00 20.00    -0.122 Cl
BRANCH   2   4
HETATM    4  C2  UNL     1     -33.055   7.593   2.805  1.00 20.00     0.136 C 
HETATM    5 CL7  UNL     1     -31.510   8.475   2.930  1.00 20.00    -0.129 Cl
ENDBRANCH   2   4
ENDBRANCH   1   2
BRANCH   1   6
HETATM    6  N4  UNL     1     -34.618   4.740   4.723  1.00 20.00    -0.154 N 
HETATM    7  O5  UNL     1     -34.884   4.859   5.930  1.00 20.00    -0.536 OA
HETATM    8  O6  UNL     1     -34.325   3.672   4.161  1.00 20.00    -0.536 OA
ENDBRANCH   1   6
TORSDOF 3
ENDMDL
MODEL 5
REMARK VINA RESULT:      -4.1      3.457      4.194
REMARK  3 active torsions:
REMARK  status: ('A' for Active; 'I' for Inactive)
REMARK    1  A    between atoms: C1_1  and  C3_3 
REMARK    2  A    between atoms: C1_1  and  N4_4 
REMARK    3  A    between atoms: C2_2  and  C3_3 
ROOT
HETATM    1  C1  UNL     1     -33.787   6.940   4.627  1.00 20.00     0.222 C 
ENDROOT
BRANCH   1   2
HETATM    2  C3  UNL     1     -33.235   6.966   3.205  1.00 20.00     0.120 C 
HETATM    3 CL8  UNL     1     -32.848   5.303   2.646  1.00 20.00    -0.122 Cl
BRANCH   2   4
HETATM    4  C2  UNL     1     -32.007   7.870   3.062  1.00 20.00     0.136 C 
HETATM    5 CL7  UNL     1     -31.896   8.675   1.476  1.00 20.00    -0.129 Cl
ENDBRANCH   2   4
ENDBRANCH   1   2
BRANCH   1   6
HETATM    6  N4  UNL     1     -34.775   5.849   4.735  1.00 20.00    -0.154 N 
HETATM    7  O5  UNL     1     -34.641   5.048   5.674  1.00 20.00    -0.536 OA
HETATM    8  O6  UNL     1     -35.686   5.811   3.891  1.00 20.00    -0.536 OA
ENDBRANCH   1   6
TORSDOF 3
ENDMDL
MODEL 6
REMARK VINA RESULT:      -4.1      3.251      3.697
REMARK  3 active torsions:
REMARK  status: ('A' for Active; 'I' for Inactive)
REMARK    1  A    between atoms: C1_1  and  C3_3 
REMARK    2  A    between atoms: C1_1  and  N4_4 
REMARK    3  A    between atoms: C2_2  and  C3_3 
ROOT
HETATM    1  C1  UNL     1     -33.394   5.697   3.105  1.00 20.00     0.222 C 
ENDROOT
BRANCH   1   2
HETATM    2  C3  UNL     1     -33.404   7.204   3.337  1.00 20.00     0.120 C 
HETATM    3 CL8  UNL     1     -32.606   8.059   1.973  1.00 20.00    -0.122 Cl
BRANCH   2   4
HETATM    4  C2  UNL     1     -32.751   7.604   4.664  1.00 20.00     0.136 C 
HETATM    5 CL7  UNL     1     -33.816   7.381   6.076  1.00 20.00    -0.129 Cl
ENDBRANCH   2   4
ENDBRANCH   1   2
BRANCH   1   6
HETATM    6  N4  UNL     1     -34.553   5.100   3.797  1.00 20.00    -0.154 N 
HETATM    7  O5  UNL     1     -34.391   3.990   4.330  1.00 20.00    -0.536 OA
HETATM    8  O6  UNL     1     -35.611   5.751   3.816  1.00 20.00    -0.536 OA
ENDBRANCH   1   6
TORSDOF 3
ENDMDL
MODEL 7
REMARK VINA RESULT:      -4.1      1.127      2.049
REMARK  3 active torsions:
REMARK  status: ('A' for Active; 'I' for Inactive)
REMARK    1  A    between atoms: C1_1  and  C3_3 
REMARK    2  A    between atoms: C1_1  and  N4_4 
REMARK    3  A    between atoms: C2_2  and  C3_3 
ROOT
HETATM    1  C1  UNL     1     -33.186   7.510   2.392  1.00 20.00     0.222 C 
ENDROOT
BRANCH   1   2
HETATM    2  C3  UNL     1     -33.098   6.396   3.429  1.00 20.00     0.120 C 
HETATM    3 CL8  UNL     1     -33.065   4.787   2.629  1.00 20.00    -0.122 Cl
BRANCH   2   4
HETATM    4  C2  UNL     1     -34.234   6.450   4.455  1.00 20.00     0.136 C 
HETATM    5 CL7  UNL     1     -33.795   7.301   5.959  1.00 20.00    -0.129 Cl
ENDBRANCH   2   4
ENDBRANCH   1   2
BRANCH   1   6
HETATM    6  N4  UNL     1     -31.901   8.234   2.359  1.00 20.00    -0.154 N 
HETATM    7  O5  UNL     1     -31.537   8.703   1.268  1.00 20.00    -0.536 OA
HETATM    8  O6  UNL     1     -31.273   8.342   3.425  1.00 20.00    -0.536 OA
ENDBRANCH   1   6
TORSDOF 3
ENDMDL
MODEL 8
REMARK VINA RESULT:      -3.8     11.424     12.037
REMARK  3 active torsions:
REMARK  status: ('A' for Active; 'I' for Inactive)
REMARK    1  A    between atoms: C1_1  and  C3_3 
REMARK    2  A    between atoms: C1_1  and  N4_4 
REMARK    3  A    between atoms: C2_2  and  C3_3 
ROOT
HETATM    1  C1  UNL     1     -35.707  14.996  -5.039  1.00 20.00     0.222 C 
ENDROOT
BRANCH   1   2
HETATM    2  C3  UNL     1     -34.603  14.856  -3.997  1.00 20.00     0.120 C 
HETATM    3 CL8  UNL     1     -34.778  16.106  -2.718  1.00 20.00    -0.122 Cl
BRANCH   2   4
HETATM    4  C2  UNL     1     -33.200  14.919  -4.607  1.00 20.00     0.136 C 
HETATM    5 CL7  UNL     1     -33.148  15.742  -6.188  1.00 20.00    -0.129 Cl
ENDBRANCH   2   4
ENDBRANCH   1   2
BRANCH   1   6
HETATM    6  N4  UNL     1     -36.488  13.745  -5.079  1.00 20.00    -0.154 N 
HETATM    7  O5  UNL     1     -37.720  13.835  -4.947  1.00 20.00    -0.536 OA
HETATM    8  O6  UNL     1     -35.868  12.683  -5.256  1.00 20.00    -0.536 OA
ENDBRANCH   1   6
TORSDOF 3
ENDMDL
MODEL 9
REMARK VINA RESULT:      -3.8     11.456     12.091
REMARK  3 active torsions:
REMARK  status: ('A' for Active; 'I' for Inactive)
REMARK    1  A    between atoms: C1_1  and  C3_3 
REMARK    2  A    between atoms: C1_1  and  N4_4 
REMARK    3  A    between atoms: C2_2  and  C3_3 
ROOT
HETATM    1  C1  UNL     1     -35.708  15.013  -5.068  1.00 20.00     0.222 C 
ENDROOT
BRANCH   1   2
HETATM    2  C3  UNL     1     -34.594  14.871  -4.036  1.00 20.00     0.120 C 
HETATM    3 CL8  UNL     1     -34.788  16.085  -2.725  1.00 20.00    -0.122 Cl
BRANCH   2   4
HETATM    4  C2  UNL     1     -33.197  14.981  -4.653  1.00 20.00     0.136 C 
HETATM    5 CL7  UNL     1     -33.187  15.755  -6.259  1.00 20.00    -0.129 Cl
ENDBRANCH   2   4
ENDBRANCH   1   2
BRANCH   1   6
HETATM    6  N4  UNL     1     -36.500  13.768  -5.089  1.00 20.00    -0.154 N 
HETATM    7  O5  UNL     1     -35.882  12.700  -5.229  1.00 20.00    -0.536 OA
HETATM    8  O6  UNL     1     -37.731  13.865  -4.950  1.00 20.00    -0.536 OA
ENDBRANCH   1   6
TORSDOF 3
ENDMDL
