MODEL 1
REMARK VINA RESULT:      -5.9      0.000      0.000
REMARK  0 active torsions:
REMARK  status: ('A' for Active; 'I' for Inactive)
ROOT
HETATM    1  C1  UNL     1     -32.408   7.740   3.690  1.00 20.00     0.064 C 
HETATM    2  C2  UNL     1     -33.678   4.412   4.387  1.00 20.00     0.005 C 
HETATM    3  C3  UNL     1     -33.465   5.018   2.993  1.00 20.00     0.006 C 
HETATM    4  C4  UNL     1     -33.970   6.699   5.360  1.00 20.00     0.024 C 
HETATM    5  C5  UNL     1     -35.553   5.768   3.829  1.00 20.00     0.010 C 
HETATM    6  C6  UNL     1     -33.793   7.353   3.975  1.00 20.00     0.097 C 
HETATM    7  C7  UNL     1     -34.689   5.376   5.029  1.00 20.00    -0.013 C 
HETATM    8  C8  UNL     1     -34.356   6.277   3.019  1.00 20.00     0.003 C 
HETATM    9  N9  UNL     1     -31.313   8.046   3.464  1.00 20.00    -0.197 NA
ENDROOT
TORSDOF 0
ENDMDL
MODEL 2
REMARK VINA RESULT:      -4.1     11.998     12.828
REMARK  0 active torsions:
REMARK  status: ('A' for Active; 'I' for Inactive)
ROOT
HETATM    1  C1  UNL     1     -35.297  13.848  -5.216  1.00 20.00     0.064 C 
HETATM    2  C2  UNL     1     -34.920  16.263  -2.534  1.00 20.00     0.005 C 
HETATM    3  C3  UNL     1     -36.051  16.243  -3.571  1.00 20.00     0.006 C 
HETATM    4  C4  UNL     1     -33.399  15.091  -4.137  1.00 20.00     0.024 C 
HETATM    5  C5  UNL     1     -34.169  17.319  -4.530  1.00 20.00     0.010 C 
HETATM    6  C6  UNL     1     -34.493  15.073  -5.223  1.00 20.00     0.097 C 
HETATM    7  C7  UNL     1     -33.661  16.420  -3.402  1.00 20.00    -0.013 C 
HETATM    8  C8  UNL     1     -35.298  16.357  -4.912  1.00 20.00     0.003 C 
HETATM    9  N9  UNL     1     -35.933  12.878  -5.210  1.00 20.00    -0.197 NA
ENDROOT
TORSDOF 0
ENDMDL
MODEL 3
REMARK VINA RESULT:      -4.1     11.810     12.990
REMARK  0 active torsions:
REMARK  status: ('A' for Active; 'I' for Inactive)
ROOT
HETATM    1  C1  UNL     1     -35.373  13.797  -4.793  1.00 20.00     0.064 C 
HETATM    2  C2  UNL     1     -33.764  16.937  -5.643  1.00 20.00     0.005 C 
HETATM    3  C3  UNL     1     -33.047  15.621  -5.311  1.00 20.00     0.006 C 
HETATM    4  C4  UNL     1     -35.739  16.229  -4.280  1.00 20.00     0.024 C 
HETATM    5  C5  UNL     1     -33.621  16.699  -3.278  1.00 20.00     0.010 C 
HETATM    6  C6  UNL     1     -35.047  14.906  -3.893  1.00 20.00     0.097 C 
HETATM    7  C7  UNL     1     -34.565  17.223  -4.361  1.00 20.00    -0.013 C 
HETATM    8  C8  UNL     1     -33.551  15.296  -3.889  1.00 20.00     0.003 C 
HETATM    9  N9  UNL     1     -35.631  12.919  -5.506  1.00 20.00    -0.197 NA
ENDROOT
TORSDOF 0
ENDMDL
MODEL 4
REMARK VINA RESULT:      -4.0     11.702     12.895
REMARK  0 active torsions:
REMARK  status: ('A' for Active; 'I' for Inactive)
ROOT
HETATM    1  C1  UNL     1     -36.752  14.248  -5.128  1.00 20.00     0.064 C 
HETATM    2  C2  UNL     1     -34.777  16.241  -2.826  1.00 20.00     0.005 C 
HETATM    3  C3  UNL     1     -35.736  16.787  -3.892  1.00 20.00     0.006 C 
HETATM    4  C4  UNL     1     -34.429  14.161  -4.174  1.00 20.00     0.024 C 
HETATM    5  C5  UNL     1     -33.660  16.295  -4.928  1.00 20.00     0.010 C 
HETATM    6  C6  UNL     1     -35.361  14.681  -5.287  1.00 20.00     0.097 C 
HETATM    7  C7  UNL     1     -33.755  15.448  -3.658  1.00 20.00    -0.013 C 
HETATM    8  C8  UNL     1     -35.164  16.212  -5.205  1.00 20.00     0.003 C 
HETATM    9  N9  UNL     1     -37.853  13.904  -5.002  1.00 20.00    -0.197 NA
ENDROOT
TORSDOF 0
ENDMDL
MODEL 5
REMARK VINA RESULT:      -4.0      1.187      2.206
REMARK  0 active torsions:
REMARK  status: ('A' for Active; 'I' for Inactive)
ROOT
HETATM    1  C1  UNL     1     -32.558   7.804   2.380  1.00 20.00     0.064 C 
HETATM    2  C2  UNL     1     -35.461   6.013   3.619  1.00 20.00     0.005 C 
HETATM    3  C3  UNL     1     -34.963   7.373   4.124  1.00 20.00     0.006 C 
HETATM    4  C4  UNL     1     -33.146   5.414   2.883  1.00 20.00     0.024 C 
HETATM    5  C5  UNL     1     -33.708   5.668   5.192  1.00 20.00     0.010 C 
HETATM    6  C6  UNL     1     -32.592   6.755   3.403  1.00 20.00     0.097 C 
HETATM    7  C7  UNL     1     -34.265   5.086   3.892  1.00 20.00    -0.013 C 
HETATM    8  C8  UNL     1     -33.526   7.067   4.595  1.00 20.00     0.003 C 
HETATM    9  N9  UNL     1     -32.532   8.634   1.570  1.00 20.00    -0.197 NA
ENDROOT
TORSDOF 0
ENDMDL
MODEL 6
REMARK VINA RESULT:      -3.9      9.040     10.299
REMARK  0 active torsions:
REMARK  status: ('A' for Active; 'I' for Inactive)
ROOT
HETATM    1  C1  UNL     1     -43.079   4.446  -1.773  1.00 20.00     0.064 C 
HETATM    2  C2  UNL     1     -40.959   7.216  -0.772  1.00 20.00     0.005 C 
HETATM    3  C3  UNL     1     -40.743   5.742  -0.404  1.00 20.00     0.006 C 
HETATM    4  C4  UNL     1     -43.417   6.818  -1.017  1.00 20.00     0.024 C 
HETATM    5  C5  UNL     1     -42.321   6.671   1.102  1.00 20.00     0.010 C 
HETATM    6  C6  UNL     1     -43.256   5.336  -0.622  1.00 20.00     0.097 C 
HETATM    7  C7  UNL     1     -42.340   7.522  -0.168  1.00 20.00    -0.013 C 
HETATM    8  C8  UNL     1     -42.044   5.372   0.338  1.00 20.00     0.003 C 
HETATM    9  N9  UNL     1     -42.940   3.741  -2.684  1.00 20.00    -0.197 NA
ENDROOT
TORSDOF 0
ENDMDL
MODEL 7
REMARK VINA RESULT:      -3.9      2.011      3.391
REMARK  0 active torsions:
REMARK  status: ('A' for Active; 'I' for Inactive)
ROOT
HETATM    1  C1  UNL     1     -34.279   4.751   4.100  1.00 20.00     0.064 C 
HETATM    2  C2  UNL     1     -32.109   7.654   4.276  1.00 20.00     0.005 C 
HETATM    3  C3  UNL     1     -33.489   7.524   4.934  1.00 20.00     0.006 C 
HETATM    4  C4  UNL     1     -32.762   5.989   2.526  1.00 20.00     0.024 C 
HETATM    5  C5  UNL     1     -33.793   8.141   2.665  1.00 20.00     0.010 C 
HETATM    6  C6  UNL     1     -34.172   5.847   3.133  1.00 20.00     0.097 C 
HETATM    7  C7  UNL     1     -32.423   7.471   2.782  1.00 20.00    -0.013 C 
HETATM    8  C8  UNL     1     -34.423   7.248   3.738  1.00 20.00     0.003 C 
HETATM    9  N9  UNL     1     -34.363   3.883   4.865  1.00 20.00    -0.197 NA
ENDROOT
TORSDOF 0
ENDMDL
MODEL 8
REMARK VINA RESULT:      -3.9     11.956     13.060
REMARK  0 active torsions:
REMARK  status: ('A' for Active; 'I' for Inactive)
ROOT
HETATM    1  C1  UNL     1     -36.744  14.830  -4.604  1.00 20.00     0.064 C 
HETATM    2  C2  UNL     1     -33.259  15.367  -5.461  1.00 20.00     0.005 C 
HETATM    3  C3  UNL     1     -33.778  14.450  -4.346  1.00 20.00     0.006 C 
HETATM    4  C4  UNL     1     -35.315  16.781  -5.284  1.00 20.00     0.024 C 
HETATM    5  C5  UNL     1     -33.706  16.671  -3.520  1.00 20.00     0.010 C 
HETATM    6  C6  UNL     1     -35.865  15.907  -4.139  1.00 20.00     0.097 C 
HETATM    7  C7  UNL     1     -33.793  16.748  -5.045  1.00 20.00    -0.013 C 
HETATM    8  C8  UNL     1     -34.576  15.413  -3.443  1.00 20.00     0.003 C 
HETATM    9  N9  UNL     1     -37.439  13.978  -4.971  1.00 20.00    -0.197 NA
ENDROOT
TORSDOF 0
ENDMDL
MODEL 9
REMARK VINA RESULT:      -3.8     12.139     12.931
REMARK  0 active torsions:
REMARK  status: ('A' for Active; 'I' for Inactive)
ROOT
HETATM    1  C1  UNL     1     -32.437  18.446  -0.688  1.00 20.00     0.064 C 
HETATM    2  C2  UNL     1     -34.481  16.246  -2.727  1.00 20.00     0.005 C 
HETATM    3  C3  UNL     1     -33.569  17.365  -3.249  1.00 20.00     0.006 C 
HETATM    4  C4  UNL     1     -34.737  17.444  -0.545  1.00 20.00     0.024 C 
HETATM    5  C5  UNL     1     -35.631  18.325  -2.579  1.00 20.00     0.010 C 
HETATM    6  C6  UNL     1     -33.852  18.607  -1.035  1.00 20.00     0.097 C 
HETATM    7  C7  UNL     1     -35.471  17.003  -1.826  1.00 20.00    -0.013 C 
HETATM    8  C8  UNL     1     -34.129  18.624  -2.557  1.00 20.00     0.003 C 
HETATM    9  N9  UNL     1     -31.318  18.318  -0.412  1.00 20.00    -0.197 NA
ENDROOT
TORSDOF 0
ENDMDL
