MODEL 1
REMARK VINA RESULT:      -3.6      0.000      0.000
REMARK  0 active torsions:
REMARK  status: ('A' for Active; 'I' for Inactive)
ROOT
HETATM    1  C1  UNL     1     -33.314   7.716   3.256  1.00 20.00     0.018 A 
HETATM    2  C2  UNL     1     -32.961   7.036   4.555  1.00 20.00     0.018 A 
HETATM    3  C3  UNL     1     -33.749   6.286   3.502  1.00 20.00     0.083 A 
HETATM    4  C4  UNL     1     -32.233   8.090   2.299  1.00 20.00     0.012 C 
HETATM    5  C5  UNL     1     -33.559   7.524   5.831  1.00 20.00     0.012 C 
HETATM    6 BR6  UNL     1     -35.619   5.955   3.727  1.00 20.00    -0.072 Br
HETATM    7 BR7  UNL     1     -32.884   4.830   2.615  1.00 20.00    -0.072 Br
ENDROOT
TORSDOF 0
ENDMDL
MODEL 2
REMARK VINA RESULT:      -3.6      0.013      2.768
REMARK  0 active torsions:
REMARK  status: ('A' for Active; 'I' for Inactive)
ROOT
HETATM    1  C1  UNL     1     -32.969   7.035   4.565  1.00 20.00     0.018 A 
HETATM    2  C2  UNL     1     -33.324   7.718   3.267  1.00 20.00     0.018 A 
HETATM    3  C3  UNL     1     -33.757   6.287   3.509  1.00 20.00     0.083 A 
HETATM    4  C4  UNL     1     -33.568   7.519   5.842  1.00 20.00     0.012 C 
HETATM    5  C5  UNL     1     -32.243   8.095   2.311  1.00 20.00     0.012 C 
HETATM    6 BR6  UNL     1     -32.887   4.835   2.618  1.00 20.00    -0.072 Br
HETATM    7 BR7  UNL     1     -35.625   5.951   3.732  1.00 20.00    -0.072 Br
ENDROOT
TORSDOF 0
ENDMDL
MODEL 3
REMARK VINA RESULT:      -3.6      2.135      2.848
REMARK  0 active torsions:
REMARK  status: ('A' for Active; 'I' for Inactive)
ROOT
HETATM    1  C1  UNL     1     -33.584   5.269   3.483  1.00 20.00     0.018 A 
HETATM    2  C2  UNL     1     -34.650   6.241   3.040  1.00 20.00     0.018 A 
HETATM    3  C3  UNL     1     -33.454   6.739   3.824  1.00 20.00     0.083 A 
HETATM    4  C4  UNL     1     -32.737   4.587   2.465  1.00 20.00     0.012 C 
HETATM    5  C5  UNL     1     -36.023   6.145   3.616  1.00 20.00     0.012 C 
HETATM    6 BR6  UNL     1     -33.625   7.242   5.661  1.00 20.00    -0.072 Br
HETATM    7 BR7  UNL     1     -32.195   7.851   2.910  1.00 20.00    -0.072 Br
ENDROOT
TORSDOF 0
ENDMDL
MODEL 4
REMARK VINA RESULT:      -3.5      2.136      3.407
REMARK  0 active torsions:
REMARK  status: ('A' for Active; 'I' for Inactive)
ROOT
HETATM    1  C1  UNL     1     -34.648   6.235   3.039  1.00 20.00     0.018 A 
HETATM    2  C2  UNL     1     -33.574   5.269   3.476  1.00 20.00     0.018 A 
HETATM    3  C3  UNL     1     -33.448   6.740   3.813  1.00 20.00     0.083 A 
HETATM    4  C4  UNL     1     -36.015   6.134   3.623  1.00 20.00     0.012 C 
HETATM    5  C5  UNL     1     -32.730   4.589   2.451  1.00 20.00     0.012 C 
HETATM    6 BR6  UNL     1     -32.200   7.856   2.887  1.00 20.00    -0.072 Br
HETATM    7 BR7  UNL     1     -33.606   7.245   5.650  1.00 20.00    -0.072 Br
ENDROOT
TORSDOF 0
ENDMDL
MODEL 5
REMARK VINA RESULT:      -3.1     12.013     12.643
REMARK  0 active torsions:
REMARK  status: ('A' for Active; 'I' for Inactive)
ROOT
HETATM    1  C1  UNL     1     -33.672  16.539  -2.586  1.00 20.00     0.018 A 
HETATM    2  C2  UNL     1     -34.851  17.373  -2.151  1.00 20.00     0.018 A 
HETATM    3  C3  UNL     1     -33.490  18.017  -2.309  1.00 20.00     0.083 A 
HETATM    4  C4  UNL     1     -33.646  15.954  -3.957  1.00 20.00     0.012 C 
HETATM    5  C5  UNL     1     -35.487  17.119  -0.826  1.00 20.00     0.012 C 
HETATM    6 BR6  UNL     1     -32.454  18.511  -0.779  1.00 20.00    -0.072 Br
HETATM    7 BR7  UNL     1     -33.259  19.263  -3.741  1.00 20.00    -0.072 Br
ENDROOT
TORSDOF 0
ENDMDL
MODEL 6
REMARK VINA RESULT:      -3.1     12.010     12.787
REMARK  0 active torsions:
REMARK  status: ('A' for Active; 'I' for Inactive)
ROOT
HETATM    1  C1  UNL     1     -34.856  17.355  -2.186  1.00 20.00     0.018 A 
HETATM    2  C2  UNL     1     -33.667  16.529  -2.610  1.00 20.00     0.018 A 
HETATM    3  C3  UNL     1     -33.496  18.007  -2.326  1.00 20.00     0.083 A 
HETATM    4  C4  UNL     1     -35.506  17.092  -0.870  1.00 20.00     0.012 C 
HETATM    5  C5  UNL     1     -33.621  15.950  -3.984  1.00 20.00     0.012 C 
HETATM    6 BR6  UNL     1     -33.257  19.260  -3.752  1.00 20.00    -0.072 Br
HETATM    7 BR7  UNL     1     -32.482  18.503  -0.784  1.00 20.00    -0.072 Br
ENDROOT
TORSDOF 0
ENDMDL
MODEL 7
REMARK VINA RESULT:      -3.1     11.938     12.578
REMARK  0 active torsions:
REMARK  status: ('A' for Active; 'I' for Inactive)
ROOT
HETATM    1  C1  UNL     1     -34.833  16.409  -2.686  1.00 20.00     0.018 A 
HETATM    2  C2  UNL     1     -33.983  15.641  -3.668  1.00 20.00     0.018 A 
HETATM    3  C3  UNL     1     -34.674  16.917  -4.105  1.00 20.00     0.083 A 
HETATM    4  C4  UNL     1     -34.194  17.061  -1.507  1.00 20.00     0.012 C 
HETATM    5  C5  UNL     1     -34.412  14.285  -4.114  1.00 20.00     0.012 C 
HETATM    6 BR6  UNL     1     -36.210  16.861  -5.243  1.00 20.00    -0.072 Br
HETATM    7 BR7  UNL     1     -33.576  18.434  -4.487  1.00 20.00    -0.072 Br
ENDROOT
TORSDOF 0
ENDMDL
MODEL 8
REMARK VINA RESULT:      -3.1     11.839     12.504
REMARK  0 active torsions:
REMARK  status: ('A' for Active; 'I' for Inactive)
ROOT
HETATM    1  C1  UNL     1     -33.985  15.489  -3.810  1.00 20.00     0.018 A 
HETATM    2  C2  UNL     1     -34.760  16.299  -2.800  1.00 20.00     0.018 A 
HETATM    3  C3  UNL     1     -34.716  16.742  -4.248  1.00 20.00     0.083 A 
HETATM    4  C4  UNL     1     -34.439  14.113  -4.159  1.00 20.00     0.012 C 
HETATM    5  C5  UNL     1     -34.034  17.006  -1.706  1.00 20.00     0.012 C 
HETATM    6 BR6  UNL     1     -33.659  18.243  -4.783  1.00 20.00    -0.072 Br
HETATM    7 BR7  UNL     1     -36.334  16.632  -5.259  1.00 20.00    -0.072 Br
ENDROOT
TORSDOF 0
ENDMDL
MODEL 9
REMARK VINA RESULT:      -3.0      1.780      2.335
REMARK  0 active torsions:
REMARK  status: ('A' for Active; 'I' for Inactive)
ROOT
HETATM    1  C1  UNL     1     -34.205   6.941   2.949  1.00 20.00     0.018 A 
HETATM    2  C2  UNL     1     -32.738   6.662   3.168  1.00 20.00     0.018 A 
HETATM    3  C3  UNL     1     -33.750   6.235   4.211  1.00 20.00     0.083 A 
HETATM    4  C4  UNL     1     -34.931   6.254   1.844  1.00 20.00     0.012 C 
HETATM    5  C5  UNL     1     -31.791   7.797   3.364  1.00 20.00     0.012 C 
HETATM    6 BR6  UNL     1     -33.914   7.182   5.864  1.00 20.00    -0.072 Br
HETATM    7 BR7  UNL     1     -34.044   4.361   4.447  1.00 20.00    -0.072 Br
ENDROOT
TORSDOF 0
ENDMDL
