MODEL 1
REMARK VINA RESULT:      -4.7      0.000      0.000
REMARK  0 active torsions:
REMARK  status: ('A' for Active; 'I' for Inactive)
ROOT
HETATM    1  C1  UNL     1     -34.884  16.286  -3.244  1.00 20.00     0.009 C 
HETATM    2  C2  UNL     1     -33.295  15.993  -5.162  1.00 20.00     0.012 C 
HETATM    3  C3  UNL     1     -35.576  16.959  -5.561  1.00 20.00     0.012 C 
HETATM    4  C4  UNL     1     -34.331  13.983  -4.074  1.00 20.00     0.051 C 
HETATM    5  C5  UNL     1     -36.611  14.949  -4.472  1.00 20.00     0.051 C 
HETATM    6  C6  UNL     1     -33.770  15.394  -3.825  1.00 20.00    -0.010 C 
HETATM    7  C7  UNL     1     -36.067  16.366  -4.226  1.00 20.00    -0.010 C 
HETATM    8  C8  UNL     1     -34.470  16.071  -6.157  1.00 20.00     0.024 C 
HETATM    9  C9  UNL     1     -35.033  14.660  -6.389  1.00 20.00     0.213 C 
HETATM   10  C10 UNL     1     -35.504  14.063  -5.059  1.00 20.00     0.135 C 
HETATM   11  F11 UNL     1     -34.052  13.872  -6.909  1.00 20.00    -0.246 F 
HETATM   12  F12 UNL     1     -35.998  12.818  -5.277  1.00 20.00    -0.240 F 
ENDROOT
TORSDOF 0
ENDMDL
MODEL 2
REMARK VINA RESULT:      -4.7      2.176      3.292
REMARK  0 active torsions:
REMARK  status: ('A' for Active; 'I' for Inactive)
ROOT
HETATM    1  C1  UNL     1     -33.888  15.148  -6.762  1.00 20.00     0.009 C 
HETATM    2  C2  UNL     1     -33.077  14.586  -4.456  1.00 20.00     0.012 C 
HETATM    3  C3  UNL     1     -35.389  13.918  -5.169  1.00 20.00     0.012 C 
HETATM    4  C4  UNL     1     -33.573  16.969  -5.064  1.00 20.00     0.051 C 
HETATM    5  C5  UNL     1     -35.883  16.302  -5.778  1.00 20.00     0.051 C 
HETATM    6  C6  UNL     1     -33.019  15.632  -5.585  1.00 20.00    -0.010 C 
HETATM    7  C7  UNL     1     -35.346  14.960  -6.303  1.00 20.00    -0.010 C 
HETATM    8  C8  UNL     1     -34.533  14.395  -3.983  1.00 20.00     0.024 C 
HETATM    9  C9  UNL     1     -35.082  15.738  -3.478  1.00 20.00     0.213 C 
HETATM   10  C10 UNL     1     -35.023  16.779  -4.600  1.00 20.00     0.135 C 
HETATM   11  F11 UNL     1     -34.320  16.164  -2.433  1.00 20.00    -0.246 F 
HETATM   12  F12 UNL     1     -35.509  17.960  -4.142  1.00 20.00    -0.240 F 
ENDROOT
TORSDOF 0
ENDMDL
MODEL 3
REMARK VINA RESULT:      -4.6      1.149      2.802
REMARK  0 active torsions:
REMARK  status: ('A' for Active; 'I' for Inactive)
ROOT
HETATM    1  C1  UNL     1     -33.699  17.018  -5.169  1.00 20.00     0.009 C 
HETATM    2  C2  UNL     1     -35.157  15.738  -3.581  1.00 20.00     0.012 C 
HETATM    3  C3  UNL     1     -33.096  14.666  -4.529  1.00 20.00     0.012 C 
HETATM    4  C4  UNL     1     -35.969  16.239  -5.901  1.00 20.00     0.051 C 
HETATM    5  C5  UNL     1     -33.909  15.170  -6.849  1.00 20.00     0.051 C 
HETATM    6  C6  UNL     1     -35.151  16.779  -4.716  1.00 20.00    -0.010 C 
HETATM    7  C7  UNL     1     -33.076  15.701  -5.670  1.00 20.00    -0.010 C 
HETATM    8  C8  UNL     1     -34.543  14.412  -4.073  1.00 20.00     0.024 C 
HETATM    9  C9  UNL     1     -35.358  13.887  -5.266  1.00 20.00     0.213 C 
HETATM   10  C10 UNL     1     -35.354  14.924  -6.394  1.00 20.00     0.135 C 
HETATM   11  F11 UNL     1     -36.641  13.669  -4.865  1.00 20.00    -0.246 F 
HETATM   12  F12 UNL     1     -36.076  14.450  -7.440  1.00 20.00    -0.240 F 
ENDROOT
TORSDOF 0
ENDMDL
MODEL 4
REMARK VINA RESULT:      -4.5      1.004      2.772
REMARK  0 active torsions:
REMARK  status: ('A' for Active; 'I' for Inactive)
ROOT
HETATM    1  C1  UNL     1     -35.086  17.573  -5.510  1.00 20.00     0.009 C 
HETATM    2  C2  UNL     1     -36.017  15.991  -3.801  1.00 20.00     0.012 C 
HETATM    3  C3  UNL     1     -33.595  16.642  -3.717  1.00 20.00     0.012 C 
HETATM    4  C4  UNL     1     -35.738  15.245  -6.180  1.00 20.00     0.051 C 
HETATM    5  C5  UNL     1     -33.318  15.897  -6.098  1.00 20.00     0.051 C 
HETATM    6  C6  UNL     1     -36.097  16.435  -5.274  1.00 20.00    -0.010 C 
HETATM    7  C7  UNL     1     -33.659  17.091  -5.190  1.00 20.00    -0.010 C 
HETATM    8  C8  UNL     1     -34.594  15.498  -3.471  1.00 20.00     0.024 C 
HETATM    9  C9  UNL     1     -34.239  14.319  -4.390  1.00 20.00     0.213 C 
HETATM   10  C10 UNL     1     -34.320  14.760  -5.855  1.00 20.00     0.135 C 
HETATM   11  F11 UNL     1     -35.127  13.309  -4.179  1.00 20.00    -0.246 F 
HETATM   12  F12 UNL     1     -34.006  13.711  -6.657  1.00 20.00    -0.240 F 
ENDROOT
TORSDOF 0
ENDMDL
MODEL 5
REMARK VINA RESULT:      -4.5      1.259      2.090
REMARK  0 active torsions:
REMARK  status: ('A' for Active; 'I' for Inactive)
ROOT
HETATM    1  C1  UNL     1     -33.502  17.235  -4.665  1.00 20.00     0.009 C 
HETATM    2  C2  UNL     1     -33.040  14.776  -4.485  1.00 20.00     0.012 C 
HETATM    3  C3  UNL     1     -33.903  15.734  -6.637  1.00 20.00     0.012 C 
HETATM    4  C4  UNL     1     -34.982  15.780  -3.254  1.00 20.00     0.051 C 
HETATM    5  C5  UNL     1     -35.845  16.739  -5.405  1.00 20.00     0.051 C 
HETATM    6  C6  UNL     1     -33.536  16.018  -3.720  1.00 20.00    -0.010 C 
HETATM    7  C7  UNL     1     -34.404  16.983  -5.887  1.00 20.00    -0.010 C 
HETATM    8  C8  UNL     1     -33.941  14.510  -5.707  1.00 20.00     0.024 C 
HETATM    9  C9  UNL     1     -35.386  14.287  -5.233  1.00 20.00     0.213 C 
HETATM   10  C10 UNL     1     -35.879  15.521  -4.471  1.00 20.00     0.135 C 
HETATM   11  F11 UNL     1     -35.419  13.208  -4.404  1.00 20.00    -0.246 F 
HETATM   12  F12 UNL     1     -37.154  15.313  -4.057  1.00 20.00    -0.240 F 
ENDROOT
TORSDOF 0
ENDMDL
MODEL 6
REMARK VINA RESULT:      -4.5      1.198      2.278
REMARK  0 active torsions:
REMARK  status: ('A' for Active; 'I' for Inactive)
ROOT
HETATM    1  C1  UNL     1     -36.291  16.657  -4.893  1.00 20.00     0.009 C 
HETATM    2  C2  UNL     1     -34.651  15.908  -3.149  1.00 20.00     0.012 C 
HETATM    3  C3  UNL     1     -33.907  17.436  -4.994  1.00 20.00     0.012 C 
HETATM    4  C4  UNL     1     -35.511  14.272  -4.845  1.00 20.00     0.051 C 
HETATM    5  C5  UNL     1     -34.769  15.800  -6.690  1.00 20.00     0.051 C 
HETATM    6  C6  UNL     1     -35.879  15.487  -3.978  1.00 20.00    -0.010 C 
HETATM    7  C7  UNL     1     -35.131  17.026  -5.836  1.00 20.00    -0.010 C 
HETATM    8  C8  UNL     1     -33.480  16.273  -4.083  1.00 20.00     0.024 C 
HETATM    9  C9  UNL     1     -33.128  15.058  -4.955  1.00 20.00     0.213 C 
HETATM   10  C10 UNL     1     -34.350  14.638  -5.778  1.00 20.00     0.135 C 
HETATM   11  F11 UNL     1     -32.758  14.026  -4.149  1.00 20.00    -0.246 F 
HETATM   12  F12 UNL     1     -34.029  13.565  -6.543  1.00 20.00    -0.240 F 
ENDROOT
TORSDOF 0
ENDMDL
MODEL 7
REMARK VINA RESULT:      -4.5      1.795      2.970
REMARK  0 active torsions:
REMARK  status: ('A' for Active; 'I' for Inactive)
ROOT
HETATM    1  C1  UNL     1     -36.788  14.570  -6.470  1.00 20.00     0.009 C 
HETATM    2  C2  UNL     1     -34.992  16.122  -7.280  1.00 20.00     0.012 C 
HETATM    3  C3  UNL     1     -34.518  13.669  -7.050  1.00 20.00     0.012 C 
HETATM    4  C4  UNL     1     -35.736  16.207  -4.885  1.00 20.00     0.051 C 
HETATM    5  C5  UNL     1     -35.264  13.754  -4.655  1.00 20.00     0.051 C 
HETATM    6  C6  UNL     1     -36.201  15.988  -6.335  1.00 20.00    -0.010 C 
HETATM    7  C7  UNL     1     -35.725  13.518  -6.104  1.00 20.00    -0.010 C 
HETATM    8  C8  UNL     1     -33.917  15.078  -6.917  1.00 20.00     0.024 C 
HETATM    9  C9  UNL     1     -33.469  15.295  -5.464  1.00 20.00     0.213 C 
HETATM   10  C10 UNL     1     -34.671  15.164  -4.524  1.00 20.00     0.135 C 
HETATM   11  F11 UNL     1     -32.943  16.545  -5.343  1.00 20.00    -0.246 F 
HETATM   12  F12 UNL     1     -34.264  15.358  -3.245  1.00 20.00    -0.240 F 
ENDROOT
TORSDOF 0
ENDMDL
MODEL 8
REMARK VINA RESULT:      -4.4      2.124      3.164
REMARK  0 active torsions:
REMARK  status: ('A' for Active; 'I' for Inactive)
ROOT
HETATM    1  C1  UNL     1     -35.392  13.934  -5.031  1.00 20.00     0.009 C 
HETATM    2  C2  UNL     1     -34.001  15.097  -6.764  1.00 20.00     0.012 C 
HETATM    3  C3  UNL     1     -33.051  14.655  -4.484  1.00 20.00     0.012 C 
HETATM    4  C4  UNL     1     -35.955  16.279  -5.724  1.00 20.00     0.051 C 
HETATM    5  C5  UNL     1     -35.006  15.836  -3.445  1.00 20.00     0.051 C 
HETATM    6  C6  UNL     1     -35.429  14.919  -6.215  1.00 20.00    -0.010 C 
HETATM    7  C7  UNL     1     -34.473  14.473  -3.920  1.00 20.00    -0.010 C 
HETATM    8  C8  UNL     1     -33.072  15.645  -5.661  1.00 20.00     0.024 C 
HETATM    9  C9  UNL     1     -33.613  16.996  -5.167  1.00 20.00     0.213 C 
HETATM   10  C10 UNL     1     -35.034  16.820  -4.623  1.00 20.00     0.135 C 
HETATM   11  F11 UNL     1     -33.640  17.870  -6.210  1.00 20.00    -0.246 F 
HETATM   12  F12 UNL     1     -35.501  18.018  -4.192  1.00 20.00    -0.240 F 
ENDROOT
TORSDOF 0
ENDMDL
MODEL 9
REMARK VINA RESULT:      -4.4      1.553      2.764
REMARK  0 active torsions:
REMARK  status: ('A' for Active; 'I' for Inactive)
ROOT
HETATM    1  C1  UNL     1     -36.741  14.909  -4.510  1.00 20.00     0.009 C 
HETATM    2  C2  UNL     1     -34.417  14.058  -4.102  1.00 20.00     0.012 C 
HETATM    3  C3  UNL     1     -35.165  16.212  -3.054  1.00 20.00     0.012 C 
HETATM    4  C4  UNL     1     -35.051  14.935  -6.366  1.00 20.00     0.051 C 
HETATM    5  C5  UNL     1     -35.801  17.087  -5.319  1.00 20.00     0.051 C 
HETATM    6  C6  UNL     1     -35.552  14.155  -5.138  1.00 20.00    -0.010 C 
HETATM    7  C7  UNL     1     -36.306  16.323  -4.083  1.00 20.00    -0.010 C 
HETATM    8  C8  UNL     1     -33.968  15.470  -3.672  1.00 20.00     0.024 C 
HETATM    9  C9  UNL     1     -33.482  16.245  -4.907  1.00 20.00     0.213 C 
HETATM   10  C10 UNL     1     -34.611  16.341  -5.938  1.00 20.00     0.135 C 
HETATM   11  F11 UNL     1     -32.428  15.585  -5.459  1.00 20.00    -0.246 F 
HETATM   12  F12 UNL     1     -34.171  17.026  -7.023  1.00 20.00    -0.240 F 
ENDROOT
TORSDOF 0
ENDMDL
