MODEL 1
REMARK VINA RESULT:      -5.5      0.000      0.000
REMARK  5 active torsions:
REMARK  status: ('A' for Active; 'I' for Inactive)
REMARK    1  A    between atoms: C1_1  and  C2_2 
REMARK    2  A    between atoms: C1_1  and  C3_3 
REMARK    3  A    between atoms: C2_2  and  C7_7 
REMARK    4  A    between atoms: C7_7  and  C8_8 
REMARK    5  A    between atoms: C8_8  and  O9_9 
ROOT
HETATM    1  C2  UNL     1     -32.978   7.206   3.376  1.00 20.00     0.070 C 
ENDROOT
BRANCH   1   2
HETATM    2  C1  UNL     1     -32.655   8.050   2.438  1.00 20.00    -0.166 C 
BRANCH   2   3
HETATM    3  C3  UNL     1     -32.323   8.893   1.499  1.00 20.00     0.022 C 
HETATM    4  C4  UNL     1     -31.279   8.574   0.468  1.00 20.00     0.029 C 
HETATM    5  C5  UNL     1     -32.962  10.247   1.372  1.00 20.00     0.029 C 
ENDBRANCH   2   3
ENDBRANCH   1   2
BRANCH   1   6
HETATM    6  C7  UNL     1     -33.827   5.984   3.174  1.00 20.00     0.048 C 
BRANCH   6   7
HETATM    7  C8  UNL     1     -34.800   5.769   4.336  1.00 20.00     0.115 C 
HETATM    8  C6  UNL     1     -34.250   6.362   5.627  1.00 20.00     0.039 C 
BRANCH   7   9
HETATM    9  O9  UNL     1     -34.991   4.369   4.525  1.00 20.00    -0.396 OA
HETATM   10  H23 UNL     1     -34.593   3.931   3.757  1.00 20.00     0.210 HD
ENDBRANCH   7   9
ENDBRANCH   6   7
ENDBRANCH   1   6
TORSDOF 5
ENDMDL
MODEL 2
REMARK VINA RESULT:      -5.5      0.019      1.197
REMARK  5 active torsions:
REMARK  status: ('A' for Active; 'I' for Inactive)
REMARK    1  A    between atoms: C1_1  and  C2_2 
REMARK    2  A    between atoms: C1_1  and  C3_3 
REMARK    3  A    between atoms: C2_2  and  C7_7 
REMARK    4  A    between atoms: C7_7  and  C8_8 
REMARK    5  A    between atoms: C8_8  and  O9_9 
ROOT
HETATM    1  C2  UNL     1     -32.983   7.224   3.391  1.00 20.00     0.070 C 
ENDROOT
BRANCH   1   2
HETATM    2  C1  UNL     1     -32.652   8.060   2.449  1.00 20.00    -0.166 C 
BRANCH   2   3
HETATM    3  C3  UNL     1     -32.328   8.897   1.502  1.00 20.00     0.022 C 
HETATM    4  C4  UNL     1     -32.984  10.240   1.359  1.00 20.00     0.029 C 
HETATM    5  C5  UNL     1     -31.270   8.585   0.481  1.00 20.00     0.029 C 
ENDBRANCH   2   3
ENDBRANCH   1   2
BRANCH   1   6
HETATM    6  C7  UNL     1     -33.828   5.998   3.189  1.00 20.00     0.048 C 
BRANCH   6   7
HETATM    7  C8  UNL     1     -34.800   5.781   4.352  1.00 20.00     0.115 C 
HETATM    8  C6  UNL     1     -34.245   6.363   5.646  1.00 20.00     0.039 C 
BRANCH   7   9
HETATM    9  O9  UNL     1     -34.997   4.380   4.533  1.00 20.00    -0.396 OA
HETATM   10  H23 UNL     1     -34.283   3.937   4.049  1.00 20.00     0.210 HD
ENDBRANCH   7   9
ENDBRANCH   6   7
ENDBRANCH   1   6
TORSDOF 5
ENDMDL
MODEL 3
REMARK VINA RESULT:      -5.5      2.729      5.000
REMARK  5 active torsions:
REMARK  status: ('A' for Active; 'I' for Inactive)
REMARK    1  A    between atoms: C1_1  and  C2_2 
REMARK    2  A    between atoms: C1_1  and  C3_3 
REMARK    3  A    between atoms: C2_2  and  C7_7 
REMARK    4  A    between atoms: C7_7  and  C8_8 
REMARK    5  A    between atoms: C8_8  and  O9_9 
ROOT
HETATM    1  C2  UNL     1     -31.737   8.278   2.928  1.00 20.00     0.070 C 
ENDROOT
BRANCH   1   2
HETATM    2  C1  UNL     1     -32.671   7.649   3.582  1.00 20.00    -0.166 C 
BRANCH   2   3
HETATM    3  C3  UNL     1     -33.604   7.020   4.244  1.00 20.00     0.022 C 
HETATM    4  C4  UNL     1     -33.788   7.191   5.725  1.00 20.00     0.029 C 
HETATM    5  C5  UNL     1     -34.568   6.080   3.579  1.00 20.00     0.029 C 
ENDBRANCH   2   3
ENDBRANCH   1   2
BRANCH   1   6
HETATM    6  C7  UNL     1     -31.745   8.521   1.446  1.00 20.00     0.048 C 
BRANCH   6   7
HETATM    7  C8  UNL     1     -32.874   9.469   1.032  1.00 20.00     0.115 C 
HETATM    8  C6  UNL     1     -33.115   9.411  -0.471  1.00 20.00     0.039 C 
BRANCH   7   9
HETATM    9  O9  UNL     1     -32.509  10.802   1.382  1.00 20.00    -0.396 OA
HETATM   10  H23 UNL     1     -32.041  11.169   0.616  1.00 20.00     0.210 HD
ENDBRANCH   7   9
ENDBRANCH   6   7
ENDBRANCH   1   6
TORSDOF 5
ENDMDL
MODEL 4
REMARK VINA RESULT:      -5.4      2.728      4.936
REMARK  5 active torsions:
REMARK  status: ('A' for Active; 'I' for Inactive)
REMARK    1  A    between atoms: C1_1  and  C2_2 
REMARK    2  A    between atoms: C1_1  and  C3_3 
REMARK    3  A    between atoms: C2_2  and  C7_7 
REMARK    4  A    between atoms: C7_7  and  C8_8 
REMARK    5  A    between atoms: C8_8  and  O9_9 
ROOT
HETATM    1  C2  UNL     1     -31.720   8.274   2.930  1.00 20.00     0.070 C 
ENDROOT
BRANCH   1   2
HETATM    2  C1  UNL     1     -32.661   7.640   3.569  1.00 20.00    -0.166 C 
BRANCH   2   3
HETATM    3  C3  UNL     1     -33.601   6.998   4.207  1.00 20.00     0.022 C 
HETATM    4  C4  UNL     1     -34.525   6.037   3.517  1.00 20.00     0.029 C 
HETATM    5  C5  UNL     1     -33.832   7.167   5.682  1.00 20.00     0.029 C 
ENDBRANCH   2   3
ENDBRANCH   1   2
BRANCH   1   6
HETATM    6  C7  UNL     1     -31.721   8.547   1.453  1.00 20.00     0.048 C 
BRANCH   6   7
HETATM    7  C8  UNL     1     -32.868   9.477   1.049  1.00 20.00     0.115 C 
HETATM    8  C6  UNL     1     -33.136   9.398  -0.449  1.00 20.00     0.039 C 
BRANCH   7   9
HETATM    9  O9  UNL     1     -32.511  10.818   1.376  1.00 20.00    -0.396 OA
HETATM   10  H23 UNL     1     -33.338  11.283   1.574  1.00 20.00     0.210 HD
ENDBRANCH   7   9
ENDBRANCH   6   7
ENDBRANCH   1   6
TORSDOF 5
ENDMDL
MODEL 5
REMARK VINA RESULT:      -5.3      0.919      1.605
REMARK  5 active torsions:
REMARK  status: ('A' for Active; 'I' for Inactive)
REMARK    1  A    between atoms: C1_1  and  C2_2 
REMARK    2  A    between atoms: C1_1  and  C3_3 
REMARK    3  A    between atoms: C2_2  and  C7_7 
REMARK    4  A    between atoms: C7_7  and  C8_8 
REMARK    5  A    between atoms: C8_8  and  O9_9 
ROOT
HETATM    1  C2  UNL     1     -33.781   5.935   2.750  1.00 20.00     0.070 C 
ENDROOT
BRANCH   1   2
HETATM    2  C1  UNL     1     -32.981   6.958   2.658  1.00 20.00    -0.166 C 
BRANCH   2   3
HETATM    3  C3  UNL     1     -32.183   7.987   2.572  1.00 20.00     0.022 C 
HETATM    4  C4  UNL     1     -31.310   8.421   3.714  1.00 20.00     0.029 C 
HETATM    5  C5  UNL     1     -32.072   8.817   1.324  1.00 20.00     0.029 C 
ENDBRANCH   2   3
ENDBRANCH   1   2
BRANCH   1   6
HETATM    6  C7  UNL     1     -35.081   5.930   3.502  1.00 20.00     0.048 C 
BRANCH   6   7
HETATM    7  C8  UNL     1     -35.028   5.007   4.723  1.00 20.00     0.115 C 
HETATM    8  C6  UNL     1     -34.350   5.696   5.901  1.00 20.00     0.039 C 
BRANCH   7   9
HETATM    9  O9  UNL     1     -34.278   3.841   4.387  1.00 20.00    -0.396 OA
HETATM   10  H23 UNL     1     -33.930   3.489   5.220  1.00 20.00     0.210 HD
ENDBRANCH   7   9
ENDBRANCH   6   7
ENDBRANCH   1   6
TORSDOF 5
ENDMDL
MODEL 6
REMARK VINA RESULT:      -4.9      2.075      4.796
REMARK  5 active torsions:
REMARK  status: ('A' for Active; 'I' for Inactive)
REMARK    1  A    between atoms: C1_1  and  C2_2 
REMARK    2  A    between atoms: C1_1  and  C3_3 
REMARK    3  A    between atoms: C2_2  and  C7_7 
REMARK    4  A    between atoms: C7_7  and  C8_8 
REMARK    5  A    between atoms: C8_8  and  O9_9 
ROOT
HETATM    1  C2  UNL     1     -33.796   6.260   2.590  1.00 20.00     0.070 C 
ENDROOT
BRANCH   1   2
HETATM    2  C1  UNL     1     -33.982   6.217   3.879  1.00 20.00    -0.166 C 
BRANCH   2   3
HETATM    3  C3  UNL     1     -34.168   6.167   5.169  1.00 20.00     0.022 C 
HETATM    4  C4  UNL     1     -33.860   7.329   6.069  1.00 20.00     0.029 C 
HETATM    5  C5  UNL     1     -34.708   4.945   5.857  1.00 20.00     0.029 C 
ENDBRANCH   2   3
ENDBRANCH   1   2
BRANCH   1   6
HETATM    6  C7  UNL     1     -32.658   6.968   1.913  1.00 20.00     0.048 C 
BRANCH   6   7
HETATM    7  C8  UNL     1     -32.473   8.390   2.450  1.00 20.00     0.115 C 
HETATM    8  C6  UNL     1     -32.196   9.371   1.318  1.00 20.00     0.039 C 
BRANCH   7   9
HETATM    9  O9  UNL     1     -31.363   8.404   3.345  1.00 20.00    -0.396 OA
HETATM   10  H23 UNL     1     -31.389   7.565   3.829  1.00 20.00     0.210 HD
ENDBRANCH   7   9
ENDBRANCH   6   7
ENDBRANCH   1   6
TORSDOF 5
ENDMDL
MODEL 7
REMARK VINA RESULT:      -4.4     10.189     10.928
REMARK  5 active torsions:
REMARK  status: ('A' for Active; 'I' for Inactive)
REMARK    1  A    between atoms: C1_1  and  C2_2 
REMARK    2  A    between atoms: C1_1  and  C3_3 
REMARK    3  A    between atoms: C2_2  and  C7_7 
REMARK    4  A    between atoms: C7_7  and  C8_8 
REMARK    5  A    between atoms: C8_8  and  O9_9 
ROOT
HETATM    1  C2  UNL     1     -33.853  15.563  -3.987  1.00 20.00     0.070 C 
ENDROOT
BRANCH   1   2
HETATM    2  C1  UNL     1     -33.941  16.312  -2.925  1.00 20.00    -0.166 C 
BRANCH   2   3
HETATM    3  C3  UNL     1     -34.036  17.063  -1.862  1.00 20.00     0.022 C 
HETATM    4  C4  UNL     1     -32.919  17.959  -1.411  1.00 20.00     0.029 C 
HETATM    5  C5  UNL     1     -35.272  17.094  -1.007  1.00 20.00     0.029 C 
ENDBRANCH   2   3
ENDBRANCH   1   2
BRANCH   1   6
HETATM    6  C7  UNL     1     -34.334  14.143  -4.074  1.00 20.00     0.048 C 
BRANCH   6   7
HETATM    7  C8  UNL     1     -35.526  14.004  -5.025  1.00 20.00     0.115 C 
HETATM    8  C6  UNL     1     -36.704  14.848  -4.553  1.00 20.00     0.039 C 
BRANCH   7   9
HETATM    9  O9  UNL     1     -35.932  12.637  -5.060  1.00 20.00    -0.396 OA
HETATM   10  H23 UNL     1     -36.456  12.486  -4.258  1.00 20.00     0.210 HD
ENDBRANCH   7   9
ENDBRANCH   6   7
ENDBRANCH   1   6
TORSDOF 5
ENDMDL
MODEL 8
REMARK VINA RESULT:      -4.4     10.221     10.971
REMARK  5 active torsions:
REMARK  status: ('A' for Active; 'I' for Inactive)
REMARK    1  A    between atoms: C1_1  and  C2_2 
REMARK    2  A    between atoms: C1_1  and  C3_3 
REMARK    3  A    between atoms: C2_2  and  C7_7 
REMARK    4  A    between atoms: C7_7  and  C8_8 
REMARK    5  A    between atoms: C8_8  and  O9_9 
ROOT
HETATM    1  C2  UNL     1     -33.899  15.611  -3.983  1.00 20.00     0.070 C 
ENDROOT
BRANCH   1   2
HETATM    2  C1  UNL     1     -33.965  16.340  -2.906  1.00 20.00    -0.166 C 
BRANCH   2   3
HETATM    3  C3  UNL     1     -34.039  17.070  -1.827  1.00 20.00     0.022 C 
HETATM    4  C4  UNL     1     -35.264  17.095  -0.960  1.00 20.00     0.029 C 
HETATM    5  C5  UNL     1     -32.905  17.942  -1.366  1.00 20.00     0.029 C 
ENDBRANCH   2   3
ENDBRANCH   1   2
BRANCH   1   6
HETATM    6  C7  UNL     1     -34.356  14.184  -4.081  1.00 20.00     0.048 C 
BRANCH   6   7
HETATM    7  C8  UNL     1     -35.549  14.033  -5.029  1.00 20.00     0.115 C 
HETATM    8  C6  UNL     1     -36.733  14.866  -4.556  1.00 20.00     0.039 C 
BRANCH   7   9
HETATM    9  O9  UNL     1     -35.942  12.662  -5.061  1.00 20.00    -0.396 OA
HETATM   10  H23 UNL     1     -35.159  12.158  -5.330  1.00 20.00     0.210 HD
ENDBRANCH   7   9
ENDBRANCH   6   7
ENDBRANCH   1   6
TORSDOF 5
ENDMDL
MODEL 9
REMARK VINA RESULT:      -4.2     10.544     11.213
REMARK  5 active torsions:
REMARK  status: ('A' for Active; 'I' for Inactive)
REMARK    1  A    between atoms: C1_1  and  C2_2 
REMARK    2  A    between atoms: C1_1  and  C3_3 
REMARK    3  A    between atoms: C2_2  and  C7_7 
REMARK    4  A    between atoms: C7_7  and  C8_8 
REMARK    5  A    between atoms: C8_8  and  O9_9 
ROOT
HETATM    1  C2  UNL     1     -35.467  15.593  -3.512  1.00 20.00     0.070 C 
ENDROOT
BRANCH   1   2
HETATM    2  C1  UNL     1     -35.013  16.327  -2.537  1.00 20.00    -0.166 C 
BRANCH   2   3
HETATM    3  C3  UNL     1     -34.563  17.069  -1.562  1.00 20.00     0.022 C 
HETATM    4  C4  UNL     1     -33.182  17.659  -1.577  1.00 20.00     0.029 C 
HETATM    5  C5  UNL     1     -35.390  17.394  -0.350  1.00 20.00     0.029 C 
ENDBRANCH   2   3
ENDBRANCH   1   2
BRANCH   1   6
HETATM    6  C7  UNL     1     -34.692  14.504  -4.196  1.00 20.00     0.048 C 
BRANCH   6   7
HETATM    7  C8  UNL     1     -33.216  14.875  -4.362  1.00 20.00     0.115 C 
HETATM    8  C6  UNL     1     -32.991  15.668  -5.643  1.00 20.00     0.039 C 
BRANCH   7   9
HETATM    9  O9  UNL     1     -32.443  13.678  -4.428  1.00 20.00    -0.396 OA
HETATM   10  H23 UNL     1     -32.677  13.157  -3.645  1.00 20.00     0.210 HD
ENDBRANCH   7   9
ENDBRANCH   6   7
ENDBRANCH   1   6
TORSDOF 5
ENDMDL
