MODEL 1
REMARK VINA RESULT:      -5.3      0.000      0.000
REMARK  1 active torsions:
REMARK  status: ('A' for Active; 'I' for Inactive)
REMARK    1  A    between atoms: C8_8  and  C12_12 
ROOT
HETATM    1  C1  UNL     1     -34.201   5.482   5.803  1.00 20.00    -0.023 C 
HETATM    2  C2  UNL     1     -33.976   6.747   5.401  1.00 20.00    -0.081 C 
HETATM    3  C3  UNL     1     -34.575   4.372   4.857  1.00 20.00     0.034 C 
HETATM    4  C4  UNL     1     -35.048   6.178   3.203  1.00 20.00     0.018 C 
HETATM    5  C5  UNL     1     -32.963   4.785   2.938  1.00 20.00     0.173 C 
HETATM    6  C6  UNL     1     -34.118   7.156   3.935  1.00 20.00     0.043 C 
HETATM    7  C7  UNL     1     -34.443   4.782   3.377  1.00 20.00     0.014 C 
HETATM    8  C8  UNL     1     -32.729   7.146   3.243  1.00 20.00     0.133 C 
HETATM    9  C9  UNL     1     -33.588   7.830   6.365  1.00 20.00     0.043 C 
HETATM   10  O13 UNL     1     -32.587   6.030   2.350  1.00 20.00    -0.384 OA
ENDROOT
BRANCH   8  11
HETATM   11  C12 UNL     1     -32.530   8.403   2.401  1.00 20.00     0.007 C 
HETATM   12  C10 UNL     1     -31.737   9.450   3.179  1.00 20.00     0.012 C 
HETATM   13  C11 UNL     1     -31.828   8.062   1.088  1.00 20.00     0.012 C 
ENDBRANCH   8  11
TORSDOF 1
ENDMDL
MODEL 2
REMARK VINA RESULT:      -4.8     11.660     13.034
REMARK  1 active torsions:
REMARK  status: ('A' for Active; 'I' for Inactive)
REMARK    1  A    between atoms: C8_8  and  C12_12 
ROOT
HETATM    1  C1  UNL     1     -34.056  16.609  -6.782  1.00 20.00    -0.023 C 
HETATM    2  C2  UNL     1     -33.737  17.243  -5.637  1.00 20.00    -0.081 C 
HETATM    3  C3  UNL     1     -34.139  15.110  -6.898  1.00 20.00     0.034 C 
HETATM    4  C4  UNL     1     -32.926  15.051  -4.719  1.00 20.00     0.018 C 
HETATM    5  C5  UNL     1     -35.389  14.513  -4.768  1.00 20.00     0.173 C 
HETATM    6  C6  UNL     1     -33.399  16.469  -4.364  1.00 20.00     0.043 C 
HETATM    7  C7  UNL     1     -34.050  14.403  -5.530  1.00 20.00     0.014 C 
HETATM    8  C8  UNL     1     -34.652  16.370  -3.454  1.00 20.00     0.133 C 
HETATM    9  C9  UNL     1     -33.678  18.740  -5.549  1.00 20.00     0.043 C 
HETATM   10  O13 UNL     1     -35.210  15.046  -3.457  1.00 20.00    -0.384 OA
ENDROOT
BRANCH   8  11
HETATM   11  C12 UNL     1     -34.299  16.688  -2.004  1.00 20.00     0.007 C 
HETATM   12  C10 UNL     1     -33.245  17.790  -1.937  1.00 20.00     0.012 C 
HETATM   13  C11 UNL     1     -35.549  17.091  -1.225  1.00 20.00     0.012 C 
ENDBRANCH   8  11
TORSDOF 1
ENDMDL
MODEL 3
REMARK VINA RESULT:      -4.8     11.566     12.891
REMARK  1 active torsions:
REMARK  status: ('A' for Active; 'I' for Inactive)
REMARK    1  A    between atoms: C8_8  and  C12_12 
ROOT
HETATM    1  C1  UNL     1     -36.091  16.224  -3.043  1.00 20.00    -0.023 C 
HETATM    2  C2  UNL     1     -36.487  15.500  -4.108  1.00 20.00    -0.081 C 
HETATM    3  C3  UNL     1     -34.647  16.376  -2.642  1.00 20.00     0.034 C 
HETATM    4  C4  UNL     1     -34.201  14.462  -4.178  1.00 20.00     0.018 C 
HETATM    5  C5  UNL     1     -33.544  16.790  -4.892  1.00 20.00     0.173 C 
HETATM    6  C6  UNL     1     -35.483  14.744  -4.977  1.00 20.00     0.043 C 
HETATM    7  C7  UNL     1     -33.675  15.818  -3.700  1.00 20.00     0.014 C 
HETATM    8  C8  UNL     1     -35.122  15.587  -6.228  1.00 20.00     0.133 C 
HETATM    9  C9  UNL     1     -37.932  15.379  -4.492  1.00 20.00     0.043 C 
HETATM   10  O13 UNL     1     -33.799  16.139  -6.137  1.00 20.00    -0.384 OA
ENDROOT
BRANCH   8  11
HETATM   11  C12 UNL     1     -35.147  14.730  -7.490  1.00 20.00     0.007 C 
HETATM   12  C10 UNL     1     -33.728  14.362  -7.917  1.00 20.00     0.012 C 
HETATM   13  C11 UNL     1     -35.985  13.473  -7.267  1.00 20.00     0.012 C 
ENDBRANCH   8  11
TORSDOF 1
ENDMDL
MODEL 4
REMARK VINA RESULT:      -4.7     11.731     12.855
REMARK  1 active torsions:
REMARK  status: ('A' for Active; 'I' for Inactive)
REMARK    1  A    between atoms: C8_8  and  C12_12 
ROOT
HETATM    1  C1  UNL     1     -35.487  14.362  -6.581  1.00 20.00    -0.023 C 
HETATM    2  C2  UNL     1     -36.106  14.923  -5.525  1.00 20.00    -0.081 C 
HETATM    3  C3  UNL     1     -34.139  14.813  -7.080  1.00 20.00     0.034 C 
HETATM    4  C4  UNL     1     -34.490  16.839  -5.669  1.00 20.00     0.018 C 
HETATM    5  C5  UNL     1     -32.862  15.075  -4.899  1.00 20.00     0.173 C 
HETATM    6  C6  UNL     1     -35.487  16.096  -4.767  1.00 20.00     0.043 C 
HETATM    7  C7  UNL     1     -33.453  15.808  -6.122  1.00 20.00     0.014 C 
HETATM    8  C8  UNL     1     -34.740  15.581  -3.508  1.00 20.00     0.133 C 
HETATM    9  C9  UNL     1     -37.443  14.441  -5.042  1.00 20.00     0.043 C 
HETATM   10  O13 UNL     1     -33.314  15.643  -3.670  1.00 20.00    -0.384 OA
ENDROOT
BRANCH   8  11
HETATM   11  C12 UNL     1     -35.074  16.434  -2.288  1.00 20.00     0.007 C 
HETATM   12  C10 UNL     1     -33.861  17.257  -1.861  1.00 20.00     0.012 C 
HETATM   13  C11 UNL     1     -36.265  17.344  -2.581  1.00 20.00     0.012 C 
ENDBRANCH   8  11
TORSDOF 1
ENDMDL
MODEL 5
REMARK VINA RESULT:      -4.6     11.244     12.768
REMARK  1 active torsions:
REMARK  status: ('A' for Active; 'I' for Inactive)
REMARK    1  A    between atoms: C8_8  and  C12_12 
ROOT
HETATM    1  C1  UNL     1     -34.711  14.851  -6.977  1.00 20.00    -0.023 C 
HETATM    2  C2  UNL     1     -34.368  15.655  -5.952  1.00 20.00    -0.081 C 
HETATM    3  C3  UNL     1     -35.483  13.570  -6.796  1.00 20.00     0.034 C 
HETATM    4  C4  UNL     1     -34.928  13.785  -4.373  1.00 20.00     0.018 C 
HETATM    5  C5  UNL     1     -37.273  14.295  -5.145  1.00 20.00     0.173 C 
HETATM    6  C6  UNL     1     -34.717  15.300  -4.508  1.00 20.00     0.043 C 
HETATM    7  C7  UNL     1     -36.031  13.404  -5.364  1.00 20.00     0.014 C 
HETATM    8  C8  UNL     1     -36.018  16.030  -4.080  1.00 20.00     0.133 C 
HETATM    9  C9  UNL     1     -33.613  16.934  -6.166  1.00 20.00     0.043 C 
HETATM   10  O13 UNL     1     -37.133  15.127  -3.995  1.00 20.00    -0.384 OA
ENDROOT
BRANCH   8  11
HETATM   11  C12 UNL     1     -35.863  16.657  -2.698  1.00 20.00     0.007 C 
HETATM   12  C10 UNL     1     -34.391  16.709  -2.295  1.00 20.00     0.012 C 
HETATM   13  C11 UNL     1     -36.477  18.055  -2.672  1.00 20.00     0.012 C 
ENDBRANCH   8  11
TORSDOF 1
ENDMDL
MODEL 6
REMARK VINA RESULT:      -4.5     11.787     12.929
REMARK  1 active torsions:
REMARK  status: ('A' for Active; 'I' for Inactive)
REMARK    1  A    between atoms: C8_8  and  C12_12 
ROOT
HETATM    1  C1  UNL     1     -33.635  15.675  -3.447  1.00 20.00    -0.023 C 
HETATM    2  C2  UNL     1     -34.961  15.858  -3.301  1.00 20.00    -0.081 C 
HETATM    3  C3  UNL     1     -33.036  14.846  -4.553  1.00 20.00     0.034 C 
HETATM    4  C4  UNL     1     -35.342  13.960  -4.899  1.00 20.00     0.018 C 
HETATM    5  C5  UNL     1     -34.402  15.617  -6.551  1.00 20.00     0.173 C 
HETATM    6  C6  UNL     1     -35.968  15.201  -4.244  1.00 20.00     0.043 C 
HETATM    7  C7  UNL     1     -34.074  14.433  -5.615  1.00 20.00     0.014 C 
HETATM    8  C8  UNL     1     -36.388  16.200  -5.354  1.00 20.00     0.133 C 
HETATM    9  C9  UNL     1     -35.528  16.704  -2.198  1.00 20.00     0.043 C 
HETATM   10  O13 UNL     1     -35.806  15.863  -6.623  1.00 20.00    -0.384 OA
ENDROOT
BRANCH   8  11
HETATM   11  C12 UNL     1     -37.901  16.187  -5.555  1.00 20.00     0.007 C 
HETATM   12  C10 UNL     1     -38.255  15.623  -6.929  1.00 20.00     0.012 C 
HETATM   13  C11 UNL     1     -38.581  15.380  -4.451  1.00 20.00     0.012 C 
ENDBRANCH   8  11
TORSDOF 1
ENDMDL
MODEL 7
REMARK VINA RESULT:      -4.5     11.607     12.871
REMARK  1 active torsions:
REMARK  status: ('A' for Active; 'I' for Inactive)
REMARK    1  A    between atoms: C8_8  and  C12_12 
ROOT
HETATM    1  C1  UNL     1     -34.515  15.124  -5.968  1.00 20.00    -0.023 C 
HETATM    2  C2  UNL     1     -34.054  14.994  -4.709  1.00 20.00    -0.081 C 
HETATM    3  C3  UNL     1     -35.803  15.827  -6.303  1.00 20.00     0.034 C 
HETATM    4  C4  UNL     1     -36.325  15.659  -3.870  1.00 20.00     0.018 C 
HETATM    5  C5  UNL     1     -35.646  17.890  -4.829  1.00 20.00     0.173 C 
HETATM    6  C6  UNL     1     -34.836  15.532  -3.512  1.00 20.00     0.043 C 
HETATM    7  C7  UNL     1     -36.406  16.573  -5.096  1.00 20.00     0.014 C 
HETATM    8  C8  UNL     1     -34.294  16.928  -3.106  1.00 20.00     0.133 C 
HETATM    9  C9  UNL     1     -32.757  14.301  -4.407  1.00 20.00     0.043 C 
HETATM   10  O13 UNL     1     -35.200  17.980  -3.476  1.00 20.00    -0.384 OA
ENDROOT
BRANCH   8  11
HETATM   11  C12 UNL     1     -34.113  17.025  -1.595  1.00 20.00     0.007 C 
HETATM   12  C10 UNL     1     -32.986  17.995  -1.250  1.00 20.00     0.012 C 
HETATM   13  C11 UNL     1     -35.417  17.456  -0.926  1.00 20.00     0.012 C 
ENDBRANCH   8  11
TORSDOF 1
ENDMDL
MODEL 8
REMARK VINA RESULT:      -4.4     11.535     13.220
REMARK  1 active torsions:
REMARK  status: ('A' for Active; 'I' for Inactive)
REMARK    1  A    between atoms: C8_8  and  C12_12 
ROOT
HETATM    1  C1  UNL     1     -36.643  15.448  -7.582  1.00 20.00    -0.023 C 
HETATM    2  C2  UNL     1     -36.015  16.277  -6.727  1.00 20.00    -0.081 C 
HETATM    3  C3  UNL     1     -36.246  14.007  -7.773  1.00 20.00     0.034 C 
HETATM    4  C4  UNL     1     -34.140  14.613  -6.582  1.00 20.00     0.018 C 
HETATM    5  C5  UNL     1     -35.892  13.263  -5.370  1.00 20.00     0.173 C 
HETATM    6  C6  UNL     1     -34.815  15.814  -5.902  1.00 20.00     0.043 C 
HETATM    7  C7  UNL     1     -35.214  13.532  -6.731  1.00 20.00     0.014 C 
HETATM    8  C8  UNL     1     -35.276  15.396  -4.481  1.00 20.00     0.133 C 
HETATM    9  C9  UNL     1     -36.444  17.704  -6.546  1.00 20.00     0.043 C 
HETATM   10  O13 UNL     1     -35.250  13.970  -4.309  1.00 20.00    -0.384 OA
ENDROOT
BRANCH   8  11
HETATM   11  C12 UNL     1     -34.352  15.977  -3.415  1.00 20.00     0.007 C 
HETATM   12  C10 UNL     1     -33.514  17.115  -3.993  1.00 20.00     0.012 C 
HETATM   13  C11 UNL     1     -35.159  16.461  -2.212  1.00 20.00     0.012 C 
ENDBRANCH   8  11
TORSDOF 1
ENDMDL
MODEL 9
REMARK VINA RESULT:      -4.4     11.518     12.871
REMARK  1 active torsions:
REMARK  status: ('A' for Active; 'I' for Inactive)
REMARK    1  A    between atoms: C8_8  and  C12_12 
ROOT
HETATM    1  C1  UNL     1     -34.212  15.891  -3.068  1.00 20.00    -0.023 C 
HETATM    2  C2  UNL     1     -33.849  15.267  -4.204  1.00 20.00    -0.081 C 
HETATM    3  C3  UNL     1     -35.446  16.748  -2.958  1.00 20.00     0.034 C 
HETATM    4  C4  UNL     1     -35.479  16.711  -5.452  1.00 20.00     0.018 C 
HETATM    5  C5  UNL     1     -37.156  15.321  -4.181  1.00 20.00     0.173 C 
HETATM    6  C6  UNL     1     -34.660  15.413  -5.490  1.00 20.00     0.043 C 
HETATM    7  C7  UNL     1     -36.356  16.642  -4.198  1.00 20.00     0.014 C 
HETATM    8  C8  UNL     1     -35.628  14.210  -5.648  1.00 20.00     0.133 C 
HETATM    9  C9  UNL     1     -32.622  14.406  -4.279  1.00 20.00     0.043 C 
HETATM   10  O13 UNL     1     -36.991  14.585  -5.393  1.00 20.00    -0.384 OA
ENDROOT
BRANCH   8  11
HETATM   11  C12 UNL     1     -35.590  13.662  -7.072  1.00 20.00     0.007 C 
HETATM   12  C10 UNL     1     -36.696  14.288  -7.918  1.00 20.00     0.012 C 
HETATM   13  C11 UNL     1     -34.223  13.911  -7.705  1.00 20.00     0.012 C 
ENDBRANCH   8  11
TORSDOF 1
ENDMDL
