MODEL 1
REMARK VINA RESULT:      -5.9      0.000      0.000
REMARK  1 active torsions:
REMARK  status: ('A' for Active; 'I' for Inactive)
REMARK    1  A    between atoms: C6_6  and  C7_7 
ROOT
HETATM    1  C1  UNL     1     -32.844   7.860   5.113  1.00 20.00     0.051 A 
HETATM    2  C2  UNL     1     -33.149   6.784   2.837  1.00 20.00     0.051 A 
HETATM    3  C3  UNL     1     -33.884   7.155   5.571  1.00 20.00    -0.013 A 
HETATM    4  C4  UNL     1     -34.186   6.092   3.321  1.00 20.00    -0.013 A 
HETATM    5  C5  UNL     1     -32.395   7.710   3.711  1.00 20.00     0.171 A 
HETATM    6  C6  UNL     1     -34.670   6.173   4.744  1.00 20.00     0.044 A 
HETATM    7  O8  UNL     1     -31.431   8.338   3.284  1.00 20.00    -0.289 OA
ENDROOT
BRANCH   6   8
HETATM    8  C7  UNL     1     -34.632   4.789   5.393  1.00 20.00     0.127 C 
HETATM    9 CL9  UNL     1     -33.985   3.599   4.251  1.00 20.00    -0.130 Cl
ENDBRANCH   6   8
TORSDOF 1
ENDMDL
MODEL 2
REMARK VINA RESULT:      -5.6      2.854      3.971
REMARK  1 active torsions:
REMARK  status: ('A' for Active; 'I' for Inactive)
REMARK    1  A    between atoms: C6_6  and  C7_7 
ROOT
HETATM    1  C1  UNL     1     -34.092   5.277   3.127  1.00 20.00     0.051 A 
HETATM    2  C2  UNL     1     -34.100   6.234   5.476  1.00 20.00     0.051 A 
HETATM    3  C3  UNL     1     -33.631   6.445   2.668  1.00 20.00    -0.013 A 
HETATM    4  C4  UNL     1     -33.639   7.391   4.989  1.00 20.00    -0.013 A 
HETATM    5  C5  UNL     1     -34.345   5.087   4.573  1.00 20.00     0.171 A 
HETATM    6  C6  UNL     1     -33.330   7.636   3.537  1.00 20.00     0.044 A 
HETATM    7  O8  UNL     1     -34.751   4.014   5.009  1.00 20.00    -0.289 OA
ENDROOT
BRANCH   6   8
HETATM    8  C7  UNL     1     -31.867   8.051   3.373  1.00 20.00     0.127 C 
HETATM    9 CL9  UNL     1     -31.525   8.418   1.674  1.00 20.00    -0.130 Cl
ENDBRANCH   6   8
TORSDOF 1
ENDMDL
MODEL 3
REMARK VINA RESULT:      -5.5      2.909      3.707
REMARK  1 active torsions:
REMARK  status: ('A' for Active; 'I' for Inactive)
REMARK    1  A    between atoms: C6_6  and  C7_7 
ROOT
HETATM    1  C1  UNL     1     -33.653   7.149   5.318  1.00 20.00     0.051 A 
HETATM    2  C2  UNL     1     -33.944   5.365   3.539  1.00 20.00     0.051 A 
HETATM    3  C3  UNL     1     -32.805   7.796   4.511  1.00 20.00    -0.013 A 
HETATM    4  C4  UNL     1     -33.092   6.032   2.753  1.00 20.00    -0.013 A 
HETATM    5  C5  UNL     1     -34.295   5.891   4.878  1.00 20.00     0.171 A 
HETATM    6  C6  UNL     1     -32.434   7.333   3.128  1.00 20.00     0.044 A 
HETATM    7  O8  UNL     1     -35.088   5.297   5.602  1.00 20.00    -0.289 OA
ENDROOT
BRANCH   6   8
HETATM    8  C7  UNL     1     -32.779   8.412   2.101  1.00 20.00     0.127 C 
HETATM    9 CL9  UNL     1     -31.440   8.617   0.959  1.00 20.00    -0.130 Cl
ENDBRANCH   6   8
TORSDOF 1
ENDMDL
MODEL 4
REMARK VINA RESULT:      -4.7      2.446      3.091
REMARK  1 active torsions:
REMARK  status: ('A' for Active; 'I' for Inactive)
REMARK    1  A    between atoms: C6_6  and  C7_7 
ROOT
HETATM    1  C1  UNL     1     -33.386   6.137   2.729  1.00 20.00     0.051 A 
HETATM    2  C2  UNL     1     -33.956   3.949   3.878  1.00 20.00     0.051 A 
HETATM    3  C3  UNL     1     -34.066   6.795   3.675  1.00 20.00    -0.013 A 
HETATM    4  C4  UNL     1     -34.629   4.632   4.810  1.00 20.00    -0.013 A 
HETATM    5  C5  UNL     1     -33.273   4.663   2.776  1.00 20.00     0.171 A 
HETATM    6  C6  UNL     1     -34.753   6.131   4.839  1.00 20.00     0.044 A 
HETATM    7  O8  UNL     1     -32.637   4.049   1.924  1.00 20.00    -0.289 OA
ENDROOT
BRANCH   6   8
HETATM    8  C7  UNL     1     -34.204   6.680   6.157  1.00 20.00     0.127 C 
HETATM    9 CL9  UNL     1     -32.949   7.889   5.837  1.00 20.00    -0.130 Cl
ENDBRANCH   6   8
TORSDOF 1
ENDMDL
MODEL 5
REMARK VINA RESULT:      -4.3     11.883     12.430
REMARK  1 active torsions:
REMARK  status: ('A' for Active; 'I' for Inactive)
REMARK    1  A    between atoms: C6_6  and  C7_7 
ROOT
HETATM    1  C1  UNL     1     -34.283  14.219  -4.232  1.00 20.00     0.051 A 
HETATM    2  C2  UNL     1     -36.722  14.762  -4.664  1.00 20.00     0.051 A 
HETATM    3  C3  UNL     1     -34.138  15.407  -3.634  1.00 20.00    -0.013 A 
HETATM    4  C4  UNL     1     -36.550  15.944  -4.062  1.00 20.00    -0.013 A 
HETATM    5  C5  UNL     1     -35.595  13.809  -4.777  1.00 20.00     0.171 A 
HETATM    6  C6  UNL     1     -35.251  16.406  -3.457  1.00 20.00     0.044 A 
HETATM    7  O8  UNL     1     -35.745  12.714  -5.312  1.00 20.00    -0.289 OA
ENDROOT
BRANCH   6   8
HETATM    8  C7  UNL     1     -35.444  16.721  -1.973  1.00 20.00     0.127 C 
HETATM    9 CL9  UNL     1     -33.916  17.270  -1.264  1.00 20.00    -0.130 Cl
ENDBRANCH   6   8
TORSDOF 1
ENDMDL
MODEL 6
REMARK VINA RESULT:      -4.0     12.379     13.399
REMARK  1 active torsions:
REMARK  status: ('A' for Active; 'I' for Inactive)
REMARK    1  A    between atoms: C6_6  and  C7_7 
ROOT
HETATM    1  C1  UNL     1     -34.553  14.221  -4.049  1.00 20.00     0.051 A 
HETATM    2  C2  UNL     1     -34.699  14.291  -6.580  1.00 20.00     0.051 A 
HETATM    3  C3  UNL     1     -33.689  15.242  -4.085  1.00 20.00    -0.013 A 
HETATM    4  C4  UNL     1     -33.834  15.310  -6.587  1.00 20.00    -0.013 A 
HETATM    5  C5  UNL     1     -35.131  13.684  -5.300  1.00 20.00     0.171 A 
HETATM    6  C6  UNL     1     -33.238  15.924  -5.348  1.00 20.00     0.044 A 
HETATM    7  O8  UNL     1     -35.937  12.759  -5.280  1.00 20.00    -0.289 OA
ENDROOT
BRANCH   6   8
HETATM    8  C7  UNL     1     -33.569  17.416  -5.288  1.00 20.00     0.127 C 
HETATM    9 CL9  UNL     1     -35.322  17.645  -5.176  1.00 20.00    -0.130 Cl
ENDBRANCH   6   8
TORSDOF 1
ENDMDL
MODEL 7
REMARK VINA RESULT:      -3.9     12.280     12.876
REMARK  1 active torsions:
REMARK  status: ('A' for Active; 'I' for Inactive)
REMARK    1  A    between atoms: C6_6  and  C7_7 
ROOT
HETATM    1  C1  UNL     1     -36.949  15.658  -3.986  1.00 20.00     0.051 A 
HETATM    2  C2  UNL     1     -35.655  13.653  -4.846  1.00 20.00     0.051 A 
HETATM    3  C3  UNL     1     -35.809  16.173  -3.513  1.00 20.00    -0.013 A 
HETATM    4  C4  UNL     1     -34.530  14.191  -4.363  1.00 20.00    -0.013 A 
HETATM    5  C5  UNL     1     -36.946  14.362  -4.701  1.00 20.00     0.171 A 
HETATM    6  C6  UNL     1     -34.461  15.519  -3.658  1.00 20.00     0.044 A 
HETATM    7  O8  UNL     1     -37.983  13.887  -5.154  1.00 20.00    -0.289 OA
ENDROOT
BRANCH   6   8
HETATM    8  C7  UNL     1     -33.498  16.454  -4.391  1.00 20.00     0.127 C 
HETATM    9 CL9  UNL     1     -33.134  15.813  -6.001  1.00 20.00    -0.130 Cl
ENDBRANCH   6   8
TORSDOF 1
ENDMDL
MODEL 8
REMARK VINA RESULT:      -3.9      1.774      2.767
REMARK  1 active torsions:
REMARK  status: ('A' for Active; 'I' for Inactive)
REMARK    1  A    between atoms: C6_6  and  C7_7 
ROOT
HETATM    1  C1  UNL     1     -33.274   7.307   1.744  1.00 20.00     0.051 A 
HETATM    2  C2  UNL     1     -31.625   8.854   2.893  1.00 20.00     0.051 A 
HETATM    3  C3  UNL     1     -33.433   6.645   2.895  1.00 20.00    -0.013 A 
HETATM    4  C4  UNL     1     -31.803   8.175   4.030  1.00 20.00    -0.013 A 
HETATM    5  C5  UNL     1     -32.365   8.472   1.669  1.00 20.00     0.171 A 
HETATM    6  C6  UNL     1     -32.737   7.004   4.181  1.00 20.00     0.044 A 
HETATM    7  O8  UNL     1     -32.223   9.098   0.623  1.00 20.00    -0.289 OA
ENDROOT
BRANCH   6   8
HETATM    8  C7  UNL     1     -33.767   7.291   5.275  1.00 20.00     0.127 C 
HETATM    9 CL9  UNL     1     -34.496   5.777   5.836  1.00 20.00    -0.130 Cl
ENDBRANCH   6   8
TORSDOF 1
ENDMDL
MODEL 9
REMARK VINA RESULT:      -3.9     12.286     13.006
REMARK  1 active torsions:
REMARK  status: ('A' for Active; 'I' for Inactive)
REMARK    1  A    between atoms: C6_6  and  C7_7 
ROOT
HETATM    1  C1  UNL     1     -36.229  15.045  -4.280  1.00 20.00     0.051 A 
HETATM    2  C2  UNL     1     -33.936  13.990  -4.527  1.00 20.00     0.051 A 
HETATM    3  C3  UNL     1     -35.654  16.146  -3.782  1.00 20.00    -0.013 A 
HETATM    4  C4  UNL     1     -33.387  15.102  -4.025  1.00 20.00    -0.013 A 
HETATM    5  C5  UNL     1     -35.403  13.893  -4.702  1.00 20.00     0.171 A 
HETATM    6  C6  UNL     1     -34.168  16.320  -3.611  1.00 20.00     0.044 A 
HETATM    7  O8  UNL     1     -35.917  12.885  -5.176  1.00 20.00    -0.289 OA
ENDROOT
BRANCH   6   8
HETATM    8  C7  UNL     1     -33.688  17.544  -4.392  1.00 20.00     0.127 C 
HETATM    9 CL9  UNL     1     -33.834  17.251  -6.133  1.00 20.00    -0.130 Cl
ENDBRANCH   6   8
TORSDOF 1
ENDMDL
