MODEL 1
REMARK VINA RESULT:      -4.8      0.000      0.000
REMARK  2 active torsions:
REMARK  status: ('A' for Active; 'I' for Inactive)
REMARK    1  A    between atoms: C7_7  and  C8_8 
REMARK    2  A    between atoms: C9_9  and  C10_10 
ROOT
HETATM    1  C1  UNL     1     -37.435  14.320  -5.767  1.00 20.00     0.047 C 
HETATM    2  C2  UNL     1     -37.597  15.520  -5.170  1.00 20.00    -0.017 C 
HETATM    3  C5  UNL     1     -36.176  13.754  -5.174  1.00 20.00     0.154 C 
HETATM    4  C7  UNL     1     -36.675  15.635  -4.004  1.00 20.00     0.028 C 
HETATM    5  C10 UNL     1     -35.441  14.917  -4.603  1.00 20.00     0.075 C 
HETATM    6  O11 UNL     1     -35.805  12.599  -5.255  1.00 20.00    -0.293 OA
ENDROOT
BRANCH   5   7
HETATM    7  C9  UNL     1     -34.347  15.228  -3.594  1.00 20.00     0.021 C 
HETATM    8  C4  UNL     1     -33.953  16.685  -3.511  1.00 20.00    -0.025 C 
HETATM    9  C3  UNL     1     -33.360  17.019  -4.673  1.00 20.00    -0.025 C 
HETATM   10  C8  UNL     1     -33.474  15.813  -5.604  1.00 20.00     0.017 C 
HETATM   11  C6  UNL     1     -33.174  14.770  -4.515  1.00 20.00     0.018 C 
ENDBRANCH   5   7
TORSDOF 2
ENDMDL
MODEL 2
REMARK VINA RESULT:      -4.7     11.202     12.359
REMARK  2 active torsions:
REMARK  status: ('A' for Active; 'I' for Inactive)
REMARK    1  A    between atoms: C7_7  and  C8_8 
REMARK    2  A    between atoms: C9_9  and  C10_10 
ROOT
HETATM    1  C1  UNL     1     -31.439   8.533   3.332  1.00 20.00     0.047 C 
HETATM    2  C2  UNL     1     -31.782   8.232   4.603  1.00 20.00    -0.017 C 
HETATM    3  C5  UNL     1     -32.583   8.042   2.491  1.00 20.00     0.154 C 
HETATM    4  C7  UNL     1     -33.219   7.840   4.661  1.00 20.00     0.028 C 
HETATM    5  C10 UNL     1     -33.305   7.049   3.332  1.00 20.00     0.075 C 
HETATM    6  O11 UNL     1     -32.787   8.329   1.327  1.00 20.00    -0.293 OA
ENDROOT
BRANCH   5   7
HETATM    7  C9  UNL     1     -34.660   6.368   3.433  1.00 20.00     0.021 C 
HETATM    8  C4  UNL     1     -34.761   5.307   4.506  1.00 20.00    -0.025 C 
HETATM    9  C3  UNL     1     -33.962   4.282   4.150  1.00 20.00    -0.025 C 
HETATM   10  C8  UNL     1     -33.209   4.710   2.891  1.00 20.00     0.017 C 
HETATM   11  C6  UNL     1     -34.419   5.398   2.235  1.00 20.00     0.018 C 
ENDBRANCH   5   7
TORSDOF 2
ENDMDL
MODEL 3
REMARK VINA RESULT:      -4.6     10.148     10.985
REMARK  2 active torsions:
REMARK  status: ('A' for Active; 'I' for Inactive)
REMARK    1  A    between atoms: C7_7  and  C8_8 
REMARK    2  A    between atoms: C9_9  and  C10_10 
ROOT
HETATM    1  C1  UNL     1     -34.446   5.909   3.905  1.00 20.00     0.047 C 
HETATM    2  C2  UNL     1     -34.365   7.014   4.677  1.00 20.00    -0.017 C 
HETATM    3  C5  UNL     1     -33.262   5.988   2.983  1.00 20.00     0.154 C 
HETATM    4  C7  UNL     1     -33.030   7.655   4.507  1.00 20.00     0.028 C 
HETATM    5  C10 UNL     1     -32.841   7.416   2.989  1.00 20.00     0.075 C 
HETATM    6  O11 UNL     1     -32.829   5.081   2.299  1.00 20.00    -0.293 OA
ENDROOT
BRANCH   5   7
HETATM    7  C9  UNL     1     -31.635   8.281   2.659  1.00 20.00     0.021 C 
HETATM    8  C4  UNL     1     -31.906   9.768   2.636  1.00 20.00    -0.025 C 
HETATM    9  C3  UNL     1     -32.721  10.024   1.596  1.00 20.00    -0.025 C 
HETATM   10  C8  UNL     1     -33.116   8.678   0.987  1.00 20.00     0.017 C 
HETATM   11  C6  UNL     1     -31.717   8.053   1.118  1.00 20.00     0.018 C 
ENDBRANCH   5   7
TORSDOF 2
ENDMDL
MODEL 4
REMARK VINA RESULT:      -4.5      2.681      4.268
REMARK  2 active torsions:
REMARK  status: ('A' for Active; 'I' for Inactive)
REMARK    1  A    between atoms: C7_7  and  C8_8 
REMARK    2  A    between atoms: C9_9  and  C10_10 
ROOT
HETATM    1  C1  UNL     1     -33.656  17.880  -1.042  1.00 20.00     0.047 C 
HETATM    2  C2  UNL     1     -34.751  17.105  -0.888  1.00 20.00    -0.017 C 
HETATM    3  C5  UNL     1     -33.474  18.009  -2.529  1.00 20.00     0.154 C 
HETATM    4  C7  UNL     1     -35.464  16.969  -2.190  1.00 20.00     0.028 C 
HETATM    5  C10 UNL     1     -34.234  16.878  -3.127  1.00 20.00     0.075 C 
HETATM    6  O11 UNL     1     -32.757  18.813  -3.092  1.00 20.00    -0.293 OA
ENDROOT
BRANCH   5   7
HETATM    7  C9  UNL     1     -34.850  16.454  -4.451  1.00 20.00     0.021 C 
HETATM    8  C4  UNL     1     -35.496  15.087  -4.444  1.00 20.00    -0.025 C 
HETATM    9  C3  UNL     1     -34.521  14.171  -4.287  1.00 20.00    -0.025 C 
HETATM   10  C8  UNL     1     -33.217  14.932  -4.050  1.00 20.00     0.017 C 
HETATM   11  C6  UNL     1     -33.500  16.019  -5.100  1.00 20.00     0.018 C 
ENDBRANCH   5   7
TORSDOF 2
ENDMDL
MODEL 5
REMARK VINA RESULT:      -4.4      1.575      2.303
REMARK  2 active torsions:
REMARK  status: ('A' for Active; 'I' for Inactive)
REMARK    1  A    between atoms: C7_7  and  C8_8 
REMARK    2  A    between atoms: C9_9  and  C10_10 
ROOT
HETATM    1  C1  UNL     1     -34.628  13.324  -7.229  1.00 20.00     0.047 C 
HETATM    2  C2  UNL     1     -34.386  14.537  -7.772  1.00 20.00    -0.017 C 
HETATM    3  C5  UNL     1     -35.353  13.609  -5.944  1.00 20.00     0.154 C 
HETATM    4  C7  UNL     1     -35.176  15.579  -7.057  1.00 20.00     0.028 C 
HETATM    5  C10 UNL     1     -35.050  15.028  -5.615  1.00 20.00     0.075 C 
HETATM    6  O11 UNL     1     -35.962  12.797  -5.274  1.00 20.00    -0.293 OA
ENDROOT
BRANCH   5   7
HETATM    7  C9  UNL     1     -35.584  16.173  -4.769  1.00 20.00     0.021 C 
HETATM    8  C4  UNL     1     -34.775  17.447  -4.837  1.00 20.00    -0.025 C 
HETATM    9  C3  UNL     1     -33.581  17.210  -4.259  1.00 20.00    -0.025 C 
HETATM   10  C8  UNL     1     -33.532  15.722  -3.915  1.00 20.00     0.017 C 
HETATM   11  C6  UNL     1     -34.988  15.645  -3.427  1.00 20.00     0.018 C 
ENDBRANCH   5   7
TORSDOF 2
ENDMDL
MODEL 6
REMARK VINA RESULT:      -4.3      1.857      3.255
REMARK  2 active torsions:
REMARK  status: ('A' for Active; 'I' for Inactive)
REMARK    1  A    between atoms: C7_7  and  C8_8 
REMARK    2  A    between atoms: C9_9  and  C10_10 
ROOT
HETATM    1  C1  UNL     1     -35.188  14.018  -4.592  1.00 20.00     0.047 C 
HETATM    2  C2  UNL     1     -33.910  14.057  -4.156  1.00 20.00    -0.017 C 
HETATM    3  C5  UNL     1     -35.654  15.446  -4.564  1.00 20.00     0.154 C 
HETATM    4  C7  UNL     1     -33.426  15.467  -4.129  1.00 20.00     0.028 C 
HETATM    5  C10 UNL     1     -34.725  16.156  -3.643  1.00 20.00     0.075 C 
HETATM    6  O11 UNL     1     -36.654  15.881  -5.102  1.00 20.00    -0.293 OA
ENDROOT
BRANCH   5   7
HETATM    7  C9  UNL     1     -34.255  17.564  -3.313  1.00 20.00     0.021 C 
HETATM    8  C4  UNL     1     -33.359  17.668  -2.100  1.00 20.00    -0.025 C 
HETATM    9  C3  UNL     1     -34.095  17.360  -1.015  1.00 20.00    -0.025 C 
HETATM   10  C8  UNL     1     -35.470  16.913  -1.511  1.00 20.00     0.017 C 
HETATM   11  C6  UNL     1     -35.578  17.990  -2.604  1.00 20.00     0.018 C 
ENDBRANCH   5   7
TORSDOF 2
ENDMDL
MODEL 7
REMARK VINA RESULT:      -4.2      1.371      1.808
REMARK  2 active torsions:
REMARK  status: ('A' for Active; 'I' for Inactive)
REMARK    1  A    between atoms: C7_7  and  C8_8 
REMARK    2  A    between atoms: C9_9  and  C10_10 
ROOT
HETATM    1  C1  UNL     1     -37.933  16.331  -4.226  1.00 20.00     0.047 C 
HETATM    2  C2  UNL     1     -36.952  17.008  -3.592  1.00 20.00    -0.017 C 
HETATM    3  C5  UNL     1     -37.341  14.985  -4.538  1.00 20.00     0.154 C 
HETATM    4  C7  UNL     1     -35.855  16.073  -3.211  1.00 20.00     0.028 C 
HETATM    5  C10 UNL     1     -35.866  15.168  -4.467  1.00 20.00     0.075 C 
HETATM    6  O11 UNL     1     -37.960  13.997  -4.884  1.00 20.00    -0.293 OA
ENDROOT
BRANCH   5   7
HETATM    7  C9  UNL     1     -34.594  14.352  -4.304  1.00 20.00     0.021 C 
HETATM    8  C4  UNL     1     -33.320  15.164  -4.242  1.00 20.00    -0.025 C 
HETATM    9  C3  UNL     1     -33.132  15.731  -5.449  1.00 20.00    -0.025 C 
HETATM   10  C8  UNL     1     -34.361  15.408  -6.298  1.00 20.00     0.017 C 
HETATM   11  C6  UNL     1     -34.488  13.956  -5.810  1.00 20.00     0.018 C 
ENDBRANCH   5   7
TORSDOF 2
ENDMDL
MODEL 8
REMARK VINA RESULT:      -4.2      1.965      3.389
REMARK  2 active torsions:
REMARK  status: ('A' for Active; 'I' for Inactive)
REMARK    1  A    between atoms: C7_7  and  C8_8 
REMARK    2  A    between atoms: C9_9  and  C10_10 
ROOT
HETATM    1  C1  UNL     1     -35.770  15.963  -3.311  1.00 20.00     0.047 C 
HETATM    2  C2  UNL     1     -34.509  15.539  -3.544  1.00 20.00    -0.017 C 
HETATM    3  C5  UNL     1     -36.634  15.140  -4.223  1.00 20.00     0.154 C 
HETATM    4  C7  UNL     1     -34.537  14.279  -4.340  1.00 20.00     0.028 C 
HETATM    5  C10 UNL     1     -35.723  14.614  -5.277  1.00 20.00     0.075 C 
HETATM    6  O11 UNL     1     -37.844  15.034  -4.156  1.00 20.00    -0.293 OA
ENDROOT
BRANCH   5   7
HETATM    7  C9  UNL     1     -35.654  13.507  -6.317  1.00 20.00     0.021 C 
HETATM    8  C4  UNL     1     -34.389  13.489  -7.144  1.00 20.00    -0.025 C 
HETATM    9  C3  UNL     1     -34.384  14.593  -7.915  1.00 20.00    -0.025 C 
HETATM   10  C8  UNL     1     -35.593  15.436  -7.509  1.00 20.00     0.017 C 
HETATM   11  C6  UNL     1     -36.550  14.242  -7.362  1.00 20.00     0.018 C 
ENDBRANCH   5   7
TORSDOF 2
ENDMDL
MODEL 9
REMARK VINA RESULT:      -4.1      1.859      3.713
REMARK  2 active torsions:
REMARK  status: ('A' for Active; 'I' for Inactive)
REMARK    1  A    between atoms: C7_7  and  C8_8 
REMARK    2  A    between atoms: C9_9  and  C10_10 
ROOT
HETATM    1  C1  UNL     1     -33.655  15.776  -3.420  1.00 20.00     0.047 C 
HETATM    2  C2  UNL     1     -34.045  16.828  -4.171  1.00 20.00    -0.017 C 
HETATM    3  C5  UNL     1     -33.385  14.672  -4.402  1.00 20.00     0.154 C 
HETATM    4  C7  UNL     1     -33.756  16.558  -5.609  1.00 20.00     0.028 C 
HETATM    5  C10 UNL     1     -34.110  15.051  -5.646  1.00 20.00     0.075 C 
HETATM    6  O11 UNL     1     -32.787  13.639  -4.168  1.00 20.00    -0.293 OA
ENDROOT
BRANCH   5   7
HETATM    7  C9  UNL     1     -34.119  14.744  -7.134  1.00 20.00     0.021 C 
HETATM    8  C4  UNL     1     -35.220  15.421  -7.918  1.00 20.00    -0.025 C 
HETATM    9  C3  UNL     1     -36.394  14.896  -7.520  1.00 20.00    -0.025 C 
HETATM   10  C8  UNL     1     -36.097  13.947  -6.359  1.00 20.00     0.017 C 
HETATM   11  C6  UNL     1     -34.822  13.359  -6.987  1.00 20.00     0.018 C 
ENDBRANCH   5   7
TORSDOF 2
ENDMDL
