MODEL 1
REMARK VINA RESULT:      -5.1      0.000      0.000
REMARK  1 active torsions:
REMARK  status: ('A' for Active; 'I' for Inactive)
REMARK    1  A    between atoms: C1_1  and  C3_3 
ROOT
HETATM    1  C1  UNL     1     -35.050  14.752  -4.750  1.00 20.00     0.038 A 
HETATM    2  C2  UNL     1     -34.218  15.426  -5.798  1.00 20.00     0.160 A 
HETATM    3  C4  UNL     1     -33.309  16.432  -5.118  1.00 20.00     0.090 A 
HETATM    4  C5  UNL     1     -34.689  15.252  -3.414  1.00 20.00     0.039 A 
HETATM    5  C6  UNL     1     -33.605  16.297  -3.640  1.00 20.00     0.011 A 
HETATM    6  C7  UNL     1     -34.922  16.688  -2.991  1.00 20.00    -0.035 A 
HETATM    7  C9  UNL     1     -35.909  17.555  -3.733  1.00 20.00     0.016 C 
HETATM    8  C10 UNL     1     -34.893  16.970  -1.507  1.00 20.00     0.016 C 
HETATM    9  O12 UNL     1     -34.266  15.212  -6.998  1.00 20.00    -0.293 OA
ENDROOT
BRANCH   1  10
HETATM   10  C3  UNL     1     -35.969  13.843  -5.085  1.00 20.00     0.155 C 
HETATM   11  C8  UNL     1     -37.414  14.302  -5.212  1.00 20.00     0.096 C 
HETATM   12  O11 UNL     1     -35.860  12.604  -5.332  1.00 20.00    -0.293 OA
ENDBRANCH   1  10
TORSDOF 1
ENDMDL
MODEL 2
REMARK VINA RESULT:      -4.7      1.511      2.259
REMARK  1 active torsions:
REMARK  status: ('A' for Active; 'I' for Inactive)
REMARK    1  A    between atoms: C1_1  and  C3_3 
ROOT
HETATM    1  C1  UNL     1     -36.179  15.031  -4.499  1.00 20.00     0.038 A 
HETATM    2  C2  UNL     1     -35.288  13.848  -4.723  1.00 20.00     0.160 A 
HETATM    3  C4  UNL     1     -33.907  14.177  -4.188  1.00 20.00     0.090 A 
HETATM    4  C5  UNL     1     -35.443  16.099  -3.805  1.00 20.00     0.039 A 
HETATM    5  C6  UNL     1     -34.029  15.570  -3.609  1.00 20.00     0.011 A 
HETATM    6  C7  UNL     1     -34.270  16.823  -4.434  1.00 20.00    -0.035 A 
HETATM    7  C9  UNL     1     -34.069  16.801  -5.929  1.00 20.00     0.016 C 
HETATM    8  C10 UNL     1     -33.871  18.138  -3.808  1.00 20.00     0.016 C 
HETATM    9  O12 UNL     1     -35.611  12.798  -5.254  1.00 20.00    -0.293 OA
ENDROOT
BRANCH   1  10
HETATM   10  C3  UNL     1     -37.448  15.022  -4.916  1.00 20.00     0.155 C 
HETATM   11  C8  UNL     1     -37.931  16.190  -5.760  1.00 20.00     0.096 C 
HETATM   12  O11 UNL     1     -38.376  14.177  -4.732  1.00 20.00    -0.293 OA
ENDBRANCH   1  10
TORSDOF 1
ENDMDL
MODEL 3
REMARK VINA RESULT:      -4.7      1.600      2.017
REMARK  1 active torsions:
REMARK  status: ('A' for Active; 'I' for Inactive)
REMARK    1  A    between atoms: C1_1  and  C3_3 
ROOT
HETATM    1  C1  UNL     1     -33.685  15.853  -3.875  1.00 20.00     0.038 A 
HETATM    2  C2  UNL     1     -33.587  16.932  -4.910  1.00 20.00     0.160 A 
HETATM    3  C4  UNL     1     -33.566  18.275  -4.205  1.00 20.00     0.090 A 
HETATM    4  C5  UNL     1     -33.689  16.440  -2.526  1.00 20.00     0.039 A 
HETATM    5  C6  UNL     1     -33.613  17.948  -2.728  1.00 20.00     0.011 A 
HETATM    6  C7  UNL     1     -34.810  17.328  -2.026  1.00 20.00    -0.035 A 
HETATM    7  C9  UNL     1     -36.161  17.308  -2.698  1.00 20.00     0.016 C 
HETATM    8  C10 UNL     1     -34.902  17.528  -0.531  1.00 20.00     0.016 C 
HETATM    9  O12 UNL     1     -33.541  16.764  -6.117  1.00 20.00    -0.293 OA
ENDROOT
BRANCH   1  10
HETATM   10  C3  UNL     1     -33.762  14.568  -4.230  1.00 20.00     0.155 C 
HETATM   11  C8  UNL     1     -35.131  14.002  -4.572  1.00 20.00     0.096 C 
HETATM   12  O11 UNL     1     -32.861  13.683  -4.343  1.00 20.00    -0.293 OA
ENDBRANCH   1  10
TORSDOF 1
ENDMDL
MODEL 4
REMARK VINA RESULT:      -4.7      1.332      1.779
REMARK  1 active torsions:
REMARK  status: ('A' for Active; 'I' for Inactive)
REMARK    1  A    between atoms: C1_1  and  C3_3 
ROOT
HETATM    1  C1  UNL     1     -35.521  14.766  -4.381  1.00 20.00     0.038 A 
HETATM    2  C2  UNL     1     -34.050  14.842  -4.110  1.00 20.00     0.160 A 
HETATM    3  C4  UNL     1     -33.795  15.996  -3.157  1.00 20.00     0.090 A 
HETATM    4  C5  UNL     1     -36.235  15.799  -3.613  1.00 20.00     0.039 A 
HETATM    5  C6  UNL     1     -35.163  16.565  -2.850  1.00 20.00     0.011 A 
HETATM    6  C7  UNL     1     -36.041  17.281  -3.863  1.00 20.00    -0.035 A 
HETATM    7  C9  UNL     1     -35.458  17.768  -5.166  1.00 20.00     0.016 C 
HETATM    8  C10 UNL     1     -37.101  18.205  -3.312  1.00 20.00     0.016 C 
HETATM    9  O12 UNL     1     -33.196  14.109  -4.579  1.00 20.00    -0.293 OA
ENDROOT
BRANCH   1  10
HETATM   10  C3  UNL     1     -36.017  13.858  -5.225  1.00 20.00     0.155 C 
HETATM   11  C8  UNL     1     -36.851  14.351  -6.396  1.00 20.00     0.096 C 
HETATM   12  O11 UNL     1     -35.916  12.594  -5.235  1.00 20.00    -0.293 OA
ENDBRANCH   1  10
TORSDOF 1
ENDMDL
MODEL 5
REMARK VINA RESULT:      -4.4      1.547      2.794
REMARK  1 active torsions:
REMARK  status: ('A' for Active; 'I' for Inactive)
REMARK    1  A    between atoms: C1_1  and  C3_3 
ROOT
HETATM    1  C1  UNL     1     -36.016  14.880  -5.453  1.00 20.00     0.038 A 
HETATM    2  C2  UNL     1     -37.340  15.136  -4.801  1.00 20.00     0.160 A 
HETATM    3  C4  UNL     1     -37.400  16.596  -4.390  1.00 20.00     0.090 A 
HETATM    4  C5  UNL     1     -35.231  16.123  -5.517  1.00 20.00     0.039 A 
HETATM    5  C6  UNL     1     -36.091  17.193  -4.858  1.00 20.00     0.011 A 
HETATM    6  C7  UNL     1     -34.732  16.838  -4.278  1.00 20.00    -0.035 A 
HETATM    7  C9  UNL     1     -34.633  16.108  -2.961  1.00 20.00     0.016 C 
HETATM    8  C10 UNL     1     -33.623  17.845  -4.476  1.00 20.00     0.016 C 
HETATM    9  O12 UNL     1     -38.220  14.312  -4.620  1.00 20.00    -0.293 OA
ENDROOT
BRANCH   1  10
HETATM   10  C3  UNL     1     -35.685  13.658  -5.876  1.00 20.00     0.155 C 
HETATM   11  C8  UNL     1     -35.156  13.511  -7.294  1.00 20.00     0.096 C 
HETATM   12  O11 UNL     1     -35.728  12.536  -5.286  1.00 20.00    -0.293 OA
ENDBRANCH   1  10
TORSDOF 1
ENDMDL
MODEL 6
REMARK VINA RESULT:      -4.3      2.148      3.203
REMARK  1 active torsions:
REMARK  status: ('A' for Active; 'I' for Inactive)
REMARK    1  A    between atoms: C1_1  and  C3_3 
ROOT
HETATM    1  C1  UNL     1     -35.411  15.184  -5.136  1.00 20.00     0.038 A 
HETATM    2  C2  UNL     1     -34.258  14.438  -4.538  1.00 20.00     0.160 A 
HETATM    3  C4  UNL     1     -32.975  15.164  -4.900  1.00 20.00     0.090 A 
HETATM    4  C5  UNL     1     -34.932  16.385  -5.839  1.00 20.00     0.039 A 
HETATM    5  C6  UNL     1     -33.416  16.376  -5.693  1.00 20.00     0.011 A 
HETATM    6  C7  UNL     1     -34.053  16.312  -7.071  1.00 20.00    -0.035 A 
HETATM    7  C9  UNL     1     -33.979  15.045  -7.886  1.00 20.00     0.016 C 
HETATM    8  C10 UNL     1     -33.968  17.561  -7.918  1.00 20.00     0.016 C 
HETATM    9  O12 UNL     1     -34.331  13.416  -3.877  1.00 20.00    -0.293 OA
ENDROOT
BRANCH   1  10
HETATM   10  C3  UNL     1     -36.661  14.735  -5.002  1.00 20.00     0.155 C 
HETATM   11  C8  UNL     1     -37.683  15.650  -4.347  1.00 20.00     0.096 C 
HETATM   12  O11 UNL     1     -37.186  13.630  -5.337  1.00 20.00    -0.293 OA
ENDBRANCH   1  10
TORSDOF 1
ENDMDL
MODEL 7
REMARK VINA RESULT:      -4.2      3.133      4.710
REMARK  1 active torsions:
REMARK  status: ('A' for Active; 'I' for Inactive)
REMARK    1  A    between atoms: C1_1  and  C3_3 
ROOT
HETATM    1  C1  UNL     1     -34.611  16.962  -2.002  1.00 20.00     0.038 A 
HETATM    2  C2  UNL     1     -36.059  17.175  -2.319  1.00 20.00     0.160 A 
HETATM    3  C4  UNL     1     -36.409  16.355  -3.547  1.00 20.00     0.090 A 
HETATM    4  C5  UNL     1     -34.016  16.008  -2.951  1.00 20.00     0.039 A 
HETATM    5  C6  UNL     1     -35.133  15.628  -3.913  1.00 20.00     0.011 A 
HETATM    6  C7  UNL     1     -33.877  16.308  -4.429  1.00 20.00    -0.035 A 
HETATM    7  C9  UNL     1     -33.932  17.730  -4.931  1.00 20.00     0.016 C 
HETATM    8  C10 UNL     1     -32.907  15.449  -5.207  1.00 20.00     0.016 C 
HETATM    9  O12 UNL     1     -36.830  17.891  -1.702  1.00 20.00    -0.293 OA
ENDROOT
BRANCH   1  10
HETATM   10  C3  UNL     1     -34.031  17.603  -0.984  1.00 20.00     0.155 C 
HETATM   11  C8  UNL     1     -32.656  18.211  -1.212  1.00 20.00     0.096 C 
HETATM   12  O11 UNL     1     -34.432  17.813   0.201  1.00 20.00    -0.293 OA
ENDBRANCH   1  10
TORSDOF 1
ENDMDL
MODEL 8
REMARK VINA RESULT:      -4.2      2.706      4.098
REMARK  1 active torsions:
REMARK  status: ('A' for Active; 'I' for Inactive)
REMARK    1  A    between atoms: C1_1  and  C3_3 
ROOT
HETATM    1  C1  UNL     1     -34.325  16.998  -3.068  1.00 20.00     0.038 A 
HETATM    2  C2  UNL     1     -33.678  17.844  -4.122  1.00 20.00     0.160 A 
HETATM    3  C4  UNL     1     -34.058  17.291  -5.483  1.00 20.00     0.090 A 
HETATM    4  C5  UNL     1     -35.138  15.942  -3.691  1.00 20.00     0.039 A 
HETATM    5  C6  UNL     1     -34.975  16.122  -5.194  1.00 20.00     0.011 A 
HETATM    6  C7  UNL     1     -34.532  14.831  -4.526  1.00 20.00    -0.035 A 
HETATM    7  C9  UNL     1     -33.066  14.498  -4.409  1.00 20.00     0.016 C 
HETATM    8  C10 UNL     1     -35.394  13.613  -4.761  1.00 20.00     0.016 C 
HETATM    9  O12 UNL     1     -32.962  18.811  -3.924  1.00 20.00    -0.293 OA
ENDROOT
BRANCH   1  10
HETATM   10  C3  UNL     1     -34.121  17.244  -1.772  1.00 20.00     0.155 C 
HETATM   11  C8  UNL     1     -35.308  17.132  -0.829  1.00 20.00     0.096 C 
HETATM   12  O11 UNL     1     -33.068  17.569  -1.144  1.00 20.00    -0.293 OA
ENDBRANCH   1  10
TORSDOF 1
ENDMDL
MODEL 9
REMARK VINA RESULT:      -4.0      2.242      3.004
REMARK  1 active torsions:
REMARK  status: ('A' for Active; 'I' for Inactive)
REMARK    1  A    between atoms: C1_1  and  C3_3 
ROOT
HETATM    1  C1  UNL     1     -36.494  14.488  -5.741  1.00 20.00     0.038 A 
HETATM    2  C2  UNL     1     -36.442  14.728  -7.218  1.00 20.00     0.160 A 
HETATM    3  C4  UNL     1     -35.038  14.424  -7.706  1.00 20.00     0.090 A 
HETATM    4  C5  UNL     1     -35.191  14.005  -5.257  1.00 20.00     0.039 A 
HETATM    5  C6  UNL     1     -34.283  13.963  -6.478  1.00 20.00     0.011 A 
HETATM    6  C7  UNL     1     -33.939  14.856  -5.299  1.00 20.00    -0.035 A 
HETATM    7  C9  UNL     1     -34.036  16.356  -5.425  1.00 20.00     0.016 C 
HETATM    8  C10 UNL     1     -32.789  14.415  -4.423  1.00 20.00     0.016 C 
HETATM    9  O12 UNL     1     -37.367  15.110  -7.915  1.00 20.00    -0.293 OA
ENDROOT
BRANCH   1  10
HETATM   10  C3  UNL     1     -37.612  14.719  -5.048  1.00 20.00     0.155 C 
HETATM   11  C8  UNL     1     -37.721  16.030  -4.284  1.00 20.00     0.096 C 
HETATM   12  O11 UNL     1     -38.656  14.016  -4.899  1.00 20.00    -0.293 OA
ENDBRANCH   1  10
TORSDOF 1
ENDMDL
