MODEL 1
REMARK VINA RESULT:      -3.8      0.000      0.000
REMARK  0 active torsions:
REMARK  status: ('A' for Active; 'I' for Inactive)
ROOT
HETATM    1  C1  UNL     1     -33.968   6.945   5.805  1.00 20.00     0.028 C 
HETATM    2  C2  UNL     1     -34.524   5.555   5.625  1.00 20.00     0.028 C 
HETATM    3  C3  UNL     1     -33.376   7.222   4.440  1.00 20.00     0.167 C 
HETATM    4  C4  UNL     1     -35.034   5.606   4.201  1.00 20.00     0.167 C 
HETATM    5  O5  UNL     1     -34.181   6.511   3.488  1.00 20.00    -0.391 OA
ENDROOT
TORSDOF 0
ENDMDL
MODEL 2
REMARK VINA RESULT:      -3.7      0.182      1.755
REMARK  0 active torsions:
REMARK  status: ('A' for Active; 'I' for Inactive)
ROOT
HETATM    1  C1  UNL     1     -34.422   5.456   5.582  1.00 20.00     0.028 C 
HETATM    2  C2  UNL     1     -34.043   6.894   5.832  1.00 20.00     0.028 C 
HETATM    3  C3  UNL     1     -34.793   5.482   4.115  1.00 20.00     0.167 C 
HETATM    4  C4  UNL     1     -33.353   7.263   4.536  1.00 20.00     0.167 C 
HETATM    5  O5  UNL     1     -33.978   6.491   3.501  1.00 20.00    -0.391 OA
ENDROOT
TORSDOF 0
ENDMDL
MODEL 3
REMARK VINA RESULT:      -3.7      0.851      1.802
REMARK  0 active torsions:
REMARK  status: ('A' for Active; 'I' for Inactive)
ROOT
HETATM    1  C1  UNL     1     -34.477   4.751   4.416  1.00 20.00     0.028 C 
HETATM    2  C2  UNL     1     -34.662   5.409   5.760  1.00 20.00     0.028 C 
HETATM    3  C3  UNL     1     -34.594   5.929   3.473  1.00 20.00     0.167 C 
HETATM    4  C4  UNL     1     -33.944   6.727   5.561  1.00 20.00     0.167 C 
HETATM    5  O5  UNL     1     -34.089   7.073   4.177  1.00 20.00    -0.391 OA
ENDROOT
TORSDOF 0
ENDMDL
MODEL 4
REMARK VINA RESULT:      -3.7      1.349      2.443
REMARK  0 active torsions:
REMARK  status: ('A' for Active; 'I' for Inactive)
ROOT
HETATM    1  C1  UNL     1     -34.713   6.039   3.660  1.00 20.00     0.028 C 
HETATM    2  C2  UNL     1     -33.729   7.031   4.225  1.00 20.00     0.028 C 
HETATM    3  C3  UNL     1     -34.677   4.938   4.698  1.00 20.00     0.167 C 
HETATM    4  C4  UNL     1     -33.994   6.920   5.711  1.00 20.00     0.167 C 
HETATM    5  O5  UNL     1     -34.404   5.568   5.958  1.00 20.00    -0.391 OA
ENDROOT
TORSDOF 0
ENDMDL
MODEL 5
REMARK VINA RESULT:      -3.7      1.341      1.822
REMARK  0 active torsions:
REMARK  status: ('A' for Active; 'I' for Inactive)
ROOT
HETATM    1  C1  UNL     1     -33.741   7.032   4.187  1.00 20.00     0.028 C 
HETATM    2  C2  UNL     1     -34.728   6.020   3.664  1.00 20.00     0.028 C 
HETATM    3  C3  UNL     1     -33.980   6.959   5.679  1.00 20.00     0.167 C 
HETATM    4  C4  UNL     1     -34.668   4.947   4.730  1.00 20.00     0.167 C 
HETATM    5  O5  UNL     1     -34.378   5.610   5.968  1.00 20.00    -0.391 OA
ENDROOT
TORSDOF 0
ENDMDL
MODEL 6
REMARK VINA RESULT:      -3.6      1.168      2.208
REMARK  0 active torsions:
REMARK  status: ('A' for Active; 'I' for Inactive)
ROOT
HETATM    1  C1  UNL     1     -34.976   5.508   4.339  1.00 20.00     0.028 C 
HETATM    2  C2  UNL     1     -33.887   5.901   3.373  1.00 20.00     0.028 C 
HETATM    3  C3  UNL     1     -34.416   6.002   5.656  1.00 20.00     0.167 C 
HETATM    4  C4  UNL     1     -33.432   7.228   3.939  1.00 20.00     0.167 C 
HETATM    5  O5  UNL     1     -33.621   7.159   5.359  1.00 20.00    -0.391 OA
ENDROOT
TORSDOF 0
ENDMDL
MODEL 7
REMARK VINA RESULT:      -3.5      1.295      1.938
REMARK  0 active torsions:
REMARK  status: ('A' for Active; 'I' for Inactive)
ROOT
HETATM    1  C1  UNL     1     -34.069   6.548   5.460  1.00 20.00     0.028 C 
HETATM    2  C2  UNL     1     -34.171   6.813   3.979  1.00 20.00     0.028 C 
HETATM    3  C3  UNL     1     -34.654   5.157   5.568  1.00 20.00     0.167 C 
HETATM    4  C4  UNL     1     -33.866   5.450   3.397  1.00 20.00     0.167 C 
HETATM    5  O5  UNL     1     -34.344   4.482   4.341  1.00 20.00    -0.391 OA
ENDROOT
TORSDOF 0
ENDMDL
MODEL 8
REMARK VINA RESULT:      -3.0     16.008     16.295
REMARK  0 active torsions:
REMARK  status: ('A' for Active; 'I' for Inactive)
ROOT
HETATM    1  C1  UNL     1     -25.276  17.953  11.363  1.00 20.00     0.028 C 
HETATM    2  C2  UNL     1     -24.249  16.935  10.939  1.00 20.00     0.028 C 
HETATM    3  C3  UNL     1     -24.756  19.213  10.706  1.00 20.00     0.167 C 
HETATM    4  C4  UNL     1     -23.933  17.382   9.528  1.00 20.00     0.167 C 
HETATM    5  O5  UNL     1     -24.094  18.806   9.499  1.00 20.00    -0.391 OA
ENDROOT
TORSDOF 0
ENDMDL
MODEL 9
REMARK VINA RESULT:      -2.8      8.825      9.531
REMARK  0 active torsions:
REMARK  status: ('A' for Active; 'I' for Inactive)
ROOT
HETATM    1  C1  UNL     1     -40.989   5.747  -0.358  1.00 20.00     0.028 C 
HETATM    2  C2  UNL     1     -41.091   7.148   0.190  1.00 20.00     0.028 C 
HETATM    3  C3  UNL     1     -42.411   5.483  -0.803  1.00 20.00     0.167 C 
HETATM    4  C4  UNL     1     -42.073   7.786  -0.769  1.00 20.00     0.167 C 
HETATM    5  O5  UNL     1     -42.959   6.747  -1.205  1.00 20.00    -0.391 OA
ENDROOT
TORSDOF 0
ENDMDL
