MODEL 1
REMARK VINA RESULT:      -3.9      0.000      0.000
REMARK  0 active torsions:
REMARK  status: ('A' for Active; 'I' for Inactive)
ROOT
HETATM    1  C1  UNL     1     -33.732   7.004   5.037  1.00 20.00     0.201 C 
HETATM    2  C2  UNL     1     -33.384   5.754   2.894  1.00 20.00     0.099 C 
HETATM    3  C3  UNL     1     -34.354   6.023   4.048  1.00 20.00     0.074 C 
HETATM    4  C4  UNL     1     -34.735   4.721   4.743  1.00 20.00     0.020 C 
HETATM    5  O5  UNL     1     -34.066   7.117   6.208  1.00 20.00    -0.284 OA
HETATM    6  S6  UNL     1     -32.498   8.040   4.319  1.00 20.00    -0.019 SA
HETATM    7  S7  UNL     1     -32.737   7.362   2.408  1.00 20.00    -0.089 SA
ENDROOT
TORSDOF 0
ENDMDL
MODEL 2
REMARK VINA RESULT:      -3.7      2.825      3.528
REMARK  0 active torsions:
REMARK  status: ('A' for Active; 'I' for Inactive)
ROOT
HETATM    1  C1  UNL     1     -33.508   5.334   3.219  1.00 20.00     0.201 C 
HETATM    2  C2  UNL     1     -33.573   7.051   5.041  1.00 20.00     0.099 C 
HETATM    3  C3  UNL     1     -33.567   6.826   3.527  1.00 20.00     0.074 C 
HETATM    4  C4  UNL     1     -32.397   7.560   2.880  1.00 20.00     0.020 C 
HETATM    5  O5  UNL     1     -33.112   4.855   2.165  1.00 20.00    -0.284 OA
HETATM    6  S6  UNL     1     -34.136   4.321   4.519  1.00 20.00    -0.019 SA
HETATM    7  S7  UNL     1     -34.746   5.862   5.712  1.00 20.00    -0.089 SA
ENDROOT
TORSDOF 0
ENDMDL
MODEL 3
REMARK VINA RESULT:      -3.7      2.299      2.954
REMARK  0 active torsions:
REMARK  status: ('A' for Active; 'I' for Inactive)
ROOT
HETATM    1  C1  UNL     1     -33.394   6.761   3.742  1.00 20.00     0.201 C 
HETATM    2  C2  UNL     1     -34.144   5.290   5.625  1.00 20.00     0.099 C 
HETATM    3  C3  UNL     1     -34.172   6.710   5.052  1.00 20.00     0.074 C 
HETATM    4  C4  UNL     1     -33.606   7.706   6.058  1.00 20.00     0.020 C 
HETATM    5  O5  UNL     1     -32.914   7.776   3.255  1.00 20.00    -0.284 OA
HETATM    6  S6  UNL     1     -33.292   5.202   2.922  1.00 20.00    -0.019 SA
HETATM    7  S7  UNL     1     -34.480   4.192   4.240  1.00 20.00    -0.089 SA
ENDROOT
TORSDOF 0
ENDMDL
MODEL 4
REMARK VINA RESULT:      -3.5      2.197      2.632
REMARK  0 active torsions:
REMARK  status: ('A' for Active; 'I' for Inactive)
ROOT
HETATM    1  C1  UNL     1     -33.368   7.091   4.892  1.00 20.00     0.201 C 
HETATM    2  C2  UNL     1     -34.022   5.729   2.894  1.00 20.00     0.099 C 
HETATM    3  C3  UNL     1     -32.961   6.660   3.487  1.00 20.00     0.074 C 
HETATM    4  C4  UNL     1     -32.748   7.873   2.588  1.00 20.00     0.020 C 
HETATM    5  O5  UNL     1     -32.958   8.094   5.459  1.00 20.00    -0.284 OA
HETATM    6  S6  UNL     1     -34.466   5.960   5.685  1.00 20.00    -0.019 SA
HETATM    7  S7  UNL     1     -34.439   4.561   4.198  1.00 20.00    -0.089 SA
ENDROOT
TORSDOF 0
ENDMDL
MODEL 5
REMARK VINA RESULT:      -3.4      2.050      2.602
REMARK  0 active torsions:
REMARK  status: ('A' for Active; 'I' for Inactive)
ROOT
HETATM    1  C1  UNL     1     -34.298   5.014   4.357  1.00 20.00     0.201 C 
HETATM    2  C2  UNL     1     -32.827   6.842   3.480  1.00 20.00     0.099 C 
HETATM    3  C3  UNL     1     -33.743   5.675   3.101  1.00 20.00     0.074 C 
HETATM    4  C4  UNL     1     -32.994   4.662   2.242  1.00 20.00     0.020 C 
HETATM    5  O5  UNL     1     -34.725   3.869   4.412  1.00 20.00    -0.284 OA
HETATM    6  S6  UNL     1     -34.339   6.087   5.758  1.00 20.00    -0.019 SA
HETATM    7  S7  UNL     1     -33.696   7.752   4.767  1.00 20.00    -0.089 SA
ENDROOT
TORSDOF 0
ENDMDL
MODEL 6
REMARK VINA RESULT:      -3.4      2.121      2.683
REMARK  0 active torsions:
REMARK  status: ('A' for Active; 'I' for Inactive)
ROOT
HETATM    1  C1  UNL     1     -33.093   7.137   4.036  1.00 20.00     0.201 C 
HETATM    2  C2  UNL     1     -34.972   5.480   4.062  1.00 20.00     0.099 C 
HETATM    3  C3  UNL     1     -33.674   5.897   3.365  1.00 20.00     0.074 C 
HETATM    4  C4  UNL     1     -33.918   6.147   1.881  1.00 20.00     0.020 C 
HETATM    5  O5  UNL     1     -32.314   7.917   3.504  1.00 20.00    -0.284 OA
HETATM    6  S6  UNL     1     -33.599   7.332   5.714  1.00 20.00    -0.019 SA
HETATM    7  S7  UNL     1     -34.636   5.576   5.828  1.00 20.00    -0.089 SA
ENDROOT
TORSDOF 0
ENDMDL
MODEL 7
REMARK VINA RESULT:      -3.2     12.495     13.154
REMARK  0 active torsions:
REMARK  status: ('A' for Active; 'I' for Inactive)
ROOT
HETATM    1  C1  UNL     1     -35.277  13.668  -5.919  1.00 20.00     0.201 C 
HETATM    2  C2  UNL     1     -33.872  15.723  -6.189  1.00 20.00     0.099 C 
HETATM    3  C3  UNL     1     -34.077  14.439  -5.382  1.00 20.00     0.074 C 
HETATM    4  C4  UNL     1     -34.256  14.759  -3.901  1.00 20.00     0.020 C 
HETATM    5  O5  UNL     1     -35.917  12.842  -5.282  1.00 20.00    -0.284 OA
HETATM    6  S6  UNL     1     -35.645  14.023  -7.607  1.00 20.00    -0.019 SA
HETATM    7  S7  UNL     1     -34.043  15.251  -7.918  1.00 20.00    -0.089 SA
ENDROOT
TORSDOF 0
ENDMDL
MODEL 8
REMARK VINA RESULT:      -3.2     12.154     12.757
REMARK  0 active torsions:
REMARK  status: ('A' for Active; 'I' for Inactive)
ROOT
HETATM    1  C1  UNL     1     -36.125  13.873  -5.115  1.00 20.00     0.201 C 
HETATM    2  C2  UNL     1     -35.625  16.170  -4.253  1.00 20.00     0.099 C 
HETATM    3  C3  UNL     1     -35.046  14.938  -4.951  1.00 20.00     0.074 C 
HETATM    4  C4  UNL     1     -33.856  14.388  -4.172  1.00 20.00     0.020 C 
HETATM    5  O5  UNL     1     -35.907  12.678  -5.270  1.00 20.00    -0.284 OA
HETATM    6  S6  UNL     1     -37.763  14.526  -5.129  1.00 20.00    -0.019 SA
HETATM    7  S7  UNL     1     -37.208  16.490  -5.048  1.00 20.00    -0.089 SA
ENDROOT
TORSDOF 0
ENDMDL
MODEL 9
REMARK VINA RESULT:      -3.2     12.455     13.094
REMARK  0 active torsions:
REMARK  status: ('A' for Active; 'I' for Inactive)
ROOT
HETATM    1  C1  UNL     1     -35.216  13.864  -5.420  1.00 20.00     0.201 C 
HETATM    2  C2  UNL     1     -33.845  15.381  -6.867  1.00 20.00     0.099 C 
HETATM    3  C3  UNL     1     -35.160  14.606  -6.750  1.00 20.00     0.074 C 
HETATM    4  C4  UNL     1     -35.318  13.638  -7.918  1.00 20.00     0.020 C 
HETATM    5  O5  UNL     1     -35.917  12.887  -5.195  1.00 20.00    -0.284 OA
HETATM    6  S6  UNL     1     -34.203  14.586  -4.168  1.00 20.00    -0.019 SA
HETATM    7  S7  UNL     1     -33.609  16.194  -5.278  1.00 20.00    -0.089 SA
ENDROOT
TORSDOF 0
ENDMDL
