MODEL 1
REMARK VINA RESULT:      -5.6      0.000      0.000
REMARK  3 active torsions:
REMARK  status: ('A' for Active; 'I' for Inactive)
REMARK    1  A    between atoms: C1_1  and  C7_7 
REMARK    2  A    between atoms: C1_1  and  O9_9 
REMARK    3  A    between atoms: C5_5  and  C7_7 
ROOT
HETATM    1  C2  UNL     1     -34.072   4.138   4.677  1.00 20.00     0.011 A 
HETATM    2  C3  UNL     1     -34.651   4.986   5.815  1.00 20.00     0.011 A 
HETATM    3  C4  UNL     1     -35.402   6.195   3.512  1.00 20.00     0.015 A 
HETATM    4  C5  UNL     1     -33.999   6.725   3.843  1.00 20.00     0.005 A 
HETATM    5  C6  UNL     1     -34.524   5.509   4.458  1.00 20.00    -0.036 A 
ENDROOT
BRANCH   4   6
HETATM    6  C7  UNL     1     -32.914   6.651   2.826  1.00 20.00     0.115 C 
BRANCH   6   7
HETATM    7  C1  UNL     1     -32.261   7.995   2.554  1.00 20.00     0.139 C 
HETATM    8  O8  UNL     1     -32.483   8.702   1.581  1.00 20.00    -0.650 OA
BRANCH   7   9
HETATM    9  O9  UNL     1     -31.386   8.321   3.540  1.00 20.00    -0.776 OA
HETATM   10  H19 UNL     1     -31.548   9.224   3.887  1.00 20.00     0.167 HD
ENDBRANCH   7   9
ENDBRANCH   6   7
ENDBRANCH   4   6
TORSDOF 3
ENDMDL
MODEL 2
REMARK VINA RESULT:      -5.3      2.424      4.535
REMARK  3 active torsions:
REMARK  status: ('A' for Active; 'I' for Inactive)
REMARK    1  A    between atoms: C1_1  and  C7_7 
REMARK    2  A    between atoms: C1_1  and  O9_9 
REMARK    3  A    between atoms: C5_5  and  C7_7 
ROOT
HETATM    1  C2  UNL     1     -31.662   8.536   0.805  1.00 20.00     0.011 A 
HETATM    2  C3  UNL     1     -32.446   9.711   1.399  1.00 20.00     0.011 A 
HETATM    3  C4  UNL     1     -31.599   8.227   3.499  1.00 20.00     0.015 A 
HETATM    4  C5  UNL     1     -32.919   7.598   3.027  1.00 20.00     0.005 A 
HETATM    5  C6  UNL     1     -32.157   8.512   2.179  1.00 20.00    -0.036 A 
ENDROOT
BRANCH   4   6
HETATM    6  C7  UNL     1     -32.980   6.145   2.711  1.00 20.00     0.115 C 
BRANCH   6   7
HETATM    7  C1  UNL     1     -34.058   5.412   3.490  1.00 20.00     0.139 C 
HETATM    8  O8  UNL     1     -33.952   4.283   3.947  1.00 20.00    -0.650 OA
BRANCH   7   9
HETATM    9  O9  UNL     1     -35.173   6.176   3.619  1.00 20.00    -0.776 OA
HETATM   10  H19 UNL     1     -35.652   6.269   2.768  1.00 20.00     0.167 HD
ENDBRANCH   7   9
ENDBRANCH   6   7
ENDBRANCH   4   6
TORSDOF 3
ENDMDL
MODEL 3
REMARK VINA RESULT:      -5.3      1.436      1.907
REMARK  3 active torsions:
REMARK  status: ('A' for Active; 'I' for Inactive)
REMARK    1  A    between atoms: C1_1  and  C7_7 
REMARK    2  A    between atoms: C1_1  and  O9_9 
REMARK    3  A    between atoms: C5_5  and  C7_7 
ROOT
HETATM    1  C2  UNL     1     -34.159   6.267   5.014  1.00 20.00     0.011 A 
HETATM    2  C3  UNL     1     -35.273   5.805   4.069  1.00 20.00     0.011 A 
HETATM    3  C4  UNL     1     -32.941   5.357   2.768  1.00 20.00     0.015 A 
HETATM    4  C5  UNL     1     -33.321   6.818   2.487  1.00 20.00     0.005 A 
HETATM    5  C6  UNL     1     -33.920   6.068   3.588  1.00 20.00    -0.036 A 
ENDROOT
BRANCH   4   6
HETATM    6  C7  UNL     1     -32.343   7.908   2.757  1.00 20.00     0.115 C 
BRANCH   6   7
HETATM    7  C1  UNL     1     -32.213   8.889   1.605  1.00 20.00     0.139 C 
HETATM    8  O8  UNL     1     -32.921   9.871   1.432  1.00 20.00    -0.650 OA
BRANCH   7   9
HETATM    9  O9  UNL     1     -31.196   8.538   0.777  1.00 20.00    -0.776 OA
HETATM   10  H19 UNL     1     -30.781   9.321   0.356  1.00 20.00     0.167 HD
ENDBRANCH   7   9
ENDBRANCH   6   7
ENDBRANCH   4   6
TORSDOF 3
ENDMDL
MODEL 4
REMARK VINA RESULT:      -5.3      2.460      4.510
REMARK  3 active torsions:
REMARK  status: ('A' for Active; 'I' for Inactive)
REMARK    1  A    between atoms: C1_1  and  C7_7 
REMARK    2  A    between atoms: C1_1  and  O9_9 
REMARK    3  A    between atoms: C5_5  and  C7_7 
ROOT
HETATM    1  C2  UNL     1     -31.827   8.630   0.694  1.00 20.00     0.011 A 
HETATM    2  C3  UNL     1     -32.535   9.819   1.352  1.00 20.00     0.011 A 
HETATM    3  C4  UNL     1     -31.579   8.292   3.374  1.00 20.00     0.015 A 
HETATM    4  C5  UNL     1     -32.944   7.702   2.993  1.00 20.00     0.005 A 
HETATM    5  C6  UNL     1     -32.222   8.604   2.099  1.00 20.00    -0.036 A 
ENDROOT
BRANCH   4   6
HETATM    6  C7  UNL     1     -33.066   6.254   2.670  1.00 20.00     0.115 C 
BRANCH   6   7
HETATM    7  C1  UNL     1     -34.173   5.562   3.446  1.00 20.00     0.139 C 
HETATM    8  O8  UNL     1     -35.251   6.063   3.734  1.00 20.00    -0.650 OA
BRANCH   7   9
HETATM    9  O9  UNL     1     -33.815   4.297   3.786  1.00 20.00    -0.776 OA
HETATM   10  H19 UNL     1     -33.000   4.283   4.332  1.00 20.00     0.167 HD
ENDBRANCH   7   9
ENDBRANCH   6   7
ENDBRANCH   4   6
TORSDOF 3
ENDMDL
MODEL 5
REMARK VINA RESULT:      -4.9      2.396      4.569
REMARK  3 active torsions:
REMARK  status: ('A' for Active; 'I' for Inactive)
REMARK    1  A    between atoms: C1_1  and  C7_7 
REMARK    2  A    between atoms: C1_1  and  O9_9 
REMARK    3  A    between atoms: C5_5  and  C7_7 
ROOT
HETATM    1  C2  UNL     1     -32.362   8.508   0.689  1.00 20.00     0.011 A 
HETATM    2  C3  UNL     1     -32.506   9.871   1.374  1.00 20.00     0.011 A 
HETATM    3  C4  UNL     1     -31.441   8.202   3.222  1.00 20.00     0.015 A 
HETATM    4  C5  UNL     1     -32.964   8.016   3.295  1.00 20.00     0.005 A 
HETATM    5  C6  UNL     1     -32.322   8.643   2.142  1.00 20.00    -0.036 A 
ENDROOT
BRANCH   4   6
HETATM    6  C7  UNL     1     -33.554   6.653   3.184  1.00 20.00     0.115 C 
BRANCH   6   7
HETATM    7  C1  UNL     1     -34.347   6.247   4.414  1.00 20.00     0.139 C 
HETATM    8  O8  UNL     1     -34.081   6.572   5.562  1.00 20.00    -0.650 OA
BRANCH   7   9
HETATM    9  O9  UNL     1     -35.407   5.468   4.077  1.00 20.00    -0.776 OA
HETATM   10  H19 UNL     1     -35.320   5.107   3.169  1.00 20.00     0.167 HD
ENDBRANCH   7   9
ENDBRANCH   6   7
ENDBRANCH   4   6
TORSDOF 3
ENDMDL
MODEL 6
REMARK VINA RESULT:      -4.9      2.757      4.075
REMARK  3 active torsions:
REMARK  status: ('A' for Active; 'I' for Inactive)
REMARK    1  A    between atoms: C1_1  and  C7_7 
REMARK    2  A    between atoms: C1_1  and  O9_9 
REMARK    3  A    between atoms: C5_5  and  C7_7 
ROOT
HETATM    1  C2  UNL     1     -32.470   6.635   2.902  1.00 20.00     0.011 A 
HETATM    2  C3  UNL     1     -33.123   7.984   2.581  1.00 20.00     0.011 A 
HETATM    3  C4  UNL     1     -32.660   7.980   5.249  1.00 20.00     0.015 A 
HETATM    4  C5  UNL     1     -34.015   7.286   5.043  1.00 20.00     0.005 A 
HETATM    5  C6  UNL     1     -33.068   7.463   3.944  1.00 20.00    -0.036 A 
ENDROOT
BRANCH   4   6
HETATM    6  C7  UNL     1     -34.257   5.936   5.622  1.00 20.00     0.115 C 
BRANCH   6   7
HETATM    7  C1  UNL     1     -34.817   4.948   4.615  1.00 20.00     0.139 C 
HETATM    8  O8  UNL     1     -34.402   3.812   4.438  1.00 20.00    -0.650 OA
BRANCH   7   9
HETATM    9  O9  UNL     1     -35.853   5.489   3.923  1.00 20.00    -0.776 OA
HETATM   10  H19 UNL     1     -36.239   4.852   3.285  1.00 20.00     0.167 HD
ENDBRANCH   7   9
ENDBRANCH   6   7
ENDBRANCH   4   6
TORSDOF 3
ENDMDL
MODEL 7
REMARK VINA RESULT:      -4.6      2.291      4.690
REMARK  3 active torsions:
REMARK  status: ('A' for Active; 'I' for Inactive)
REMARK    1  A    between atoms: C1_1  and  C7_7 
REMARK    2  A    between atoms: C1_1  and  O9_9 
REMARK    3  A    between atoms: C5_5  and  C7_7 
ROOT
HETATM    1  C2  UNL     1     -33.589  10.061   1.017  1.00 20.00     0.011 A 
HETATM    2  C3  UNL     1     -32.459  10.930   1.580  1.00 20.00     0.011 A 
HETATM    3  C4  UNL     1     -31.325   8.573   0.879  1.00 20.00     0.015 A 
HETATM    4  C5  UNL     1     -31.875   8.384   2.300  1.00 20.00     0.005 A 
HETATM    5  C6  UNL     1     -32.319   9.483   1.446  1.00 20.00    -0.036 A 
ENDROOT
BRANCH   4   6
HETATM    6  C7  UNL     1     -32.786   7.245   2.602  1.00 20.00     0.115 C 
BRANCH   6   7
HETATM    7  C1  UNL     1     -33.264   7.231   4.043  1.00 20.00     0.139 C 
HETATM    8  O8  UNL     1     -34.283   6.686   4.441  1.00 20.00    -0.650 OA
BRANCH   7   9
HETATM    9  O9  UNL     1     -32.407   7.909   4.849  1.00 20.00    -0.776 OA
HETATM   10  H19 UNL     1     -31.815   7.304   5.344  1.00 20.00     0.167 HD
ENDBRANCH   7   9
ENDBRANCH   6   7
ENDBRANCH   4   6
TORSDOF 3
ENDMDL
MODEL 8
REMARK VINA RESULT:      -4.6      2.103      2.797
REMARK  3 active torsions:
REMARK  status: ('A' for Active; 'I' for Inactive)
REMARK    1  A    between atoms: C1_1  and  C7_7 
REMARK    2  A    between atoms: C1_1  and  O9_9 
REMARK    3  A    between atoms: C5_5  and  C7_7 
ROOT
HETATM    1  C2  UNL     1     -34.275   6.146   2.601  1.00 20.00     0.011 A 
HETATM    2  C3  UNL     1     -33.001   5.311   2.774  1.00 20.00     0.011 A 
HETATM    3  C4  UNL     1     -32.584   7.620   4.125  1.00 20.00     0.015 A 
HETATM    4  C5  UNL     1     -32.194   7.895   2.665  1.00 20.00     0.005 A 
HETATM    5  C6  UNL     1     -33.018   6.747   3.036  1.00 20.00    -0.036 A 
ENDROOT
BRANCH   4   6
HETATM    6  C7  UNL     1     -32.789   9.051   1.939  1.00 20.00     0.115 C 
BRANCH   6   7
HETATM    7  C1  UNL     1     -32.366   9.119   0.482  1.00 20.00     0.139 C 
HETATM    8  O8  UNL     1     -33.075   9.499  -0.439  1.00 20.00    -0.650 OA
BRANCH   7   9
HETATM    9  O9  UNL     1     -31.084   8.701   0.325  1.00 20.00    -0.776 OA
HETATM   10  H19 UNL     1     -31.033   7.737   0.152  1.00 20.00     0.167 HD
ENDBRANCH   7   9
ENDBRANCH   6   7
ENDBRANCH   4   6
TORSDOF 3
ENDMDL
MODEL 9
REMARK VINA RESULT:      -4.5     11.532     12.299
REMARK  3 active torsions:
REMARK  status: ('A' for Active; 'I' for Inactive)
REMARK    1  A    between atoms: C1_1  and  C7_7 
REMARK    2  A    between atoms: C1_1  and  O9_9 
REMARK    3  A    between atoms: C5_5  and  C7_7 
ROOT
HETATM    1  C2  UNL     1     -34.108  17.569  -3.510  1.00 20.00     0.011 A 
HETATM    2  C3  UNL     1     -33.734  16.851  -2.209  1.00 20.00     0.011 A 
HETATM    3  C4  UNL     1     -33.239  15.098  -4.213  1.00 20.00     0.015 A 
HETATM    4  C5  UNL     1     -34.725  14.944  -3.858  1.00 20.00     0.005 A 
HETATM    5  C6  UNL     1     -33.957  16.118  -3.452  1.00 20.00    -0.036 A 
ENDROOT
BRANCH   4   6
HETATM    6  C7  UNL     1     -35.760  15.048  -4.924  1.00 20.00     0.115 C 
BRANCH   6   7
HETATM    7  C1  UNL     1     -36.647  13.818  -5.013  1.00 20.00     0.139 C 
HETATM    8  O8  UNL     1     -37.869  13.833  -5.043  1.00 20.00    -0.650 OA
BRANCH   7   9
HETATM    9  O9  UNL     1     -35.905  12.682  -5.058  1.00 20.00    -0.776 OA
HETATM   10  H19 UNL     1     -34.962  12.870  -5.251  1.00 20.00     0.167 HD
ENDBRANCH   7   9
ENDBRANCH   6   7
ENDBRANCH   4   6
TORSDOF 3
ENDMDL
