MODEL 1
REMARK VINA RESULT:      -4.5      0.000      0.000
REMARK  0 active torsions:
REMARK  status: ('A' for Active; 'I' for Inactive)
ROOT
HETATM    1  C1  UNL     1     -34.177   4.712   4.055  1.00 20.00     0.260 C 
HETATM    2  C2  UNL     1     -34.930   5.695   4.914  1.00 20.00     0.137 C 
HETATM    3  C3  UNL     1     -33.989   6.609   5.680  1.00 20.00     0.177 C 
HETATM    4  C4  UNL     1     -33.397   6.635   2.745  1.00 20.00     0.205 C 
HETATM    5  C5  UNL     1     -32.712   7.433   3.839  1.00 20.00     0.194 C 
HETATM    6  O6  UNL     1     -34.253   3.500   4.242  1.00 20.00    -0.265 OA
HETATM    7  O7  UNL     1     -33.413   5.226   3.062  1.00 20.00    -0.319 OA
HETATM    8  O8  UNL     1     -33.612   7.740   4.902  1.00 20.00    -0.389 OA
ENDROOT
TORSDOF 0
ENDMDL
MODEL 2
REMARK VINA RESULT:      -4.3      1.087      3.311
REMARK  0 active torsions:
REMARK  status: ('A' for Active; 'I' for Inactive)
ROOT
HETATM    1  C1  UNL     1     -32.905   7.231   3.863  1.00 20.00     0.260 C 
HETATM    2  C2  UNL     1     -33.795   6.407   2.968  1.00 20.00     0.137 C 
HETATM    3  C3  UNL     1     -33.746   4.932   3.329  1.00 20.00     0.177 C 
HETATM    4  C4  UNL     1     -34.403   6.626   5.710  1.00 20.00     0.205 C 
HETATM    5  C5  UNL     1     -34.296   5.113   5.646  1.00 20.00     0.194 C 
HETATM    6  O6  UNL     1     -31.944   7.856   3.420  1.00 20.00    -0.265 OA
HETATM    7  O7  UNL     1     -33.215   7.253   5.181  1.00 20.00    -0.319 OA
HETATM    8  O8  UNL     1     -34.675   4.618   4.363  1.00 20.00    -0.389 OA
ENDROOT
TORSDOF 0
ENDMDL
MODEL 3
REMARK VINA RESULT:      -4.2      1.174      3.184
REMARK  0 active torsions:
REMARK  status: ('A' for Active; 'I' for Inactive)
ROOT
HETATM    1  C1  UNL     1     -33.878   6.932   5.371  1.00 20.00     0.260 C 
HETATM    2  C2  UNL     1     -33.854   7.310   3.912  1.00 20.00     0.137 C 
HETATM    3  C3  UNL     1     -32.920   6.417   3.115  1.00 20.00     0.177 C 
HETATM    4  C4  UNL     1     -34.902   4.811   4.682  1.00 20.00     0.205 C 
HETATM    5  C5  UNL     1     -33.829   4.299   3.738  1.00 20.00     0.194 C 
HETATM    6  O6  UNL     1     -33.499   7.706   6.246  1.00 20.00    -0.265 OA
HETATM    7  O7  UNL     1     -34.341   5.696   5.676  1.00 20.00    -0.319 OA
HETATM    8  O8  UNL     1     -33.575   5.227   2.686  1.00 20.00    -0.389 OA
ENDROOT
TORSDOF 0
ENDMDL
MODEL 4
REMARK VINA RESULT:      -4.1      1.422      2.834
REMARK  0 active torsions:
REMARK  status: ('A' for Active; 'I' for Inactive)
ROOT
HETATM    1  C1  UNL     1     -33.099   7.326   3.098  1.00 20.00     0.260 C 
HETATM    2  C2  UNL     1     -32.747   7.401   4.561  1.00 20.00     0.137 C 
HETATM    3  C3  UNL     1     -33.979   7.296   5.442  1.00 20.00     0.177 C 
HETATM    4  C4  UNL     1     -33.813   5.015   3.510  1.00 20.00     0.205 C 
HETATM    5  C5  UNL     1     -34.866   5.255   4.577  1.00 20.00     0.194 C 
HETATM    6  O6  UNL     1     -32.887   8.263   2.333  1.00 20.00    -0.265 OA
HETATM    7  O7  UNL     1     -33.661   6.173   2.661  1.00 20.00    -0.319 OA
HETATM    8  O8  UNL     1     -34.320   5.938   5.703  1.00 20.00    -0.389 OA
ENDROOT
TORSDOF 0
ENDMDL
MODEL 5
REMARK VINA RESULT:      -3.9     12.048     13.091
REMARK  0 active torsions:
REMARK  status: ('A' for Active; 'I' for Inactive)
ROOT
HETATM    1  C1  UNL     1     -35.387  13.824  -5.258  1.00 20.00     0.260 C 
HETATM    2  C2  UNL     1     -34.578  14.364  -4.106  1.00 20.00     0.137 C 
HETATM    3  C3  UNL     1     -33.124  14.573  -4.489  1.00 20.00     0.177 C 
HETATM    4  C4  UNL     1     -34.971  15.959  -6.395  1.00 20.00     0.205 C 
HETATM    5  C5  UNL     1     -33.453  15.954  -6.409  1.00 20.00     0.194 C 
HETATM    6  O6  UNL     1     -35.926  12.722  -5.209  1.00 20.00    -0.265 OA
HETATM    7  O7  UNL     1     -35.494  14.614  -6.354  1.00 20.00    -0.319 OA
HETATM    8  O8  UNL     1     -32.921  15.849  -5.090  1.00 20.00    -0.389 OA
ENDROOT
TORSDOF 0
ENDMDL
MODEL 6
REMARK VINA RESULT:      -3.8     12.074     13.115
REMARK  0 active torsions:
REMARK  status: ('A' for Active; 'I' for Inactive)
ROOT
HETATM    1  C1  UNL     1     -35.033  13.472  -5.385  1.00 20.00     0.260 C 
HETATM    2  C2  UNL     1     -34.498  13.851  -6.742  1.00 20.00     0.137 C 
HETATM    3  C3  UNL     1     -34.475  15.357  -6.937  1.00 20.00     0.177 C 
HETATM    4  C4  UNL     1     -33.047  14.551  -4.431  1.00 20.00     0.205 C 
HETATM    5  C5  UNL     1     -33.215  15.950  -4.997  1.00 20.00     0.194 C 
HETATM    6  O6  UNL     1     -36.065  12.817  -5.257  1.00 20.00    -0.265 OA
HETATM    7  O7  UNL     1     -34.321  13.884  -4.308  1.00 20.00    -0.319 OA
HETATM    8  O8  UNL     1     -33.277  15.931  -6.422  1.00 20.00    -0.389 OA
ENDROOT
TORSDOF 0
ENDMDL
MODEL 7
REMARK VINA RESULT:      -3.7     12.093     13.389
REMARK  0 active torsions:
REMARK  status: ('A' for Active; 'I' for Inactive)
ROOT
HETATM    1  C1  UNL     1     -33.552  15.435  -5.668  1.00 20.00     0.260 C 
HETATM    2  C2  UNL     1     -33.664  14.384  -4.593  1.00 20.00     0.137 C 
HETATM    3  C3  UNL     1     -35.104  13.952  -4.378  1.00 20.00     0.177 C 
HETATM    4  C4  UNL     1     -34.307  13.723  -7.255  1.00 20.00     0.205 C 
HETATM    5  C5  UNL     1     -35.640  13.357  -6.627  1.00 20.00     0.194 C 
HETATM    6  O6  UNL     1     -33.137  16.566  -5.425  1.00 20.00    -0.265 OA
HETATM    7  O7  UNL     1     -33.928  15.075  -6.918  1.00 20.00    -0.319 OA
HETATM    8  O8  UNL     1     -35.478  12.916  -5.281  1.00 20.00    -0.389 OA
ENDROOT
TORSDOF 0
ENDMDL
MODEL 8
REMARK VINA RESULT:      -3.7     12.171     12.892
REMARK  0 active torsions:
REMARK  status: ('A' for Active; 'I' for Inactive)
ROOT
HETATM    1  C1  UNL     1     -35.403  13.794  -5.339  1.00 20.00     0.260 C 
HETATM    2  C2  UNL     1     -35.736  14.958  -4.441  1.00 20.00     0.137 C 
HETATM    3  C3  UNL     1     -34.533  15.404  -3.629  1.00 20.00     0.177 C 
HETATM    4  C4  UNL     1     -33.910  15.313  -6.556  1.00 20.00     0.205 C 
HETATM    5  C5  UNL     1     -32.994  15.740  -5.423  1.00 20.00     0.194 C 
HETATM    6  O6  UNL     1     -35.946  12.700  -5.207  1.00 20.00    -0.265 OA
HETATM    7  O7  UNL     1     -34.477  14.009  -6.303  1.00 20.00    -0.319 OA
HETATM    8  O8  UNL     1     -33.729  16.330  -4.354  1.00 20.00    -0.389 OA
ENDROOT
TORSDOF 0
ENDMDL
MODEL 9
REMARK VINA RESULT:      -3.6     12.062     12.643
REMARK  0 active torsions:
REMARK  status: ('A' for Active; 'I' for Inactive)
ROOT
HETATM    1  C1  UNL     1     -35.332  13.763  -5.028  1.00 20.00     0.260 C 
HETATM    2  C2  UNL     1     -35.832  15.075  -5.577  1.00 20.00     0.137 C 
HETATM    3  C3  UNL     1     -36.111  16.077  -4.471  1.00 20.00     0.177 C 
HETATM    4  C4  UNL     1     -33.334  14.974  -4.277  1.00 20.00     0.205 C 
HETATM    5  C5  UNL     1     -33.984  16.020  -3.389  1.00 20.00     0.194 C 
HETATM    6  O6  UNL     1     -35.961  12.719  -5.177  1.00 20.00    -0.265 OA
HETATM    7  O7  UNL     1     -34.151  13.787  -4.365  1.00 20.00    -0.319 OA
HETATM    8  O8  UNL     1     -34.936  16.797  -4.110  1.00 20.00    -0.389 OA
ENDROOT
TORSDOF 0
ENDMDL
