MODEL 1
REMARK VINA RESULT:      -5.8      0.000      0.000
REMARK  0 active torsions:
REMARK  status: ('A' for Active; 'I' for Inactive)
ROOT
HETATM    1  C1  UNL     1     -33.723   5.000   3.159  1.00 20.00     0.127 C 
HETATM    2  C2  UNL     1     -34.395   4.230   4.276  1.00 20.00     0.078 C 
HETATM    3  C3  UNL     1     -34.309   6.345   2.789  1.00 20.00     0.078 C 
HETATM    4  C4  UNL     1     -34.090   4.782   5.668  1.00 20.00     0.007 C 
HETATM    5  C5  UNL     1     -33.430   7.504   3.235  1.00 20.00     0.007 C 
HETATM    6  C6  UNL     1     -34.711   6.155   5.943  1.00 20.00     0.000 C 
HETATM    7  C7  UNL     1     -32.801   7.391   4.623  1.00 20.00     0.000 C 
HETATM    8  C8  UNL     1     -33.766   7.352   5.808  1.00 20.00     0.000 C 
HETATM    9  O9  UNL     1     -32.722   4.561   2.592  1.00 20.00    -0.298 OA
ENDROOT
TORSDOF 0
ENDMDL
MODEL 2
REMARK VINA RESULT:      -5.5      1.278      2.102
REMARK  0 active torsions:
REMARK  status: ('A' for Active; 'I' for Inactive)
ROOT
HETATM    1  C1  UNL     1     -34.775   5.107   4.595  1.00 20.00     0.127 C 
HETATM    2  C2  UNL     1     -34.673   5.874   5.897  1.00 20.00     0.078 C 
HETATM    3  C3  UNL     1     -35.175   5.883   3.360  1.00 20.00     0.078 C 
HETATM    4  C4  UNL     1     -33.420   6.743   5.997  1.00 20.00     0.007 C 
HETATM    5  C5  UNL     1     -34.015   6.079   2.395  1.00 20.00     0.007 C 
HETATM    6  C6  UNL     1     -33.412   7.937   5.037  1.00 20.00     0.000 C 
HETATM    7  C7  UNL     1     -32.663   6.431   3.015  1.00 20.00     0.000 C 
HETATM    8  C8  UNL     1     -32.581   7.762   3.763  1.00 20.00     0.000 C 
HETATM    9  O9  UNL     1     -34.516   3.905   4.539  1.00 20.00    -0.298 OA
ENDROOT
TORSDOF 0
ENDMDL
MODEL 3
REMARK VINA RESULT:      -5.3      1.583      2.816
REMARK  0 active torsions:
REMARK  status: ('A' for Active; 'I' for Inactive)
ROOT
HETATM    1  C1  UNL     1     -32.722   7.561   3.256  1.00 20.00     0.127 C 
HETATM    2  C2  UNL     1     -32.484   7.953   4.699  1.00 20.00     0.078 C 
HETATM    3  C3  UNL     1     -32.619   6.093   2.907  1.00 20.00     0.078 C 
HETATM    4  C4  UNL     1     -33.653   7.618   5.624  1.00 20.00     0.007 C 
HETATM    5  C5  UNL     1     -33.975   5.467   2.617  1.00 20.00     0.007 C 
HETATM    6  C6  UNL     1     -33.868   6.117   5.837  1.00 20.00     0.000 C 
HETATM    7  C7  UNL     1     -35.125   5.871   3.539  1.00 20.00     0.000 C 
HETATM    8  C8  UNL     1     -34.990   5.480   5.011  1.00 20.00     0.000 C 
HETATM    9  O9  UNL     1     -33.015   8.401   2.405  1.00 20.00    -0.298 OA
ENDROOT
TORSDOF 0
ENDMDL
MODEL 4
REMARK VINA RESULT:      -5.0      1.305      2.184
REMARK  0 active torsions:
REMARK  status: ('A' for Active; 'I' for Inactive)
ROOT
HETATM    1  C1  UNL     1     -32.959   6.840   3.098  1.00 20.00     0.127 C 
HETATM    2  C2  UNL     1     -33.327   5.490   2.520  1.00 20.00     0.078 C 
HETATM    3  C3  UNL     1     -34.069   7.655   3.725  1.00 20.00     0.078 C 
HETATM    4  C4  UNL     1     -33.560   4.415   3.581  1.00 20.00     0.007 C 
HETATM    5  C5  UNL     1     -33.964   7.708   5.243  1.00 20.00     0.007 C 
HETATM    6  C6  UNL     1     -34.814   4.639   4.430  1.00 20.00     0.000 C 
HETATM    7  C7  UNL     1     -33.590   6.405   5.948  1.00 20.00     0.000 C 
HETATM    8  C8  UNL     1     -34.581   5.248   5.816  1.00 20.00     0.000 C 
HETATM    9  O9  UNL     1     -31.798   7.249   3.081  1.00 20.00    -0.298 OA
ENDROOT
TORSDOF 0
ENDMDL
MODEL 5
REMARK VINA RESULT:      -4.6      1.750      3.629
REMARK  0 active torsions:
REMARK  status: ('A' for Active; 'I' for Inactive)
ROOT
HETATM    1  C1  UNL     1     -33.984   6.961   5.016  1.00 20.00     0.127 C 
HETATM    2  C2  UNL     1     -33.463   7.785   3.858  1.00 20.00     0.078 C 
HETATM    3  C3  UNL     1     -35.114   5.996   4.732  1.00 20.00     0.078 C 
HETATM    4  C4  UNL     1     -32.585   6.992   2.891  1.00 20.00     0.007 C 
HETATM    5  C5  UNL     1     -34.659   4.544   4.756  1.00 20.00     0.007 C 
HETATM    6  C6  UNL     1     -33.345   5.935   2.084  1.00 20.00     0.000 C 
HETATM    7  C7  UNL     1     -33.316   4.238   4.094  1.00 20.00     0.000 C 
HETATM    8  C8  UNL     1     -33.222   4.495   2.590  1.00 20.00     0.000 C 
HETATM    9  O9  UNL     1     -33.490   7.053   6.141  1.00 20.00    -0.298 OA
ENDROOT
TORSDOF 0
ENDMDL
MODEL 6
REMARK VINA RESULT:      -4.4      1.484      2.862
REMARK  0 active torsions:
REMARK  status: ('A' for Active; 'I' for Inactive)
ROOT
HETATM    1  C1  UNL     1     -34.802   5.770   3.606  1.00 20.00     0.127 C 
HETATM    2  C2  UNL     1     -33.918   6.152   2.438  1.00 20.00     0.078 C 
HETATM    3  C3  UNL     1     -34.120   5.259   4.856  1.00 20.00     0.078 C 
HETATM    4  C4  UNL     1     -33.197   7.486   2.628  1.00 20.00     0.007 C 
HETATM    5  C5  UNL     1     -34.166   6.267   5.996  1.00 20.00     0.007 C 
HETATM    6  C6  UNL     1     -32.121   7.462   3.718  1.00 20.00     0.000 C 
HETATM    7  C7  UNL     1     -33.911   7.728   5.627  1.00 20.00     0.000 C 
HETATM    8  C8  UNL     1     -32.527   8.059   5.068  1.00 20.00     0.000 C 
HETATM    9  O9  UNL     1     -36.025   5.895   3.550  1.00 20.00    -0.298 OA
ENDROOT
TORSDOF 0
ENDMDL
MODEL 7
REMARK VINA RESULT:      -4.4     11.870     13.525
REMARK  0 active torsions:
REMARK  status: ('A' for Active; 'I' for Inactive)
ROOT
HETATM    1  C1  UNL     1     -35.611  13.811  -5.047  1.00 20.00     0.127 C 
HETATM    2  C2  UNL     1     -34.590  14.241  -4.015  1.00 20.00     0.078 C 
HETATM    3  C3  UNL     1     -36.278  14.898  -5.861  1.00 20.00     0.078 C 
HETATM    4  C4  UNL     1     -33.250  14.656  -4.618  1.00 20.00     0.007 C 
HETATM    5  C5  UNL     1     -35.796  14.923  -7.304  1.00 20.00     0.007 C 
HETATM    6  C6  UNL     1     -33.306  15.957  -5.424  1.00 20.00     0.000 C 
HETATM    7  C7  UNL     1     -34.297  14.725  -7.526  1.00 20.00     0.000 C 
HETATM    8  C8  UNL     1     -33.373  15.796  -6.946  1.00 20.00     0.000 C 
HETATM    9  O9  UNL     1     -35.869  12.622  -5.236  1.00 20.00    -0.298 OA
ENDROOT
TORSDOF 0
ENDMDL
MODEL 8
REMARK VINA RESULT:      -4.1     12.366     13.557
REMARK  0 active torsions:
REMARK  status: ('A' for Active; 'I' for Inactive)
ROOT
HETATM    1  C1  UNL     1     -35.085  14.555  -4.377  1.00 20.00     0.127 C 
HETATM    2  C2  UNL     1     -35.882  13.503  -5.119  1.00 20.00     0.078 C 
HETATM    3  C3  UNL     1     -33.577  14.479  -4.468  1.00 20.00     0.078 C 
HETATM    4  C4  UNL     1     -35.929  13.724  -6.629  1.00 20.00     0.007 C 
HETATM    5  C5  UNL     1     -32.990  15.583  -5.335  1.00 20.00     0.007 C 
HETATM    6  C6  UNL     1     -34.584  13.516  -7.332  1.00 20.00     0.000 C 
HETATM    7  C7  UNL     1     -33.737  15.905  -6.629  1.00 20.00     0.000 C 
HETATM    8  C8  UNL     1     -33.806  14.791  -7.673  1.00 20.00     0.000 C 
HETATM    9  O9  UNL     1     -35.643  15.454  -3.747  1.00 20.00    -0.298 OA
ENDROOT
TORSDOF 0
ENDMDL
MODEL 9
REMARK VINA RESULT:      -4.0     12.162     13.666
REMARK  0 active torsions:
REMARK  status: ('A' for Active; 'I' for Inactive)
ROOT
HETATM    1  C1  UNL     1     -33.630  14.541  -4.591  1.00 20.00     0.127 C 
HETATM    2  C2  UNL     1     -33.126  15.767  -5.324  1.00 20.00     0.078 C 
HETATM    3  C3  UNL     1     -35.111  14.469  -4.291  1.00 20.00     0.078 C 
HETATM    4  C4  UNL     1     -33.461  15.768  -6.814  1.00 20.00     0.007 C 
HETATM    5  C5  UNL     1     -35.830  13.443  -5.155  1.00 20.00     0.007 C 
HETATM    6  C6  UNL     1     -34.954  15.929  -7.117  1.00 20.00     0.000 C 
HETATM    7  C7  UNL     1     -35.428  13.389  -6.628  1.00 20.00     0.000 C 
HETATM    8  C8  UNL     1     -35.708  14.641  -7.459  1.00 20.00     0.000 C 
HETATM    9  O9  UNL     1     -32.868  13.626  -4.275  1.00 20.00    -0.298 OA
ENDROOT
TORSDOF 0
ENDMDL
