MODEL 1
REMARK VINA RESULT:      -4.4      0.000      0.000
REMARK  1 active torsions:
REMARK  status: ('A' for Active; 'I' for Inactive)
REMARK    1  A    between atoms: C1_1  and  C2_2 
ROOT
HETATM    1  C2  UNL     1     -34.265   5.758   4.176  1.00 20.00     0.281 C 
HETATM    2 CL5  UNL     1     -35.859   6.146   3.505  1.00 20.00    -0.073 Cl
HETATM    3 CL6  UNL     1     -34.211   4.077   4.731  1.00 20.00    -0.073 Cl
HETATM    4 CL7  UNL     1     -33.870   6.872   5.497  1.00 20.00    -0.073 Cl
ENDROOT
BRANCH   1   5
HETATM    5  C1  UNL     1     -33.231   5.897   3.093  1.00 20.00     0.352 C 
HETATM    6  O3  UNL     1     -32.688   6.940   2.758  1.00 20.00    -0.255 OA
HETATM    7  F4  UNL     1     -32.800   4.783   2.480  1.00 20.00    -0.160 F 
ENDBRANCH   1   5
TORSDOF 1
ENDMDL
MODEL 2
REMARK VINA RESULT:      -4.4      0.076      1.904
REMARK  1 active torsions:
REMARK  status: ('A' for Active; 'I' for Inactive)
REMARK    1  A    between atoms: C1_1  and  C2_2 
ROOT
HETATM    1  C2  UNL     1     -34.283   5.775   4.230  1.00 20.00     0.281 C 
HETATM    2 CL5  UNL     1     -33.915   6.888   5.558  1.00 20.00    -0.073 Cl
HETATM    3 CL6  UNL     1     -35.861   6.149   3.516  1.00 20.00    -0.073 Cl
HETATM    4 CL7  UNL     1     -34.232   4.099   4.805  1.00 20.00    -0.073 Cl
ENDROOT
BRANCH   1   5
HETATM    5  C1  UNL     1     -33.257   5.951   3.145  1.00 20.00     0.352 C 
HETATM    6  O3  UNL     1     -32.718   7.006   2.840  1.00 20.00    -0.255 OA
HETATM    7  F4  UNL     1     -32.827   4.859   2.494  1.00 20.00    -0.160 F 
ENDBRANCH   1   5
TORSDOF 1
ENDMDL
MODEL 3
REMARK VINA RESULT:      -4.4      0.068      1.921
REMARK  1 active torsions:
REMARK  status: ('A' for Active; 'I' for Inactive)
REMARK    1  A    between atoms: C1_1  and  C2_2 
ROOT
HETATM    1  C2  UNL     1     -34.271   5.777   4.189  1.00 20.00     0.281 C 
HETATM    2 CL5  UNL     1     -34.249   4.127   4.834  1.00 20.00    -0.073 Cl
HETATM    3 CL6  UNL     1     -33.841   6.948   5.446  1.00 20.00    -0.073 Cl
HETATM    4 CL7  UNL     1     -35.863   6.144   3.501  1.00 20.00    -0.073 Cl
ENDROOT
BRANCH   1   5
HETATM    5  C1  UNL     1     -33.233   5.892   3.107  1.00 20.00     0.352 C 
HETATM    6  O3  UNL     1     -32.640   6.917   2.797  1.00 20.00    -0.255 OA
HETATM    7  F4  UNL     1     -32.856   4.775   2.466  1.00 20.00    -0.160 F 
ENDBRANCH   1   5
TORSDOF 1
ENDMDL
MODEL 4
REMARK VINA RESULT:      -4.4      2.470      2.815
REMARK  1 active torsions:
REMARK  status: ('A' for Active; 'I' for Inactive)
REMARK    1  A    between atoms: C1_1  and  C2_2 
ROOT
HETATM    1  C2  UNL     1     -34.249   5.989   4.161  1.00 20.00     0.281 C 
HETATM    2 CL5  UNL     1     -33.016   5.966   2.889  1.00 20.00    -0.073 Cl
HETATM    3 CL6  UNL     1     -35.854   6.289   3.474  1.00 20.00    -0.073 Cl
HETATM    4 CL7  UNL     1     -33.847   7.210   5.381  1.00 20.00    -0.073 Cl
ENDROOT
BRANCH   1   5
HETATM    5  C1  UNL     1     -34.298   4.638   4.819  1.00 20.00     0.352 C 
HETATM    6  O3  UNL     1     -34.284   3.562   4.237  1.00 20.00    -0.255 OA
HETATM    7  F4  UNL     1     -34.283   4.584   6.160  1.00 20.00    -0.160 F 
ENDBRANCH   1   5
TORSDOF 1
ENDMDL
MODEL 5
REMARK VINA RESULT:      -4.3      2.109      2.515
REMARK  1 active torsions:
REMARK  status: ('A' for Active; 'I' for Inactive)
REMARK    1  A    between atoms: C1_1  and  C2_2 
ROOT
HETATM    1  C2  UNL     1     -34.266   5.729   4.167  1.00 20.00     0.281 C 
HETATM    2 CL5  UNL     1     -33.241   4.999   2.919  1.00 20.00    -0.073 Cl
HETATM    3 CL6  UNL     1     -34.460   4.629   5.542  1.00 20.00    -0.073 Cl
HETATM    4 CL7  UNL     1     -35.841   6.169   3.485  1.00 20.00    -0.073 Cl
ENDROOT
BRANCH   1   5
HETATM    5  C1  UNL     1     -33.595   6.969   4.688  1.00 20.00     0.352 C 
HETATM    6  O3  UNL     1     -32.701   7.585   4.124  1.00 20.00    -0.255 OA
HETATM    7  F4  UNL     1     -34.050   7.505   5.832  1.00 20.00    -0.160 F 
ENDBRANCH   1   5
TORSDOF 1
ENDMDL
MODEL 6
REMARK VINA RESULT:      -4.3      2.471      2.841
REMARK  1 active torsions:
REMARK  status: ('A' for Active; 'I' for Inactive)
REMARK    1  A    between atoms: C1_1  and  C2_2 
ROOT
HETATM    1  C2  UNL     1     -34.263   5.967   4.139  1.00 20.00     0.281 C 
HETATM    2 CL5  UNL     1     -35.857   6.304   3.441  1.00 20.00    -0.073 Cl
HETATM    3 CL6  UNL     1     -33.856   7.164   5.380  1.00 20.00    -0.073 Cl
HETATM    4 CL7  UNL     1     -33.032   5.935   2.865  1.00 20.00    -0.073 Cl
ENDROOT
BRANCH   1   5
HETATM    5  C1  UNL     1     -34.300   4.626   4.818  1.00 20.00     0.352 C 
HETATM    6  O3  UNL     1     -34.269   3.541   4.253  1.00 20.00    -0.255 OA
HETATM    7  F4  UNL     1     -34.291   4.593   6.160  1.00 20.00    -0.160 F 
ENDBRANCH   1   5
TORSDOF 1
ENDMDL
MODEL 7
REMARK VINA RESULT:      -4.3      2.101      2.287
REMARK  1 active torsions:
REMARK  status: ('A' for Active; 'I' for Inactive)
REMARK    1  A    between atoms: C1_1  and  C2_2 
ROOT
HETATM    1  C2  UNL     1     -34.268   5.730   4.165  1.00 20.00     0.281 C 
HETATM    2 CL5  UNL     1     -35.852   6.162   3.498  1.00 20.00    -0.073 Cl
HETATM    3 CL6  UNL     1     -33.229   5.032   2.911  1.00 20.00    -0.073 Cl
HETATM    4 CL7  UNL     1     -34.460   4.607   5.522  1.00 20.00    -0.073 Cl
ENDROOT
BRANCH   1   5
HETATM    5  C1  UNL     1     -33.587   6.978   4.655  1.00 20.00     0.352 C 
HETATM    6  O3  UNL     1     -32.695   7.579   4.071  1.00 20.00    -0.255 OA
HETATM    7  F4  UNL     1     -34.029   7.538   5.792  1.00 20.00    -0.160 F 
ENDBRANCH   1   5
TORSDOF 1
ENDMDL
MODEL 8
REMARK VINA RESULT:      -4.3      2.099      2.764
REMARK  1 active torsions:
REMARK  status: ('A' for Active; 'I' for Inactive)
REMARK    1  A    between atoms: C1_1  and  C2_2 
ROOT
HETATM    1  C2  UNL     1     -34.258   5.707   4.165  1.00 20.00     0.281 C 
HETATM    2 CL5  UNL     1     -34.464   4.600   5.533  1.00 20.00    -0.073 Cl
HETATM    3 CL6  UNL     1     -35.829   6.172   3.491  1.00 20.00    -0.073 Cl
HETATM    4 CL7  UNL     1     -33.235   4.962   2.924  1.00 20.00    -0.073 Cl
ENDROOT
BRANCH   1   5
HETATM    5  C1  UNL     1     -33.598   6.968   4.651  1.00 20.00     0.352 C 
HETATM    6  O3  UNL     1     -32.720   7.584   4.062  1.00 20.00    -0.255 OA
HETATM    7  F4  UNL     1     -34.046   7.521   5.788  1.00 20.00    -0.160 F 
ENDBRANCH   1   5
TORSDOF 1
ENDMDL
MODEL 9
REMARK VINA RESULT:      -4.3      2.360      2.924
REMARK  1 active torsions:
REMARK  status: ('A' for Active; 'I' for Inactive)
REMARK    1  A    between atoms: C1_1  and  C2_2 
ROOT
HETATM    1  C2  UNL     1     -34.230   5.718   4.074  1.00 20.00     0.281 C 
HETATM    2 CL5  UNL     1     -34.155   3.995   4.481  1.00 20.00    -0.073 Cl
HETATM    3 CL6  UNL     1     -35.845   6.155   3.491  1.00 20.00    -0.073 Cl
HETATM    4 CL7  UNL     1     -32.995   6.116   2.867  1.00 20.00    -0.073 Cl
ENDROOT
BRANCH   1   5
HETATM    5  C1  UNL     1     -33.978   6.526   5.317  1.00 20.00     0.352 C 
HETATM    6  O3  UNL     1     -33.249   7.505   5.393  1.00 20.00    -0.255 OA
HETATM    7  F4  UNL     1     -34.657   6.207   6.430  1.00 20.00    -0.160 F 
ENDBRANCH   1   5
TORSDOF 1
ENDMDL
