MODEL 1
REMARK VINA RESULT:      -5.8      0.000      0.000
REMARK  3 active torsions:
REMARK  status: ('A' for Active; 'I' for Inactive)
REMARK    1  A    between atoms: C1_1  and  C3_3 
REMARK    2  A    between atoms: C1_1  and  O4_4 
REMARK    3  A    between atoms: C2_2  and  O4_4 
ROOT
HETATM    1  C1  UNL     1     -33.666   6.452   4.671  1.00 20.00     0.330 C 
HETATM    2 CL10 UNL     1     -33.839   7.410   6.164  1.00 20.00    -0.086 Cl
ENDROOT
BRANCH   1   3
HETATM    3  C3  UNL     1     -34.736   5.381   4.626  1.00 20.00     0.427 C 
HETATM    4  F7  UNL     1     -35.825   5.787   3.940  1.00 20.00    -0.167 F 
HETATM    5  F8  UNL     1     -35.136   5.058   5.877  1.00 20.00    -0.167 F 
HETATM    6  F9  UNL     1     -34.275   4.251   4.047  1.00 20.00    -0.167 F 
ENDBRANCH   1   3
BRANCH   1   7
HETATM    7  O4  UNL     1     -33.838   7.298   3.535  1.00 20.00    -0.302 OA
BRANCH   7   8
HETATM    8  C2  UNL     1     -32.751   7.231   2.628  1.00 20.00     0.501 C 
HETATM    9  F5  UNL     1     -31.704   7.882   3.192  1.00 20.00    -0.184 F 
HETATM   10  F6  UNL     1     -32.380   5.936   2.487  1.00 20.00    -0.184 F 
ENDBRANCH   7   8
ENDBRANCH   1   7
TORSDOF 3
ENDMDL
MODEL 2
REMARK VINA RESULT:      -5.8      0.026      1.195
REMARK  3 active torsions:
REMARK  status: ('A' for Active; 'I' for Inactive)
REMARK    1  A    between atoms: C1_1  and  C3_3 
REMARK    2  A    between atoms: C1_1  and  O4_4 
REMARK    3  A    between atoms: C2_2  and  O4_4 
ROOT
HETATM    1  C1  UNL     1     -33.666   6.438   4.678  1.00 20.00     0.330 C 
HETATM    2 CL10 UNL     1     -33.843   7.412   6.161  1.00 20.00    -0.086 Cl
ENDROOT
BRANCH   1   3
HETATM    3  C3  UNL     1     -34.727   5.357   4.649  1.00 20.00     0.427 C 
HETATM    4  F7  UNL     1     -34.278   4.228   4.062  1.00 20.00    -0.167 F 
HETATM    5  F8  UNL     1     -35.812   5.776   3.960  1.00 20.00    -0.167 F 
HETATM    6  F9  UNL     1     -35.140   5.043   5.897  1.00 20.00    -0.167 F 
ENDBRANCH   1   3
BRANCH   1   7
HETATM    7  O4  UNL     1     -33.851   7.270   3.533  1.00 20.00    -0.302 OA
BRANCH   7   8
HETATM    8  C2  UNL     1     -32.764   7.207   2.625  1.00 20.00     0.501 C 
HETATM    9  F5  UNL     1     -31.718   7.859   3.190  1.00 20.00    -0.184 F 
HETATM   10  F6  UNL     1     -32.390   5.913   2.482  1.00 20.00    -0.184 F 
ENDBRANCH   7   8
ENDBRANCH   1   7
TORSDOF 3
ENDMDL
MODEL 3
REMARK VINA RESULT:      -5.6      1.885      2.226
REMARK  3 active torsions:
REMARK  status: ('A' for Active; 'I' for Inactive)
REMARK    1  A    between atoms: C1_1  and  C3_3 
REMARK    2  A    between atoms: C1_1  and  O4_4 
REMARK    3  A    between atoms: C2_2  and  O4_4 
ROOT
HETATM    1  C1  UNL     1     -33.866   6.121   3.170  1.00 20.00     0.330 C 
HETATM    2 CL10 UNL     1     -32.903   4.739   2.585  1.00 20.00    -0.086 Cl
ENDROOT
BRANCH   1   3
HETATM    3  C3  UNL     1     -34.874   5.642   4.194  1.00 20.00     0.427 C 
HETATM    4  F7  UNL     1     -34.684   6.224   5.397  1.00 20.00    -0.167 F 
HETATM    5  F8  UNL     1     -34.776   4.304   4.366  1.00 20.00    -0.167 F 
HETATM    6  F9  UNL     1     -36.138   5.905   3.798  1.00 20.00    -0.167 F 
ENDBRANCH   1   3
BRANCH   1   7
HETATM    7  O4  UNL     1     -33.009   7.070   3.802  1.00 20.00    -0.302 OA
BRANCH   7   8
HETATM    8  C2  UNL     1     -32.147   7.728   2.890  1.00 20.00     0.501 C 
HETATM    9  F5  UNL     1     -32.886   8.636   2.207  1.00 20.00    -0.184 F 
HETATM   10  F6  UNL     1     -31.219   8.423   3.591  1.00 20.00    -0.184 F 
ENDBRANCH   7   8
ENDBRANCH   1   7
TORSDOF 3
ENDMDL
MODEL 4
REMARK VINA RESULT:      -5.6      1.895      1.975
REMARK  3 active torsions:
REMARK  status: ('A' for Active; 'I' for Inactive)
REMARK    1  A    between atoms: C1_1  and  C3_3 
REMARK    2  A    between atoms: C1_1  and  O4_4 
REMARK    3  A    between atoms: C2_2  and  O4_4 
ROOT
HETATM    1  C1  UNL     1     -33.862   6.127   3.143  1.00 20.00     0.330 C 
HETATM    2 CL10 UNL     1     -32.889   4.740   2.585  1.00 20.00    -0.086 Cl
ENDROOT
BRANCH   1   3
HETATM    3  C3  UNL     1     -34.876   5.659   4.166  1.00 20.00     0.427 C 
HETATM    4  F7  UNL     1     -36.141   5.924   3.778  1.00 20.00    -0.167 F 
HETATM    5  F8  UNL     1     -34.672   6.275   5.352  1.00 20.00    -0.167 F 
HETATM    6  F9  UNL     1     -34.776   4.329   4.382  1.00 20.00    -0.167 F 
ENDBRANCH   1   3
BRANCH   1   7
HETATM    7  O4  UNL     1     -33.013   7.088   3.769  1.00 20.00    -0.302 OA
BRANCH   7   8
HETATM    8  C2  UNL     1     -32.136   7.726   2.856  1.00 20.00     0.501 C 
HETATM    9  F5  UNL     1     -32.844   8.680   2.203  1.00 20.00    -0.184 F 
HETATM   10  F6  UNL     1     -31.167   8.364   3.556  1.00 20.00    -0.184 F 
ENDBRANCH   7   8
ENDBRANCH   1   7
TORSDOF 3
ENDMDL
MODEL 5
REMARK VINA RESULT:      -5.6      1.918      2.298
REMARK  3 active torsions:
REMARK  status: ('A' for Active; 'I' for Inactive)
REMARK    1  A    between atoms: C1_1  and  C3_3 
REMARK    2  A    between atoms: C1_1  and  O4_4 
REMARK    3  A    between atoms: C2_2  and  O4_4 
ROOT
HETATM    1  C1  UNL     1     -33.834   6.093   3.111  1.00 20.00     0.330 C 
HETATM    2 CL10 UNL     1     -32.913   4.662   2.578  1.00 20.00    -0.086 Cl
ENDROOT
BRANCH   1   3
HETATM    3  C3  UNL     1     -34.855   5.682   4.151  1.00 20.00     0.427 C 
HETATM    4  F7  UNL     1     -34.799   4.360   4.416  1.00 20.00    -0.167 F 
HETATM    5  F8  UNL     1     -36.106   5.963   3.724  1.00 20.00    -0.167 F 
HETATM    6  F9  UNL     1     -34.667   6.348   5.312  1.00 20.00    -0.167 F 
ENDBRANCH   1   3
BRANCH   1   7
HETATM    7  O4  UNL     1     -32.948   7.038   3.709  1.00 20.00    -0.302 OA
BRANCH   7   8
HETATM    8  C2  UNL     1     -32.151   7.725   2.759  1.00 20.00     0.501 C 
HETATM    9  F5  UNL     1     -32.912   8.710   2.219  1.00 20.00    -0.184 F 
HETATM   10  F6  UNL     1     -31.126   8.330   3.406  1.00 20.00    -0.184 F 
ENDBRANCH   7   8
ENDBRANCH   1   7
TORSDOF 3
ENDMDL
MODEL 6
REMARK VINA RESULT:      -5.5      1.082      3.483
REMARK  3 active torsions:
REMARK  status: ('A' for Active; 'I' for Inactive)
REMARK    1  A    between atoms: C1_1  and  C3_3 
REMARK    2  A    between atoms: C1_1  and  O4_4 
REMARK    3  A    between atoms: C2_2  and  O4_4 
ROOT
HETATM    1  C1  UNL     1     -34.049   7.034   4.015  1.00 20.00     0.330 C 
HETATM    2 CL10 UNL     1     -33.512   7.370   5.682  1.00 20.00    -0.086 Cl
ENDROOT
BRANCH   1   3
HETATM    3  C3  UNL     1     -32.856   7.057   3.082  1.00 20.00     0.427 C 
HETATM    4  F7  UNL     1     -32.530   5.819   2.653  1.00 20.00    -0.167 F 
HETATM    5  F8  UNL     1     -31.775   7.573   3.708  1.00 20.00    -0.167 F 
HETATM    6  F9  UNL     1     -33.098   7.824   1.997  1.00 20.00    -0.167 F 
ENDBRANCH   1   3
BRANCH   1   7
HETATM    7  O4  UNL     1     -34.636   5.735   3.952  1.00 20.00    -0.302 OA
BRANCH   7   8
HETATM    8  C2  UNL     1     -34.230   4.895   5.020  1.00 20.00     0.501 C 
HETATM    9  F5  UNL     1     -35.234   4.874   5.931  1.00 20.00    -0.184 F 
HETATM   10  F6  UNL     1     -34.097   3.630   4.552  1.00 20.00    -0.184 F 
ENDBRANCH   7   8
ENDBRANCH   1   7
TORSDOF 3
ENDMDL
MODEL 7
REMARK VINA RESULT:      -5.5      1.060      3.440
REMARK  3 active torsions:
REMARK  status: ('A' for Active; 'I' for Inactive)
REMARK    1  A    between atoms: C1_1  and  C3_3 
REMARK    2  A    between atoms: C1_1  and  O4_4 
REMARK    3  A    between atoms: C2_2  and  O4_4 
ROOT
HETATM    1  C1  UNL     1     -34.029   7.071   4.023  1.00 20.00     0.330 C 
HETATM    2 CL10 UNL     1     -33.466   7.362   5.690  1.00 20.00    -0.086 Cl
ENDROOT
BRANCH   1   3
HETATM    3  C3  UNL     1     -32.847   7.093   3.076  1.00 20.00     0.427 C 
HETATM    4  F7  UNL     1     -33.090   7.850   1.985  1.00 20.00    -0.167 F 
HETATM    5  F8  UNL     1     -32.556   5.842   2.652  1.00 20.00    -0.167 F 
HETATM    6  F9  UNL     1     -31.742   7.579   3.683  1.00 20.00    -0.167 F 
ENDBRANCH   1   3
BRANCH   1   7
HETATM    7  O4  UNL     1     -34.639   5.784   3.940  1.00 20.00    -0.302 OA
BRANCH   7   8
HETATM    8  C2  UNL     1     -34.240   4.916   4.987  1.00 20.00     0.501 C 
HETATM    9  F5  UNL     1     -35.234   4.899   5.909  1.00 20.00    -0.184 F 
HETATM   10  F6  UNL     1     -34.137   3.658   4.495  1.00 20.00    -0.184 F 
ENDBRANCH   7   8
ENDBRANCH   1   7
TORSDOF 3
ENDMDL
MODEL 8
REMARK VINA RESULT:      -5.4      1.448      2.150
REMARK  3 active torsions:
REMARK  status: ('A' for Active; 'I' for Inactive)
REMARK    1  A    between atoms: C1_1  and  C3_3 
REMARK    2  A    between atoms: C1_1  and  O4_4 
REMARK    3  A    between atoms: C2_2  and  O4_4 
ROOT
HETATM    1  C1  UNL     1     -32.970   6.829   3.616  1.00 20.00     0.330 C 
HETATM    2 CL10 UNL     1     -33.756   7.224   5.167  1.00 20.00    -0.086 Cl
ENDROOT
BRANCH   1   3
HETATM    3  C3  UNL     1     -33.636   5.615   3.003  1.00 20.00     0.427 C 
HETATM    4  F7  UNL     1     -34.402   4.955   3.898  1.00 20.00    -0.167 F 
HETATM    5  F8  UNL     1     -32.708   4.748   2.540  1.00 20.00    -0.167 F 
HETATM    6  F9  UNL     1     -34.420   5.961   1.958  1.00 20.00    -0.167 F 
ENDBRANCH   1   3
BRANCH   1   7
HETATM    7  O4  UNL     1     -33.119   7.921   2.710  1.00 20.00    -0.302 OA
BRANCH   7   8
HETATM    8  C2  UNL     1     -31.900   8.598   2.457  1.00 20.00     0.501 C 
HETATM    9  F5  UNL     1     -31.005   8.196   3.393  1.00 20.00    -0.184 F 
HETATM   10  F6  UNL     1     -31.420   8.196   1.255  1.00 20.00    -0.184 F 
ENDBRANCH   7   8
ENDBRANCH   1   7
TORSDOF 3
ENDMDL
MODEL 9
REMARK VINA RESULT:      -5.1      2.079      3.822
REMARK  3 active torsions:
REMARK  status: ('A' for Active; 'I' for Inactive)
REMARK    1  A    between atoms: C1_1  and  C3_3 
REMARK    2  A    between atoms: C1_1  and  O4_4 
REMARK    3  A    between atoms: C2_2  and  O4_4 
ROOT
HETATM    1  C1  UNL     1     -33.261   5.937   3.826  1.00 20.00     0.330 C 
HETATM    2 CL10 UNL     1     -33.009   4.796   2.478  1.00 20.00    -0.086 Cl
ENDROOT
BRANCH   1   3
HETATM    3  C3  UNL     1     -32.894   7.338   3.382  1.00 20.00     0.427 C 
HETATM    4  F7  UNL     1     -32.239   7.336   2.201  1.00 20.00    -0.167 F 
HETATM    5  F8  UNL     1     -32.092   7.929   4.295  1.00 20.00    -0.167 F 
HETATM    6  F9  UNL     1     -33.992   8.113   3.248  1.00 20.00    -0.167 F 
ENDBRANCH   1   3
BRANCH   1   7
HETATM    7  O4  UNL     1     -34.637   5.938   4.203  1.00 20.00    -0.302 OA
BRANCH   7   8
HETATM    8  C2  UNL     1     -34.828   5.722   5.591  1.00 20.00     0.501 C 
HETATM    9  F5  UNL     1     -34.167   4.587   5.925  1.00 20.00    -0.184 F 
HETATM   10  F6  UNL     1     -34.242   6.735   6.274  1.00 20.00    -0.184 F 
ENDBRANCH   7   8
ENDBRANCH   1   7
TORSDOF 3
ENDMDL
