MODEL 1
REMARK VINA RESULT:      -3.5      0.000      0.000
REMARK  0 active torsions:
REMARK  status: ('A' for Active; 'I' for Inactive)
ROOT
HETATM    1  C1  UNL     1     -33.143   7.425   3.404  1.00 20.00     0.177 C 
HETATM    2  C2  UNL     1     -33.752   7.384   5.697  1.00 20.00     0.177 C 
HETATM    3  C3  UNL     1     -33.592   6.011   3.073  1.00 20.00     0.100 C 
HETATM    4  C4  UNL     1     -34.294   5.963   5.713  1.00 20.00     0.100 C 
HETATM    5  O5  UNL     1     -32.692   7.530   4.754  1.00 20.00    -0.390 OA
HETATM    6  S6  UNL     1     -35.013   5.539   4.100  1.00 20.00    -0.165 SA
ENDROOT
TORSDOF 0
ENDMDL
MODEL 2
REMARK VINA RESULT:      -3.3      1.490      2.262
REMARK  0 active torsions:
REMARK  status: ('A' for Active; 'I' for Inactive)
ROOT
HETATM    1  C1  UNL     1     -34.460   5.175   5.717  1.00 20.00     0.177 C 
HETATM    2  C2  UNL     1     -33.409   7.279   5.408  1.00 20.00     0.177 C 
HETATM    3  C3  UNL     1     -34.864   4.961   4.268  1.00 20.00     0.100 C 
HETATM    4  C4  UNL     1     -33.653   7.383   3.910  1.00 20.00     0.100 C 
HETATM    5  O5  UNL     1     -34.453   6.560   6.061  1.00 20.00    -0.390 OA
HETATM    6  S6  UNL     1     -33.658   5.734   3.151  1.00 20.00    -0.165 SA
ENDROOT
TORSDOF 0
ENDMDL
MODEL 3
REMARK VINA RESULT:      -3.2      0.839      2.248
REMARK  0 active torsions:
REMARK  status: ('A' for Active; 'I' for Inactive)
ROOT
HETATM    1  C1  UNL     1     -33.725   6.905   5.674  1.00 20.00     0.177 C 
HETATM    2  C2  UNL     1     -33.241   6.812   3.353  1.00 20.00     0.177 C 
HETATM    3  C3  UNL     1     -34.720   5.756   5.696  1.00 20.00     0.100 C 
HETATM    4  C4  UNL     1     -34.163   5.648   3.024  1.00 20.00     0.100 C 
HETATM    5  O5  UNL     1     -33.753   7.599   4.427  1.00 20.00    -0.390 OA
HETATM    6  S6  UNL     1     -34.289   4.518   4.440  1.00 20.00    -0.165 SA
ENDROOT
TORSDOF 0
ENDMDL
MODEL 4
REMARK VINA RESULT:      -3.2      1.889      2.279
REMARK  0 active torsions:
REMARK  status: ('A' for Active; 'I' for Inactive)
ROOT
HETATM    1  C1  UNL     1     -33.171   6.093   3.048  1.00 20.00     0.177 C 
HETATM    2  C2  UNL     1     -34.170   4.518   4.515  1.00 20.00     0.177 C 
HETATM    3  C3  UNL     1     -33.621   7.341   3.792  1.00 20.00     0.100 C 
HETATM    4  C4  UNL     1     -34.770   5.528   5.481  1.00 20.00     0.100 C 
HETATM    5  O5  UNL     1     -34.116   5.032   3.185  1.00 20.00    -0.390 OA
HETATM    6  S6  UNL     1     -33.730   7.013   5.574  1.00 20.00    -0.165 SA
ENDROOT
TORSDOF 0
ENDMDL
MODEL 5
REMARK VINA RESULT:      -3.1      1.806      2.765
REMARK  0 active torsions:
REMARK  status: ('A' for Active; 'I' for Inactive)
ROOT
HETATM    1  C1  UNL     1     -34.401   6.507   5.972  1.00 20.00     0.177 C 
HETATM    2  C2  UNL     1     -34.692   4.821   4.328  1.00 20.00     0.177 C 
HETATM    3  C3  UNL     1     -33.296   7.266   5.257  1.00 20.00     0.100 C 
HETATM    4  C4  UNL     1     -33.630   5.326   3.364  1.00 20.00     0.100 C 
HETATM    5  O5  UNL     1     -34.351   5.110   5.683  1.00 20.00    -0.390 OA
HETATM    6  S6  UNL     1     -33.496   7.134   3.457  1.00 20.00    -0.165 SA
ENDROOT
TORSDOF 0
ENDMDL
MODEL 6
REMARK VINA RESULT:      -3.0      1.885      2.752
REMARK  0 active torsions:
REMARK  status: ('A' for Active; 'I' for Inactive)
ROOT
HETATM    1  C1  UNL     1     -35.092   5.483   4.083  1.00 20.00     0.177 C 
HETATM    2  C2  UNL     1     -33.619   6.911   2.891  1.00 20.00     0.177 C 
HETATM    3  C3  UNL     1     -34.416   5.618   5.437  1.00 20.00     0.100 C 
HETATM    4  C4  UNL     1     -32.719   7.262   4.066  1.00 20.00     0.100 C 
HETATM    5  O5  UNL     1     -34.152   5.594   3.014  1.00 20.00    -0.390 OA
HETATM    6  S6  UNL     1     -33.669   7.263   5.614  1.00 20.00    -0.165 SA
ENDROOT
TORSDOF 0
ENDMDL
MODEL 7
REMARK VINA RESULT:      -2.8     12.289     13.077
REMARK  0 active torsions:
REMARK  status: ('A' for Active; 'I' for Inactive)
ROOT
HETATM    1  C1  UNL     1     -35.214  13.945  -4.583  1.00 20.00     0.177 C 
HETATM    2  C2  UNL     1     -35.628  13.301  -6.829  1.00 20.00     0.177 C 
HETATM    3  C3  UNL     1     -33.854  14.579  -4.827  1.00 20.00     0.100 C 
HETATM    4  C4  UNL     1     -34.331  13.838  -7.412  1.00 20.00     0.100 C 
HETATM    5  O5  UNL     1     -35.457  12.863  -5.482  1.00 20.00    -0.390 OA
HETATM    6  S6  UNL     1     -33.778  15.302  -6.491  1.00 20.00    -0.165 SA
ENDROOT
TORSDOF 0
ENDMDL
MODEL 8
REMARK VINA RESULT:      -2.7     12.586     13.306
REMARK  0 active torsions:
REMARK  status: ('A' for Active; 'I' for Inactive)
ROOT
HETATM    1  C1  UNL     1     -35.001  13.279  -7.212  1.00 20.00     0.177 C 
HETATM    2  C2  UNL     1     -35.807  13.556  -4.998  1.00 20.00     0.177 C 
HETATM    3  C3  UNL     1     -36.198  13.894  -7.918  1.00 20.00     0.100 C 
HETATM    4  C4  UNL     1     -37.127  14.214  -5.369  1.00 20.00     0.100 C 
HETATM    5  O5  UNL     1     -35.382  12.632  -5.998  1.00 20.00    -0.390 OA
HETATM    6  S6  UNL     1     -36.945  15.191  -6.889  1.00 20.00    -0.165 SA
ENDROOT
TORSDOF 0
ENDMDL
MODEL 9
REMARK VINA RESULT:      -2.6     12.126     12.387
REMARK  0 active torsions:
REMARK  status: ('A' for Active; 'I' for Inactive)
ROOT
HETATM    1  C1  UNL     1     -35.574  13.809  -4.874  1.00 20.00     0.177 C 
HETATM    2  C2  UNL     1     -33.349  14.479  -4.396  1.00 20.00     0.177 C 
HETATM    3  C3  UNL     1     -36.249  15.099  -4.437  1.00 20.00     0.100 C 
HETATM    4  C4  UNL     1     -33.687  15.872  -3.886  1.00 20.00     0.100 C 
HETATM    5  O5  UNL     1     -34.394  13.550  -4.114  1.00 20.00    -0.390 OA
HETATM    6  S6  UNL     1     -35.157  16.519  -4.734  1.00 20.00    -0.165 SA
ENDROOT
TORSDOF 0
ENDMDL
