MODEL 1
REMARK VINA RESULT:      -4.0      0.000      0.000
REMARK  3 active torsions:
REMARK  status: ('A' for Active; 'I' for Inactive)
REMARK    1  A    between atoms: C1_1  and  C3_3 
REMARK    2  A    between atoms: C1_1  and  O6_6 
REMARK    3  A    between atoms: C3_3  and  C4_4 
ROOT
HETATM    1  C1  UNL     1     -34.550   5.079   4.675  1.00 20.00     0.259 C 
HETATM    2  O5  UNL     1     -34.520   3.879   4.443  1.00 20.00    -0.265 OA
ENDROOT
BRANCH   1   3
HETATM    3  C3  UNL     1     -34.577   6.172   3.627  1.00 20.00     0.122 C 
BRANCH   3   4
HETATM    4  C4  UNL     1     -33.379   6.078   2.677  1.00 20.00     0.096 C 
HETATM    5  S7  UNL     1     -32.530   7.698   2.611  1.00 20.00    -0.097 SA
ENDBRANCH   3   4
ENDBRANCH   1   3
BRANCH   1   6
HETATM    6  O6  UNL     1     -34.567   5.655   5.914  1.00 20.00    -0.326 OA
HETATM    7  C2  UNL     1     -33.974   6.955   5.997  1.00 20.00     0.213 C 
ENDBRANCH   1   6
TORSDOF 3
ENDMDL
MODEL 2
REMARK VINA RESULT:      -3.8      1.444      2.260
REMARK  3 active torsions:
REMARK  status: ('A' for Active; 'I' for Inactive)
REMARK    1  A    between atoms: C1_1  and  C3_3 
REMARK    2  A    between atoms: C1_1  and  O6_6 
REMARK    3  A    between atoms: C3_3  and  C4_4 
ROOT
HETATM    1  C1  UNL     1     -34.068   6.675   4.671  1.00 20.00     0.259 C 
HETATM    2  O5  UNL     1     -33.762   7.360   5.638  1.00 20.00    -0.265 OA
ENDROOT
BRANCH   1   3
HETATM    3  C3  UNL     1     -33.478   6.808   3.283  1.00 20.00     0.122 C 
BRANCH   3   4
HETATM    4  C4  UNL     1     -32.222   7.686   3.282  1.00 20.00     0.096 C 
HETATM    5  S7  UNL     1     -32.202   8.711   1.765  1.00 20.00    -0.097 SA
ENDBRANCH   3   4
ENDBRANCH   1   3
BRANCH   1   6
HETATM    6  O6  UNL     1     -34.993   5.669   4.664  1.00 20.00    -0.326 OA
HETATM    7  C2  UNL     1     -34.463   4.347   4.520  1.00 20.00     0.213 C 
ENDBRANCH   1   6
TORSDOF 3
ENDMDL
MODEL 3
REMARK VINA RESULT:      -3.7      1.625      1.851
REMARK  3 active torsions:
REMARK  status: ('A' for Active; 'I' for Inactive)
REMARK    1  A    between atoms: C1_1  and  C3_3 
REMARK    2  A    between atoms: C1_1  and  O6_6 
REMARK    3  A    between atoms: C3_3  and  C4_4 
ROOT
HETATM    1  C1  UNL     1     -33.810   5.739   3.409  1.00 20.00     0.259 C 
HETATM    2  O5  UNL     1     -33.127   5.058   2.656  1.00 20.00    -0.265 OA
ENDROOT
BRANCH   1   3
HETATM    3  C3  UNL     1     -33.626   7.222   3.656  1.00 20.00     0.122 C 
BRANCH   3   4
HETATM    4  C4  UNL     1     -32.200   7.680   3.331  1.00 20.00     0.096 C 
HETATM    5  S7  UNL     1     -32.217   8.665   1.789  1.00 20.00    -0.097 SA
ENDBRANCH   3   4
ENDBRANCH   1   3
BRANCH   1   6
HETATM    6  O6  UNL     1     -34.859   5.293   4.162  1.00 20.00    -0.326 OA
HETATM    7  C2  UNL     1     -34.633   5.259   5.575  1.00 20.00     0.213 C 
ENDBRANCH   1   6
TORSDOF 3
ENDMDL
MODEL 4
REMARK VINA RESULT:      -3.6      2.380      2.987
REMARK  3 active torsions:
REMARK  status: ('A' for Active; 'I' for Inactive)
REMARK    1  A    between atoms: C1_1  and  C3_3 
REMARK    2  A    between atoms: C1_1  and  O6_6 
REMARK    3  A    between atoms: C3_3  and  C4_4 
ROOT
HETATM    1  C1  UNL     1     -33.634   5.790   2.880  1.00 20.00     0.259 C 
HETATM    2  O5  UNL     1     -32.952   4.787   2.718  1.00 20.00    -0.265 OA
ENDROOT
BRANCH   1   3
HETATM    3  C3  UNL     1     -34.887   5.870   3.727  1.00 20.00     0.122 C 
BRANCH   3   4
HETATM    4  C4  UNL     1     -34.585   5.637   5.211  1.00 20.00     0.096 C 
HETATM    5  S7  UNL     1     -33.822   7.143   5.917  1.00 20.00    -0.097 SA
ENDBRANCH   3   4
ENDBRANCH   1   3
BRANCH   1   6
HETATM    6  O6  UNL     1     -33.392   7.019   2.331  1.00 20.00    -0.326 OA
HETATM    7  C2  UNL     1     -32.169   7.643   2.734  1.00 20.00     0.213 C 
ENDBRANCH   1   6
TORSDOF 3
ENDMDL
MODEL 5
REMARK VINA RESULT:      -3.6      3.703      4.441
REMARK  3 active torsions:
REMARK  status: ('A' for Active; 'I' for Inactive)
REMARK    1  A    between atoms: C1_1  and  C3_3 
REMARK    2  A    between atoms: C1_1  and  O6_6 
REMARK    3  A    between atoms: C3_3  and  C4_4 
ROOT
HETATM    1  C1  UNL     1     -32.037   8.029   2.721  1.00 20.00     0.259 C 
HETATM    2  O5  UNL     1     -31.352   8.437   3.648  1.00 20.00    -0.265 OA
ENDROOT
BRANCH   1   3
HETATM    3  C3  UNL     1     -33.081   6.936   2.819  1.00 20.00     0.122 C 
BRANCH   3   4
HETATM    4  C4  UNL     1     -33.825   6.979   4.158  1.00 20.00     0.096 C 
HETATM    5  S7  UNL     1     -34.746   5.415   4.389  1.00 20.00    -0.097 SA
ENDBRANCH   3   4
ENDBRANCH   1   3
BRANCH   1   6
HETATM    6  O6  UNL     1     -31.992   8.481   1.432  1.00 20.00    -0.326 OA
HETATM    7  C2  UNL     1     -32.484   9.809   1.227  1.00 20.00     0.213 C 
ENDBRANCH   1   6
TORSDOF 3
ENDMDL
MODEL 6
REMARK VINA RESULT:      -3.5      2.812      3.524
REMARK  3 active torsions:
REMARK  status: ('A' for Active; 'I' for Inactive)
REMARK    1  A    between atoms: C1_1  and  C3_3 
REMARK    2  A    between atoms: C1_1  and  O6_6 
REMARK    3  A    between atoms: C3_3  and  C4_4 
ROOT
HETATM    1  C1  UNL     1     -32.891   7.420   4.154  1.00 20.00     0.259 C 
HETATM    2  O5  UNL     1     -33.194   7.545   5.333  1.00 20.00    -0.265 OA
ENDROOT
BRANCH   1   3
HETATM    3  C3  UNL     1     -33.635   6.569   3.146  1.00 20.00     0.122 C 
BRANCH   3   4
HETATM    4  C4  UNL     1     -34.871   5.906   3.763  1.00 20.00     0.096 C 
HETATM    5  S7  UNL     1     -34.383   4.322   4.539  1.00 20.00    -0.097 SA
ENDBRANCH   3   4
ENDBRANCH   1   3
BRANCH   1   6
HETATM    6  O6  UNL     1     -31.835   8.021   3.531  1.00 20.00    -0.326 OA
HETATM    7  C2  UNL     1     -32.050   8.380   2.162  1.00 20.00     0.213 C 
ENDBRANCH   1   6
TORSDOF 3
ENDMDL
MODEL 7
REMARK VINA RESULT:      -3.5      1.720      1.975
REMARK  3 active torsions:
REMARK  status: ('A' for Active; 'I' for Inactive)
REMARK    1  A    between atoms: C1_1  and  C3_3 
REMARK    2  A    between atoms: C1_1  and  O6_6 
REMARK    3  A    between atoms: C3_3  and  C4_4 
ROOT
HETATM    1  C1  UNL     1     -33.886   6.560   3.681  1.00 20.00     0.259 C 
HETATM    2  O5  UNL     1     -34.899   5.876   3.626  1.00 20.00    -0.265 OA
ENDROOT
BRANCH   1   3
HETATM    3  C3  UNL     1     -32.907   6.766   2.545  1.00 20.00     0.122 C 
BRANCH   3   4
HETATM    4  C4  UNL     1     -32.057   8.025   2.749  1.00 20.00     0.096 C 
HETATM    5  S7  UNL     1     -32.169   9.080   1.258  1.00 20.00    -0.097 SA
ENDBRANCH   3   4
ENDBRANCH   1   3
BRANCH   1   6
HETATM    6  O6  UNL     1     -33.453   7.263   4.770  1.00 20.00    -0.326 OA
HETATM    7  C2  UNL     1     -34.043   6.888   6.020  1.00 20.00     0.213 C 
ENDBRANCH   1   6
TORSDOF 3
ENDMDL
MODEL 8
REMARK VINA RESULT:      -3.5      2.638      3.427
REMARK  3 active torsions:
REMARK  status: ('A' for Active; 'I' for Inactive)
REMARK    1  A    between atoms: C1_1  and  C3_3 
REMARK    2  A    between atoms: C1_1  and  O6_6 
REMARK    3  A    between atoms: C3_3  and  C4_4 
ROOT
HETATM    1  C1  UNL     1     -32.776   7.424   3.556  1.00 20.00     0.259 C 
HETATM    2  O5  UNL     1     -33.146   7.407   4.722  1.00 20.00    -0.265 OA
ENDROOT
BRANCH   1   3
HETATM    3  C3  UNL     1     -31.730   8.357   2.983  1.00 20.00     0.122 C 
BRANCH   3   4
HETATM    4  C4  UNL     1     -31.870   8.503   1.464  1.00 20.00     0.096 C 
HETATM    5  S7  UNL     1     -32.661  10.109   1.082  1.00 20.00    -0.097 SA
ENDBRANCH   3   4
ENDBRANCH   1   3
BRANCH   1   6
HETATM    6  O6  UNL     1     -33.233   6.608   2.560  1.00 20.00    -0.326 OA
HETATM    7  C2  UNL     1     -33.371   5.227   2.909  1.00 20.00     0.213 C 
ENDBRANCH   1   6
TORSDOF 3
ENDMDL
MODEL 9
REMARK VINA RESULT:      -3.3     12.319     12.709
REMARK  3 active torsions:
REMARK  status: ('A' for Active; 'I' for Inactive)
REMARK    1  A    between atoms: C1_1  and  C3_3 
REMARK    2  A    between atoms: C1_1  and  O6_6 
REMARK    3  A    between atoms: C3_3  and  C4_4 
ROOT
HETATM    1  C1  UNL     1     -36.438  13.682  -5.024  1.00 20.00     0.259 C 
HETATM    2  O5  UNL     1     -35.820  12.687  -5.378  1.00 20.00    -0.265 OA
ENDROOT
BRANCH   1   3
HETATM    3  C3  UNL     1     -35.815  14.965  -4.517  1.00 20.00     0.122 C 
BRANCH   3   4
HETATM    4  C4  UNL     1     -34.375  14.747  -4.041  1.00 20.00     0.096 C 
HETATM    5  S7  UNL     1     -33.221  15.539  -5.222  1.00 20.00    -0.097 SA
ENDBRANCH   3   4
ENDBRANCH   1   3
BRANCH   1   6
HETATM    6  O6  UNL     1     -37.798  13.820  -5.023  1.00 20.00    -0.326 OA
HETATM    7  C2  UNL     1     -38.287  15.091  -4.582  1.00 20.00     0.213 C 
ENDBRANCH   1   6
TORSDOF 3
ENDMDL
