MODEL 1
REMARK VINA RESULT:      -3.3      0.000      0.000
REMARK  0 active torsions:
REMARK  status: ('A' for Active; 'I' for Inactive)
ROOT
HETATM    1  C1  UNL     1     -33.769   7.451   5.639  1.00 20.00     0.020 C 
HETATM    2  C2  UNL     1     -32.604   7.682   4.680  1.00 20.00     0.075 C 
HETATM    3  C3  UNL     1     -34.274   6.012   5.686  1.00 20.00     0.075 C 
HETATM    4  C4  UNL     1     -33.581   5.695   3.038  1.00 20.00     0.147 C 
HETATM    5  S5  UNL     1     -33.059   7.423   2.939  1.00 20.00    -0.159 SA
HETATM    6  S6  UNL     1     -35.014   5.468   4.118  1.00 20.00    -0.159 SA
ENDROOT
TORSDOF 0
ENDMDL
MODEL 2
REMARK VINA RESULT:      -3.3      1.354      2.363
REMARK  0 active torsions:
REMARK  status: ('A' for Active; 'I' for Inactive)
ROOT
HETATM    1  C1  UNL     1     -32.822   7.573   4.861  1.00 20.00     0.020 C 
HETATM    2  C2  UNL     1     -33.936   7.232   5.847  1.00 20.00     0.075 C 
HETATM    3  C3  UNL     1     -33.241   7.531   3.394  1.00 20.00     0.075 C 
HETATM    4  C4  UNL     1     -35.048   5.535   3.982  1.00 20.00     0.147 C 
HETATM    5  S5  UNL     1     -34.503   5.511   5.706  1.00 20.00    -0.159 SA
HETATM    6  S6  UNL     1     -33.689   5.861   2.834  1.00 20.00    -0.159 SA
ENDROOT
TORSDOF 0
ENDMDL
MODEL 3
REMARK VINA RESULT:      -3.2      0.883      2.406
REMARK  0 active torsions:
REMARK  status: ('A' for Active; 'I' for Inactive)
ROOT
HETATM    1  C1  UNL     1     -33.800   6.719   5.791  1.00 20.00     0.020 C 
HETATM    2  C2  UNL     1     -34.759   5.555   5.557  1.00 20.00     0.075 C 
HETATM    3  C3  UNL     1     -33.648   7.661   4.600  1.00 20.00     0.075 C 
HETATM    4  C4  UNL     1     -34.073   5.546   2.887  1.00 20.00     0.147 C 
HETATM    5  S5  UNL     1     -34.171   4.399   4.282  1.00 20.00    -0.159 SA
HETATM    6  S6  UNL     1     -32.870   6.867   3.162  1.00 20.00    -0.159 SA
ENDROOT
TORSDOF 0
ENDMDL
MODEL 4
REMARK VINA RESULT:      -3.2      1.599      2.446
REMARK  0 active torsions:
REMARK  status: ('A' for Active; 'I' for Inactive)
ROOT
HETATM    1  C1  UNL     1     -32.887   6.415   2.994  1.00 20.00     0.020 C 
HETATM    2  C2  UNL     1     -33.457   7.543   3.849  1.00 20.00     0.075 C 
HETATM    3  C3  UNL     1     -33.814   5.215   2.831  1.00 20.00     0.075 C 
HETATM    4  C4  UNL     1     -34.849   5.689   5.340  1.00 20.00     0.147 C 
HETATM    5  S5  UNL     1     -33.698   7.062   5.586  1.00 20.00    -0.159 SA
HETATM    6  S6  UNL     1     -34.116   4.335   4.393  1.00 20.00    -0.159 SA
ENDROOT
TORSDOF 0
ENDMDL
MODEL 5
REMARK VINA RESULT:      -3.1      1.661      2.422
REMARK  0 active torsions:
REMARK  status: ('A' for Active; 'I' for Inactive)
ROOT
HETATM    1  C1  UNL     1     -34.282   4.662   5.330  1.00 20.00     0.020 C 
HETATM    2  C2  UNL     1     -34.364   4.627   3.806  1.00 20.00     0.075 C 
HETATM    3  C3  UNL     1     -34.666   6.001   5.953  1.00 20.00     0.075 C 
HETATM    4  C4  UNL     1     -33.702   7.301   3.723  1.00 20.00     0.147 C 
HETATM    5  S5  UNL     1     -33.161   5.731   3.007  1.00 20.00    -0.159 SA
HETATM    6  S6  UNL     1     -33.516   7.340   5.521  1.00 20.00    -0.159 SA
ENDROOT
TORSDOF 0
ENDMDL
MODEL 6
REMARK VINA RESULT:      -3.1      1.358      2.780
REMARK  0 active torsions:
REMARK  status: ('A' for Active; 'I' for Inactive)
ROOT
HETATM    1  C1  UNL     1     -34.789   5.266   4.188  1.00 20.00     0.020 C 
HETATM    2  C2  UNL     1     -34.297   5.592   5.596  1.00 20.00     0.075 C 
HETATM    3  C3  UNL     1     -33.741   5.449   3.095  1.00 20.00     0.075 C 
HETATM    4  C4  UNL     1     -32.600   7.493   4.548  1.00 20.00     0.147 C 
HETATM    5  S5  UNL     1     -33.884   7.349   5.813  1.00 20.00    -0.159 SA
HETATM    6  S6  UNL     1     -33.232   7.181   2.883  1.00 20.00    -0.159 SA
ENDROOT
TORSDOF 0
ENDMDL
MODEL 7
REMARK VINA RESULT:      -3.0      1.371      2.806
REMARK  0 active torsions:
REMARK  status: ('A' for Active; 'I' for Inactive)
ROOT
HETATM    1  C1  UNL     1     -33.160   7.262   2.988  1.00 20.00     0.020 C 
HETATM    2  C2  UNL     1     -33.725   5.849   2.863  1.00 20.00     0.075 C 
HETATM    3  C3  UNL     1     -32.484   7.556   4.324  1.00 20.00     0.075 C 
HETATM    4  C4  UNL     1     -34.228   5.826   5.573  1.00 20.00     0.147 C 
HETATM    5  S5  UNL     1     -35.096   5.531   4.014  1.00 20.00    -0.159 SA
HETATM    6  S6  UNL     1     -33.642   7.529   5.725  1.00 20.00    -0.159 SA
ENDROOT
TORSDOF 0
ENDMDL
MODEL 8
REMARK VINA RESULT:      -2.6     12.108     12.786
REMARK  0 active torsions:
REMARK  status: ('A' for Active; 'I' for Inactive)
ROOT
HETATM    1  C1  UNL     1     -34.065  15.486  -4.254  1.00 20.00     0.020 C 
HETATM    2  C2  UNL     1     -33.082  15.636  -5.413  1.00 20.00     0.075 C 
HETATM    3  C3  UNL     1     -34.690  14.100  -4.131  1.00 20.00     0.075 C 
HETATM    4  C4  UNL     1     -34.539  13.803  -6.867  1.00 20.00     0.147 C 
HETATM    5  S5  UNL     1     -33.878  15.477  -7.040  1.00 20.00    -0.159 SA
HETATM    6  S6  UNL     1     -35.760  13.678  -5.539  1.00 20.00    -0.159 SA
ENDROOT
TORSDOF 0
ENDMDL
MODEL 9
REMARK VINA RESULT:      -2.6     12.195     13.078
REMARK  0 active torsions:
REMARK  status: ('A' for Active; 'I' for Inactive)
ROOT
HETATM    1  C1  UNL     1     -33.234  14.640  -4.555  1.00 20.00     0.020 C 
HETATM    2  C2  UNL     1     -34.650  14.399  -4.038  1.00 20.00     0.075 C 
HETATM    3  C3  UNL     1     -33.131  15.704  -5.643  1.00 20.00     0.075 C 
HETATM    4  C4  UNL     1     -35.650  15.026  -6.529  1.00 20.00     0.147 C 
HETATM    5  S5  UNL     1     -35.756  13.702  -5.302  1.00 20.00    -0.159 SA
HETATM    6  S6  UNL     1     -33.976  15.231  -7.180  1.00 20.00    -0.159 SA
ENDROOT
TORSDOF 0
ENDMDL
