MODEL 1
REMARK VINA RESULT:      -5.6      0.000      0.000
REMARK  1 active torsions:
REMARK  status: ('A' for Active; 'I' for Inactive)
REMARK    1  A    between atoms: C3_3  and  C8_8 
ROOT
HETATM    1  C1  UNL     1     -33.514   4.667   4.193  1.00 20.00    -0.026 C 
HETATM    2  C2  UNL     1     -33.461   5.112   2.929  1.00 20.00    -0.025 C 
HETATM    3  C4  UNL     1     -35.475   5.828   3.804  1.00 20.00     0.017 C 
HETATM    4  C5  UNL     1     -33.821   6.942   5.104  1.00 20.00     0.021 C 
HETATM    5  C6  UNL     1     -34.481   5.555   4.938  1.00 20.00     0.009 C 
HETATM    6  C7  UNL     1     -34.386   6.307   2.835  1.00 20.00     0.019 C 
HETATM    7  C8  UNL     1     -33.791   7.483   3.645  1.00 20.00     0.063 C 
ENDROOT
BRANCH   7   8
HETATM    8  C3  UNL     1     -32.420   7.883   3.196  1.00 20.00     0.128 C 
HETATM    9  C9  UNL     1     -32.270   8.281   1.753  1.00 20.00     0.091 C 
HETATM   10  O10 UNL     1     -31.463   7.887   3.969  1.00 20.00    -0.298 OA
ENDBRANCH   7   8
TORSDOF 1
ENDMDL
MODEL 2
REMARK VINA RESULT:      -4.5     11.272     12.486
REMARK  1 active torsions:
REMARK  status: ('A' for Active; 'I' for Inactive)
REMARK    1  A    between atoms: C3_3  and  C8_8 
ROOT
HETATM    1  C1  UNL     1     -32.942  15.698  -5.239  1.00 20.00    -0.026 C 
HETATM    2  C2  UNL     1     -33.208  14.539  -4.618  1.00 20.00    -0.025 C 
HETATM    3  C4  UNL     1     -34.166  16.212  -3.346  1.00 20.00     0.017 C 
HETATM    4  C5  UNL     1     -35.335  16.284  -5.419  1.00 20.00     0.021 C 
HETATM    5  C6  UNL     1     -33.984  16.693  -4.790  1.00 20.00     0.009 C 
HETATM    6  C7  UNL     1     -34.437  14.761  -3.762  1.00 20.00     0.019 C 
HETATM    7  C8  UNL     1     -35.671  14.959  -4.675  1.00 20.00     0.063 C 
ENDROOT
BRANCH   7   8
HETATM    8  C3  UNL     1     -35.916  13.811  -5.604  1.00 20.00     0.128 C 
HETATM    9  C9  UNL     1     -36.126  14.146  -7.055  1.00 20.00     0.091 C 
HETATM   10  O10 UNL     1     -35.945  12.649  -5.199  1.00 20.00    -0.298 OA
ENDBRANCH   7   8
TORSDOF 1
ENDMDL
MODEL 3
REMARK VINA RESULT:      -4.3      1.838      3.550
REMARK  1 active torsions:
REMARK  status: ('A' for Active; 'I' for Inactive)
REMARK    1  A    between atoms: C3_3  and  C8_8 
ROOT
HETATM    1  C1  UNL     1     -32.092   7.453   4.057  1.00 20.00    -0.026 C 
HETATM    2  C2  UNL     1     -33.183   7.493   4.836  1.00 20.00    -0.025 C 
HETATM    3  C4  UNL     1     -33.875   7.998   2.691  1.00 20.00     0.017 C 
HETATM    4  C5  UNL     1     -33.081   5.758   2.558  1.00 20.00     0.021 C 
HETATM    5  C6  UNL     1     -32.562   7.211   2.644  1.00 20.00     0.009 C 
HETATM    6  C7  UNL     1     -34.382   7.265   3.940  1.00 20.00     0.019 C 
HETATM    7  C8  UNL     1     -34.371   5.805   3.428  1.00 20.00     0.063 C 
ENDROOT
BRANCH   7   8
HETATM    8  C3  UNL     1     -34.374   4.788   4.526  1.00 20.00     0.128 C 
HETATM    9  C9  UNL     1     -34.726   5.280   5.904  1.00 20.00     0.091 C 
HETATM   10  O10 UNL     1     -34.103   3.606   4.313  1.00 20.00    -0.298 OA
ENDBRANCH   7   8
TORSDOF 1
ENDMDL
MODEL 4
REMARK VINA RESULT:      -4.3     11.180     12.600
REMARK  1 active torsions:
REMARK  status: ('A' for Active; 'I' for Inactive)
REMARK    1  A    between atoms: C3_3  and  C8_8 
ROOT
HETATM    1  C1  UNL     1     -35.344  16.166  -3.751  1.00 20.00    -0.026 C 
HETATM    2  C2  UNL     1     -35.682  16.272  -5.045  1.00 20.00    -0.025 C 
HETATM    3  C4  UNL     1     -33.381  16.442  -4.941  1.00 20.00     0.017 C 
HETATM    4  C5  UNL     1     -33.861  14.238  -4.179  1.00 20.00     0.021 C 
HETATM    5  C6  UNL     1     -33.907  15.707  -3.703  1.00 20.00     0.009 C 
HETATM    6  C7  UNL     1     -34.470  15.873  -5.860  1.00 20.00     0.019 C 
HETATM    7  C8  UNL     1     -34.213  14.357  -5.690  1.00 20.00     0.063 C 
ENDROOT
BRANCH   7   8
HETATM    8  C3  UNL     1     -35.379  13.507  -6.089  1.00 20.00     0.128 C 
HETATM    9  C9  UNL     1     -35.829  13.604  -7.521  1.00 20.00     0.091 C 
HETATM   10  O10 UNL     1     -35.941  12.764  -5.285  1.00 20.00    -0.298 OA
ENDBRANCH   7   8
TORSDOF 1
ENDMDL
MODEL 5
REMARK VINA RESULT:      -4.0     12.026     13.110
REMARK  1 active torsions:
REMARK  status: ('A' for Active; 'I' for Inactive)
REMARK    1  A    between atoms: C3_3  and  C8_8 
ROOT
HETATM    1  C1  UNL     1     -34.895  15.805  -7.223  1.00 20.00    -0.026 C 
HETATM    2  C2  UNL     1     -36.050  15.184  -7.504  1.00 20.00    -0.025 C 
HETATM    3  C4  UNL     1     -34.436  13.541  -7.323  1.00 20.00     0.017 C 
HETATM    4  C5  UNL     1     -34.567  14.504  -5.150  1.00 20.00     0.021 C 
HETATM    5  C6  UNL     1     -33.996  14.793  -6.556  1.00 20.00     0.009 C 
HETATM    6  C7  UNL     1     -35.923  13.757  -7.013  1.00 20.00     0.019 C 
HETATM    7  C8  UNL     1     -35.889  13.747  -5.466  1.00 20.00     0.063 C 
ENDROOT
BRANCH   7   8
HETATM    8  C3  UNL     1     -37.092  14.381  -4.839  1.00 20.00     0.128 C 
HETATM    9  C9  UNL     1     -36.852  15.608  -4.003  1.00 20.00     0.091 C 
HETATM   10  O10 UNL     1     -38.222  13.920  -5.000  1.00 20.00    -0.298 OA
ENDBRANCH   7   8
TORSDOF 1
ENDMDL
MODEL 6
REMARK VINA RESULT:      -3.9     11.439     12.474
REMARK  1 active torsions:
REMARK  status: ('A' for Active; 'I' for Inactive)
REMARK    1  A    between atoms: C3_3  and  C8_8 
ROOT
HETATM    1  C1  UNL     1     -34.012  16.754  -2.346  1.00 20.00    -0.026 C 
HETATM    2  C2  UNL     1     -35.271  16.334  -2.539  1.00 20.00    -0.025 C 
HETATM    3  C4  UNL     1     -34.856  17.952  -4.134  1.00 20.00     0.017 C 
HETATM    4  C5  UNL     1     -33.346  16.187  -4.656  1.00 20.00     0.021 C 
HETATM    5  C6  UNL     1     -33.535  17.345  -3.650  1.00 20.00     0.009 C 
HETATM    6  C7  UNL     1     -35.629  16.636  -3.979  1.00 20.00     0.019 C 
HETATM    7  C8  UNL     1     -34.807  15.719  -4.916  1.00 20.00     0.063 C 
ENDROOT
BRANCH   7   8
HETATM    8  C3  UNL     1     -35.011  14.260  -4.652  1.00 20.00     0.128 C 
HETATM    9  C9  UNL     1     -36.283  13.648  -5.174  1.00 20.00     0.091 C 
HETATM   10  O10 UNL     1     -34.180  13.593  -4.037  1.00 20.00    -0.298 OA
ENDBRANCH   7   8
TORSDOF 1
ENDMDL
MODEL 7
REMARK VINA RESULT:      -3.9     11.401     12.865
REMARK  1 active torsions:
REMARK  status: ('A' for Active; 'I' for Inactive)
REMARK    1  A    between atoms: C3_3  and  C8_8 
ROOT
HETATM    1  C1  UNL     1     -34.186  14.043  -7.777  1.00 20.00    -0.026 C 
HETATM    2  C2  UNL     1     -33.940  15.205  -7.154  1.00 20.00    -0.025 C 
HETATM    3  C4  UNL     1     -36.210  15.142  -7.574  1.00 20.00     0.017 C 
HETATM    4  C5  UNL     1     -35.823  13.340  -6.067  1.00 20.00     0.021 C 
HETATM    5  C6  UNL     1     -35.643  13.718  -7.554  1.00 20.00     0.009 C 
HETATM    6  C7  UNL     1     -35.234  15.649  -6.505  1.00 20.00     0.019 C 
HETATM    7  C8  UNL     1     -35.578  14.693  -5.338  1.00 20.00     0.063 C 
ENDROOT
BRANCH   7   8
HETATM    8  C3  UNL     1     -34.505  14.612  -4.297  1.00 20.00     0.128 C 
HETATM    9  C9  UNL     1     -34.276  15.844  -3.464  1.00 20.00     0.091 C 
HETATM   10  O10 UNL     1     -33.843  13.589  -4.131  1.00 20.00    -0.298 OA
ENDBRANCH   7   8
TORSDOF 1
ENDMDL
MODEL 8
REMARK VINA RESULT:      -3.8     11.637     12.560
REMARK  1 active torsions:
REMARK  status: ('A' for Active; 'I' for Inactive)
REMARK    1  A    between atoms: C3_3  and  C8_8 
ROOT
HETATM    1  C1  UNL     1     -33.322  14.455  -4.366  1.00 20.00    -0.026 C 
HETATM    2  C2  UNL     1     -32.918  15.514  -5.084  1.00 20.00    -0.025 C 
HETATM    3  C4  UNL     1     -35.162  15.216  -5.542  1.00 20.00     0.017 C 
HETATM    4  C5  UNL     1     -35.083  15.758  -3.225  1.00 20.00     0.021 C 
HETATM    5  C6  UNL     1     -34.816  14.581  -4.191  1.00 20.00     0.009 C 
HETATM    6  C7  UNL     1     -34.144  16.352  -5.378  1.00 20.00     0.019 C 
HETATM    7  C8  UNL     1     -34.653  16.994  -4.066  1.00 20.00     0.063 C 
ENDROOT
BRANCH   7   8
HETATM    8  C3  UNL     1     -33.628  17.842  -3.380  1.00 20.00     0.128 C 
HETATM    9  C9  UNL     1     -33.292  17.482  -1.958  1.00 20.00     0.091 C 
HETATM   10  O10 UNL     1     -33.085  18.788  -3.951  1.00 20.00    -0.298 OA
ENDBRANCH   7   8
TORSDOF 1
ENDMDL
MODEL 9
REMARK VINA RESULT:      -3.8     11.442     12.308
REMARK  1 active torsions:
REMARK  status: ('A' for Active; 'I' for Inactive)
REMARK    1  A    between atoms: C3_3  and  C8_8 
ROOT
HETATM    1  C1  UNL     1     -35.103  15.494  -6.521  1.00 20.00    -0.026 C 
HETATM    2  C2  UNL     1     -35.978  15.878  -5.580  1.00 20.00    -0.025 C 
HETATM    3  C4  UNL     1     -35.722  13.594  -5.358  1.00 20.00     0.017 C 
HETATM    4  C5  UNL     1     -33.577  14.495  -4.856  1.00 20.00     0.021 C 
HETATM    5  C6  UNL     1     -34.497  14.191  -6.059  1.00 20.00     0.009 C 
HETATM    6  C7  UNL     1     -35.947  14.834  -4.484  1.00 20.00     0.019 C 
HETATM    7  C8  UNL     1     -34.588  14.904  -3.747  1.00 20.00     0.063 C 
ENDROOT
BRANCH   7   8
HETATM    8  C3  UNL     1     -34.298  16.249  -3.157  1.00 20.00     0.128 C 
HETATM    9  C9  UNL     1     -35.148  16.674  -1.990  1.00 20.00     0.091 C 
HETATM   10  O10 UNL     1     -33.409  16.972  -3.605  1.00 20.00    -0.298 OA
ENDBRANCH   7   8
TORSDOF 1
ENDMDL
