MODEL 1
REMARK VINA RESULT:      -3.9      0.000      0.000
REMARK  0 active torsions:
REMARK  status: ('A' for Active; 'I' for Inactive)
ROOT
HETATM    1  C1  UNL     1     -34.312   5.750   5.733  1.00 20.00     0.016 C 
HETATM    2  C2  UNL     1     -33.979   7.190   5.345  1.00 20.00     0.016 C 
HETATM    3  C3  UNL     1     -34.814   5.076   4.461  1.00 20.00     0.140 C 
HETATM    4  C4  UNL     1     -33.122   7.101   4.088  1.00 20.00     0.140 C 
HETATM    5  O5  UNL     1     -34.683   6.285   2.124  1.00 20.00    -0.228 OA
HETATM    6  O6  UNL     1     -32.749   4.809   2.842  1.00 20.00    -0.228 OA
HETATM    7  S7  UNL     1     -33.809   5.748   3.145  1.00 20.00     0.144 S 
ENDROOT
TORSDOF 0
ENDMDL
MODEL 2
REMARK VINA RESULT:      -3.9      0.029      2.130
REMARK  0 active torsions:
REMARK  status: ('A' for Active; 'I' for Inactive)
ROOT
HETATM    1  C1  UNL     1     -33.997   7.158   5.369  1.00 20.00     0.016 C 
HETATM    2  C2  UNL     1     -34.323   5.712   5.739  1.00 20.00     0.016 C 
HETATM    3  C3  UNL     1     -33.140   7.090   4.110  1.00 20.00     0.140 C 
HETATM    4  C4  UNL     1     -34.821   5.051   4.458  1.00 20.00     0.140 C 
HETATM    5  O5  UNL     1     -32.754   4.816   2.835  1.00 20.00    -0.228 OA
HETATM    6  O6  UNL     1     -34.697   6.291   2.137  1.00 20.00    -0.228 OA
HETATM    7  S7  UNL     1     -33.820   5.744   3.151  1.00 20.00     0.144 S 
ENDROOT
TORSDOF 0
ENDMDL
MODEL 3
REMARK VINA RESULT:      -3.9      1.633      2.072
REMARK  0 active torsions:
REMARK  status: ('A' for Active; 'I' for Inactive)
ROOT
HETATM    1  C1  UNL     1     -32.832   7.470   4.837  1.00 20.00     0.016 C 
HETATM    2  C2  UNL     1     -32.896   7.452   3.310  1.00 20.00     0.016 C 
HETATM    3  C3  UNL     1     -34.169   6.921   5.321  1.00 20.00     0.140 C 
HETATM    4  C4  UNL     1     -33.383   6.060   2.925  1.00 20.00     0.140 C 
HETATM    5  O5  UNL     1     -35.915   5.882   3.643  1.00 20.00    -0.228 OA
HETATM    6  O6  UNL     1     -34.220   4.347   4.744  1.00 20.00    -0.228 OA
HETATM    7  S7  UNL     1     -34.590   5.623   4.167  1.00 20.00     0.144 S 
ENDROOT
TORSDOF 0
ENDMDL
MODEL 4
REMARK VINA RESULT:      -3.8      1.632      2.529
REMARK  0 active torsions:
REMARK  status: ('A' for Active; 'I' for Inactive)
ROOT
HETATM    1  C1  UNL     1     -32.888   7.466   3.313  1.00 20.00     0.016 C 
HETATM    2  C2  UNL     1     -32.828   7.486   4.840  1.00 20.00     0.016 C 
HETATM    3  C3  UNL     1     -33.372   6.073   2.927  1.00 20.00     0.140 C 
HETATM    4  C4  UNL     1     -34.165   6.934   5.321  1.00 20.00     0.140 C 
HETATM    5  O5  UNL     1     -34.211   4.360   4.745  1.00 20.00    -0.228 OA
HETATM    6  O6  UNL     1     -35.905   5.892   3.640  1.00 20.00    -0.228 OA
HETATM    7  S7  UNL     1     -34.581   5.635   4.168  1.00 20.00     0.144 S 
ENDROOT
TORSDOF 0
ENDMDL
MODEL 5
REMARK VINA RESULT:      -3.5      1.122      2.284
REMARK  0 active torsions:
REMARK  status: ('A' for Active; 'I' for Inactive)
ROOT
HETATM    1  C1  UNL     1     -34.086   6.956   5.972  1.00 20.00     0.016 C 
HETATM    2  C2  UNL     1     -34.638   5.628   5.457  1.00 20.00     0.016 C 
HETATM    3  C3  UNL     1     -32.951   7.335   5.027  1.00 20.00     0.140 C 
HETATM    4  C4  UNL     1     -34.863   5.815   3.961  1.00 20.00     0.140 C 
HETATM    5  O5  UNL     1     -32.489   5.972   2.820  1.00 20.00    -0.228 OA
HETATM    6  O6  UNL     1     -34.035   7.982   2.711  1.00 20.00    -0.228 OA
HETATM    7  S7  UNL     1     -33.501   6.828   3.405  1.00 20.00     0.144 S 
ENDROOT
TORSDOF 0
ENDMDL
MODEL 6
REMARK VINA RESULT:      -3.5      1.102      1.102
REMARK  0 active torsions:
REMARK  status: ('A' for Active; 'I' for Inactive)
ROOT
HETATM    1  C1  UNL     1     -34.636   5.644   5.510  1.00 20.00     0.016 C 
HETATM    2  C2  UNL     1     -34.066   6.975   5.997  1.00 20.00     0.016 C 
HETATM    3  C3  UNL     1     -34.882   5.813   4.015  1.00 20.00     0.140 C 
HETATM    4  C4  UNL     1     -32.943   7.332   5.030  1.00 20.00     0.140 C 
HETATM    5  O5  UNL     1     -34.057   7.954   2.721  1.00 20.00    -0.228 OA
HETATM    6  O6  UNL     1     -32.526   5.934   2.836  1.00 20.00    -0.228 OA
HETATM    7  S7  UNL     1     -33.521   6.807   3.424  1.00 20.00     0.144 S 
ENDROOT
TORSDOF 0
ENDMDL
MODEL 7
REMARK VINA RESULT:      -3.4     11.847     12.731
REMARK  0 active torsions:
REMARK  status: ('A' for Active; 'I' for Inactive)
ROOT
HETATM    1  C1  UNL     1     -33.957  15.268  -4.701  1.00 20.00     0.016 C 
HETATM    2  C2  UNL     1     -34.942  16.107  -5.515  1.00 20.00     0.016 C 
HETATM    3  C3  UNL     1     -34.756  14.088  -4.159  1.00 20.00     0.140 C 
HETATM    4  C4  UNL     1     -35.666  15.132  -6.436  1.00 20.00     0.140 C 
HETATM    5  O5  UNL     1     -37.235  13.640  -4.929  1.00 20.00    -0.228 OA
HETATM    6  O6  UNL     1     -35.343  12.527  -6.202  1.00 20.00    -0.228 OA
HETATM    7  S7  UNL     1     -35.891  13.648  -5.467  1.00 20.00     0.144 S 
ENDROOT
TORSDOF 0
ENDMDL
MODEL 8
REMARK VINA RESULT:      -3.4     11.846     12.808
REMARK  0 active torsions:
REMARK  status: ('A' for Active; 'I' for Inactive)
ROOT
HETATM    1  C1  UNL     1     -34.938  16.105  -5.501  1.00 20.00     0.016 C 
HETATM    2  C2  UNL     1     -33.959  15.259  -4.688  1.00 20.00     0.016 C 
HETATM    3  C3  UNL     1     -35.660  15.138  -6.432  1.00 20.00     0.140 C 
HETATM    4  C4  UNL     1     -34.763  14.077  -4.158  1.00 20.00     0.140 C 
HETATM    5  O5  UNL     1     -35.344  12.531  -6.215  1.00 20.00    -0.228 OA
HETATM    6  O6  UNL     1     -37.240  13.639  -4.944  1.00 20.00    -0.228 OA
HETATM    7  S7  UNL     1     -35.892  13.648  -5.474  1.00 20.00     0.144 S 
ENDROOT
TORSDOF 0
ENDMDL
MODEL 9
REMARK VINA RESULT:      -3.4      2.130      2.733
REMARK  0 active torsions:
REMARK  status: ('A' for Active; 'I' for Inactive)
ROOT
HETATM    1  C1  UNL     1     -32.968   5.128   2.492  1.00 20.00     0.016 C 
HETATM    2  C2  UNL     1     -32.488   6.501   2.961  1.00 20.00     0.016 C 
HETATM    3  C3  UNL     1     -33.781   4.549   3.643  1.00 20.00     0.140 C 
HETATM    4  C4  UNL     1     -33.718   7.210   3.517  1.00 20.00     0.140 C 
HETATM    5  O5  UNL     1     -34.383   5.996   5.762  1.00 20.00    -0.228 OA
HETATM    6  O6  UNL     1     -36.011   5.948   3.817  1.00 20.00    -0.228 OA
HETATM    7  S7  UNL     1     -34.661   5.939   4.342  1.00 20.00     0.144 S 
ENDROOT
TORSDOF 0
ENDMDL
