MODEL 1
REMARK VINA RESULT:      -4.8      0.000      0.000
REMARK  2 active torsions:
REMARK  status: ('A' for Active; 'I' for Inactive)
REMARK    1  A    between atoms: C1_1  and  C3_3 
REMARK    2  A    between atoms: C3_3  and  O6_6 
ROOT
HETATM    1  C1  UNL     1     -34.265   6.347   3.743  1.00 20.00     0.156 C 
HETATM    2  C2  UNL     1     -33.352   6.205   2.778  1.00 20.00     0.273 C 
HETATM    3  F7  UNL     1     -33.146   7.221   1.913  1.00 20.00    -0.173 F 
HETATM    4  F8  UNL     1     -32.633   5.071   2.649  1.00 20.00    -0.173 F 
ENDROOT
BRANCH   1   5
HETATM    5  C3  UNL     1     -34.527   5.264   4.715  1.00 20.00     0.287 C 
HETATM    6  O5  UNL     1     -34.755   4.098   4.435  1.00 20.00    -0.260 OA
BRANCH   5   7
HETATM    7  O6  UNL     1     -34.467   5.809   5.960  1.00 20.00    -0.323 OA
HETATM    8  C4  UNL     1     -33.896   7.120   6.031  1.00 20.00     0.213 C 
ENDBRANCH   5   7
ENDBRANCH   1   5
TORSDOF 2
ENDMDL
MODEL 2
REMARK VINA RESULT:      -4.7      1.365      2.276
REMARK  2 active torsions:
REMARK  status: ('A' for Active; 'I' for Inactive)
REMARK    1  A    between atoms: C1_1  and  C3_3 
REMARK    2  A    between atoms: C3_3  and  O6_6 
ROOT
HETATM    1  C1  UNL     1     -33.909   6.632   3.914  1.00 20.00     0.156 C 
HETATM    2  C2  UNL     1     -32.890   7.353   3.439  1.00 20.00     0.273 C 
HETATM    3  F7  UNL     1     -32.717   7.448   2.104  1.00 20.00    -0.173 F 
HETATM    4  F8  UNL     1     -32.030   7.987   4.263  1.00 20.00    -0.173 F 
ENDROOT
BRANCH   1   5
HETATM    5  C3  UNL     1     -34.142   6.498   5.369  1.00 20.00     0.287 C 
HETATM    6  O5  UNL     1     -33.935   7.365   6.203  1.00 20.00    -0.260 OA
BRANCH   5   7
HETATM    7  O6  UNL     1     -34.623   5.246   5.593  1.00 20.00    -0.323 OA
HETATM    8  C4  UNL     1     -34.450   4.318   4.515  1.00 20.00     0.213 C 
ENDBRANCH   5   7
ENDBRANCH   1   5
TORSDOF 2
ENDMDL
MODEL 3
REMARK VINA RESULT:      -4.6      2.897      3.410
REMARK  2 active torsions:
REMARK  status: ('A' for Active; 'I' for Inactive)
REMARK    1  A    between atoms: C1_1  and  C3_3 
REMARK    2  A    between atoms: C3_3  and  O6_6 
ROOT
HETATM    1  C1  UNL     1     -33.686   7.283   4.490  1.00 20.00     0.156 C 
HETATM    2  C2  UNL     1     -34.084   6.633   5.588  1.00 20.00     0.273 C 
HETATM    3  F7  UNL     1     -34.267   7.325   6.732  1.00 20.00    -0.173 F 
HETATM    4  F8  UNL     1     -34.304   5.302   5.577  1.00 20.00    -0.173 F 
ENDROOT
BRANCH   1   5
HETATM    5  C3  UNL     1     -33.472   6.571   3.212  1.00 20.00     0.287 C 
HETATM    6  O5  UNL     1     -34.266   5.811   2.681  1.00 20.00    -0.260 OA
BRANCH   5   7
HETATM    7  O6  UNL     1     -32.240   6.919   2.750  1.00 20.00    -0.323 OA
HETATM    8  C4  UNL     1     -32.135   8.244   2.218  1.00 20.00     0.213 C 
ENDBRANCH   5   7
ENDBRANCH   1   5
TORSDOF 2
ENDMDL
MODEL 4
REMARK VINA RESULT:      -4.6      2.564      3.271
REMARK  2 active torsions:
REMARK  status: ('A' for Active; 'I' for Inactive)
REMARK    1  A    between atoms: C1_1  and  C3_3 
REMARK    2  A    between atoms: C3_3  and  O6_6 
ROOT
HETATM    1  C1  UNL     1     -34.206   6.012   4.247  1.00 20.00     0.156 C 
HETATM    2  C2  UNL     1     -34.455   4.869   4.894  1.00 20.00     0.273 C 
HETATM    3  F7  UNL     1     -35.020   3.844   4.223  1.00 20.00    -0.173 F 
HETATM    4  F8  UNL     1     -34.155   4.719   6.201  1.00 20.00    -0.173 F 
ENDROOT
BRANCH   1   5
HETATM    5  C3  UNL     1     -33.587   7.165   4.937  1.00 20.00     0.287 C 
HETATM    6  O5  UNL     1     -33.924   7.605   6.025  1.00 20.00    -0.260 OA
BRANCH   5   7
HETATM    7  O6  UNL     1     -32.589   7.632   4.140  1.00 20.00    -0.323 OA
HETATM    8  C4  UNL     1     -32.756   7.387   2.738  1.00 20.00     0.213 C 
ENDBRANCH   5   7
ENDBRANCH   1   5
TORSDOF 2
ENDMDL
MODEL 5
REMARK VINA RESULT:      -4.5      2.693      3.347
REMARK  2 active torsions:
REMARK  status: ('A' for Active; 'I' for Inactive)
REMARK    1  A    between atoms: C1_1  and  C3_3 
REMARK    2  A    between atoms: C3_3  and  O6_6 
ROOT
HETATM    1  C1  UNL     1     -34.218   6.441   4.607  1.00 20.00     0.156 C 
HETATM    2  C2  UNL     1     -33.664   7.267   5.499  1.00 20.00     0.273 C 
HETATM    3  F7  UNL     1     -34.283   7.469   6.681  1.00 20.00    -0.173 F 
HETATM    4  F8  UNL     1     -32.502   7.904   5.244  1.00 20.00    -0.173 F 
ENDROOT
BRANCH   1   5
HETATM    5  C3  UNL     1     -33.579   6.185   3.298  1.00 20.00     0.287 C 
HETATM    6  O5  UNL     1     -33.205   7.041   2.512  1.00 20.00    -0.260 OA
BRANCH   5   7
HETATM    7  O6  UNL     1     -33.491   4.837   3.141  1.00 20.00    -0.323 OA
HETATM    8  C4  UNL     1     -34.148   4.057   4.147  1.00 20.00     0.213 C 
ENDBRANCH   5   7
ENDBRANCH   1   5
TORSDOF 2
ENDMDL
MODEL 6
REMARK VINA RESULT:      -4.5      3.278      4.043
REMARK  2 active torsions:
REMARK  status: ('A' for Active; 'I' for Inactive)
REMARK    1  A    between atoms: C1_1  and  C3_3 
REMARK    2  A    between atoms: C3_3  and  O6_6 
ROOT
HETATM    1  C1  UNL     1     -33.513   6.649   3.792  1.00 20.00     0.156 C 
HETATM    2  C2  UNL     1     -34.014   6.716   5.029  1.00 20.00     0.273 C 
HETATM    3  F7  UNL     1     -34.890   5.773   5.437  1.00 20.00    -0.173 F 
HETATM    4  F8  UNL     1     -33.665   7.705   5.878  1.00 20.00    -0.173 F 
ENDROOT
BRANCH   1   5
HETATM    5  C3  UNL     1     -32.551   7.656   3.298  1.00 20.00     0.287 C 
HETATM    6  O5  UNL     1     -31.613   8.114   3.933  1.00 20.00    -0.260 OA
BRANCH   5   7
HETATM    7  O6  UNL     1     -32.905   7.970   2.023  1.00 20.00    -0.323 OA
HETATM    8  C4  UNL     1     -32.182   9.058   1.434  1.00 20.00     0.213 C 
ENDBRANCH   5   7
ENDBRANCH   1   5
TORSDOF 2
ENDMDL
MODEL 7
REMARK VINA RESULT:      -4.5      2.133      2.610
REMARK  2 active torsions:
REMARK  status: ('A' for Active; 'I' for Inactive)
REMARK    1  A    between atoms: C1_1  and  C3_3 
REMARK    2  A    between atoms: C3_3  and  O6_6 
ROOT
HETATM    1  C1  UNL     1     -34.048   5.904   3.990  1.00 20.00     0.156 C 
HETATM    2  C2  UNL     1     -33.723   4.694   3.528  1.00 20.00     0.273 C 
HETATM    3  F7  UNL     1     -34.450   3.624   3.914  1.00 20.00    -0.173 F 
HETATM    4  F8  UNL     1     -32.684   4.517   2.685  1.00 20.00    -0.173 F 
ENDROOT
BRANCH   1   5
HETATM    5  C3  UNL     1     -33.284   7.107   3.596  1.00 20.00     0.287 C 
HETATM    6  O5  UNL     1     -33.092   7.482   2.450  1.00 20.00    -0.260 OA
BRANCH   5   7
HETATM    7  O6  UNL     1     -32.844   7.704   4.736  1.00 20.00    -0.323 OA
HETATM    8  C4  UNL     1     -33.600   7.410   5.916  1.00 20.00     0.213 C 
ENDBRANCH   5   7
ENDBRANCH   1   5
TORSDOF 2
ENDMDL
MODEL 8
REMARK VINA RESULT:      -4.4      1.847      2.580
REMARK  2 active torsions:
REMARK  status: ('A' for Active; 'I' for Inactive)
REMARK    1  A    between atoms: C1_1  and  C3_3 
REMARK    2  A    between atoms: C3_3  and  O6_6 
ROOT
HETATM    1  C1  UNL     1     -33.177   7.167   3.046  1.00 20.00     0.156 C 
HETATM    2  C2  UNL     1     -32.067   7.910   3.040  1.00 20.00     0.273 C 
HETATM    3  F7  UNL     1     -31.480   8.206   1.861  1.00 20.00    -0.173 F 
HETATM    4  F8  UNL     1     -31.519   8.368   4.185  1.00 20.00    -0.173 F 
ENDROOT
BRANCH   1   5
HETATM    5  C3  UNL     1     -33.858   6.815   4.311  1.00 20.00     0.287 C 
HETATM    6  O5  UNL     1     -33.627   7.311   5.403  1.00 20.00    -0.260 OA
BRANCH   5   7
HETATM    7  O6  UNL     1     -34.773   5.849   4.029  1.00 20.00    -0.323 OA
HETATM    8  C4  UNL     1     -34.559   4.590   4.678  1.00 20.00     0.213 C 
ENDBRANCH   5   7
ENDBRANCH   1   5
TORSDOF 2
ENDMDL
MODEL 9
REMARK VINA RESULT:      -4.4      3.236      3.975
REMARK  2 active torsions:
REMARK  status: ('A' for Active; 'I' for Inactive)
REMARK    1  A    between atoms: C1_1  and  C3_3 
REMARK    2  A    between atoms: C3_3  and  O6_6 
ROOT
HETATM    1  C1  UNL     1     -32.728   8.860   1.873  1.00 20.00     0.156 C 
HETATM    2  C2  UNL     1     -32.117   9.106   0.711  1.00 20.00     0.273 C 
HETATM    3  F7  UNL     1     -32.706   9.932  -0.180  1.00 20.00    -0.173 F 
HETATM    4  F8  UNL     1     -30.927   8.547   0.407  1.00 20.00    -0.173 F 
ENDROOT
BRANCH   1   5
HETATM    5  C3  UNL     1     -32.125   7.963   2.882  1.00 20.00     0.287 C 
HETATM    6  O5  UNL     1     -31.295   8.290   3.716  1.00 20.00    -0.260 OA
BRANCH   5   7
HETATM    7  O6  UNL     1     -32.662   6.726   2.705  1.00 20.00    -0.323 OA
HETATM    8  C4  UNL     1     -33.828   6.444   3.489  1.00 20.00     0.213 C 
ENDBRANCH   5   7
ENDBRANCH   1   5
TORSDOF 2
ENDMDL
