MODEL 1
REMARK VINA RESULT:      -4.8      0.000      0.000
REMARK  0 active torsions:
REMARK  status: ('A' for Active; 'I' for Inactive)
ROOT
HETATM    1  C1  UNL     1     -36.626  16.635  -3.175  1.00 20.00     0.008 C 
HETATM    2  C2  UNL     1     -36.988  16.160  -4.487  1.00 20.00     0.028 C 
HETATM    3  C3  UNL     1     -34.273  15.857  -3.106  1.00 20.00     0.034 C 
HETATM    4  C4  UNL     1     -35.442  16.513  -2.554  1.00 20.00    -0.060 C 
HETATM    5  C5  UNL     1     -36.502  15.092  -5.132  1.00 20.00     0.085 C 
HETATM    6  C6  UNL     1     -34.232  14.848  -3.987  1.00 20.00     0.086 C 
HETATM    7  C7  UNL     1     -35.398  14.216  -4.660  1.00 20.00     0.215 C 
HETATM    8  C8  UNL     1     -35.233  17.111  -1.187  1.00 20.00     0.048 C 
HETATM    9  O9  UNL     1     -35.404  13.011  -4.907  1.00 20.00    -0.285 OA
HETATM   10 CL10 UNL     1     -37.202  14.629  -6.651  1.00 20.00    -0.080 Cl
HETATM   11 CL11 UNL     1     -32.696  14.151  -4.401  1.00 20.00    -0.080 Cl
ENDROOT
TORSDOF 0
ENDMDL
MODEL 2
REMARK VINA RESULT:      -4.7      1.309      1.432
REMARK  0 active torsions:
REMARK  status: ('A' for Active; 'I' for Inactive)
ROOT
HETATM    1  C1  UNL     1     -35.881  16.396  -2.960  1.00 20.00     0.008 C 
HETATM    2  C2  UNL     1     -37.020  15.928  -3.708  1.00 20.00     0.028 C 
HETATM    3  C3  UNL     1     -34.077  15.723  -4.523  1.00 20.00     0.034 C 
HETATM    4  C4  UNL     1     -34.584  16.316  -3.300  1.00 20.00    -0.060 C 
HETATM    5  C5  UNL     1     -37.072  14.894  -4.557  1.00 20.00     0.085 C 
HETATM    6  C6  UNL     1     -34.617  14.733  -5.245  1.00 20.00     0.086 C 
HETATM    7  C7  UNL     1     -35.918  14.061  -4.987  1.00 20.00     0.215 C 
HETATM    8  C8  UNL     1     -33.524  16.898  -2.403  1.00 20.00     0.048 C 
HETATM    9  O9  UNL     1     -36.063  12.862  -5.219  1.00 20.00    -0.285 OA
HETATM   10 CL10 UNL     1     -38.601  14.427  -5.232  1.00 20.00    -0.080 Cl
HETATM   11 CL11 UNL     1     -33.744  14.114  -6.613  1.00 20.00    -0.080 Cl
ENDROOT
TORSDOF 0
ENDMDL
MODEL 3
REMARK VINA RESULT:      -4.5     11.408     12.239
REMARK  0 active torsions:
REMARK  status: ('A' for Active; 'I' for Inactive)
ROOT
HETATM    1  C1  UNL     1     -33.682   5.351   2.623  1.00 20.00     0.008 C 
HETATM    2  C2  UNL     1     -33.377   6.616   2.002  1.00 20.00     0.028 C 
HETATM    3  C3  UNL     1     -34.063   6.131   4.945  1.00 20.00     0.034 C 
HETATM    4  C4  UNL     1     -33.985   5.119   3.909  1.00 20.00    -0.060 C 
HETATM    5  C5  UNL     1     -32.805   7.686   2.567  1.00 20.00     0.085 C 
HETATM    6  C6  UNL     1     -33.389   7.286   5.020  1.00 20.00     0.086 C 
HETATM    7  C7  UNL     1     -32.450   7.829   4.003  1.00 20.00     0.215 C 
HETATM    8  C8  UNL     1     -34.315   3.725   4.375  1.00 20.00     0.048 C 
HETATM    9  O9  UNL     1     -31.455   8.467   4.343  1.00 20.00    -0.285 OA
HETATM   10 CL10 UNL     1     -32.400   9.053   1.576  1.00 20.00    -0.080 Cl
HETATM   11 CL11 UNL     1     -33.569   8.277   6.437  1.00 20.00    -0.080 Cl
ENDROOT
TORSDOF 0
ENDMDL
MODEL 4
REMARK VINA RESULT:      -4.5     11.508     12.311
REMARK  0 active torsions:
REMARK  status: ('A' for Active; 'I' for Inactive)
ROOT
HETATM    1  C1  UNL     1     -32.742   6.562   1.863  1.00 20.00     0.008 C 
HETATM    2  C2  UNL     1     -33.003   5.279   2.464  1.00 20.00     0.028 C 
HETATM    3  C3  UNL     1     -32.701   7.959   3.911  1.00 20.00     0.034 C 
HETATM    4  C4  UNL     1     -32.606   7.747   2.479  1.00 20.00    -0.060 C 
HETATM    5  C5  UNL     1     -33.681   5.027   3.591  1.00 20.00     0.085 C 
HETATM    6  C6  UNL     1     -33.417   7.260   4.802  1.00 20.00     0.086 C 
HETATM    7  C7  UNL     1     -34.229   6.046   4.525  1.00 20.00     0.215 C 
HETATM    8  C8  UNL     1     -32.294   8.988   1.685  1.00 20.00     0.048 C 
HETATM    9  O9  UNL     1     -35.282   5.842   5.127  1.00 20.00    -0.285 OA
HETATM   10 CL10 UNL     1     -33.995   3.381   4.042  1.00 20.00    -0.080 Cl
HETATM   11 CL11 UNL     1     -33.462   7.795   6.454  1.00 20.00    -0.080 Cl
ENDROOT
TORSDOF 0
ENDMDL
MODEL 5
REMARK VINA RESULT:      -4.4      1.856      2.963
REMARK  0 active torsions:
REMARK  status: ('A' for Active; 'I' for Inactive)
ROOT
HETATM    1  C1  UNL     1     -33.473  15.583  -3.843  1.00 20.00     0.008 C 
HETATM    2  C2  UNL     1     -33.555  14.684  -4.966  1.00 20.00     0.028 C 
HETATM    3  C3  UNL     1     -35.882  15.735  -3.278  1.00 20.00     0.034 C 
HETATM    4  C4  UNL     1     -34.480  16.055  -3.091  1.00 20.00    -0.060 C 
HETATM    5  C5  UNL     1     -34.566  14.548  -5.831  1.00 20.00     0.085 C 
HETATM    6  C6  UNL     1     -36.509  15.414  -4.418  1.00 20.00     0.086 C 
HETATM    7  C7  UNL     1     -35.880  15.241  -5.754  1.00 20.00     0.215 C 
HETATM    8  C8  UNL     1     -34.200  16.964  -1.923  1.00 20.00     0.048 C 
HETATM    9  O9  UNL     1     -36.475  15.573  -6.777  1.00 20.00    -0.285 OA
HETATM   10 CL10 UNL     1     -34.376  13.498  -7.200  1.00 20.00    -0.080 Cl
HETATM   11 CL11 UNL     1     -38.233  15.194  -4.399  1.00 20.00    -0.080 Cl
ENDROOT
TORSDOF 0
ENDMDL
MODEL 6
REMARK VINA RESULT:      -4.4      4.337      6.125
REMARK  0 active torsions:
REMARK  status: ('A' for Active; 'I' for Inactive)
ROOT
HETATM    1  C1  UNL     1     -35.040  18.786   1.578  1.00 20.00     0.008 C 
HETATM    2  C2  UNL     1     -33.604  18.724   1.680  1.00 20.00     0.028 C 
HETATM    3  C3  UNL     1     -35.350  17.420  -0.468  1.00 20.00     0.034 C 
HETATM    4  C4  UNL     1     -35.822  18.222   0.645  1.00 20.00    -0.060 C 
HETATM    5  C5  UNL     1     -32.718  18.602   0.685  1.00 20.00     0.085 C 
HETATM    6  C6  UNL     1     -34.173  17.503  -1.103  1.00 20.00     0.086 C 
HETATM    7  C7  UNL     1     -33.042  18.403  -0.752  1.00 20.00     0.215 C 
HETATM    8  C8  UNL     1     -37.320  18.363   0.719  1.00 20.00     0.048 C 
HETATM    9  O9  UNL     1     -32.332  18.891  -1.630  1.00 20.00    -0.285 OA
HETATM   10 CL10 UNL     1     -31.022  18.699   1.042  1.00 20.00    -0.080 Cl
HETATM   11 CL11 UNL     1     -33.895  16.505  -2.497  1.00 20.00    -0.080 Cl
ENDROOT
TORSDOF 0
ENDMDL
MODEL 7
REMARK VINA RESULT:      -4.4      2.615      4.528
REMARK  0 active torsions:
REMARK  status: ('A' for Active; 'I' for Inactive)
ROOT
HETATM    1  C1  UNL     1     -34.166  14.642  -4.180  1.00 20.00     0.008 C 
HETATM    2  C2  UNL     1     -33.487  15.717  -3.502  1.00 20.00     0.028 C 
HETATM    3  C3  UNL     1     -36.433  15.634  -4.328  1.00 20.00     0.034 C 
HETATM    4  C4  UNL     1     -35.455  14.586  -4.550  1.00 20.00    -0.060 C 
HETATM    5  C5  UNL     1     -34.009  16.598  -2.639  1.00 20.00     0.085 C 
HETATM    6  C6  UNL     1     -36.465  16.535  -3.339  1.00 20.00     0.086 C 
HETATM    7  C7  UNL     1     -35.445  16.711  -2.271  1.00 20.00     0.215 C 
HETATM    8  C8  UNL     1     -35.984  13.386  -5.290  1.00 20.00     0.048 C 
HETATM    9  O9  UNL     1     -35.776  17.039  -1.133  1.00 20.00    -0.285 OA
HETATM   10 CL10 UNL     1     -32.959  17.719  -1.832  1.00 20.00    -0.080 Cl
HETATM   11 CL11 UNL     1     -37.821  17.615  -3.224  1.00 20.00    -0.080 Cl
ENDROOT
TORSDOF 0
ENDMDL
MODEL 8
REMARK VINA RESULT:      -4.3      2.024      3.075
REMARK  0 active torsions:
REMARK  status: ('A' for Active; 'I' for Inactive)
ROOT
HETATM    1  C1  UNL     1     -34.547  15.517  -3.445  1.00 20.00     0.008 C 
HETATM    2  C2  UNL     1     -35.846  16.139  -3.497  1.00 20.00     0.028 C 
HETATM    3  C3  UNL     1     -34.560  14.387  -5.652  1.00 20.00     0.034 C 
HETATM    4  C4  UNL     1     -33.966  14.748  -4.379  1.00 20.00    -0.060 C 
HETATM    5  C5  UNL     1     -36.935  15.703  -4.141  1.00 20.00     0.085 C 
HETATM    6  C6  UNL     1     -35.859  14.252  -5.946  1.00 20.00     0.086 C 
HETATM    7  C7  UNL     1     -37.004  14.517  -5.035  1.00 20.00     0.215 C 
HETATM    8  C8  UNL     1     -32.575  14.211  -4.167  1.00 20.00     0.048 C 
HETATM    9  O9  UNL     1     -38.022  13.830  -5.088  1.00 20.00    -0.285 OA
HETATM   10 CL10 UNL     1     -38.437  16.548  -3.936  1.00 20.00    -0.080 Cl
HETATM   11 CL11 UNL     1     -36.312  13.687  -7.526  1.00 20.00    -0.080 Cl
ENDROOT
TORSDOF 0
ENDMDL
MODEL 9
REMARK VINA RESULT:      -4.2      4.833      6.176
REMARK  0 active torsions:
REMARK  status: ('A' for Active; 'I' for Inactive)
ROOT
HETATM    1  C1  UNL     1     -33.110  18.528   2.369  1.00 20.00     0.008 C 
HETATM    2  C2  UNL     1     -34.516  18.560   2.055  1.00 20.00     0.028 C 
HETATM    3  C3  UNL     1     -32.187  18.862   0.092  1.00 20.00     0.034 C 
HETATM    4  C4  UNL     1     -32.075  18.659   1.524  1.00 20.00    -0.060 C 
HETATM    5  C5  UNL     1     -35.107  18.186   0.914  1.00 20.00     0.085 C 
HETATM    6  C6  UNL     1     -33.165  18.450  -0.724  1.00 20.00     0.086 C 
HETATM    7  C7  UNL     1     -34.412  17.745  -0.324  1.00 20.00     0.215 C 
HETATM    8  C8  UNL     1     -30.661  18.638   2.042  1.00 20.00     0.048 C 
HETATM    9  O9  UNL     1     -34.908  16.885  -1.050  1.00 20.00    -0.285 OA
HETATM   10 CL10 UNL     1     -36.840  18.175   0.819  1.00 20.00    -0.080 Cl
HETATM   11 CL11 UNL     1     -33.004  18.714  -2.434  1.00 20.00    -0.080 Cl
ENDROOT
TORSDOF 0
ENDMDL
