MODEL 1
REMARK VINA RESULT:      -5.8      0.000      0.000
REMARK  2 active torsions:
REMARK  status: ('A' for Active; 'I' for Inactive)
REMARK    1  A    between atoms: C1_1  and  C2_2 
REMARK    2  A    between atoms: C1_1  and  C3_3 
ROOT
HETATM    1  C1  UNL     1     -33.586   6.173   4.257  1.00 20.00     0.374 C 
HETATM    2  O4  UNL     1     -33.962   7.429   4.421  1.00 20.00    -0.216 OA
ENDROOT
BRANCH   1   3
HETATM    3  C2  UNL     1     -33.184   5.984   2.789  1.00 20.00     0.424 C 
HETATM    4  F5  UNL     1     -32.340   6.969   2.396  1.00 20.00    -0.168 F 
HETATM    5  F6  UNL     1     -32.560   4.807   2.564  1.00 20.00    -0.168 F 
HETATM    6  F7  UNL     1     -34.261   6.043   1.969  1.00 20.00    -0.168 F 
ENDBRANCH   1   3
BRANCH   1   7
HETATM    7  C3  UNL     1     -34.777   5.270   4.602  1.00 20.00     0.424 C 
HETATM    8  F8  UNL     1     -35.919   5.713   4.024  1.00 20.00    -0.168 F 
HETATM    9  F9  UNL     1     -34.994   5.258   5.939  1.00 20.00    -0.168 F 
HETATM   10  F10 UNL     1     -34.590   3.988   4.215  1.00 20.00    -0.168 F 
ENDBRANCH   1   7
TORSDOF 2
ENDMDL
MODEL 2
REMARK VINA RESULT:      -5.8      0.033      1.193
REMARK  2 active torsions:
REMARK  status: ('A' for Active; 'I' for Inactive)
REMARK    1  A    between atoms: C1_1  and  C2_2 
REMARK    2  A    between atoms: C1_1  and  C3_3 
ROOT
HETATM    1  C1  UNL     1     -33.571   6.165   4.275  1.00 20.00     0.374 C 
HETATM    2  O4  UNL     1     -33.923   7.420   4.488  1.00 20.00    -0.216 OA
ENDROOT
BRANCH   1   3
HETATM    3  C2  UNL     1     -33.199   6.018   2.795  1.00 20.00     0.424 C 
HETATM    4  F5  UNL     1     -32.569   4.838   2.577  1.00 20.00    -0.168 F 
HETATM    5  F6  UNL     1     -34.276   6.054   1.979  1.00 20.00    -0.168 F 
HETATM    6  F7  UNL     1     -32.348   6.994   2.398  1.00 20.00    -0.168 F 
ENDBRANCH   1   3
BRANCH   1   7
HETATM    7  C3  UNL     1     -34.770   5.270   4.612  1.00 20.00     0.424 C 
HETATM    8  F8  UNL     1     -35.906   5.721   4.028  1.00 20.00    -0.168 F 
HETATM    9  F9  UNL     1     -34.995   5.259   5.948  1.00 20.00    -0.168 F 
HETATM   10  F10 UNL     1     -34.589   3.987   4.225  1.00 20.00    -0.168 F 
ENDBRANCH   1   7
TORSDOF 2
ENDMDL
MODEL 3
REMARK VINA RESULT:      -5.8      0.040      1.684
REMARK  2 active torsions:
REMARK  status: ('A' for Active; 'I' for Inactive)
REMARK    1  A    between atoms: C1_1  and  C2_2 
REMARK    2  A    between atoms: C1_1  and  C3_3 
ROOT
HETATM    1  C1  UNL     1     -33.569   6.168   4.276  1.00 20.00     0.374 C 
HETATM    2  O4  UNL     1     -33.924   7.424   4.485  1.00 20.00    -0.216 OA
ENDROOT
BRANCH   1   3
HETATM    3  C2  UNL     1     -33.210   6.015   2.793  1.00 20.00     0.424 C 
HETATM    4  F5  UNL     1     -32.571   4.839   2.577  1.00 20.00    -0.168 F 
HETATM    5  F6  UNL     1     -34.294   6.036   1.986  1.00 20.00    -0.168 F 
HETATM    6  F7  UNL     1     -32.370   6.996   2.383  1.00 20.00    -0.168 F 
ENDBRANCH   1   3
BRANCH   1   7
HETATM    7  C3  UNL     1     -34.764   5.271   4.627  1.00 20.00     0.424 C 
HETATM    8  F8  UNL     1     -34.572   4.000   4.201  1.00 20.00    -0.168 F 
HETATM    9  F9  UNL     1     -35.890   5.721   4.023  1.00 20.00    -0.168 F 
HETATM   10  F10 UNL     1     -35.011   5.228   5.955  1.00 20.00    -0.168 F 
ENDBRANCH   1   7
TORSDOF 2
ENDMDL
MODEL 4
REMARK VINA RESULT:      -5.7      1.525      3.326
REMARK  2 active torsions:
REMARK  status: ('A' for Active; 'I' for Inactive)
REMARK    1  A    between atoms: C1_1  and  C2_2 
REMARK    2  A    between atoms: C1_1  and  C3_3 
ROOT
HETATM    1  C1  UNL     1     -33.713   4.864   4.193  1.00 20.00     0.374 C 
HETATM    2  O4  UNL     1     -34.319   3.697   4.057  1.00 20.00    -0.216 OA
ENDROOT
BRANCH   1   3
HETATM    3  C2  UNL     1     -34.713   5.852   4.804  1.00 20.00     0.424 C 
HETATM    4  F5  UNL     1     -35.024   5.491   6.073  1.00 20.00    -0.168 F 
HETATM    5  F6  UNL     1     -34.238   7.116   4.852  1.00 20.00    -0.168 F 
HETATM    6  F7  UNL     1     -35.876   5.874   4.109  1.00 20.00    -0.168 F 
ENDBRANCH   1   3
BRANCH   1   7
HETATM    7  C3  UNL     1     -33.279   5.340   2.800  1.00 20.00     0.424 C 
HETATM    8  F8  UNL     1     -34.325   5.840   2.100  1.00 20.00    -0.168 F 
HETATM    9  F9  UNL     1     -32.782   4.308   2.078  1.00 20.00    -0.168 F 
HETATM   10  F10 UNL     1     -32.322   6.293   2.849  1.00 20.00    -0.168 F 
ENDBRANCH   1   7
TORSDOF 2
ENDMDL
MODEL 5
REMARK VINA RESULT:      -5.6      1.535      3.276
REMARK  2 active torsions:
REMARK  status: ('A' for Active; 'I' for Inactive)
REMARK    1  A    between atoms: C1_1  and  C2_2 
REMARK    2  A    between atoms: C1_1  and  C3_3 
ROOT
HETATM    1  C1  UNL     1     -33.716   4.856   4.194  1.00 20.00     0.374 C 
HETATM    2  O4  UNL     1     -34.309   3.682   4.076  1.00 20.00    -0.216 OA
ENDROOT
BRANCH   1   3
HETATM    3  C2  UNL     1     -34.733   5.846   4.776  1.00 20.00     0.424 C 
HETATM    4  F5  UNL     1     -34.225   7.103   4.778  1.00 20.00    -0.168 F 
HETATM    5  F6  UNL     1     -35.888   5.882   4.076  1.00 20.00    -0.168 F 
HETATM    6  F7  UNL     1     -35.037   5.546   6.061  1.00 20.00    -0.168 F 
ENDBRANCH   1   3
BRANCH   1   7
HETATM    7  C3  UNL     1     -33.276   5.310   2.795  1.00 20.00     0.424 C 
HETATM    8  F8  UNL     1     -32.326   6.272   2.862  1.00 20.00    -0.168 F 
HETATM    9  F9  UNL     1     -34.322   5.838   2.116  1.00 20.00    -0.168 F 
HETATM   10  F10 UNL     1     -32.784   4.296   2.049  1.00 20.00    -0.168 F 
ENDBRANCH   1   7
TORSDOF 2
ENDMDL
MODEL 6
REMARK VINA RESULT:      -5.6      1.626      3.287
REMARK  2 active torsions:
REMARK  status: ('A' for Active; 'I' for Inactive)
REMARK    1  A    between atoms: C1_1  and  C2_2 
REMARK    2  A    between atoms: C1_1  and  C3_3 
ROOT
HETATM    1  C1  UNL     1     -33.459   5.769   3.770  1.00 20.00     0.374 C 
HETATM    2  O4  UNL     1     -33.669   5.625   2.474  1.00 20.00    -0.216 OA
ENDROOT
BRANCH   1   3
HETATM    3  C2  UNL     1     -34.729   5.331   4.510  1.00 20.00     0.424 C 
HETATM    4  F5  UNL     1     -34.837   3.980   4.511  1.00 20.00    -0.168 F 
HETATM    5  F6  UNL     1     -34.750   5.736   5.799  1.00 20.00    -0.168 F 
HETATM    6  F7  UNL     1     -35.843   5.811   3.908  1.00 20.00    -0.168 F 
ENDBRANCH   1   3
BRANCH   1   7
HETATM    7  C3  UNL     1     -33.170   7.251   4.044  1.00 20.00     0.424 C 
HETATM    8  F8  UNL     1     -34.193   8.039   3.637  1.00 20.00    -0.168 F 
HETATM    9  F9  UNL     1     -32.070   7.654   3.364  1.00 20.00    -0.168 F 
HETATM   10  F10 UNL     1     -32.948   7.506   5.353  1.00 20.00    -0.168 F 
ENDBRANCH   1   7
TORSDOF 2
ENDMDL
MODEL 7
REMARK VINA RESULT:      -5.5      0.858      3.246
REMARK  2 active torsions:
REMARK  status: ('A' for Active; 'I' for Inactive)
REMARK    1  A    between atoms: C1_1  and  C2_2 
REMARK    2  A    between atoms: C1_1  and  C3_3 
ROOT
HETATM    1  C1  UNL     1     -33.967   7.037   4.177  1.00 20.00     0.374 C 
HETATM    2  O4  UNL     1     -33.020   7.333   5.049  1.00 20.00    -0.216 OA
ENDROOT
BRANCH   1   3
HETATM    3  C2  UNL     1     -34.663   5.753   4.646  1.00 20.00     0.424 C 
HETATM    4  F5  UNL     1     -35.898   5.653   4.097  1.00 20.00    -0.168 F 
HETATM    5  F6  UNL     1     -33.982   4.636   4.309  1.00 20.00    -0.168 F 
HETATM    6  F7  UNL     1     -34.832   5.744   5.990  1.00 20.00    -0.168 F 
ENDBRANCH   1   3
BRANCH   1   7
HETATM    7  C3  UNL     1     -33.304   6.813   2.812  1.00 20.00     0.424 C 
HETATM    8  F8  UNL     1     -32.133   6.143   2.933  1.00 20.00    -0.168 F 
HETATM    9  F9  UNL     1     -33.018   7.998   2.221  1.00 20.00    -0.168 F 
HETATM   10  F10 UNL     1     -34.089   6.118   1.958  1.00 20.00    -0.168 F 
ENDBRANCH   1   7
TORSDOF 2
ENDMDL
MODEL 8
REMARK VINA RESULT:      -5.5      1.666      2.306
REMARK  2 active torsions:
REMARK  status: ('A' for Active; 'I' for Inactive)
REMARK    1  A    between atoms: C1_1  and  C2_2 
REMARK    2  A    between atoms: C1_1  and  C3_3 
ROOT
HETATM    1  C1  UNL     1     -33.770   5.767   2.853  1.00 20.00     0.374 C 
HETATM    2  O4  UNL     1     -32.749   4.937   2.730  1.00 20.00    -0.216 OA
ENDROOT
BRANCH   1   3
HETATM    3  C2  UNL     1     -33.212   7.186   3.024  1.00 20.00     0.424 C 
HETATM    4  F5  UNL     1     -32.982   7.754   1.815  1.00 20.00    -0.168 F 
HETATM    5  F6  UNL     1     -34.053   8.001   3.697  1.00 20.00    -0.168 F 
HETATM    6  F7  UNL     1     -32.029   7.177   3.682  1.00 20.00    -0.168 F 
ENDBRANCH   1   3
BRANCH   1   7
HETATM    7  C3  UNL     1     -34.568   5.358   4.098  1.00 20.00     0.424 C 
HETATM    8  F8  UNL     1     -34.599   4.013   4.248  1.00 20.00    -0.168 F 
HETATM    9  F9  UNL     1     -35.854   5.771   3.995  1.00 20.00    -0.168 F 
HETATM   10  F10 UNL     1     -34.068   5.889   5.237  1.00 20.00    -0.168 F 
ENDBRANCH   1   7
TORSDOF 2
ENDMDL
MODEL 9
REMARK VINA RESULT:      -5.5      0.821      3.168
REMARK  2 active torsions:
REMARK  status: ('A' for Active; 'I' for Inactive)
REMARK    1  A    between atoms: C1_1  and  C2_2 
REMARK    2  A    between atoms: C1_1  and  C3_3 
ROOT
HETATM    1  C1  UNL     1     -33.982   6.996   4.146  1.00 20.00     0.374 C 
HETATM    2  O4  UNL     1     -33.042   7.312   5.019  1.00 20.00    -0.216 OA
ENDROOT
BRANCH   1   3
HETATM    3  C2  UNL     1     -34.680   5.722   4.637  1.00 20.00     0.424 C 
HETATM    4  F5  UNL     1     -35.920   5.622   4.100  1.00 20.00    -0.168 F 
HETATM    5  F6  UNL     1     -34.009   4.597   4.309  1.00 20.00    -0.168 F 
HETATM    6  F7  UNL     1     -34.838   5.731   5.983  1.00 20.00    -0.168 F 
ENDBRANCH   1   3
BRANCH   1   7
HETATM    7  C3  UNL     1     -33.307   6.742   2.792  1.00 20.00     0.424 C 
HETATM    8  F8  UNL     1     -32.962   7.902   2.184  1.00 20.00    -0.168 F 
HETATM    9  F9  UNL     1     -34.153   6.097   1.953  1.00 20.00    -0.168 F 
HETATM   10  F10 UNL     1     -32.193   5.985   2.897  1.00 20.00    -0.168 F 
ENDBRANCH   1   7
TORSDOF 2
ENDMDL
