MODEL 1
REMARK VINA RESULT:      -5.7      0.000      0.000
REMARK  2 active torsions:
REMARK  status: ('A' for Active; 'I' for Inactive)
REMARK    1  A    between atoms: C1_1  and  O10_10 
REMARK    2  A    between atoms: C8_8  and  O10_10 
ROOT
HETATM    1  C2  UNL     1     -34.357   4.574   5.214  1.00 20.00     0.005 C 
HETATM    2  C3  UNL     1     -33.791   4.317   3.808  1.00 20.00     0.007 C 
HETATM    3  C4  UNL     1     -35.389   6.074   3.682  1.00 20.00     0.012 C 
HETATM    4  C5  UNL     1     -33.674   6.982   5.062  1.00 20.00     0.037 C 
HETATM    5  C6  UNL     1     -34.876   6.019   5.120  1.00 20.00    -0.012 C 
HETATM    6  C7  UNL     1     -34.043   5.650   3.087  1.00 20.00     0.015 C 
HETATM    7  C8  UNL     1     -33.089   6.712   3.667  1.00 20.00     0.135 C 
ENDROOT
BRANCH   7   8
HETATM    8  O10 UNL     1     -33.135   7.900   2.890  1.00 20.00    -0.323 OA
BRANCH   8   9
HETATM    9  C1  UNL     1     -31.946   8.312   2.368  1.00 20.00     0.398 C 
HETATM   10  O9  UNL     1     -31.730   8.686   1.227  1.00 20.00    -0.276 OA
ENDBRANCH   8   9
ENDBRANCH   7   8
TORSDOF 2
ENDMDL
MODEL 2
REMARK VINA RESULT:      -4.3     11.676     12.379
REMARK  2 active torsions:
REMARK  status: ('A' for Active; 'I' for Inactive)
REMARK    1  A    between atoms: C1_1  and  O10_10 
REMARK    2  A    between atoms: C8_8  and  O10_10 
ROOT
HETATM    1  C2  UNL     1     -33.929  17.064  -1.822  1.00 20.00     0.005 C 
HETATM    2  C3  UNL     1     -35.428  16.725  -1.819  1.00 20.00     0.007 C 
HETATM    3  C4  UNL     1     -34.852  17.634  -3.939  1.00 20.00     0.012 C 
HETATM    4  C5  UNL     1     -33.592  15.616  -3.841  1.00 20.00     0.037 C 
HETATM    5  C6  UNL     1     -33.577  17.066  -3.319  1.00 20.00    -0.012 C 
HETATM    6  C7  UNL     1     -35.746  16.560  -3.313  1.00 20.00     0.015 C 
HETATM    7  C8  UNL     1     -35.087  15.262  -3.817  1.00 20.00     0.135 C 
ENDROOT
BRANCH   7   8
HETATM    8  O10 UNL     1     -35.529  14.958  -5.133  1.00 20.00    -0.323 OA
BRANCH   8   9
HETATM    9  C1  UNL     1     -36.272  13.823  -5.260  1.00 20.00     0.398 C 
HETATM   10  O9  UNL     1     -35.875  12.670  -5.203  1.00 20.00    -0.276 OA
ENDBRANCH   8   9
ENDBRANCH   7   8
TORSDOF 2
ENDMDL
MODEL 3
REMARK VINA RESULT:      -4.1     11.268     12.513
REMARK  2 active torsions:
REMARK  status: ('A' for Active; 'I' for Inactive)
REMARK    1  A    between atoms: C1_1  and  O10_10 
REMARK    2  A    between atoms: C8_8  and  O10_10 
ROOT
HETATM    1  C2  UNL     1     -33.125  15.933  -5.097  1.00 20.00     0.005 C 
HETATM    2  C3  UNL     1     -32.976  14.515  -4.523  1.00 20.00     0.007 C 
HETATM    3  C4  UNL     1     -34.951  15.498  -3.635  1.00 20.00     0.012 C 
HETATM    4  C5  UNL     1     -35.404  15.355  -5.968  1.00 20.00     0.037 C 
HETATM    5  C6  UNL     1     -34.631  16.211  -4.947  1.00 20.00    -0.012 C 
HETATM    6  C7  UNL     1     -34.416  14.151  -4.129  1.00 20.00     0.015 C 
HETATM    7  C8  UNL     1     -35.238  13.932  -5.413  1.00 20.00     0.135 C 
ENDROOT
BRANCH   7   8
HETATM    8  O10 UNL     1     -36.513  13.387  -5.102  1.00 20.00    -0.323 OA
BRANCH   8   9
HETATM    9  C1  UNL     1     -37.584  14.153  -5.449  1.00 20.00     0.398 C 
HETATM   10  O9  UNL     1     -38.672  14.195  -4.898  1.00 20.00    -0.276 OA
ENDBRANCH   8   9
ENDBRANCH   7   8
TORSDOF 2
ENDMDL
MODEL 4
REMARK VINA RESULT:      -4.0     11.773     12.908
REMARK  2 active torsions:
REMARK  status: ('A' for Active; 'I' for Inactive)
REMARK    1  A    between atoms: C1_1  and  O10_10 
REMARK    2  A    between atoms: C8_8  and  O10_10 
ROOT
HETATM    1  C2  UNL     1     -33.575  17.437  -3.432  1.00 20.00     0.005 C 
HETATM    2  C3  UNL     1     -33.629  17.772  -4.931  1.00 20.00     0.007 C 
HETATM    3  C4  UNL     1     -33.063  15.477  -4.680  1.00 20.00     0.012 C 
HETATM    4  C5  UNL     1     -35.259  15.609  -3.767  1.00 20.00     0.037 C 
HETATM    5  C6  UNL     1     -33.791  15.914  -3.410  1.00 20.00    -0.012 C 
HETATM    6  C7  UNL     1     -33.884  16.403  -5.581  1.00 20.00     0.015 C 
HETATM    7  C8  UNL     1     -35.326  15.966  -5.260  1.00 20.00     0.135 C 
ENDROOT
BRANCH   7   8
HETATM    8  O10 UNL     1     -35.676  14.813  -6.014  1.00 20.00    -0.323 OA
BRANCH   8   9
HETATM    9  C1  UNL     1     -36.263  13.804  -5.312  1.00 20.00     0.398 C 
HETATM   10  O9  UNL     1     -35.896  12.643  -5.241  1.00 20.00    -0.276 OA
ENDBRANCH   8   9
ENDBRANCH   7   8
TORSDOF 2
ENDMDL
MODEL 5
REMARK VINA RESULT:      -4.0     11.766     12.534
REMARK  2 active torsions:
REMARK  status: ('A' for Active; 'I' for Inactive)
REMARK    1  A    between atoms: C1_1  and  O10_10 
REMARK    2  A    between atoms: C8_8  and  O10_10 
ROOT
HETATM    1  C2  UNL     1     -34.790  16.223  -2.725  1.00 20.00     0.005 C 
HETATM    2  C3  UNL     1     -35.988  15.934  -3.643  1.00 20.00     0.007 C 
HETATM    3  C4  UNL     1     -34.240  16.888  -4.942  1.00 20.00     0.012 C 
HETATM    4  C5  UNL     1     -33.311  14.827  -4.193  1.00 20.00     0.037 C 
HETATM    5  C6  UNL     1     -33.604  16.259  -3.704  1.00 20.00    -0.012 C 
HETATM    6  C7  UNL     1     -35.339  15.826  -5.032  1.00 20.00     0.015 C 
HETATM    7  C8  UNL     1     -34.520  14.522  -5.092  1.00 20.00     0.135 C 
ENDROOT
BRANCH   7   8
HETATM    8  O10 UNL     1     -34.078  14.274  -6.420  1.00 20.00    -0.323 OA
BRANCH   8   9
HETATM    9  C1  UNL     1     -34.826  13.390  -7.137  1.00 20.00     0.398 C 
HETATM   10  O9  UNL     1     -35.094  12.237  -6.839  1.00 20.00    -0.276 OA
ENDBRANCH   8   9
ENDBRANCH   7   8
TORSDOF 2
ENDMDL
MODEL 6
REMARK VINA RESULT:      -3.9      0.942      1.685
REMARK  2 active torsions:
REMARK  status: ('A' for Active; 'I' for Inactive)
REMARK    1  A    between atoms: C1_1  and  O10_10 
REMARK    2  A    between atoms: C8_8  and  O10_10 
ROOT
HETATM    1  C2  UNL     1     -35.164   4.777   4.288  1.00 20.00     0.005 C 
HETATM    2  C3  UNL     1     -35.581   6.138   3.708  1.00 20.00     0.007 C 
HETATM    3  C4  UNL     1     -33.669   6.446   5.087  1.00 20.00     0.012 C 
HETATM    4  C5  UNL     1     -32.865   5.058   3.327  1.00 20.00     0.037 C 
HETATM    5  C6  UNL     1     -33.680   4.988   4.633  1.00 20.00    -0.012 C 
HETATM    6  C7  UNL     1     -34.282   6.955   3.779  1.00 20.00     0.015 C 
HETATM    7  C8  UNL     1     -33.297   6.406   2.729  1.00 20.00     0.135 C 
ENDROOT
BRANCH   7   8
HETATM    8  O10 UNL     1     -32.168   7.261   2.610  1.00 20.00    -0.323 OA
BRANCH   8   9
HETATM    9  C1  UNL     1     -32.387   8.446   1.977  1.00 20.00     0.398 C 
HETATM   10  O9  UNL     1     -31.792   8.887   1.007  1.00 20.00    -0.276 OA
ENDBRANCH   8   9
ENDBRANCH   7   8
TORSDOF 2
ENDMDL
MODEL 7
REMARK VINA RESULT:      -3.9      1.243      2.374
REMARK  2 active torsions:
REMARK  status: ('A' for Active; 'I' for Inactive)
REMARK    1  A    between atoms: C1_1  and  O10_10 
REMARK    2  A    between atoms: C8_8  and  O10_10 
ROOT
HETATM    1  C2  UNL     1     -34.798   6.172   3.952  1.00 20.00     0.005 C 
HETATM    2  C3  UNL     1     -33.794   7.062   4.702  1.00 20.00     0.007 C 
HETATM    3  C4  UNL     1     -32.609   5.722   3.134  1.00 20.00     0.012 C 
HETATM    4  C5  UNL     1     -33.994   7.088   1.761  1.00 20.00     0.037 C 
HETATM    5  C6  UNL     1     -34.054   5.831   2.650  1.00 20.00    -0.012 C 
HETATM    6  C7  UNL     1     -32.605   7.133   3.730  1.00 20.00     0.015 C 
HETATM    7  C8  UNL     1     -33.010   7.993   2.518  1.00 20.00     0.135 C 
ENDROOT
BRANCH   7   8
HETATM    8  O10 UNL     1     -31.881   8.263   1.699  1.00 20.00    -0.323 OA
BRANCH   8   9
HETATM    9  C1  UNL     1     -32.050   9.235   0.760  1.00 20.00     0.398 C 
HETATM   10  O9  UNL     1     -32.500  10.356   0.929  1.00 20.00    -0.276 OA
ENDBRANCH   8   9
ENDBRANCH   7   8
TORSDOF 2
ENDMDL
MODEL 8
REMARK VINA RESULT:      -3.9     11.662     12.723
REMARK  2 active torsions:
REMARK  status: ('A' for Active; 'I' for Inactive)
REMARK    1  A    between atoms: C1_1  and  O10_10 
REMARK    2  A    between atoms: C8_8  and  O10_10 
ROOT
HETATM    1  C2  UNL     1     -32.878  15.584  -5.250  1.00 20.00     0.005 C 
HETATM    2  C3  UNL     1     -33.448  14.343  -4.545  1.00 20.00     0.007 C 
HETATM    3  C4  UNL     1     -34.088  16.281  -3.324  1.00 20.00     0.012 C 
HETATM    4  C5  UNL     1     -35.182  16.560  -5.421  1.00 20.00     0.037 C 
HETATM    5  C6  UNL     1     -33.798  16.715  -4.759  1.00 20.00    -0.012 C 
HETATM    6  C7  UNL     1     -34.632  14.913  -3.749  1.00 20.00     0.015 C 
HETATM    7  C8  UNL     1     -35.747  15.305  -4.737  1.00 20.00     0.135 C 
ENDROOT
BRANCH   7   8
HETATM    8  O10 UNL     1     -36.938  15.637  -4.038  1.00 20.00    -0.323 OA
BRANCH   8   9
HETATM    9  C1  UNL     1     -38.071  15.020  -4.474  1.00 20.00     0.398 C 
HETATM   10  O9  UNL     1     -38.161  13.915  -4.983  1.00 20.00    -0.276 OA
ENDBRANCH   8   9
ENDBRANCH   7   8
TORSDOF 2
ENDMDL
MODEL 9
REMARK VINA RESULT:      -3.8     11.424     12.528
REMARK  2 active torsions:
REMARK  status: ('A' for Active; 'I' for Inactive)
REMARK    1  A    between atoms: C1_1  and  O10_10 
REMARK    2  A    between atoms: C8_8  and  O10_10 
ROOT
HETATM    1  C2  UNL     1     -34.512  14.905  -6.185  1.00 20.00     0.005 C 
HETATM    2  C3  UNL     1     -35.223  14.370  -4.932  1.00 20.00     0.007 C 
HETATM    3  C4  UNL     1     -32.899  14.573  -4.468  1.00 20.00     0.012 C 
HETATM    4  C5  UNL     1     -33.585  16.820  -4.858  1.00 20.00     0.037 C 
HETATM    5  C6  UNL     1     -33.225  15.527  -5.615  1.00 20.00    -0.012 C 
HETATM    6  C7  UNL     1     -34.263  14.764  -3.798  1.00 20.00     0.015 C 
HETATM    7  C8  UNL     1     -34.319  16.293  -3.615  1.00 20.00     0.135 C 
ENDROOT
BRANCH   7   8
HETATM    8  O10 UNL     1     -33.614  16.680  -2.443  1.00 20.00    -0.323 OA
BRANCH   8   9
HETATM    9  C1  UNL     1     -33.215  17.981  -2.396  1.00 20.00     0.398 C 
HETATM   10  O9  UNL     1     -32.370  18.469  -1.663  1.00 20.00    -0.276 OA
ENDBRANCH   8   9
ENDBRANCH   7   8
TORSDOF 2
ENDMDL
