MODEL 1
REMARK VINA RESULT:      -4.2      0.000      0.000
REMARK  0 active torsions:
REMARK  status: ('A' for Active; 'I' for Inactive)
ROOT
HETATM    1  C1  UNL     1     -35.411  13.731  -4.933  1.00 20.00     0.270 A 
HETATM    2  C2  UNL     1     -35.744  15.242  -5.111  1.00 20.00     0.072 A 
HETATM    3  C3  UNL     1     -34.330  15.413  -4.433  1.00 20.00     0.079 A 
HETATM    4  C4  UNL     1     -36.972  15.684  -4.314  1.00 20.00     0.029 C 
HETATM    5  C5  UNL     1     -35.883  15.657  -6.576  1.00 20.00     0.029 C 
HETATM    6  C6  UNL     1     -34.285  16.003  -3.023  1.00 20.00     0.047 C 
HETATM    7  C7  UNL     1     -33.196  15.978  -5.289  1.00 20.00     0.047 C 
HETATM    8  O8  UNL     1     -35.940  12.669  -5.176  1.00 20.00    -0.264 OA
HETATM    9  O9  UNL     1     -34.203  13.958  -4.355  1.00 20.00    -0.309 OA
ENDROOT
TORSDOF 0
ENDMDL
MODEL 2
REMARK VINA RESULT:      -4.1      1.373      2.444
REMARK  0 active torsions:
REMARK  status: ('A' for Active; 'I' for Inactive)
ROOT
HETATM    1  C1  UNL     1     -35.570  13.856  -4.933  1.00 20.00     0.270 A 
HETATM    2  C2  UNL     1     -34.340  14.799  -5.081  1.00 20.00     0.072 A 
HETATM    3  C3  UNL     1     -35.293  15.808  -4.331  1.00 20.00     0.079 A 
HETATM    4  C4  UNL     1     -33.987  15.103  -6.537  1.00 20.00     0.029 C 
HETATM    5  C5  UNL     1     -33.106  14.297  -4.329  1.00 20.00     0.029 C 
HETATM    6  C6  UNL     1     -35.805  17.016  -5.115  1.00 20.00     0.047 C 
HETATM    7  C7  UNL     1     -34.920  16.210  -2.904  1.00 20.00     0.047 C 
HETATM    8  O8  UNL     1     -35.860  12.719  -5.232  1.00 20.00    -0.264 OA
HETATM    9  O9  UNL     1     -36.333  14.778  -4.291  1.00 20.00    -0.309 OA
ENDROOT
TORSDOF 0
ENDMDL
MODEL 3
REMARK VINA RESULT:      -4.0      1.175      1.537
REMARK  0 active torsions:
REMARK  status: ('A' for Active; 'I' for Inactive)
ROOT
HETATM    1  C1  UNL     1     -35.391  13.652  -5.487  1.00 20.00     0.270 A 
HETATM    2  C2  UNL     1     -35.563  15.196  -5.387  1.00 20.00     0.072 A 
HETATM    3  C3  UNL     1     -34.136  15.183  -6.062  1.00 20.00     0.079 A 
HETATM    4  C4  UNL     1     -35.663  15.697  -3.947  1.00 20.00     0.029 C 
HETATM    5  C5  UNL     1     -36.735  15.723  -6.217  1.00 20.00     0.029 C 
HETATM    6  C6  UNL     1     -32.952  15.667  -5.225  1.00 20.00     0.047 C 
HETATM    7  C7  UNL     1     -34.026  15.695  -7.498  1.00 20.00     0.047 C 
HETATM    8  O8  UNL     1     -36.029  12.664  -5.197  1.00 20.00    -0.264 OA
HETATM    9  O9  UNL     1     -34.164  13.720  -6.066  1.00 20.00    -0.309 OA
ENDROOT
TORSDOF 0
ENDMDL
MODEL 4
REMARK VINA RESULT:      -4.0      1.319      2.272
REMARK  0 active torsions:
REMARK  status: ('A' for Active; 'I' for Inactive)
ROOT
HETATM    1  C1  UNL     1     -35.346  13.027  -6.365  1.00 20.00     0.270 A 
HETATM    2  C2  UNL     1     -35.331  14.581  -6.471  1.00 20.00     0.072 A 
HETATM    3  C3  UNL     1     -35.684  14.475  -4.937  1.00 20.00     0.079 A 
HETATM    4  C4  UNL     1     -36.404  15.129  -7.411  1.00 20.00     0.029 C 
HETATM    5  C5  UNL     1     -33.959  15.143  -6.845  1.00 20.00     0.029 C 
HETATM    6  C6  UNL     1     -37.079  14.922  -4.497  1.00 20.00     0.047 C 
HETATM    7  C7  UNL     1     -34.629  14.937  -3.932  1.00 20.00     0.047 C 
HETATM    8  O8  UNL     1     -35.169  12.083  -7.102  1.00 20.00    -0.264 OA
HETATM    9  O9  UNL     1     -35.651  13.016  -5.041  1.00 20.00    -0.309 OA
ENDROOT
TORSDOF 0
ENDMDL
MODEL 5
REMARK VINA RESULT:      -3.9     11.730     12.670
REMARK  0 active torsions:
REMARK  status: ('A' for Active; 'I' for Inactive)
ROOT
HETATM    1  C1  UNL     1     -35.394   6.120   3.474  1.00 20.00     0.270 A 
HETATM    2  C2  UNL     1     -34.235   5.815   4.467  1.00 20.00     0.072 A 
HETATM    3  C3  UNL     1     -33.369   5.909   3.152  1.00 20.00     0.079 A 
HETATM    4  C4  UNL     1     -34.363   4.446   5.138  1.00 20.00     0.029 C 
HETATM    5  C5  UNL     1     -34.046   6.907   5.521  1.00 20.00     0.029 C 
HETATM    6  C6  UNL     1     -32.723   4.624   2.634  1.00 20.00     0.047 C 
HETATM    7  C7  UNL     1     -32.405   7.087   3.020  1.00 20.00     0.047 C 
HETATM    8  O8  UNL     1     -36.595   6.267   3.526  1.00 20.00    -0.264 OA
HETATM    9  O9  UNL     1     -34.584   6.186   2.385  1.00 20.00    -0.309 OA
ENDROOT
TORSDOF 0
ENDMDL
MODEL 6
REMARK VINA RESULT:      -3.9      1.344      2.639
REMARK  0 active torsions:
REMARK  status: ('A' for Active; 'I' for Inactive)
ROOT
HETATM    1  C1  UNL     1     -35.498  13.817  -5.465  1.00 20.00     0.270 A 
HETATM    2  C2  UNL     1     -34.655  14.935  -4.785  1.00 20.00     0.072 A 
HETATM    3  C3  UNL     1     -34.887  15.655  -6.169  1.00 20.00     0.079 A 
HETATM    4  C4  UNL     1     -33.232  14.492  -4.444  1.00 20.00     0.029 C 
HETATM    5  C5  UNL     1     -35.335  15.532  -3.552  1.00 20.00     0.029 C 
HETATM    6  C6  UNL     1     -33.673  15.854  -7.077  1.00 20.00     0.047 C 
HETATM    7  C7  UNL     1     -35.779  16.897  -6.183  1.00 20.00     0.047 C 
HETATM    8  O8  UNL     1     -35.919  12.719  -5.175  1.00 20.00    -0.264 OA
HETATM    9  O9  UNL     1     -35.655  14.499  -6.630  1.00 20.00    -0.309 OA
ENDROOT
TORSDOF 0
ENDMDL
MODEL 7
REMARK VINA RESULT:      -3.7      0.945      3.022
REMARK  0 active torsions:
REMARK  status: ('A' for Active; 'I' for Inactive)
ROOT
HETATM    1  C1  UNL     1     -33.606  14.253  -4.517  1.00 20.00     0.270 A 
HETATM    2  C2  UNL     1     -34.267  15.660  -4.422  1.00 20.00     0.072 A 
HETATM    3  C3  UNL     1     -35.382  14.959  -5.290  1.00 20.00     0.079 A 
HETATM    4  C4  UNL     1     -33.436  16.760  -5.084  1.00 20.00     0.029 C 
HETATM    5  C5  UNL     1     -34.628  16.057  -2.990  1.00 20.00     0.029 C 
HETATM    6  C6  UNL     1     -35.551  15.423  -6.737  1.00 20.00     0.047 C 
HETATM    7  C7  UNL     1     -36.744  14.721  -4.638  1.00 20.00     0.047 C 
HETATM    8  O8  UNL     1     -32.595  13.716  -4.122  1.00 20.00    -0.264 OA
HETATM    9  O9  UNL     1     -34.606  13.718  -5.264  1.00 20.00    -0.309 OA
ENDROOT
TORSDOF 0
ENDMDL
MODEL 8
REMARK VINA RESULT:      -3.7      1.610      2.472
REMARK  0 active torsions:
REMARK  status: ('A' for Active; 'I' for Inactive)
ROOT
HETATM    1  C1  UNL     1     -33.187  14.707  -4.552  1.00 20.00     0.270 A 
HETATM    2  C2  UNL     1     -34.530  15.450  -4.290  1.00 20.00     0.072 A 
HETATM    3  C3  UNL     1     -33.989  16.386  -5.439  1.00 20.00     0.079 A 
HETATM    4  C4  UNL     1     -34.628  16.037  -2.882  1.00 20.00     0.029 C 
HETATM    5  C5  UNL     1     -35.759  14.592  -4.594  1.00 20.00     0.029 C 
HETATM    6  C6  UNL     1     -33.593  17.814  -5.063  1.00 20.00     0.047 C 
HETATM    7  C7  UNL     1     -34.728  16.367  -6.777  1.00 20.00     0.047 C 
HETATM    8  O8  UNL     1     -32.607  13.737  -4.117  1.00 20.00    -0.264 OA
HETATM    9  O9  UNL     1     -32.788  15.557  -5.534  1.00 20.00    -0.309 OA
ENDROOT
TORSDOF 0
ENDMDL
MODEL 9
REMARK VINA RESULT:      -3.6     11.666     12.631
REMARK  0 active torsions:
REMARK  status: ('A' for Active; 'I' for Inactive)
ROOT
HETATM    1  C1  UNL     1     -34.790   6.129   2.609  1.00 20.00     0.270 A 
HETATM    2  C2  UNL     1     -33.400   5.886   3.266  1.00 20.00     0.072 A 
HETATM    3  C3  UNL     1     -34.265   5.873   4.586  1.00 20.00     0.079 A 
HETATM    4  C4  UNL     1     -32.429   7.050   3.065  1.00 20.00     0.029 C 
HETATM    5  C5  UNL     1     -32.752   4.572   2.829  1.00 20.00     0.029 C 
HETATM    6  C6  UNL     1     -34.077   7.028   5.569  1.00 20.00     0.047 C 
HETATM    7  C7  UNL     1     -34.398   4.546   5.333  1.00 20.00     0.047 C 
HETATM    8  O8  UNL     1     -35.231   6.293   1.493  1.00 20.00    -0.264 OA
HETATM    9  O9  UNL     1     -35.468   6.105   3.786  1.00 20.00    -0.309 OA
ENDROOT
TORSDOF 0
ENDMDL
