MODEL 1
REMARK VINA RESULT:      -2.5      0.000      0.000
REMARK  0 active torsions:
REMARK  status: ('A' for Active; 'I' for Inactive)
ROOT
HETATM    1  C1  UNL     1     -34.863   5.626   5.408  1.00 20.00     0.149 C 
HETATM    2  C2  UNL     1     -33.951   5.287   2.821  1.00 20.00     0.149 C 
HETATM    3  C3  UNL     1     -33.658   7.729   4.082  1.00 20.00     0.149 C 
HETATM    4  S4  UNL     1     -34.088   4.358   4.371  1.00 20.00    -0.149 SA
HETATM    5  S5  UNL     1     -33.767   7.029   5.749  1.00 20.00    -0.149 SA
HETATM    6  S6  UNL     1     -32.770   6.658   2.920  1.00 20.00    -0.149 SA
ENDROOT
TORSDOF 0
ENDMDL
MODEL 2
REMARK VINA RESULT:      -2.5      0.040      2.877
REMARK  0 active torsions:
REMARK  status: ('A' for Active; 'I' for Inactive)
ROOT
HETATM    1  C1  UNL     1     -33.680   7.724   4.100  1.00 20.00     0.149 C 
HETATM    2  C2  UNL     1     -34.865   5.582   5.384  1.00 20.00     0.149 C 
HETATM    3  C3  UNL     1     -33.927   5.298   2.799  1.00 20.00     0.149 C 
HETATM    4  S4  UNL     1     -33.792   6.994   5.756  1.00 20.00    -0.149 SA
HETATM    5  S5  UNL     1     -32.767   6.684   2.929  1.00 20.00    -0.149 SA
HETATM    6  S6  UNL     1     -34.062   4.342   4.333  1.00 20.00    -0.149 SA
ENDROOT
TORSDOF 0
ENDMDL
MODEL 3
REMARK VINA RESULT:      -2.5      0.065      2.870
REMARK  0 active torsions:
REMARK  status: ('A' for Active; 'I' for Inactive)
ROOT
HETATM    1  C1  UNL     1     -33.982   5.225   2.875  1.00 20.00     0.149 C 
HETATM    2  C2  UNL     1     -33.657   7.700   4.061  1.00 20.00     0.149 C 
HETATM    3  C3  UNL     1     -34.850   5.640   5.465  1.00 20.00     0.149 C 
HETATM    4  S4  UNL     1     -32.793   6.592   2.917  1.00 20.00    -0.149 SA
HETATM    5  S5  UNL     1     -34.098   4.339   4.452  1.00 20.00    -0.149 SA
HETATM    6  S6  UNL     1     -33.742   7.046   5.749  1.00 20.00    -0.149 SA
ENDROOT
TORSDOF 0
ENDMDL
MODEL 4
REMARK VINA RESULT:      -2.5      0.987      2.463
REMARK  0 active torsions:
REMARK  status: ('A' for Active; 'I' for Inactive)
ROOT
HETATM    1  C1  UNL     1     -34.204   5.829   5.601  1.00 20.00     0.149 C 
HETATM    2  C2  UNL     1     -32.430   7.609   4.450  1.00 20.00     0.149 C 
HETATM    3  C3  UNL     1     -33.706   5.722   2.885  1.00 20.00     0.149 C 
HETATM    4  S4  UNL     1     -33.680   7.557   5.760  1.00 20.00    -0.149 SA
HETATM    5  S5  UNL     1     -35.077   5.494   4.048  1.00 20.00    -0.149 SA
HETATM    6  S6  UNL     1     -33.137   7.440   2.789  1.00 20.00    -0.149 SA
ENDROOT
TORSDOF 0
ENDMDL
MODEL 5
REMARK VINA RESULT:      -2.4     12.232     13.377
REMARK  0 active torsions:
REMARK  status: ('A' for Active; 'I' for Inactive)
ROOT
HETATM    1  C1  UNL     1     -33.132  15.743  -5.728  1.00 20.00     0.149 C 
HETATM    2  C2  UNL     1     -34.563  13.727  -6.963  1.00 20.00     0.149 C 
HETATM    3  C3  UNL     1     -34.741  14.072  -4.227  1.00 20.00     0.149 C 
HETATM    4  S4  UNL     1     -34.026  15.430  -7.273  1.00 20.00    -0.149 SA
HETATM    5  S5  UNL     1     -34.221  15.807  -4.280  1.00 20.00    -0.149 SA
HETATM    6  S6  UNL     1     -35.787  13.603  -5.631  1.00 20.00    -0.149 SA
ENDROOT
TORSDOF 0
ENDMDL
MODEL 6
REMARK VINA RESULT:      -2.4     12.210     13.328
REMARK  0 active torsions:
REMARK  status: ('A' for Active; 'I' for Inactive)
ROOT
HETATM    1  C1  UNL     1     -34.741  14.053  -4.196  1.00 20.00     0.149 C 
HETATM    2  C2  UNL     1     -33.105  15.725  -5.668  1.00 20.00     0.149 C 
HETATM    3  C3  UNL     1     -34.554  13.743  -6.936  1.00 20.00     0.149 C 
HETATM    4  S4  UNL     1     -34.199  15.783  -4.225  1.00 20.00    -0.149 SA
HETATM    5  S5  UNL     1     -35.784  13.614  -5.612  1.00 20.00    -0.149 SA
HETATM    6  S6  UNL     1     -33.996  15.444  -7.221  1.00 20.00    -0.149 SA
ENDROOT
TORSDOF 0
ENDMDL
MODEL 7
REMARK VINA RESULT:      -2.4      1.013      2.535
REMARK  0 active torsions:
REMARK  status: ('A' for Active; 'I' for Inactive)
ROOT
HETATM    1  C1  UNL     1     -32.384   7.621   4.415  1.00 20.00     0.149 C 
HETATM    2  C2  UNL     1     -33.679   5.748   2.848  1.00 20.00     0.149 C 
HETATM    3  C3  UNL     1     -34.191   5.873   5.561  1.00 20.00     0.149 C 
HETATM    4  S4  UNL     1     -33.084   7.457   2.751  1.00 20.00    -0.149 SA
HETATM    5  S5  UNL     1     -33.644   7.593   5.718  1.00 20.00    -0.149 SA
HETATM    6  S6  UNL     1     -35.060   5.545   4.005  1.00 20.00    -0.149 SA
ENDROOT
TORSDOF 0
ENDMDL
MODEL 8
REMARK VINA RESULT:      -2.4      0.929      2.529
REMARK  0 active torsions:
REMARK  status: ('A' for Active; 'I' for Inactive)
ROOT
HETATM    1  C1  UNL     1     -33.647   5.577   2.970  1.00 20.00     0.149 C 
HETATM    2  C2  UNL     1     -34.185   5.807   5.671  1.00 20.00     0.149 C 
HETATM    3  C3  UNL     1     -32.450   7.579   4.452  1.00 20.00     0.149 C 
HETATM    4  S4  UNL     1     -35.025   5.366   4.127  1.00 20.00    -0.149 SA
HETATM    5  S5  UNL     1     -33.128   7.305   2.794  1.00 20.00    -0.149 SA
HETATM    6  S6  UNL     1     -33.717   7.556   5.748  1.00 20.00    -0.149 SA
ENDROOT
TORSDOF 0
ENDMDL
MODEL 9
REMARK VINA RESULT:      -2.4     12.188     13.359
REMARK  0 active torsions:
REMARK  status: ('A' for Active; 'I' for Inactive)
ROOT
HETATM    1  C1  UNL     1     -34.640  13.689  -6.899  1.00 20.00     0.149 C 
HETATM    2  C2  UNL     1     -34.691  14.125  -4.171  1.00 20.00     0.149 C 
HETATM    3  C3  UNL     1     -33.133  15.727  -5.798  1.00 20.00     0.149 C 
HETATM    4  S4  UNL     1     -35.802  13.622  -5.510  1.00 20.00    -0.149 SA
HETATM    5  S5  UNL     1     -34.099  15.374  -7.290  1.00 20.00    -0.149 SA
HETATM    6  S6  UNL     1     -34.155  15.851  -4.306  1.00 20.00    -0.149 SA
ENDROOT
TORSDOF 0
ENDMDL
