MODEL 1
REMARK VINA RESULT:      -3.7      0.000      0.000
REMARK  0 active torsions:
REMARK  status: ('A' for Active; 'I' for Inactive)
ROOT
HETATM    1  C1  UNL     1     -33.911   6.028   3.228  1.00 20.00     0.090 A 
HETATM    2  C2  UNL     1     -34.128   6.554   5.569  1.00 20.00     0.167 A 
HETATM    3  C3  UNL     1     -33.198   7.124   3.666  1.00 20.00     0.109 A 
HETATM    4  N4  UNL     1     -33.321   7.427   5.008  1.00 20.00    -0.246 NA
HETATM    5  S5  UNL     1     -34.774   5.340   4.541  1.00 20.00    -0.092 SA
HETATM    6 BR6  UNL     1     -32.105   8.175   2.531  1.00 20.00    -0.029 Br
ENDROOT
TORSDOF 0
ENDMDL
MODEL 2
REMARK VINA RESULT:      -3.5      1.387      1.684
REMARK  0 active torsions:
REMARK  status: ('A' for Active; 'I' for Inactive)
ROOT
HETATM    1  C1  UNL     1     -33.508   7.233   4.920  1.00 20.00     0.090 A 
HETATM    2  C2  UNL     1     -34.573   5.233   4.104  1.00 20.00     0.167 A 
HETATM    3  C3  UNL     1     -33.339   6.967   3.577  1.00 20.00     0.109 A 
HETATM    4  N4  UNL     1     -33.949   5.821   3.108  1.00 20.00    -0.246 NA
HETATM    5  S5  UNL     1     -34.470   6.006   5.633  1.00 20.00    -0.092 SA
HETATM    6 BR6  UNL     1     -32.338   8.080   2.415  1.00 20.00    -0.029 Br
ENDROOT
TORSDOF 0
ENDMDL
MODEL 3
REMARK VINA RESULT:      -3.0      2.659      2.817
REMARK  0 active torsions:
REMARK  status: ('A' for Active; 'I' for Inactive)
ROOT
HETATM    1  C1  UNL     1     -33.502   6.358   2.875  1.00 20.00     0.090 A 
HETATM    2  C2  UNL     1     -32.444   8.092   4.168  1.00 20.00     0.167 A 
HETATM    3  C3  UNL     1     -33.729   6.317   4.235  1.00 20.00     0.109 A 
HETATM    4  N4  UNL     1     -33.124   7.311   4.978  1.00 20.00    -0.246 NA
HETATM    5  S5  UNL     1     -32.491   7.691   2.500  1.00 20.00    -0.092 SA
HETATM    6 BR6  UNL     1     -34.800   4.997   5.071  1.00 20.00    -0.029 Br
ENDROOT
TORSDOF 0
ENDMDL
MODEL 4
REMARK VINA RESULT:      -2.9      2.921      3.296
REMARK  0 active torsions:
REMARK  status: ('A' for Active; 'I' for Inactive)
ROOT
HETATM    1  C1  UNL     1     -33.314   7.294   4.411  1.00 20.00     0.090 A 
HETATM    2  C2  UNL     1     -33.020   6.308   2.233  1.00 20.00     0.167 A 
HETATM    3  C3  UNL     1     -33.825   6.023   4.253  1.00 20.00     0.109 A 
HETATM    4  N4  UNL     1     -33.657   5.456   3.005  1.00 20.00    -0.246 NA
HETATM    5  S5  UNL     1     -32.591   7.811   2.944  1.00 20.00    -0.092 SA
HETATM    6 BR6  UNL     1     -34.709   5.079   5.637  1.00 20.00    -0.029 Br
ENDROOT
TORSDOF 0
ENDMDL
MODEL 5
REMARK VINA RESULT:      -2.7     11.851     12.056
REMARK  0 active torsions:
REMARK  status: ('A' for Active; 'I' for Inactive)
ROOT
HETATM    1  C1  UNL     1     -36.488  15.549  -4.401  1.00 20.00     0.090 A 
HETATM    2  C2  UNL     1     -35.939  13.360  -5.241  1.00 20.00     0.167 A 
HETATM    3  C3  UNL     1     -35.200  15.118  -4.159  1.00 20.00     0.109 A 
HETATM    4  N4  UNL     1     -34.884  13.863  -4.641  1.00 20.00    -0.246 NA
HETATM    5  S5  UNL     1     -37.346  14.343  -5.266  1.00 20.00    -0.092 SA
HETATM    6 BR6  UNL     1     -33.915  16.153  -3.229  1.00 20.00    -0.029 Br
ENDROOT
TORSDOF 0
ENDMDL
MODEL 6
REMARK VINA RESULT:      -2.6     12.752     13.030
REMARK  0 active torsions:
REMARK  status: ('A' for Active; 'I' for Inactive)
ROOT
HETATM    1  C1  UNL     1     -33.734  15.458  -6.568  1.00 20.00     0.090 A 
HETATM    2  C2  UNL     1     -34.798  13.317  -6.856  1.00 20.00     0.167 A 
HETATM    3  C3  UNL     1     -34.203  14.860  -5.417  1.00 20.00     0.109 A 
HETATM    4  N4  UNL     1     -34.813  13.632  -5.581  1.00 20.00    -0.246 NA
HETATM    5  S5  UNL     1     -34.065  14.451  -7.916  1.00 20.00    -0.092 SA
HETATM    6 BR6  UNL     1     -34.039  15.640  -3.699  1.00 20.00    -0.029 Br
ENDROOT
TORSDOF 0
ENDMDL
MODEL 7
REMARK VINA RESULT:      -2.6     12.534     12.891
REMARK  0 active torsions:
REMARK  status: ('A' for Active; 'I' for Inactive)
ROOT
HETATM    1  C1  UNL     1     -34.256  15.763  -6.343  1.00 20.00     0.090 A 
HETATM    2  C2  UNL     1     -33.272  14.988  -4.286  1.00 20.00     0.167 A 
HETATM    3  C3  UNL     1     -34.337  14.405  -6.112  1.00 20.00     0.109 A 
HETATM    4  N4  UNL     1     -33.773  13.960  -4.932  1.00 20.00    -0.246 NA
HETATM    5  S5  UNL     1     -33.443  16.522  -5.037  1.00 20.00    -0.092 SA
HETATM    6 BR6  UNL     1     -35.162  13.194  -7.311  1.00 20.00    -0.029 Br
ENDROOT
TORSDOF 0
ENDMDL
MODEL 8
REMARK VINA RESULT:      -2.5     12.124     12.489
REMARK  0 active torsions:
REMARK  status: ('A' for Active; 'I' for Inactive)
ROOT
HETATM    1  C1  UNL     1     -34.857  15.834  -5.567  1.00 20.00     0.090 A 
HETATM    2  C2  UNL     1     -33.380  14.329  -4.405  1.00 20.00     0.167 A 
HETATM    3  C3  UNL     1     -35.448  14.712  -5.026  1.00 20.00     0.109 A 
HETATM    4  N4  UNL     1     -34.602  13.848  -4.359  1.00 20.00    -0.246 NA
HETATM    5  S5  UNL     1     -33.175  15.818  -5.233  1.00 20.00    -0.092 SA
HETATM    6 BR6  UNL     1     -37.300  14.342  -5.166  1.00 20.00    -0.029 Br
ENDROOT
TORSDOF 0
ENDMDL
MODEL 9
REMARK VINA RESULT:      -2.5     12.242     12.510
REMARK  0 active torsions:
REMARK  status: ('A' for Active; 'I' for Inactive)
ROOT
HETATM    1  C1  UNL     1     -33.617  16.785  -4.493  1.00 20.00     0.090 A 
HETATM    2  C2  UNL     1     -34.070  14.483  -5.039  1.00 20.00     0.167 A 
HETATM    3  C3  UNL     1     -34.323  16.071  -3.547  1.00 20.00     0.109 A 
HETATM    4  N4  UNL     1     -34.583  14.751  -3.859  1.00 20.00    -0.246 NA
HETATM    5  S5  UNL     1     -33.259  15.773  -5.830  1.00 20.00    -0.092 SA
HETATM    6 BR6  UNL     1     -34.916  16.817  -1.910  1.00 20.00    -0.029 Br
ENDROOT
TORSDOF 0
ENDMDL
