MODEL 1
REMARK VINA RESULT:      -3.5      0.000      0.000
REMARK  1 active torsions:
REMARK  status: ('A' for Active; 'I' for Inactive)
REMARK    1  A    between atoms: C2_2  and  O3_3 
ROOT
HETATM    1  C2  UNL     1     -34.460   5.857   4.018  1.00 20.00     0.314 C 
HETATM    2 CL4  UNL     1     -33.349   5.126   2.836  1.00 20.00    -0.078 Cl
HETATM    3 CL5  UNL     1     -34.599   4.805   5.440  1.00 20.00    -0.078 Cl
ENDROOT
BRANCH   1   4
HETATM    4  O3  UNL     1     -33.937   7.125   4.399  1.00 20.00    -0.362 OA
HETATM    5  C1  UNL     1     -33.751   7.240   5.803  1.00 20.00     0.204 C 
ENDBRANCH   1   4
TORSDOF 1
ENDMDL
MODEL 2
REMARK VINA RESULT:      -3.5      1.656      2.028
REMARK  1 active torsions:
REMARK  status: ('A' for Active; 'I' for Inactive)
REMARK    1  A    between atoms: C2_2  and  O3_3 
ROOT
HETATM    1  C2  UNL     1     -34.610   5.979   4.256  1.00 20.00     0.314 C 
HETATM    2 CL4  UNL     1     -34.458   4.253   4.659  1.00 20.00    -0.078 Cl
HETATM    3 CL5  UNL     1     -33.951   6.964   5.578  1.00 20.00    -0.078 Cl
ENDROOT
BRANCH   1   4
HETATM    4  O3  UNL     1     -33.885   6.225   3.057  1.00 20.00    -0.362 OA
HETATM    5  C1  UNL     1     -32.857   7.190   3.228  1.00 20.00     0.204 C 
ENDBRANCH   1   4
TORSDOF 1
ENDMDL
MODEL 3
REMARK VINA RESULT:      -3.4      1.823      2.758
REMARK  1 active torsions:
REMARK  status: ('A' for Active; 'I' for Inactive)
REMARK    1  A    between atoms: C2_2  and  O3_3 
ROOT
HETATM    1  C2  UNL     1     -34.285   6.683   4.025  1.00 20.00     0.314 C 
HETATM    2 CL4  UNL     1     -33.592   7.255   5.560  1.00 20.00    -0.078 Cl
HETATM    3 CL5  UNL     1     -32.981   6.190   2.925  1.00 20.00    -0.078 Cl
ENDROOT
BRANCH   1   4
HETATM    4  O3  UNL     1     -35.134   5.575   4.302  1.00 20.00    -0.362 OA
HETATM    5  C1  UNL     1     -34.415   4.358   4.445  1.00 20.00     0.204 C 
ENDBRANCH   1   4
TORSDOF 1
ENDMDL
MODEL 4
REMARK VINA RESULT:      -3.3      2.088      2.495
REMARK  1 active torsions:
REMARK  status: ('A' for Active; 'I' for Inactive)
REMARK    1  A    between atoms: C2_2  and  O3_3 
ROOT
HETATM    1  C2  UNL     1     -33.775   6.559   4.374  1.00 20.00     0.314 C 
HETATM    2 CL4  UNL     1     -33.804   7.303   5.989  1.00 20.00    -0.078 Cl
HETATM    3 CL5  UNL     1     -35.290   5.678   4.092  1.00 20.00    -0.078 Cl
ENDROOT
BRANCH   1   4
HETATM    4  O3  UNL     1     -33.625   7.593   3.407  1.00 20.00    -0.362 OA
HETATM    5  C1  UNL     1     -32.307   7.663   2.881  1.00 20.00     0.204 C 
ENDBRANCH   1   4
TORSDOF 1
ENDMDL
MODEL 5
REMARK VINA RESULT:      -3.2      1.818      2.222
REMARK  1 active torsions:
REMARK  status: ('A' for Active; 'I' for Inactive)
REMARK    1  A    between atoms: C2_2  and  O3_3 
ROOT
HETATM    1  C2  UNL     1     -33.407   7.243   3.597  1.00 20.00     0.314 C 
HETATM    2 CL4  UNL     1     -31.838   7.999   3.237  1.00 20.00    -0.078 Cl
HETATM    3 CL5  UNL     1     -33.461   5.611   2.899  1.00 20.00    -0.078 Cl
ENDROOT
BRANCH   1   4
HETATM    4  O3  UNL     1     -33.558   7.174   5.010  1.00 20.00    -0.362 OA
HETATM    5  C1  UNL     1     -34.386   6.095   5.420  1.00 20.00     0.204 C 
ENDBRANCH   1   4
TORSDOF 1
ENDMDL
MODEL 6
REMARK VINA RESULT:      -3.1      1.669      2.437
REMARK  1 active torsions:
REMARK  status: ('A' for Active; 'I' for Inactive)
REMARK    1  A    between atoms: C2_2  and  O3_3 
ROOT
HETATM    1  C2  UNL     1     -32.892   6.923   3.455  1.00 20.00     0.314 C 
HETATM    2 CL4  UNL     1     -33.304   5.343   2.749  1.00 20.00    -0.078 Cl
HETATM    3 CL5  UNL     1     -32.594   8.100   2.160  1.00 20.00    -0.078 Cl
ENDROOT
BRANCH   1   4
HETATM    4  O3  UNL     1     -33.983   7.351   4.262  1.00 20.00    -0.362 OA
HETATM    5  C1  UNL     1     -33.712   7.241   5.652  1.00 20.00     0.204 C 
ENDBRANCH   1   4
TORSDOF 1
ENDMDL
MODEL 7
REMARK VINA RESULT:      -3.1      2.037      2.390
REMARK  1 active torsions:
REMARK  status: ('A' for Active; 'I' for Inactive)
REMARK    1  A    between atoms: C2_2  and  O3_3 
ROOT
HETATM    1  C2  UNL     1     -33.521   6.513   4.369  1.00 20.00     0.314 C 
HETATM    2 CL4  UNL     1     -33.238   7.645   3.027  1.00 20.00    -0.078 Cl
HETATM    3 CL5  UNL     1     -33.783   7.419   5.873  1.00 20.00    -0.078 Cl
ENDROOT
BRANCH   1   4
HETATM    4  O3  UNL     1     -34.671   5.733   4.063  1.00 20.00    -0.362 OA
HETATM    5  C1  UNL     1     -34.556   4.389   4.509  1.00 20.00     0.204 C 
ENDBRANCH   1   4
TORSDOF 1
ENDMDL
MODEL 8
REMARK VINA RESULT:      -3.0      2.320      2.489
REMARK  1 active torsions:
REMARK  status: ('A' for Active; 'I' for Inactive)
REMARK    1  A    between atoms: C2_2  and  O3_3 
ROOT
HETATM    1  C2  UNL     1     -33.100   6.777   3.549  1.00 20.00     0.314 C 
HETATM    2 CL4  UNL     1     -32.737   8.113   2.431  1.00 20.00    -0.078 Cl
HETATM    3 CL5  UNL     1     -33.430   7.424   5.169  1.00 20.00    -0.078 Cl
ENDROOT
BRANCH   1   4
HETATM    4  O3  UNL     1     -34.241   6.082   3.060  1.00 20.00    -0.362 OA
HETATM    5  C1  UNL     1     -35.079   5.604   4.103  1.00 20.00     0.204 C 
ENDBRANCH   1   4
TORSDOF 1
ENDMDL
MODEL 9
REMARK VINA RESULT:      -2.9      5.073      5.412
REMARK  1 active torsions:
REMARK  status: ('A' for Active; 'I' for Inactive)
REMARK    1  A    between atoms: C2_2  and  O3_3 
ROOT
HETATM    1  C2  UNL     1     -32.811   9.302   1.130  1.00 20.00     0.314 C 
HETATM    2 CL4  UNL     1     -32.528  11.006   1.554  1.00 20.00    -0.078 Cl
HETATM    3 CL5  UNL     1     -33.039   9.150  -0.624  1.00 20.00    -0.078 Cl
ENDROOT
BRANCH   1   4
HETATM    4  O3  UNL     1     -31.679   8.543   1.542  1.00 20.00    -0.362 OA
HETATM    5  C1  UNL     1     -31.737   8.174   2.913  1.00 20.00     0.204 C 
ENDBRANCH   1   4
TORSDOF 1
ENDMDL
