MODEL 1
REMARK VINA RESULT:      -5.0      0.000      0.000
REMARK  0 active torsions:
REMARK  status: ('A' for Active; 'I' for Inactive)
ROOT
HETATM    1  C1  UNL     1     -33.254   6.098   3.401  1.00 20.00     0.142 C 
HETATM    2  C2  UNL     1     -33.998   7.494   5.881  1.00 20.00     0.002 C 
HETATM    3  C3  UNL     1     -34.184   5.988   5.774  1.00 20.00     0.016 C 
HETATM    4  C4  UNL     1     -32.750   7.915   5.119  1.00 20.00     0.016 C 
HETATM    5  C5  UNL     1     -34.326   5.487   4.326  1.00 20.00     0.014 C 
HETATM    6  C6  UNL     1     -32.792   7.553   3.625  1.00 20.00     0.014 C 
HETATM    7  C7  UNL     1     -34.156   3.955   4.336  1.00 20.00     0.023 C 
HETATM    8  C8  UNL     1     -35.720   5.803   3.762  1.00 20.00     0.023 C 
HETATM    9  C9  UNL     1     -33.712   8.502   2.846  1.00 20.00     0.023 C 
HETATM   10  C10 UNL     1     -31.363   7.708   3.061  1.00 20.00     0.023 C 
HETATM   11  O11 UNL     1     -32.840   5.459   2.427  1.00 20.00    -0.296 OA
ENDROOT
TORSDOF 0
ENDMDL
MODEL 2
REMARK VINA RESULT:      -4.7      1.496      3.743
REMARK  0 active torsions:
REMARK  status: ('A' for Active; 'I' for Inactive)
ROOT
HETATM    1  C1  UNL     1     -33.560   6.976   4.470  1.00 20.00     0.142 C 
HETATM    2  C2  UNL     1     -33.107   4.995   2.343  1.00 20.00     0.002 C 
HETATM    3  C3  UNL     1     -32.084   6.096   2.585  1.00 20.00     0.016 C 
HETATM    4  C4  UNL     1     -33.718   4.560   3.667  1.00 20.00     0.016 C 
HETATM    5  C5  UNL     1     -32.674   7.345   3.263  1.00 20.00     0.014 C 
HETATM    6  C6  UNL     1     -34.424   5.700   4.421  1.00 20.00     0.014 C 
HETATM    7  C7  UNL     1     -31.499   8.213   3.758  1.00 20.00     0.023 C 
HETATM    8  C8  UNL     1     -33.494   8.183   2.271  1.00 20.00     0.023 C 
HETATM    9  C9  UNL     1     -35.782   6.032   3.786  1.00 20.00     0.023 C 
HETATM   10  C10 UNL     1     -34.681   5.222   5.866  1.00 20.00     0.023 C 
HETATM   11  O11 UNL     1     -33.651   7.749   5.430  1.00 20.00    -0.296 OA
ENDROOT
TORSDOF 0
ENDMDL
MODEL 3
REMARK VINA RESULT:      -4.4     12.050     13.655
REMARK  0 active torsions:
REMARK  status: ('A' for Active; 'I' for Inactive)
ROOT
HETATM    1  C1  UNL     1     -35.505  15.682  -6.152  1.00 20.00     0.142 C 
HETATM    2  C2  UNL     1     -33.221  14.698  -4.580  1.00 20.00     0.002 C 
HETATM    3  C3  UNL     1     -33.007  15.767  -5.642  1.00 20.00     0.016 C 
HETATM    4  C4  UNL     1     -34.572  14.902  -3.910  1.00 20.00     0.016 C 
HETATM    5  C5  UNL     1     -34.083  15.765  -6.742  1.00 20.00     0.014 C 
HETATM    6  C6  UNL     1     -35.758  14.837  -4.887  1.00 20.00     0.014 C 
HETATM    7  C7  UNL     1     -33.952  17.082  -7.534  1.00 20.00     0.023 C 
HETATM    8  C8  UNL     1     -33.874  14.602  -7.724  1.00 20.00     0.023 C 
HETATM    9  C9  UNL     1     -36.065  13.390  -5.298  1.00 20.00     0.023 C 
HETATM   10  C10 UNL     1     -37.000  15.397  -4.160  1.00 20.00     0.023 C 
HETATM   11  O11 UNL     1     -36.453  16.209  -6.745  1.00 20.00    -0.296 OA
ENDROOT
TORSDOF 0
ENDMDL
MODEL 4
REMARK VINA RESULT:      -4.3     11.257     13.306
REMARK  0 active torsions:
REMARK  status: ('A' for Active; 'I' for Inactive)
ROOT
HETATM    1  C1  UNL     1     -34.962  14.161  -5.577  1.00 20.00     0.142 C 
HETATM    2  C2  UNL     1     -34.081  16.829  -6.449  1.00 20.00     0.002 C 
HETATM    3  C3  UNL     1     -33.200  16.005  -5.522  1.00 20.00     0.016 C 
HETATM    4  C4  UNL     1     -34.802  15.911  -7.426  1.00 20.00     0.016 C 
HETATM    5  C5  UNL     1     -33.978  14.962  -4.700  1.00 20.00     0.014 C 
HETATM    6  C6  UNL     1     -35.694  14.863  -6.739  1.00 20.00     0.014 C 
HETATM    7  C7  UNL     1     -32.954  13.985  -4.087  1.00 20.00     0.023 C 
HETATM    8  C8  UNL     1     -34.749  15.623  -3.548  1.00 20.00     0.023 C 
HETATM    9  C9  UNL     1     -36.992  15.493  -6.214  1.00 20.00     0.023 C 
HETATM   10  C10 UNL     1     -36.074  13.803  -7.794  1.00 20.00     0.023 C 
HETATM   11  O11 UNL     1     -35.237  12.991  -5.288  1.00 20.00    -0.296 OA
ENDROOT
TORSDOF 0
ENDMDL
MODEL 5
REMARK VINA RESULT:      -4.2     11.807     13.424
REMARK  0 active torsions:
REMARK  status: ('A' for Active; 'I' for Inactive)
ROOT
HETATM    1  C1  UNL     1     -35.331  14.731  -5.289  1.00 20.00     0.142 C 
HETATM    2  C2  UNL     1     -33.575  16.542  -6.803  1.00 20.00     0.002 C 
HETATM    3  C3  UNL     1     -34.869  16.043  -7.428  1.00 20.00     0.016 C 
HETATM    4  C4  UNL     1     -33.772  16.749  -5.308  1.00 20.00     0.016 C 
HETATM    5  C5  UNL     1     -35.368  14.715  -6.831  1.00 20.00     0.014 C 
HETATM    6  C6  UNL     1     -34.192  15.472  -4.561  1.00 20.00     0.014 C 
HETATM    7  C7  UNL     1     -36.826  14.509  -7.289  1.00 20.00     0.023 C 
HETATM    8  C8  UNL     1     -34.540  13.527  -7.345  1.00 20.00     0.023 C 
HETATM    9  C9  UNL     1     -33.004  14.518  -4.376  1.00 20.00     0.023 C 
HETATM   10  C10 UNL     1     -34.690  15.887  -3.160  1.00 20.00     0.023 C 
HETATM   11  O11 UNL     1     -36.154  14.072  -4.644  1.00 20.00    -0.296 OA
ENDROOT
TORSDOF 0
ENDMDL
MODEL 6
REMARK VINA RESULT:      -4.1     11.954     13.488
REMARK  0 active torsions:
REMARK  status: ('A' for Active; 'I' for Inactive)
ROOT
HETATM    1  C1  UNL     1     -34.220  16.043  -5.767  1.00 20.00     0.142 C 
HETATM    2  C2  UNL     1     -35.800  13.574  -5.518  1.00 20.00     0.002 C 
HETATM    3  C3  UNL     1     -35.398  14.347  -4.270  1.00 20.00     0.016 C 
HETATM    4  C4  UNL     1     -36.083  14.545  -6.655  1.00 20.00     0.016 C 
HETATM    5  C5  UNL     1     -34.147  15.220  -4.465  1.00 20.00     0.014 C 
HETATM    6  C6  UNL     1     -34.881  15.432  -7.020  1.00 20.00     0.014 C 
HETATM    7  C7  UNL     1     -34.058  16.193  -3.271  1.00 20.00     0.023 C 
HETATM    8  C8  UNL     1     -32.868  14.369  -4.475  1.00 20.00     0.023 C 
HETATM    9  C9  UNL     1     -33.828  14.646  -7.815  1.00 20.00     0.023 C 
HETATM   10  C10 UNL     1     -35.393  16.579  -7.916  1.00 20.00     0.023 C 
HETATM   11  O11 UNL     1     -33.665  17.145  -5.835  1.00 20.00    -0.296 OA
ENDROOT
TORSDOF 0
ENDMDL
MODEL 7
REMARK VINA RESULT:      -4.1     11.420     12.590
REMARK  0 active torsions:
REMARK  status: ('A' for Active; 'I' for Inactive)
ROOT
HETATM    1  C1  UNL     1     -35.078  14.532  -5.148  1.00 20.00     0.142 C 
HETATM    2  C2  UNL     1     -35.461  16.820  -3.339  1.00 20.00     0.002 C 
HETATM    3  C3  UNL     1     -36.654  15.972  -3.752  1.00 20.00     0.016 C 
HETATM    4  C4  UNL     1     -34.227  15.939  -3.199  1.00 20.00     0.016 C 
HETATM    5  C5  UNL     1     -36.451  15.232  -5.085  1.00 20.00     0.014 C 
HETATM    6  C6  UNL     1     -33.851  15.199  -4.493  1.00 20.00     0.014 C 
HETATM    7  C7  UNL     1     -37.557  14.163  -5.206  1.00 20.00     0.023 C 
HETATM    8  C8  UNL     1     -36.587  16.188  -6.280  1.00 20.00     0.023 C 
HETATM    9  C9  UNL     1     -33.188  16.144  -5.505  1.00 20.00     0.023 C 
HETATM   10  C10 UNL     1     -32.829  14.101  -4.129  1.00 20.00     0.023 C 
HETATM   11  O11 UNL     1     -34.943  13.493  -5.804  1.00 20.00    -0.296 OA
ENDROOT
TORSDOF 0
ENDMDL
MODEL 8
REMARK VINA RESULT:      -4.1     12.033     12.927
REMARK  0 active torsions:
REMARK  status: ('A' for Active; 'I' for Inactive)
ROOT
HETATM    1  C1  UNL     1     -35.969  15.571  -4.122  1.00 20.00     0.142 C 
HETATM    2  C2  UNL     1     -33.091  15.617  -4.725  1.00 20.00     0.002 C 
HETATM    3  C3  UNL     1     -33.592  16.129  -3.383  1.00 20.00     0.016 C 
HETATM    4  C4  UNL     1     -33.943  14.440  -5.178  1.00 20.00     0.016 C 
HETATM    5  C5  UNL     1     -35.059  16.594  -3.412  1.00 20.00     0.014 C 
HETATM    6  C6  UNL     1     -35.433  14.785  -5.335  1.00 20.00     0.014 C 
HETATM    7  C7  UNL     1     -35.534  16.750  -1.953  1.00 20.00     0.023 C 
HETATM    8  C8  UNL     1     -35.198  17.960  -4.101  1.00 20.00     0.023 C 
HETATM    9  C9  UNL     1     -35.687  15.594  -6.615  1.00 20.00     0.023 C 
HETATM   10  C10 UNL     1     -36.216  13.460  -5.449  1.00 20.00     0.023 C 
HETATM   11  O11 UNL     1     -37.152  15.456  -3.782  1.00 20.00    -0.296 OA
ENDROOT
TORSDOF 0
ENDMDL
MODEL 9
REMARK VINA RESULT:      -4.1     11.935     13.584
REMARK  0 active torsions:
REMARK  status: ('A' for Active; 'I' for Inactive)
ROOT
HETATM    1  C1  UNL     1     -34.948  14.507  -5.379  1.00 20.00     0.142 C 
HETATM    2  C2  UNL     1     -34.083  16.607  -7.249  1.00 20.00     0.002 C 
HETATM    3  C3  UNL     1     -33.551  16.595  -5.823  1.00 20.00     0.016 C 
HETATM    4  C4  UNL     1     -34.265  15.179  -7.742  1.00 20.00     0.016 C 
HETATM    5  C5  UNL     1     -34.473  15.868  -4.829  1.00 20.00     0.014 C 
HETATM    6  C6  UNL     1     -35.238  14.352  -6.885  1.00 20.00     0.014 C 
HETATM    7  C7  UNL     1     -33.673  15.625  -3.533  1.00 20.00     0.023 C 
HETATM    8  C8  UNL     1     -35.698  16.725  -4.474  1.00 20.00     0.023 C 
HETATM    9  C9  UNL     1     -36.697  14.743  -7.163  1.00 20.00     0.023 C 
HETATM   10  C10 UNL     1     -35.064  12.868  -7.271  1.00 20.00     0.023 C 
HETATM   11  O11 UNL     1     -35.188  13.576  -4.602  1.00 20.00    -0.296 OA
ENDROOT
TORSDOF 0
ENDMDL
