MODEL 1
REMARK VINA RESULT:      -5.1      0.000      0.000
REMARK  1 active torsions:
REMARK  status: ('A' for Active; 'I' for Inactive)
REMARK    1  A    between atoms: C5_5  and  C6_6 
ROOT
HETATM    1  C1  UNL     1     -32.406   7.913   2.301  1.00 20.00     0.061 C 
HETATM    2  C6  UNL     1     -32.794   6.661   2.942  1.00 20.00     0.155 C 
HETATM    3  N7  UNL     1     -32.079   8.897   1.780  1.00 20.00    -0.197 NA
ENDROOT
BRANCH   2   4
HETATM    4  C5  UNL     1     -34.060   7.003   3.718  1.00 20.00     0.134 C 
HETATM    5  C3  UNL     1     -35.022   5.831   3.830  1.00 20.00     0.035 C 
HETATM    6  C2  UNL     1     -34.614   5.190   5.133  1.00 20.00     0.029 C 
HETATM    7  C4  UNL     1     -34.231   6.392   5.965  1.00 20.00     0.168 C 
HETATM    8  O8  UNL     1     -33.685   7.361   5.059  1.00 20.00    -0.385 OA
ENDBRANCH   2   4
TORSDOF 1
ENDMDL
MODEL 2
REMARK VINA RESULT:      -4.3      2.736      3.794
REMARK  1 active torsions:
REMARK  status: ('A' for Active; 'I' for Inactive)
REMARK    1  A    between atoms: C5_5  and  C6_6 
ROOT
HETATM    1  C1  UNL     1     -34.033   4.789   3.824  1.00 20.00     0.061 C 
HETATM    2  C6  UNL     1     -33.225   5.458   2.811  1.00 20.00     0.155 C 
HETATM    3  N7  UNL     1     -34.666   4.235   4.623  1.00 20.00    -0.197 NA
ENDROOT
BRANCH   2   4
HETATM    4  C5  UNL     1     -33.541   6.939   2.984  1.00 20.00     0.134 C 
HETATM    5  C3  UNL     1     -32.878   7.547   4.210  1.00 20.00     0.035 C 
HETATM    6  C2  UNL     1     -31.577   8.075   3.657  1.00 20.00     0.029 C 
HETATM    7  C4  UNL     1     -31.989   8.535   2.278  1.00 20.00     0.168 C 
HETATM    8  O8  UNL     1     -33.028   7.647   1.842  1.00 20.00    -0.385 OA
ENDBRANCH   2   4
TORSDOF 1
ENDMDL
MODEL 3
REMARK VINA RESULT:      -4.1      2.204      3.202
REMARK  1 active torsions:
REMARK  status: ('A' for Active; 'I' for Inactive)
REMARK    1  A    between atoms: C5_5  and  C6_6 
ROOT
HETATM    1  C1  UNL     1     -32.890   9.439   0.296  1.00 20.00     0.061 C 
HETATM    2  C6  UNL     1     -32.386   9.631   1.652  1.00 20.00     0.155 C 
HETATM    3  N7  UNL     1     -33.295   9.311  -0.784  1.00 20.00    -0.197 NA
ENDROOT
BRANCH   2   4
HETATM    4  C5  UNL     1     -31.915   8.249   2.085  1.00 20.00     0.134 C 
HETATM    5  C3  UNL     1     -31.461   8.205   3.536  1.00 20.00     0.035 C 
HETATM    6  C2  UNL     1     -32.719   7.806   4.266  1.00 20.00     0.029 C 
HETATM    7  C4  UNL     1     -33.365   6.862   3.279  1.00 20.00     0.168 C 
HETATM    8  O8  UNL     1     -33.021   7.337   1.970  1.00 20.00    -0.385 OA
ENDBRANCH   2   4
TORSDOF 1
ENDMDL
MODEL 4
REMARK VINA RESULT:      -4.0      1.353      1.760
REMARK  1 active torsions:
REMARK  status: ('A' for Active; 'I' for Inactive)
REMARK    1  A    between atoms: C5_5  and  C6_6 
ROOT
HETATM    1  C1  UNL     1     -32.303   8.369   1.793  1.00 20.00     0.061 C 
HETATM    2  C6  UNL     1     -33.463   8.052   2.619  1.00 20.00     0.155 C 
HETATM    3  N7  UNL     1     -31.394   8.639   1.124  1.00 20.00    -0.197 NA
ENDROOT
BRANCH   2   4
HETATM    4  C5  UNL     1     -32.959   7.004   3.602  1.00 20.00     0.134 C 
HETATM    5  C3  UNL     1     -33.807   6.915   4.862  1.00 20.00     0.035 C 
HETATM    6  C2  UNL     1     -34.810   5.844   4.513  1.00 20.00     0.029 C 
HETATM    7  C4  UNL     1     -33.980   4.905   3.668  1.00 20.00     0.168 C 
HETATM    8  O8  UNL     1     -33.029   5.716   2.966  1.00 20.00    -0.385 OA
ENDBRANCH   2   4
TORSDOF 1
ENDMDL
MODEL 5
REMARK VINA RESULT:      -4.0      2.283      3.418
REMARK  1 active torsions:
REMARK  status: ('A' for Active; 'I' for Inactive)
REMARK    1  A    between atoms: C5_5  and  C6_6 
ROOT
HETATM    1  C1  UNL     1     -34.085   6.608   5.902  1.00 20.00     0.061 C 
HETATM    2  C6  UNL     1     -34.477   5.216   5.713  1.00 20.00     0.155 C 
HETATM    3  N7  UNL     1     -33.768   7.711   6.077  1.00 20.00    -0.197 NA
ENDROOT
BRANCH   2   4
HETATM    4  C5  UNL     1     -34.806   5.108   4.230  1.00 20.00     0.134 C 
HETATM    5  C3  UNL     1     -34.514   6.388   3.462  1.00 20.00     0.035 C 
HETATM    6  C2  UNL     1     -33.101   6.171   2.979  1.00 20.00     0.029 C 
HETATM    7  C4  UNL     1     -33.093   4.686   2.700  1.00 20.00     0.168 C 
HETATM    8  O8  UNL     1     -33.976   4.083   3.656  1.00 20.00    -0.385 OA
ENDBRANCH   2   4
TORSDOF 1
ENDMDL
MODEL 6
REMARK VINA RESULT:      -3.9      2.512      4.455
REMARK  1 active torsions:
REMARK  status: ('A' for Active; 'I' for Inactive)
REMARK    1  A    between atoms: C5_5  and  C6_6 
ROOT
HETATM    1  C1  UNL     1     -33.117   7.301   3.798  1.00 20.00     0.061 C 
HETATM    2  C6  UNL     1     -32.788   7.213   2.380  1.00 20.00     0.155 C 
HETATM    3  N7  UNL     1     -33.391   7.350   4.925  1.00 20.00    -0.197 NA
ENDROOT
BRANCH   2   4
HETATM    4  C5  UNL     1     -31.921   8.435   2.110  1.00 20.00     0.134 C 
HETATM    5  C3  UNL     1     -31.457   8.527   0.665  1.00 20.00     0.035 C 
HETATM    6  C2  UNL     1     -32.530   9.371   0.024  1.00 20.00     0.029 C 
HETATM    7  C4  UNL     1     -32.877  10.331   1.139  1.00 20.00     0.168 C 
HETATM    8  O8  UNL     1     -32.706   9.612   2.367  1.00 20.00    -0.385 OA
ENDBRANCH   2   4
TORSDOF 1
ENDMDL
MODEL 7
REMARK VINA RESULT:      -3.9      2.483      3.854
REMARK  1 active torsions:
REMARK  status: ('A' for Active; 'I' for Inactive)
REMARK    1  A    between atoms: C5_5  and  C6_6 
ROOT
HETATM    1  C1  UNL     1     -34.304   6.050   5.331  1.00 20.00     0.061 C 
HETATM    2  C6  UNL     1     -33.857   7.339   4.818  1.00 20.00     0.155 C 
HETATM    3  N7  UNL     1     -34.679   5.035   5.752  1.00 20.00    -0.197 NA
ENDROOT
BRANCH   2   4
HETATM    4  C5  UNL     1     -32.671   7.005   3.922  1.00 20.00     0.134 C 
HETATM    5  C3  UNL     1     -33.052   6.878   2.456  1.00 20.00     0.035 C 
HETATM    6  C2  UNL     1     -32.823   8.274   1.931  1.00 20.00     0.029 C 
HETATM    7  C4  UNL     1     -31.616   8.712   2.728  1.00 20.00     0.168 C 
HETATM    8  O8  UNL     1     -31.720   8.080   4.011  1.00 20.00    -0.385 OA
ENDBRANCH   2   4
TORSDOF 1
ENDMDL
MODEL 8
REMARK VINA RESULT:      -3.7     11.458     12.108
REMARK  1 active torsions:
REMARK  status: ('A' for Active; 'I' for Inactive)
REMARK    1  A    between atoms: C5_5  and  C6_6 
ROOT
HETATM    1  C1  UNL     1     -35.219  13.669  -4.721  1.00 20.00     0.061 C 
HETATM    2  C6  UNL     1     -34.218  14.493  -4.054  1.00 20.00     0.155 C 
HETATM    3  N7  UNL     1     -35.999  12.993  -5.251  1.00 20.00    -0.197 NA
ENDROOT
BRANCH   2   4
HETATM    4  C5  UNL     1     -34.885  15.853  -3.895  1.00 20.00     0.134 C 
HETATM    5  C3  UNL     1     -34.970  16.307  -2.446  1.00 20.00     0.035 C 
HETATM    6  C2  UNL     1     -33.704  17.110  -2.274  1.00 20.00     0.029 C 
HETATM    7  C4  UNL     1     -33.562  17.759  -3.631  1.00 20.00     0.168 C 
HETATM    8  O8  UNL     1     -34.090  16.831  -4.588  1.00 20.00    -0.385 OA
ENDBRANCH   2   4
TORSDOF 1
ENDMDL
MODEL 9
REMARK VINA RESULT:      -3.6      2.079      2.864
REMARK  1 active torsions:
REMARK  status: ('A' for Active; 'I' for Inactive)
REMARK    1  A    between atoms: C5_5  and  C6_6 
ROOT
HETATM    1  C1  UNL     1     -33.468   4.433   3.214  1.00 20.00     0.061 C 
HETATM    2  C6  UNL     1     -34.257   4.266   4.429  1.00 20.00     0.155 C 
HETATM    3  N7  UNL     1     -32.833   4.542   2.248  1.00 20.00    -0.197 NA
ENDROOT
BRANCH   2   4
HETATM    4  C5  UNL     1     -34.947   5.610   4.626  1.00 20.00     0.134 C 
HETATM    5  C3  UNL     1     -34.641   6.242   5.974  1.00 20.00     0.035 C 
HETATM    6  C2  UNL     1     -33.442   7.107   5.671  1.00 20.00     0.029 C 
HETATM    7  C4  UNL     1     -33.748   7.581   4.269  1.00 20.00     0.168 C 
HETATM    8  O8  UNL     1     -34.462   6.519   3.623  1.00 20.00    -0.385 OA
ENDBRANCH   2   4
TORSDOF 1
ENDMDL
