MODEL 1
REMARK VINA RESULT:      -4.4      0.000      0.000
REMARK  1 active torsions:
REMARK  status: ('A' for Active; 'I' for Inactive)
REMARK    1  A    between atoms: C8_8  and  O9_9 
ROOT
HETATM    1  C1  UNL     1     -35.455   5.285   4.203  1.00 20.00     0.010 C 
HETATM    2  C2  UNL     1     -33.809   6.503   5.399  1.00 20.00     0.012 C 
HETATM    3  C3  UNL     1     -33.195   4.837   3.645  1.00 20.00     0.012 C 
HETATM    4  C4  UNL     1     -34.094   5.088   4.867  1.00 20.00    -0.013 C 
HETATM    5  C5  UNL     1     -35.012   6.414   3.286  1.00 20.00    -0.001 C 
HETATM    6  C6  UNL     1     -34.164   7.378   4.180  1.00 20.00     0.019 C 
HETATM    7  C7  UNL     1     -33.642   5.957   2.687  1.00 20.00     0.019 C 
HETATM    8  C8  UNL     1     -33.130   7.388   3.020  1.00 20.00     0.127 C 
ENDROOT
BRANCH   8   9
HETATM    9  O9  UNL     1     -31.746   7.519   3.387  1.00 20.00    -0.395 OA
HETATM   10  H21 UNL     1     -31.455   8.365   3.023  1.00 20.00     0.210 HD
ENDBRANCH   8   9
TORSDOF 1
ENDMDL
MODEL 2
REMARK VINA RESULT:      -4.4      8.346      9.507
REMARK  1 active torsions:
REMARK  status: ('A' for Active; 'I' for Inactive)
REMARK    1  A    between atoms: C8_8  and  O9_9 
ROOT
HETATM    1  C1  UNL     1     -43.417   7.658   0.636  1.00 20.00     0.010 C 
HETATM    2  C2  UNL     1     -43.227   6.024  -1.072  1.00 20.00     0.012 C 
HETATM    3  C3  UNL     1     -41.499   7.796  -0.751  1.00 20.00     0.012 C 
HETATM    4  C4  UNL     1     -43.012   7.528  -0.831  1.00 20.00    -0.013 C 
HETATM    5  C5  UNL     1     -42.442   6.613   1.154  1.00 20.00    -0.001 C 
HETATM    6  C6  UNL     1     -42.554   5.404   0.169  1.00 20.00     0.019 C 
HETATM    7  C7  UNL     1     -41.083   6.914   0.442  1.00 20.00     0.019 C 
HETATM    8  C8  UNL     1     -41.000   5.385   0.167  1.00 20.00     0.127 C 
ENDROOT
BRANCH   8   9
HETATM    9  O9  UNL     1     -40.358   4.974  -1.052  1.00 20.00    -0.395 OA
HETATM   10  H21 UNL     1     -39.414   5.135  -0.921  1.00 20.00     0.210 HD
ENDBRANCH   8   9
TORSDOF 1
ENDMDL
MODEL 3
REMARK VINA RESULT:      -4.2      1.262      2.120
REMARK  1 active torsions:
REMARK  status: ('A' for Active; 'I' for Inactive)
REMARK    1  A    between atoms: C8_8  and  O9_9 
ROOT
HETATM    1  C1  UNL     1     -34.499   5.532   2.242  1.00 20.00     0.010 C 
HETATM    2  C2  UNL     1     -33.601   4.685   4.267  1.00 20.00     0.012 C 
HETATM    3  C3  UNL     1     -32.630   6.687   3.135  1.00 20.00     0.012 C 
HETATM    4  C4  UNL     1     -33.153   5.258   2.911  1.00 20.00    -0.013 C 
HETATM    5  C5  UNL     1     -35.039   6.421   3.351  1.00 20.00    -0.001 C 
HETATM    6  C6  UNL     1     -34.696   5.685   4.688  1.00 20.00     0.019 C 
HETATM    7  C7  UNL     1     -33.869   7.390   3.723  1.00 20.00     0.019 C 
HETATM    8  C8  UNL     1     -34.201   7.064   5.207  1.00 20.00     0.127 C 
ENDROOT
BRANCH   8   9
HETATM    9  O9  UNL     1     -33.103   7.051   6.135  1.00 20.00    -0.395 OA
HETATM   10  H21 UNL     1     -33.443   7.439   6.952  1.00 20.00     0.210 HD
ENDBRANCH   8   9
TORSDOF 1
ENDMDL
MODEL 4
REMARK VINA RESULT:      -4.2     11.717     12.694
REMARK  1 active torsions:
REMARK  status: ('A' for Active; 'I' for Inactive)
REMARK    1  A    between atoms: C8_8  and  O9_9 
ROOT
HETATM    1  C1  UNL     1     -33.697  16.602  -5.003  1.00 20.00     0.010 C 
HETATM    2  C2  UNL     1     -33.309  14.332  -4.438  1.00 20.00     0.012 C 
HETATM    3  C3  UNL     1     -35.376  15.532  -3.715  1.00 20.00     0.012 C 
HETATM    4  C4  UNL     1     -33.845  15.638  -3.827  1.00 20.00    -0.013 C 
HETATM    5  C5  UNL     1     -34.518  15.776  -5.979  1.00 20.00    -0.001 C 
HETATM    6  C6  UNL     1     -34.028  14.301  -5.802  1.00 20.00     0.019 C 
HETATM    7  C7  UNL     1     -35.787  15.324  -5.185  1.00 20.00     0.019 C 
HETATM    8  C8  UNL     1     -35.531  13.907  -5.774  1.00 20.00     0.127 C 
ENDROOT
BRANCH   8   9
HETATM    9  O9  UNL     1     -35.892  12.782  -4.953  1.00 20.00    -0.395 OA
HETATM   10  H21 UNL     1     -36.804  12.941  -4.675  1.00 20.00     0.210 HD
ENDBRANCH   8   9
TORSDOF 1
ENDMDL
MODEL 5
REMARK VINA RESULT:      -4.2      8.421      9.469
REMARK  1 active torsions:
REMARK  status: ('A' for Active; 'I' for Inactive)
REMARK    1  A    between atoms: C8_8  and  O9_9 
ROOT
HETATM    1  C1  UNL     1     -42.850   5.013   0.739  1.00 20.00     0.010 C 
HETATM    2  C2  UNL     1     -41.088   5.427  -0.793  1.00 20.00     0.012 C 
HETATM    3  C3  UNL     1     -43.390   6.316  -1.168  1.00 20.00     0.012 C 
HETATM    4  C4  UNL     1     -42.584   5.069  -0.765  1.00 20.00    -0.013 C 
HETATM    5  C5  UNL     1     -42.355   6.420   1.031  1.00 20.00    -0.001 C 
HETATM    6  C6  UNL     1     -41.015   6.571   0.238  1.00 20.00     0.019 C 
HETATM    7  C7  UNL     1     -42.976   7.327  -0.081  1.00 20.00     0.019 C 
HETATM    8  C8  UNL     1     -41.558   7.950  -0.230  1.00 20.00     0.127 C 
ENDROOT
BRANCH   8   9
HETATM    9  O9  UNL     1     -41.171   8.388  -1.543  1.00 20.00    -0.395 OA
HETATM   10  H21 UNL     1     -40.687   7.649  -1.936  1.00 20.00     0.210 HD
ENDBRANCH   8   9
TORSDOF 1
ENDMDL
MODEL 6
REMARK VINA RESULT:      -4.1     11.767     12.897
REMARK  1 active torsions:
REMARK  status: ('A' for Active; 'I' for Inactive)
REMARK    1  A    between atoms: C8_8  and  O9_9 
ROOT
HETATM    1  C1  UNL     1     -33.621  16.763  -5.238  1.00 20.00     0.010 C 
HETATM    2  C2  UNL     1     -34.123  14.929  -6.654  1.00 20.00     0.012 C 
HETATM    3  C3  UNL     1     -33.194  14.601  -4.361  1.00 20.00     0.012 C 
HETATM    4  C4  UNL     1     -33.051  15.410  -5.662  1.00 20.00    -0.013 C 
HETATM    5  C5  UNL     1     -34.963  16.221  -4.771  1.00 20.00    -0.001 C 
HETATM    6  C6  UNL     1     -35.426  15.222  -5.883  1.00 20.00     0.019 C 
HETATM    7  C7  UNL     1     -34.633  14.944  -3.930  1.00 20.00     0.019 C 
HETATM    8  C8  UNL     1     -35.771  14.244  -4.726  1.00 20.00     0.127 C 
ENDROOT
BRANCH   8   9
HETATM    9  O9  UNL     1     -35.614  12.840  -4.995  1.00 20.00    -0.395 OA
HETATM   10  H21 UNL     1     -34.662  12.673  -4.976  1.00 20.00     0.210 HD
ENDBRANCH   8   9
TORSDOF 1
ENDMDL
MODEL 7
REMARK VINA RESULT:      -4.0      0.979      1.905
REMARK  1 active torsions:
REMARK  status: ('A' for Active; 'I' for Inactive)
REMARK    1  A    between atoms: C8_8  and  O9_9 
ROOT
HETATM    1  C1  UNL     1     -34.376   4.424   4.472  1.00 20.00     0.010 C 
HETATM    2  C2  UNL     1     -35.460   6.213   3.356  1.00 20.00     0.012 C 
HETATM    3  C3  UNL     1     -33.768   6.615   5.146  1.00 20.00     0.012 C 
HETATM    4  C4  UNL     1     -35.005   5.785   4.762  1.00 20.00    -0.013 C 
HETATM    5  C5  UNL     1     -33.393   4.932   3.429  1.00 20.00    -0.001 C 
HETATM    6  C6  UNL     1     -34.213   5.893   2.507  1.00 20.00     0.019 C 
HETATM    7  C7  UNL     1     -32.773   6.235   4.034  1.00 20.00     0.019 C 
HETATM    8  C8  UNL     1     -33.022   6.883   2.641  1.00 20.00     0.127 C 
ENDROOT
BRANCH   8   9
HETATM    9  O9  UNL     1     -33.339   8.285   2.620  1.00 20.00    -0.395 OA
HETATM   10  H21 UNL     1     -33.932   8.410   1.867  1.00 20.00     0.210 HD
ENDBRANCH   8   9
TORSDOF 1
ENDMDL
MODEL 8
REMARK VINA RESULT:      -4.0     11.754     12.810
REMARK  1 active torsions:
REMARK  status: ('A' for Active; 'I' for Inactive)
REMARK    1  A    between atoms: C8_8  and  O9_9 
ROOT
HETATM    1  C1  UNL     1     -34.903  16.135  -2.819  1.00 20.00     0.010 C 
HETATM    2  C2  UNL     1     -34.757  14.239  -4.235  1.00 20.00     0.012 C 
HETATM    3  C3  UNL     1     -35.390  16.488  -5.113  1.00 20.00     0.012 C 
HETATM    4  C4  UNL     1     -35.639  15.474  -3.983  1.00 20.00    -0.013 C 
HETATM    5  C5  UNL     1     -33.562  16.236  -3.527  1.00 20.00    -0.001 C 
HETATM    6  C6  UNL     1     -33.341  14.850  -4.217  1.00 20.00     0.019 C 
HETATM    7  C7  UNL     1     -33.882  16.766  -4.964  1.00 20.00     0.019 C 
HETATM    8  C8  UNL     1     -32.926  15.653  -5.482  1.00 20.00     0.127 C 
ENDROOT
BRANCH   8   9
HETATM    9  O9  UNL     1     -33.238  15.063  -6.755  1.00 20.00    -0.395 OA
HETATM   10  H21 UNL     1     -33.949  14.431  -6.586  1.00 20.00     0.210 HD
ENDBRANCH   8   9
TORSDOF 1
ENDMDL
MODEL 9
REMARK VINA RESULT:      -4.0      1.742      2.817
REMARK  1 active torsions:
REMARK  status: ('A' for Active; 'I' for Inactive)
REMARK    1  A    between atoms: C8_8  and  O9_9 
ROOT
HETATM    1  C1  UNL     1     -34.570   7.592   3.569  1.00 20.00     0.010 C 
HETATM    2  C2  UNL     1     -32.785   6.057   3.287  1.00 20.00     0.012 C 
HETATM    3  C3  UNL     1     -33.738   6.565   5.538  1.00 20.00     0.012 C 
HETATM    4  C4  UNL     1     -33.248   7.190   4.220  1.00 20.00    -0.013 C 
HETATM    5  C5  UNL     1     -35.190   6.204   3.620  1.00 20.00    -0.001 C 
HETATM    6  C6  UNL     1     -34.072   5.223   3.136  1.00 20.00     0.019 C 
HETATM    7  C7  UNL     1     -34.884   5.657   5.052  1.00 20.00     0.019 C 
HETATM    8  C8  UNL     1     -34.459   4.335   4.351  1.00 20.00     0.127 C 
ENDROOT
BRANCH   8   9
HETATM    9  O9  UNL     1     -33.402   3.579   4.965  1.00 20.00    -0.395 OA
HETATM   10  H21 UNL     1     -33.737   2.677   5.050  1.00 20.00     0.210 HD
ENDBRANCH   8   9
TORSDOF 1
ENDMDL
