MODEL 1
REMARK VINA RESULT:      -5.3      0.000      0.000
REMARK  1 active torsions:
REMARK  status: ('A' for Active; 'I' for Inactive)
REMARK    1  A    between atoms: C1_1  and  C3_3 
ROOT
HETATM    1  C2  UNL     1     -34.851   6.495   3.421  1.00 20.00     0.065 A 
HETATM    2  C3  UNL     1     -33.619   6.880   4.216  1.00 20.00     0.070 A 
HETATM    3  C4  UNL     1     -33.852   5.430   3.787  1.00 20.00     0.130 A 
HETATM    4  C5  UNL     1     -33.834   7.276   5.658  1.00 20.00     0.028 C 
HETATM    5 CL8  UNL     1     -32.896   4.734   2.473  1.00 20.00    -0.100 Cl
HETATM    6 CL9  UNL     1     -34.338   4.217   4.972  1.00 20.00    -0.100 Cl
ENDROOT
BRANCH   2   7
HETATM    7  C1  UNL     1     -32.573   7.652   3.498  1.00 20.00     0.230 C 
HETATM    8  O6  UNL     1     -31.519   7.968   4.040  1.00 20.00    -0.279 OA
HETATM    9 CL7  UNL     1     -33.038   8.021   1.864  1.00 20.00    -0.043 Cl
ENDBRANCH   2   7
TORSDOF 1
ENDMDL
MODEL 2
REMARK VINA RESULT:      -4.2      2.393      3.748
REMARK  1 active torsions:
REMARK  status: ('A' for Active; 'I' for Inactive)
REMARK    1  A    between atoms: C1_1  and  C3_3 
ROOT
HETATM    1  C2  UNL     1     -34.067   7.618   3.001  1.00 20.00     0.065 A 
HETATM    2  C3  UNL     1     -33.653   6.194   3.315  1.00 20.00     0.070 A 
HETATM    3  C4  UNL     1     -33.061   7.370   4.092  1.00 20.00     0.130 A 
HETATM    4  C5  UNL     1     -32.813   5.484   2.279  1.00 20.00     0.028 C 
HETATM    5 CL8  UNL     1     -33.580   7.680   5.754  1.00 20.00    -0.100 Cl
HETATM    6 CL9  UNL     1     -31.396   7.878   3.809  1.00 20.00    -0.100 Cl
ENDROOT
BRANCH   2   7
HETATM    7  C1  UNL     1     -34.655   5.343   4.007  1.00 20.00     0.230 C 
HETATM    8  O6  UNL     1     -35.839   5.659   4.064  1.00 20.00    -0.279 OA
HETATM    9 CL7  UNL     1     -33.940   3.912   4.686  1.00 20.00    -0.043 Cl
ENDBRANCH   2   7
TORSDOF 1
ENDMDL
MODEL 3
REMARK VINA RESULT:      -4.1     12.164     12.712
REMARK  1 active torsions:
REMARK  status: ('A' for Active; 'I' for Inactive)
REMARK    1  A    between atoms: C1_1  and  C3_3 
ROOT
HETATM    1  C2  UNL     1     -33.750  14.396  -4.424  1.00 20.00     0.065 A 
HETATM    2  C3  UNL     1     -35.188  14.836  -4.609  1.00 20.00     0.070 A 
HETATM    3  C4  UNL     1     -34.084  15.365  -5.526  1.00 20.00     0.130 A 
HETATM    4  C5  UNL     1     -35.768  15.736  -3.542  1.00 20.00     0.028 C 
HETATM    5 CL8  UNL     1     -33.959  14.773  -7.188  1.00 20.00    -0.100 Cl
HETATM    6 CL9  UNL     1     -33.511  17.025  -5.365  1.00 20.00    -0.100 Cl
ENDROOT
BRANCH   2   7
HETATM    7  C1  UNL     1     -36.129  13.833  -5.169  1.00 20.00     0.230 C 
HETATM    8  O6  UNL     1     -35.849  12.638  -5.208  1.00 20.00    -0.279 OA
HETATM    9 CL7  UNL     1     -37.604  14.560  -5.730  1.00 20.00    -0.043 Cl
ENDBRANCH   2   7
TORSDOF 1
ENDMDL
MODEL 4
REMARK VINA RESULT:      -4.0     11.763     12.775
REMARK  1 active torsions:
REMARK  status: ('A' for Active; 'I' for Inactive)
REMARK    1  A    between atoms: C1_1  and  C3_3 
ROOT
HETATM    1  C2  UNL     1     -35.344  15.293  -3.926  1.00 20.00     0.065 A 
HETATM    2  C3  UNL     1     -35.301  15.045  -5.421  1.00 20.00     0.070 A 
HETATM    3  C4  UNL     1     -34.045  15.477  -4.663  1.00 20.00     0.130 A 
HETATM    4  C5  UNL     1     -36.023  16.040  -6.299  1.00 20.00     0.028 C 
HETATM    5 CL8  UNL     1     -32.761  14.303  -4.341  1.00 20.00    -0.100 Cl
HETATM    6 CL9  UNL     1     -33.420  17.117  -4.834  1.00 20.00    -0.100 Cl
ENDROOT
BRANCH   2   7
HETATM    7  C1  UNL     1     -35.385  13.631  -5.867  1.00 20.00     0.230 C 
HETATM    8  O6  UNL     1     -35.955  12.776  -5.196  1.00 20.00    -0.279 OA
HETATM    9 CL7  UNL     1     -34.602  13.380  -7.398  1.00 20.00    -0.043 Cl
ENDBRANCH   2   7
TORSDOF 1
ENDMDL
MODEL 5
REMARK VINA RESULT:      -3.9     11.771     12.511
REMARK  1 active torsions:
REMARK  status: ('A' for Active; 'I' for Inactive)
REMARK    1  A    between atoms: C1_1  and  C3_3 
ROOT
HETATM    1  C2  UNL     1     -35.148  16.226  -5.252  1.00 20.00     0.065 A 
HETATM    2  C3  UNL     1     -34.930  14.783  -4.844  1.00 20.00     0.070 A 
HETATM    3  C4  UNL     1     -35.807  15.710  -4.002  1.00 20.00     0.130 A 
HETATM    4  C5  UNL     1     -33.548  14.415  -4.355  1.00 20.00     0.028 C 
HETATM    5 CL8  UNL     1     -37.566  15.527  -4.033  1.00 20.00    -0.100 Cl
HETATM    6 CL9  UNL     1     -35.228  16.322  -2.452  1.00 20.00    -0.100 Cl
ENDROOT
BRANCH   2   7
HETATM    7  C1  UNL     1     -35.607  13.746  -5.663  1.00 20.00     0.230 C 
HETATM    8  O6  UNL     1     -35.877  12.639  -5.207  1.00 20.00    -0.279 OA
HETATM    9 CL7  UNL     1     -35.945  14.302  -7.274  1.00 20.00    -0.043 Cl
ENDBRANCH   2   7
TORSDOF 1
ENDMDL
MODEL 6
REMARK VINA RESULT:      -3.9      2.354      3.291
REMARK  1 active torsions:
REMARK  status: ('A' for Active; 'I' for Inactive)
REMARK    1  A    between atoms: C1_1  and  C3_3 
ROOT
HETATM    1  C2  UNL     1     -35.235   6.379   3.905  1.00 20.00     0.065 A 
HETATM    2  C3  UNL     1     -33.831   5.863   3.664  1.00 20.00     0.070 A 
HETATM    3  C4  UNL     1     -34.297   6.235   5.073  1.00 20.00     0.130 A 
HETATM    4  C5  UNL     1     -32.884   6.780   2.924  1.00 20.00     0.028 C 
HETATM    5 CL8  UNL     1     -34.659   4.962   6.246  1.00 20.00    -0.100 Cl
HETATM    6 CL9  UNL     1     -33.711   7.707   5.846  1.00 20.00    -0.100 Cl
ENDROOT
BRANCH   2   7
HETATM    7  C1  UNL     1     -33.694   4.420   3.340  1.00 20.00     0.230 C 
HETATM    8  O6  UNL     1     -34.262   3.555   4.000  1.00 20.00    -0.279 OA
HETATM    9 CL7  UNL     1     -32.669   4.152   1.963  1.00 20.00    -0.043 Cl
ENDBRANCH   2   7
TORSDOF 1
ENDMDL
MODEL 7
REMARK VINA RESULT:      -3.8     12.067     13.093
REMARK  1 active torsions:
REMARK  status: ('A' for Active; 'I' for Inactive)
REMARK    1  A    between atoms: C1_1  and  C3_3 
ROOT
HETATM    1  C2  UNL     1     -35.860  16.217  -5.899  1.00 20.00     0.065 A 
HETATM    2  C3  UNL     1     -35.426  14.772  -6.040  1.00 20.00     0.070 A 
HETATM    3  C4  UNL     1     -34.688  15.721  -5.096  1.00 20.00     0.130 A 
HETATM    4  C5  UNL     1     -34.788  14.376  -7.352  1.00 20.00     0.028 C 
HETATM    5 CL8  UNL     1     -34.911  15.576  -3.348  1.00 20.00    -0.100 Cl
HETATM    6 CL9  UNL     1     -33.086  16.328  -5.515  1.00 20.00    -0.100 Cl
ENDROOT
BRANCH   2   7
HETATM    7  C1  UNL     1     -36.312  13.745  -5.434  1.00 20.00     0.230 C 
HETATM    8  O6  UNL     1     -35.909  12.613  -5.184  1.00 20.00    -0.279 OA
HETATM    9 CL7  UNL     1     -37.915  14.351  -5.145  1.00 20.00    -0.043 Cl
ENDBRANCH   2   7
TORSDOF 1
ENDMDL
MODEL 8
REMARK VINA RESULT:      -3.8     12.072     13.416
REMARK  1 active torsions:
REMARK  status: ('A' for Active; 'I' for Inactive)
REMARK    1  A    between atoms: C1_1  and  C3_3 
ROOT
HETATM    1  C2  UNL     1     -34.240  13.842  -7.275  1.00 20.00     0.065 A 
HETATM    2  C3  UNL     1     -34.575  14.481  -5.943  1.00 20.00     0.070 A 
HETATM    3  C4  UNL     1     -34.922  15.183  -7.256  1.00 20.00     0.130 A 
HETATM    4  C5  UNL     1     -33.413  14.979  -5.114  1.00 20.00     0.028 C 
HETATM    5 CL8  UNL     1     -36.601  15.242  -7.807  1.00 20.00    -0.100 Cl
HETATM    6 CL9  UNL     1     -33.996  16.586  -7.789  1.00 20.00    -0.100 Cl
ENDROOT
BRANCH   2   7
HETATM    7  C1  UNL     1     -35.687  13.873  -5.169  1.00 20.00     0.230 C 
HETATM    8  O6  UNL     1     -35.918  12.669  -5.211  1.00 20.00    -0.279 OA
HETATM    9 CL7  UNL     1     -36.564  15.055  -4.246  1.00 20.00    -0.043 Cl
ENDBRANCH   2   7
TORSDOF 1
ENDMDL
MODEL 9
REMARK VINA RESULT:      -3.7     11.711     12.865
REMARK  1 active torsions:
REMARK  status: ('A' for Active; 'I' for Inactive)
REMARK    1  A    between atoms: C1_1  and  C3_3 
ROOT
HETATM    1  C2  UNL     1     -34.363  13.782  -6.889  1.00 20.00     0.065 A 
HETATM    2  C3  UNL     1     -34.145  14.933  -5.927  1.00 20.00     0.070 A 
HETATM    3  C4  UNL     1     -35.557  14.526  -6.353  1.00 20.00     0.130 A 
HETATM    4  C5  UNL     1     -33.526  16.189  -6.496  1.00 20.00     0.028 C 
HETATM    5 CL8  UNL     1     -36.605  13.662  -5.221  1.00 20.00    -0.100 Cl
HETATM    6 CL9  UNL     1     -36.474  15.530  -7.476  1.00 20.00    -0.100 Cl
ENDROOT
BRANCH   2   7
HETATM    7  C1  UNL     1     -33.711  14.583  -4.551  1.00 20.00     0.230 C 
HETATM    8  O6  UNL     1     -33.011  13.600  -4.326  1.00 20.00    -0.279 OA
HETATM    9 CL7  UNL     1     -34.308  15.709  -3.370  1.00 20.00    -0.043 Cl
ENDBRANCH   2   7
TORSDOF 1
ENDMDL
