MODEL 1
REMARK VINA RESULT:      -5.0      0.000      0.000
REMARK  0 active torsions:
REMARK  status: ('A' for Active; 'I' for Inactive)
ROOT
HETATM    1  C1  UNL     1     -33.455   7.014   4.660  1.00 20.00     0.056 C 
HETATM    2  C2  UNL     1     -32.435   7.672   2.814  1.00 20.00     0.264 C 
HETATM    3  C3  UNL     1     -33.829   7.108   5.942  1.00 20.00     0.047 C 
HETATM    4  C4  UNL     1     -33.606   6.859   2.354  1.00 20.00     0.127 C 
HETATM    5  C5  UNL     1     -34.059   6.129   3.609  1.00 20.00     0.010 C 
HETATM    6  C6  UNL     1     -35.588   6.034   3.657  1.00 20.00     0.022 C 
HETATM    7  C7  UNL     1     -33.445   4.723   3.680  1.00 20.00     0.022 C 
HETATM    8  O8  UNL     1     -31.624   8.200   2.066  1.00 20.00    -0.265 OA
HETATM    9  O9  UNL     1     -32.416   7.806   4.173  1.00 20.00    -0.283 OA
ENDROOT
TORSDOF 0
ENDMDL
MODEL 2
REMARK VINA RESULT:      -4.7      1.173      2.360
REMARK  0 active torsions:
REMARK  status: ('A' for Active; 'I' for Inactive)
ROOT
HETATM    1  C1  UNL     1     -33.291   5.447   3.125  1.00 20.00     0.056 C 
HETATM    2  C2  UNL     1     -32.623   7.501   3.592  1.00 20.00     0.264 C 
HETATM    3  C3  UNL     1     -33.178   4.223   2.596  1.00 20.00     0.047 C 
HETATM    4  C4  UNL     1     -33.552   7.121   4.704  1.00 20.00     0.127 C 
HETATM    5  C5  UNL     1     -34.266   5.887   4.177  1.00 20.00     0.010 C 
HETATM    6  C6  UNL     1     -34.491   4.870   5.303  1.00 20.00     0.022 C 
HETATM    7  C7  UNL     1     -35.610   6.261   3.535  1.00 20.00     0.022 C 
HETATM    8  O8  UNL     1     -32.057   8.582   3.502  1.00 20.00    -0.265 OA
HETATM    9  O9  UNL     1     -32.433   6.469   2.718  1.00 20.00    -0.283 OA
ENDROOT
TORSDOF 0
ENDMDL
MODEL 3
REMARK VINA RESULT:      -4.4      1.394      2.974
REMARK  0 active torsions:
REMARK  status: ('A' for Active; 'I' for Inactive)
ROOT
HETATM    1  C1  UNL     1     -32.955   7.179   3.586  1.00 20.00     0.056 C 
HETATM    2  C2  UNL     1     -33.920   6.874   5.550  1.00 20.00     0.264 C 
HETATM    3  C3  UNL     1     -32.062   7.704   2.739  1.00 20.00     0.047 C 
HETATM    4  C4  UNL     1     -34.143   5.600   4.795  1.00 20.00     0.127 C 
HETATM    5  C5  UNL     1     -33.807   5.964   3.357  1.00 20.00     0.010 C 
HETATM    6  C6  UNL     1     -33.088   4.804   2.659  1.00 20.00     0.022 C 
HETATM    7  C7  UNL     1     -35.074   6.342   2.575  1.00 20.00     0.022 C 
HETATM    8  O8  UNL     1     -34.324   7.085   6.686  1.00 20.00    -0.265 OA
HETATM    9  O9  UNL     1     -33.156   7.755   4.840  1.00 20.00    -0.283 OA
ENDROOT
TORSDOF 0
ENDMDL
MODEL 4
REMARK VINA RESULT:      -4.2     11.000     12.322
REMARK  0 active torsions:
REMARK  status: ('A' for Active; 'I' for Inactive)
ROOT
HETATM    1  C1  UNL     1     -35.591  16.049  -4.778  1.00 20.00     0.056 C 
HETATM    2  C2  UNL     1     -35.578  13.845  -4.926  1.00 20.00     0.264 C 
HETATM    3  C3  UNL     1     -36.155  17.263  -4.758  1.00 20.00     0.047 C 
HETATM    4  C4  UNL     1     -34.393  14.194  -4.080  1.00 20.00     0.127 C 
HETATM    5  C5  UNL     1     -34.215  15.688  -4.299  1.00 20.00     0.010 C 
HETATM    6  C6  UNL     1     -33.790  16.380  -2.998  1.00 20.00     0.022 C 
HETATM    7  C7  UNL     1     -33.179  15.964  -5.399  1.00 20.00     0.022 C 
HETATM    8  O8  UNL     1     -35.893  12.704  -5.238  1.00 20.00    -0.265 OA
HETATM    9  O9  UNL     1     -36.304  14.952  -5.260  1.00 20.00    -0.283 OA
ENDROOT
TORSDOF 0
ENDMDL
MODEL 5
REMARK VINA RESULT:      -4.2      2.219      3.122
REMARK  0 active torsions:
REMARK  status: ('A' for Active; 'I' for Inactive)
ROOT
HETATM    1  C1  UNL     1     -33.772   6.735   5.045  1.00 20.00     0.056 C 
HETATM    2  C2  UNL     1     -34.123   4.719   4.212  1.00 20.00     0.264 C 
HETATM    3  C3  UNL     1     -33.619   7.637   6.022  1.00 20.00     0.047 C 
HETATM    4  C4  UNL     1     -33.297   5.435   3.188  1.00 20.00     0.127 C 
HETATM    5  C5  UNL     1     -33.385   6.895   3.603  1.00 20.00     0.010 C 
HETATM    6  C6  UNL     1     -32.044   7.604   3.378  1.00 20.00     0.022 C 
HETATM    7  C7  UNL     1     -34.497   7.621   2.831  1.00 20.00     0.022 C 
HETATM    8  O8  UNL     1     -34.525   3.569   4.095  1.00 20.00    -0.265 OA
HETATM    9  O9  UNL     1     -34.324   5.485   5.324  1.00 20.00    -0.283 OA
ENDROOT
TORSDOF 0
ENDMDL
MODEL 6
REMARK VINA RESULT:      -4.1     10.997     11.992
REMARK  0 active torsions:
REMARK  status: ('A' for Active; 'I' for Inactive)
ROOT
HETATM    1  C1  UNL     1     -34.054  14.481  -4.316  1.00 20.00     0.056 C 
HETATM    2  C2  UNL     1     -36.187  14.170  -4.800  1.00 20.00     0.264 C 
HETATM    3  C3  UNL     1     -32.761  14.142  -4.247  1.00 20.00     0.047 C 
HETATM    4  C4  UNL     1     -35.971  15.649  -4.886  1.00 20.00     0.127 C 
HETATM    5  C5  UNL     1     -34.630  15.862  -4.202  1.00 20.00     0.010 C 
HETATM    6  C6  UNL     1     -33.823  16.951  -4.921  1.00 20.00     0.022 C 
HETATM    7  C7  UNL     1     -34.818  16.241  -2.725  1.00 20.00     0.022 C 
HETATM    8  O8  UNL     1     -37.260  13.615  -4.996  1.00 20.00    -0.265 OA
HETATM    9  O9  UNL     1     -35.025  13.504  -4.535  1.00 20.00    -0.283 OA
ENDROOT
TORSDOF 0
ENDMDL
MODEL 7
REMARK VINA RESULT:      -3.9     11.358     12.419
REMARK  0 active torsions:
REMARK  status: ('A' for Active; 'I' for Inactive)
ROOT
HETATM    1  C1  UNL     1     -34.163  15.384  -5.390  1.00 20.00     0.056 C 
HETATM    2  C2  UNL     1     -35.557  13.691  -5.119  1.00 20.00     0.264 C 
HETATM    3  C3  UNL     1     -33.160  16.051  -5.972  1.00 20.00     0.047 C 
HETATM    4  C4  UNL     1     -36.288  14.895  -4.608  1.00 20.00     0.127 C 
HETATM    5  C5  UNL     1     -35.201  15.948  -4.462  1.00 20.00     0.010 C 
HETATM    6  C6  UNL     1     -35.730  17.330  -4.862  1.00 20.00     0.022 C 
HETATM    7  C7  UNL     1     -34.663  15.989  -3.024  1.00 20.00     0.022 C 
HETATM    8  O8  UNL     1     -36.013  12.556  -5.123  1.00 20.00    -0.265 OA
HETATM    9  O9  UNL     1     -34.339  14.024  -5.639  1.00 20.00    -0.283 OA
ENDROOT
TORSDOF 0
ENDMDL
MODEL 8
REMARK VINA RESULT:      -3.9     11.406     12.072
REMARK  0 active torsions:
REMARK  status: ('A' for Active; 'I' for Inactive)
ROOT
HETATM    1  C1  UNL     1     -35.326  15.652  -3.714  1.00 20.00     0.056 C 
HETATM    2  C2  UNL     1     -36.841  14.378  -4.695  1.00 20.00     0.264 C 
HETATM    3  C3  UNL     1     -34.840  16.436  -2.744  1.00 20.00     0.047 C 
HETATM    4  C4  UNL     1     -35.518  13.870  -5.182  1.00 20.00     0.127 C 
HETATM    5  C5  UNL     1     -34.542  14.971  -4.798  1.00 20.00     0.010 C 
HETATM    6  C6  UNL     1     -33.206  14.373  -4.340  1.00 20.00     0.022 C 
HETATM    7  C7  UNL     1     -34.308  15.933  -5.972  1.00 20.00     0.022 C 
HETATM    8  O8  UNL     1     -37.924  13.920  -5.033  1.00 20.00    -0.265 OA
HETATM    9  O9  UNL     1     -36.691  15.378  -3.777  1.00 20.00    -0.283 OA
ENDROOT
TORSDOF 0
ENDMDL
MODEL 9
REMARK VINA RESULT:      -3.8     11.408     12.677
REMARK  0 active torsions:
REMARK  status: ('A' for Active; 'I' for Inactive)
ROOT
HETATM    1  C1  UNL     1     -34.890  14.133  -6.476  1.00 20.00     0.056 C 
HETATM    2  C2  UNL     1     -36.739  14.172  -5.269  1.00 20.00     0.264 C 
HETATM    3  C3  UNL     1     -34.155  13.884  -7.567  1.00 20.00     0.047 C 
HETATM    4  C4  UNL     1     -35.905  15.305  -4.756  1.00 20.00     0.127 C 
HETATM    5  C5  UNL     1     -34.524  15.030  -5.330  1.00 20.00     0.010 C 
HETATM    6  C6  UNL     1     -33.838  16.339  -5.739  1.00 20.00     0.022 C 
HETATM    7  C7  UNL     1     -33.648  14.275  -4.320  1.00 20.00     0.022 C 
HETATM    8  O8  UNL     1     -37.843  13.873  -4.831  1.00 20.00    -0.265 OA
HETATM    9  O9  UNL     1     -36.147  13.548  -6.329  1.00 20.00    -0.283 OA
ENDROOT
TORSDOF 0
ENDMDL
