MODEL 1
REMARK VINA RESULT:      -5.4      0.000      0.000
REMARK  0 active torsions:
REMARK  status: ('A' for Active; 'I' for Inactive)
ROOT
HETATM    1  C1  UNL     1     -35.765  17.444  -0.680  1.00 20.00     0.009 A 
HETATM    2  C2  UNL     1     -35.605  16.799  -1.906  1.00 20.00     0.019 A 
HETATM    3  C3  UNL     1     -33.230  17.233  -1.828  1.00 20.00     0.034 A 
HETATM    4  C4  UNL     1     -33.390  17.881  -0.597  1.00 20.00     0.017 A 
HETATM    5  C5  UNL     1     -34.659  17.981  -0.006  1.00 20.00    -0.044 A 
HETATM    6  C6  UNL     1     -34.339  16.691  -2.477  1.00 20.00     0.011 A 
HETATM    7  C7  UNL     1     -32.204  18.476   0.074  1.00 20.00     0.160 C 
HETATM    8  C8  UNL     1     -34.862  18.690   1.306  1.00 20.00     0.040 C 
HETATM    9  C9  UNL     1     -32.413  19.195   1.389  1.00 20.00     0.084 C 
HETATM   10  C10 UNL     1     -33.600  18.640   2.157  1.00 20.00     0.012 C 
HETATM   11  O11 UNL     1     -31.099  18.425  -0.457  1.00 20.00    -0.292 OA
HETATM   12 BR12 UNL     1     -34.125  15.819  -4.141  1.00 20.00    -0.051 Br
ENDROOT
TORSDOF 0
ENDMDL
MODEL 2
REMARK VINA RESULT:      -5.2      4.558      7.113
REMARK  0 active torsions:
REMARK  status: ('A' for Active; 'I' for Inactive)
ROOT
HETATM    1  C1  UNL     1     -33.706  17.099  -5.789  1.00 20.00     0.009 A 
HETATM    2  C2  UNL     1     -33.775  17.439  -4.438  1.00 20.00     0.019 A 
HETATM    3  C3  UNL     1     -34.804  15.308  -3.951  1.00 20.00     0.034 A 
HETATM    4  C4  UNL     1     -34.734  14.966  -5.307  1.00 20.00     0.017 A 
HETATM    5  C5  UNL     1     -34.172  15.855  -6.236  1.00 20.00    -0.044 A 
HETATM    6  C6  UNL     1     -34.320  16.544  -3.520  1.00 20.00     0.011 A 
HETATM    7  C7  UNL     1     -35.273  13.656  -5.757  1.00 20.00     0.160 C 
HETATM    8  C8  UNL     1     -34.104  15.521  -7.702  1.00 20.00     0.040 C 
HETATM    9  C9  UNL     1     -35.211  13.326  -7.232  1.00 20.00     0.084 C 
HETATM   10  C10 UNL     1     -34.042  14.015  -7.918  1.00 20.00     0.012 C 
HETATM   11  O11 UNL     1     -35.800  12.891  -4.955  1.00 20.00    -0.292 OA
HETATM   12 BR12 UNL     1     -34.417  17.009  -1.690  1.00 20.00    -0.051 Br
ENDROOT
TORSDOF 0
ENDMDL
MODEL 3
REMARK VINA RESULT:      -5.2     11.969     12.296
REMARK  0 active torsions:
REMARK  status: ('A' for Active; 'I' for Inactive)
ROOT
HETATM    1  C1  UNL     1     -32.677   8.385   4.577  1.00 20.00     0.009 A 
HETATM    2  C2  UNL     1     -32.140   8.912   3.402  1.00 20.00     0.019 A 
HETATM    3  C3  UNL     1     -32.697   6.875   2.230  1.00 20.00     0.034 A 
HETATM    4  C4  UNL     1     -33.236   6.345   3.409  1.00 20.00     0.017 A 
HETATM    5  C5  UNL     1     -33.242   7.102   4.591  1.00 20.00    -0.044 A 
HETATM    6  C6  UNL     1     -32.153   8.159   2.230  1.00 20.00     0.011 A 
HETATM    7  C7  UNL     1     -33.791   4.967   3.402  1.00 20.00     0.160 C 
HETATM    8  C8  UNL     1     -33.796   6.550   5.876  1.00 20.00     0.040 C 
HETATM    9  C9  UNL     1     -34.340   4.410   4.698  1.00 20.00     0.084 C 
HETATM   10  C10 UNL     1     -34.872   5.507   5.605  1.00 20.00     0.012 C 
HETATM   11  O11 UNL     1     -33.754   4.286   2.381  1.00 20.00    -0.292 OA
HETATM   12 BR12 UNL     1     -31.422   8.874   0.640  1.00 20.00    -0.051 Br
ENDROOT
TORSDOF 0
ENDMDL
MODEL 4
REMARK VINA RESULT:      -5.1      4.440      6.987
REMARK  0 active torsions:
REMARK  status: ('A' for Active; 'I' for Inactive)
ROOT
HETATM    1  C1  UNL     1     -33.368  16.321  -4.943  1.00 20.00     0.009 A 
HETATM    2  C2  UNL     1     -33.650  16.805  -3.665  1.00 20.00     0.019 A 
HETATM    3  C3  UNL     1     -35.670  15.482  -3.606  1.00 20.00     0.034 A 
HETATM    4  C4  UNL     1     -35.387  14.995  -4.888  1.00 20.00     0.017 A 
HETATM    5  C5  UNL     1     -34.226  15.402  -5.563  1.00 20.00    -0.044 A 
HETATM    6  C6  UNL     1     -34.797  16.384  -2.997  1.00 20.00     0.011 A 
HETATM    7  C7  UNL     1     -36.337  14.052  -5.535  1.00 20.00     0.160 C 
HETATM    8  C8  UNL     1     -33.909  14.910  -6.950  1.00 20.00     0.040 C 
HETATM    9  C9  UNL     1     -36.020  13.566  -6.933  1.00 20.00     0.084 C 
HETATM   10  C10 UNL     1     -34.524  13.540  -7.198  1.00 20.00     0.012 C 
HETATM   11  O11 UNL     1     -37.373  13.723  -4.966  1.00 20.00    -0.292 OA
HETATM   12 BR12 UNL     1     -35.179  17.045  -1.267  1.00 20.00    -0.051 Br
ENDROOT
TORSDOF 0
ENDMDL
MODEL 5
REMARK VINA RESULT:      -5.0      3.446      5.622
REMARK  0 active torsions:
REMARK  status: ('A' for Active; 'I' for Inactive)
ROOT
HETATM    1  C1  UNL     1     -36.617  17.108  -2.932  1.00 20.00     0.009 A 
HETATM    2  C2  UNL     1     -35.594  17.774  -2.256  1.00 20.00     0.019 A 
HETATM    3  C3  UNL     1     -34.012  16.110  -3.006  1.00 20.00     0.034 A 
HETATM    4  C4  UNL     1     -35.038  15.441  -3.684  1.00 20.00     0.017 A 
HETATM    5  C5  UNL     1     -36.349  15.942  -3.663  1.00 20.00    -0.044 A 
HETATM    6  C6  UNL     1     -34.294  17.277  -2.296  1.00 20.00     0.011 A 
HETATM    7  C7  UNL     1     -34.730  14.185  -4.418  1.00 20.00     0.160 C 
HETATM    8  C8  UNL     1     -37.474  15.232  -4.366  1.00 20.00     0.040 C 
HETATM    9  C9  UNL     1     -35.864  13.469  -5.116  1.00 20.00     0.084 C 
HETATM   10  C10 UNL     1     -36.958  14.429  -5.553  1.00 20.00     0.012 C 
HETATM   11  O11 UNL     1     -33.593  13.722  -4.408  1.00 20.00    -0.292 OA
HETATM   12 BR12 UNL     1     -32.910  18.180  -1.376  1.00 20.00    -0.051 Br
ENDROOT
TORSDOF 0
ENDMDL
MODEL 6
REMARK VINA RESULT:      -5.0     12.045     12.362
REMARK  0 active torsions:
REMARK  status: ('A' for Active; 'I' for Inactive)
ROOT
HETATM    1  C1  UNL     1     -33.747   5.730   2.072  1.00 20.00     0.009 A 
HETATM    2  C2  UNL     1     -33.141   6.833   1.470  1.00 20.00     0.019 A 
HETATM    3  C3  UNL     1     -33.052   7.955   3.607  1.00 20.00     0.034 A 
HETATM    4  C4  UNL     1     -33.659   6.848   4.212  1.00 20.00     0.017 A 
HETATM    5  C5  UNL     1     -34.001   5.719   3.451  1.00 20.00    -0.044 A 
HETATM    6  C6  UNL     1     -32.792   7.942   2.237  1.00 20.00     0.011 A 
HETATM    7  C7  UNL     1     -33.953   6.883   5.669  1.00 20.00     0.160 C 
HETATM    8  C8  UNL     1     -34.673   4.525   4.073  1.00 20.00     0.040 C 
HETATM    9  C9  UNL     1     -34.636   5.684   6.290  1.00 20.00     0.084 C 
HETATM   10  C10 UNL     1     -34.312   4.399   5.547  1.00 20.00     0.012 C 
HETATM   11  O11 UNL     1     -33.692   7.882   6.333  1.00 20.00    -0.292 OA
HETATM   12 BR12 UNL     1     -31.976   9.437   1.417  1.00 20.00    -0.051 Br
ENDROOT
TORSDOF 0
ENDMDL
MODEL 7
REMARK VINA RESULT:      -4.9      1.918      2.795
REMARK  0 active torsions:
REMARK  status: ('A' for Active; 'I' for Inactive)
ROOT
HETATM    1  C1  UNL     1     -33.197  17.096  -2.898  1.00 20.00     0.009 A 
HETATM    2  C2  UNL     1     -34.199  16.482  -3.649  1.00 20.00     0.019 A 
HETATM    3  C3  UNL     1     -35.755  16.785  -1.827  1.00 20.00     0.034 A 
HETATM    4  C4  UNL     1     -34.750  17.401  -1.072  1.00 20.00     0.017 A 
HETATM    5  C5  UNL     1     -33.464  17.574  -1.607  1.00 20.00    -0.044 A 
HETATM    6  C6  UNL     1     -35.477  16.330  -3.115  1.00 20.00     0.011 A 
HETATM    7  C7  UNL     1     -35.052  17.862   0.308  1.00 20.00     0.160 C 
HETATM    8  C8  UNL     1     -32.360  18.215  -0.810  1.00 20.00     0.040 C 
HETATM    9  C9  UNL     1     -33.938  18.498   1.110  1.00 20.00     0.084 C 
HETATM   10  C10 UNL     1     -32.920  19.188   0.218  1.00 20.00     0.012 C 
HETATM   11  O11 UNL     1     -36.164  17.679   0.796  1.00 20.00    -0.292 OA
HETATM   12 BR12 UNL     1     -36.832  15.493  -4.134  1.00 20.00    -0.051 Br
ENDROOT
TORSDOF 0
ENDMDL
MODEL 8
REMARK VINA RESULT:      -4.8      2.686      4.026
REMARK  0 active torsions:
REMARK  status: ('A' for Active; 'I' for Inactive)
ROOT
HETATM    1  C1  UNL     1     -35.995  17.585   0.852  1.00 20.00     0.009 A 
HETATM    2  C2  UNL     1     -35.579  18.087   2.085  1.00 20.00     0.019 A 
HETATM    3  C3  UNL     1     -33.404  18.578   1.156  1.00 20.00     0.034 A 
HETATM    4  C4  UNL     1     -33.821  18.075  -0.083  1.00 20.00     0.017 A 
HETATM    5  C5  UNL     1     -35.126  17.585  -0.248  1.00 20.00    -0.044 A 
HETATM    6  C6  UNL     1     -34.287  18.585   2.235  1.00 20.00     0.011 A 
HETATM    7  C7  UNL     1     -32.864  18.051  -1.220  1.00 20.00     0.160 C 
HETATM    8  C8  UNL     1     -35.593  17.020  -1.563  1.00 20.00     0.040 C 
HETATM    9  C9  UNL     1     -33.334  17.474  -2.537  1.00 20.00     0.084 C 
HETATM   10  C10 UNL     1     -34.833  17.640  -2.727  1.00 20.00     0.012 C 
HETATM   11  O11 UNL     1     -31.710  18.442  -1.071  1.00 20.00    -0.292 OA
HETATM   12 BR12 UNL     1     -33.725  19.261   3.909  1.00 20.00    -0.051 Br
ENDROOT
TORSDOF 0
ENDMDL
MODEL 9
REMARK VINA RESULT:      -4.7      1.425      2.023
REMARK  0 active torsions:
REMARK  status: ('A' for Active; 'I' for Inactive)
ROOT
HETATM    1  C1  UNL     1     -35.330  18.628   1.614  1.00 20.00     0.009 A 
HETATM    2  C2  UNL     1     -35.987  18.191   0.464  1.00 20.00     0.019 A 
HETATM    3  C3  UNL     1     -33.864  17.966  -0.667  1.00 20.00     0.034 A 
HETATM    4  C4  UNL     1     -33.204  18.404   0.488  1.00 20.00     0.017 A 
HETATM    5  C5  UNL     1     -33.932  18.727   1.644  1.00 20.00    -0.044 A 
HETATM    6  C6  UNL     1     -35.254  17.858  -0.673  1.00 20.00     0.011 A 
HETATM    7  C7  UNL     1     -31.723  18.537   0.476  1.00 20.00     0.160 C 
HETATM    8  C8  UNL     1     -33.249  19.219   2.892  1.00 20.00     0.040 C 
HETATM    9  C9  UNL     1     -31.041  19.040   1.729  1.00 20.00     0.084 C 
HETATM   10  C10 UNL     1     -31.825  18.689   2.982  1.00 20.00     0.012 C 
HETATM   11  O11 UNL     1     -31.085  18.293  -0.544  1.00 20.00    -0.292 OA
HETATM   12 BR12 UNL     1     -36.148  17.271  -2.233  1.00 20.00    -0.051 Br
ENDROOT
TORSDOF 0
ENDMDL
