MODEL 1
REMARK VINA RESULT:      -6.6      0.000      0.000
REMARK  1 active torsions:
REMARK  status: ('A' for Active; 'I' for Inactive)
REMARK    1  A    between atoms: C4_4  and  C7_7 
ROOT
HETATM    1  C1  UNL     1     -31.731   8.817   3.403  1.00 20.00     0.015 A 
HETATM    2  C2  UNL     1     -32.319   8.364   4.585  1.00 20.00     0.008 A 
HETATM    3  C3  UNL     1     -32.873   7.083   2.175  1.00 20.00     0.022 A 
HETATM    4  C4  UNL     1     -32.007   8.174   2.200  1.00 20.00     0.002 A 
HETATM    5  C5  UNL     1     -33.184   7.259   4.575  1.00 20.00    -0.052 A 
HETATM    6  C6  UNL     1     -33.479   6.624   3.355  1.00 20.00    -0.051 A 
HETATM    7  C8  UNL     1     -33.826   6.821   5.867  1.00 20.00     0.039 C 
HETATM    8  C9  UNL     1     -34.384   5.419   3.292  1.00 20.00     0.039 C 
HETATM    9  C10 UNL     1     -34.425   5.418   5.797  1.00 20.00     0.005 C 
HETATM   10  C11 UNL     1     -35.260   5.257   4.533  1.00 20.00     0.005 C 
ENDROOT
BRANCH   4  11
HETATM   11  C7  UNL     1     -31.391   8.642   0.968  1.00 20.00     0.269 C 
HETATM   12  O12 UNL     1     -31.911   9.485   0.231  1.00 20.00    -0.301 OA
ENDBRANCH   4  11
TORSDOF 1
ENDMDL
MODEL 2
REMARK VINA RESULT:      -5.5      0.947      2.134
REMARK  1 active torsions:
REMARK  status: ('A' for Active; 'I' for Inactive)
REMARK    1  A    between atoms: C4_4  and  C7_7 
ROOT
HETATM    1  C1  UNL     1     -32.725   6.996   1.511  1.00 20.00     0.015 A 
HETATM    2  C2  UNL     1     -33.264   5.849   2.093  1.00 20.00     0.008 A 
HETATM    3  C3  UNL     1     -33.001   8.179   3.594  1.00 20.00     0.022 A 
HETATM    4  C4  UNL     1     -32.596   8.161   2.261  1.00 20.00     0.002 A 
HETATM    5  C5  UNL     1     -33.686   5.858   3.432  1.00 20.00    -0.052 A 
HETATM    6  C6  UNL     1     -33.536   7.029   4.196  1.00 20.00    -0.051 A 
HETATM    7  C8  UNL     1     -34.232   4.588   4.036  1.00 20.00     0.039 C 
HETATM    8  C9  UNL     1     -33.993   7.100   5.631  1.00 20.00     0.039 C 
HETATM    9  C10 UNL     1     -34.991   4.819   5.341  1.00 20.00     0.005 C 
HETATM   10  C11 UNL     1     -34.191   5.726   6.269  1.00 20.00     0.005 C 
ENDROOT
BRANCH   4  11
HETATM   11  C7  UNL     1     -32.040   9.359   1.653  1.00 20.00     0.269 C 
HETATM   12  O12 UNL     1     -32.717  10.166   1.011  1.00 20.00    -0.301 OA
ENDBRANCH   4  11
TORSDOF 1
ENDMDL
MODEL 3
REMARK VINA RESULT:      -5.4     11.202     11.611
REMARK  1 active torsions:
REMARK  status: ('A' for Active; 'I' for Inactive)
REMARK    1  A    between atoms: C4_4  and  C7_7 
ROOT
HETATM    1  C1  UNL     1     -34.042  14.911  -4.480  1.00 20.00     0.015 A 
HETATM    2  C2  UNL     1     -33.291  15.776  -3.683  1.00 20.00     0.008 A 
HETATM    3  C3  UNL     1     -36.056  15.649  -3.375  1.00 20.00     0.022 A 
HETATM    4  C4  UNL     1     -35.423  14.846  -4.323  1.00 20.00     0.002 A 
HETATM    5  C5  UNL     1     -33.915  16.582  -2.718  1.00 20.00    -0.052 A 
HETATM    6  C6  UNL     1     -35.314  16.531  -2.575  1.00 20.00    -0.051 A 
HETATM    7  C8  UNL     1     -33.074  17.529  -1.900  1.00 20.00     0.039 C 
HETATM    8  C9  UNL     1     -36.031  17.358  -1.538  1.00 20.00     0.039 C 
HETATM    9  C10 UNL     1     -33.790  18.054  -0.658  1.00 20.00     0.005 C 
HETATM   10  C11 UNL     1     -35.196  18.524  -1.013  1.00 20.00     0.005 C 
ENDROOT
BRANCH   4  11
HETATM   11  C7  UNL     1     -36.206  13.940  -5.148  1.00 20.00     0.269 C 
HETATM   12  O12 UNL     1     -35.943  12.740  -5.270  1.00 20.00    -0.301 OA
ENDBRANCH   4  11
TORSDOF 1
ENDMDL
MODEL 4
REMARK VINA RESULT:      -5.3     11.328     11.771
REMARK  1 active torsions:
REMARK  status: ('A' for Active; 'I' for Inactive)
REMARK    1  A    between atoms: C4_4  and  C7_7 
ROOT
HETATM    1  C1  UNL     1     -34.624  17.698  -0.632  1.00 20.00     0.015 A 
HETATM    2  C2  UNL     1     -35.550  16.975  -1.386  1.00 20.00     0.008 A 
HETATM    3  C3  UNL     1     -32.957  17.333  -2.336  1.00 20.00     0.022 A 
HETATM    4  C4  UNL     1     -33.328  17.873  -1.106  1.00 20.00     0.002 A 
HETATM    5  C5  UNL     1     -35.185  16.416  -2.620  1.00 20.00    -0.052 A 
HETATM    6  C6  UNL     1     -33.880  16.613  -3.109  1.00 20.00    -0.051 A 
HETATM    7  C8  UNL     1     -36.222  15.672  -3.422  1.00 20.00     0.039 C 
HETATM    8  C9  UNL     1     -33.430  16.015  -4.418  1.00 20.00     0.039 C 
HETATM    9  C10 UNL     1     -35.623  14.808  -4.530  1.00 20.00     0.005 C 
HETATM   10  C11 UNL     1     -34.590  15.599  -5.322  1.00 20.00     0.005 C 
ENDROOT
BRANCH   4  11
HETATM   11  C7  UNL     1     -32.361  18.621  -0.319  1.00 20.00     0.269 C 
HETATM   12  O12 UNL     1     -31.157  18.349  -0.292  1.00 20.00    -0.301 OA
ENDBRANCH   4  11
TORSDOF 1
ENDMDL
MODEL 5
REMARK VINA RESULT:      -5.2     11.020     11.495
REMARK  1 active torsions:
REMARK  status: ('A' for Active; 'I' for Inactive)
REMARK    1  A    between atoms: C4_4  and  C7_7 
ROOT
HETATM    1  C1  UNL     1     -33.356  17.144  -2.588  1.00 20.00     0.015 A 
HETATM    2  C2  UNL     1     -32.858  17.926  -1.546  1.00 20.00     0.008 A 
HETATM    3  C3  UNL     1     -35.380  16.766  -1.330  1.00 20.00     0.022 A 
HETATM    4  C4  UNL     1     -34.616  16.562  -2.478  1.00 20.00     0.002 A 
HETATM    5  C5  UNL     1     -33.613  18.129  -0.380  1.00 20.00    -0.052 A 
HETATM    6  C6  UNL     1     -34.895  17.559  -0.279  1.00 20.00    -0.051 A 
HETATM    7  C8  UNL     1     -33.054  19.009   0.710  1.00 20.00     0.039 C 
HETATM    8  C9  UNL     1     -35.737  17.727   0.960  1.00 20.00     0.039 C 
HETATM    9  C10 UNL     1     -33.776  18.846   2.046  1.00 20.00     0.005 C 
HETATM   10  C11 UNL     1     -35.286  18.888   1.843  1.00 20.00     0.005 C 
ENDROOT
BRANCH   4  11
HETATM   11  C7  UNL     1     -35.135  15.742  -3.561  1.00 20.00     0.269 C 
HETATM   12  O12 UNL     1     -34.562  14.729  -3.974  1.00 20.00    -0.301 OA
ENDBRANCH   4  11
TORSDOF 1
ENDMDL
MODEL 6
REMARK VINA RESULT:      -5.2     11.128     11.678
REMARK  1 active torsions:
REMARK  status: ('A' for Active; 'I' for Inactive)
REMARK    1  A    between atoms: C4_4  and  C7_7 
ROOT
HETATM    1  C1  UNL     1     -35.160  16.657  -2.100  1.00 20.00     0.015 A 
HETATM    2  C2  UNL     1     -35.484  17.058  -0.804  1.00 20.00     0.008 A 
HETATM    3  C3  UNL     1     -32.992  17.691  -1.875  1.00 20.00     0.022 A 
HETATM    4  C4  UNL     1     -33.915  16.976  -2.636  1.00 20.00     0.002 A 
HETATM    5  C5  UNL     1     -34.567  17.788  -0.032  1.00 20.00    -0.052 A 
HETATM    6  C6  UNL     1     -33.301  18.092  -0.566  1.00 20.00    -0.051 A 
HETATM    7  C8  UNL     1     -34.940  18.174   1.377  1.00 20.00     0.039 C 
HETATM    8  C9  UNL     1     -32.288  18.893   0.213  1.00 20.00     0.039 C 
HETATM    9  C10 UNL     1     -34.043  19.263   1.962  1.00 20.00     0.005 C 
HETATM   10  C11 UNL     1     -32.576  18.935   1.712  1.00 20.00     0.005 C 
ENDROOT
BRANCH   4  11
HETATM   11  C7  UNL     1     -33.579  16.564  -3.989  1.00 20.00     0.269 C 
HETATM   12  O12 UNL     1     -33.357  15.390  -4.301  1.00 20.00    -0.301 OA
ENDBRANCH   4  11
TORSDOF 1
ENDMDL
MODEL 7
REMARK VINA RESULT:      -5.0     11.337     11.962
REMARK  1 active torsions:
REMARK  status: ('A' for Active; 'I' for Inactive)
REMARK    1  A    between atoms: C4_4  and  C7_7 
ROOT
HETATM    1  C1  UNL     1     -31.988  18.956   1.104  1.00 20.00     0.015 A 
HETATM    2  C2  UNL     1     -32.022  18.624  -0.251  1.00 20.00     0.008 A 
HETATM    3  C3  UNL     1     -34.281  18.242   1.332  1.00 20.00     0.022 A 
HETATM    4  C4  UNL     1     -33.119  18.768   1.893  1.00 20.00     0.002 A 
HETATM    5  C5  UNL     1     -33.190  18.104  -0.830  1.00 20.00    -0.052 A 
HETATM    6  C6  UNL     1     -34.325  17.893  -0.027  1.00 20.00    -0.051 A 
HETATM    7  C8  UNL     1     -33.176  17.724  -2.290  1.00 20.00     0.039 C 
HETATM    8  C9  UNL     1     -35.612  17.360  -0.604  1.00 20.00     0.039 C 
HETATM    9  C10 UNL     1     -34.573  17.538  -2.877  1.00 20.00     0.005 C 
HETATM   10  C11 UNL     1     -35.427  16.675  -1.957  1.00 20.00     0.005 C 
ENDROOT
BRANCH   4  11
HETATM   11  C7  UNL     1     -33.087  19.120   3.304  1.00 20.00     0.269 C 
HETATM   12  O12 UNL     1     -33.304  18.307   4.207  1.00 20.00    -0.301 OA
ENDBRANCH   4  11
TORSDOF 1
ENDMDL
MODEL 8
REMARK VINA RESULT:      -5.0     10.997     12.030
REMARK  1 active torsions:
REMARK  status: ('A' for Active; 'I' for Inactive)
REMARK    1  A    between atoms: C4_4  and  C7_7 
ROOT
HETATM    1  C1  UNL     1     -33.980  15.644  -5.763  1.00 20.00     0.015 A 
HETATM    2  C2  UNL     1     -33.390  16.725  -5.108  1.00 20.00     0.008 A 
HETATM    3  C3  UNL     1     -35.292  15.173  -3.794  1.00 20.00     0.022 A 
HETATM    4  C4  UNL     1     -34.929  14.867  -5.105  1.00 20.00     0.002 A 
HETATM    5  C5  UNL     1     -33.739  17.036  -3.785  1.00 20.00    -0.052 A 
HETATM    6  C6  UNL     1     -34.714  16.264  -3.127  1.00 20.00    -0.051 A 
HETATM    7  C8  UNL     1     -33.104  18.233  -3.122  1.00 20.00     0.039 C 
HETATM    8  C9  UNL     1     -35.109  16.541  -1.699  1.00 20.00     0.039 C 
HETATM    9  C10 UNL     1     -33.270  18.240  -1.604  1.00 20.00     0.005 C 
HETATM   10  C11 UNL     1     -34.714  17.938  -1.224  1.00 20.00     0.005 C 
ENDROOT
BRANCH   4  11
HETATM   11  C7  UNL     1     -35.541  13.737  -5.785  1.00 20.00     0.269 C 
HETATM   12  O12 UNL     1     -35.909  12.715  -5.197  1.00 20.00    -0.301 OA
ENDBRANCH   4  11
TORSDOF 1
ENDMDL
MODEL 9
REMARK VINA RESULT:      -5.0     11.224     11.965
REMARK  1 active torsions:
REMARK  status: ('A' for Active; 'I' for Inactive)
REMARK    1  A    between atoms: C4_4  and  C7_7 
ROOT
HETATM    1  C1  UNL     1     -35.511  18.082   1.796  1.00 20.00     0.015 A 
HETATM    2  C2  UNL     1     -35.903  17.483   0.599  1.00 20.00     0.008 A 
HETATM    3  C3  UNL     1     -33.366  18.608   0.824  1.00 20.00     0.022 A 
HETATM    4  C4  UNL     1     -34.241  18.642   1.908  1.00 20.00     0.002 A 
HETATM    5  C5  UNL     1     -35.027  17.432  -0.496  1.00 20.00    -0.052 A 
HETATM    6  C6  UNL     1     -33.752  18.017  -0.389  1.00 20.00    -0.051 A 
HETATM    7  C8  UNL     1     -35.500  16.806  -1.784  1.00 20.00     0.039 C 
HETATM    8  C9  UNL     1     -32.764  17.970  -1.527  1.00 20.00     0.039 C 
HETATM    9  C10 UNL     1     -34.363  16.476  -2.748  1.00 20.00     0.005 C 
HETATM   10  C11 UNL     1     -33.412  17.660  -2.875  1.00 20.00     0.005 C 
ENDROOT
BRANCH   4  11
HETATM   11  C7  UNL     1     -33.828  19.262   3.157  1.00 20.00     0.269 C 
HETATM   12  O12 UNL     1     -33.599  18.619   4.186  1.00 20.00    -0.301 OA
ENDBRANCH   4  11
TORSDOF 1
ENDMDL
