MODEL 1
REMARK VINA RESULT:      -6.3      0.000      0.000
REMARK  1 active torsions:
REMARK  status: ('A' for Active; 'I' for Inactive)
REMARK    1  A    between atoms: C3_3  and  C6_6 
ROOT
HETATM    1  C1  UNL     1     -33.330   7.204   4.976  1.00 20.00     0.272 C 
HETATM    2  C2  UNL     1     -33.302   6.293   2.819  1.00 20.00     0.055 C 
HETATM    3  C3  UNL     1     -33.458   5.878   4.269  1.00 20.00     0.195 C 
HETATM    4  C4  UNL     1     -32.335   7.452   2.928  1.00 20.00     0.129 C 
HETATM    5  C5  UNL     1     -32.443   8.434   1.776  1.00 20.00     0.040 C 
HETATM    6  O7  UNL     1     -33.701   7.453   6.113  1.00 20.00    -0.265 OA
HETATM    7  O8  UNL     1     -32.696   8.101   4.156  1.00 20.00    -0.316 OA
ENDROOT
BRANCH   3   8
HETATM    8  C6  UNL     1     -34.781   5.189   4.545  1.00 20.00     0.400 C 
HETATM    9  F9  UNL     1     -35.054   5.206   5.862  1.00 20.00    -0.170 F 
HETATM   10  F10 UNL     1     -35.779   5.812   3.893  1.00 20.00    -0.170 F 
HETATM   11  F11 UNL     1     -34.738   3.908   4.134  1.00 20.00    -0.170 F 
ENDBRANCH   3   8
TORSDOF 1
ENDMDL
MODEL 2
REMARK VINA RESULT:      -6.3      0.001      1.141
REMARK  1 active torsions:
REMARK  status: ('A' for Active; 'I' for Inactive)
REMARK    1  A    between atoms: C3_3  and  C6_6 
ROOT
HETATM    1  C1  UNL     1     -33.330   7.205   4.976  1.00 20.00     0.272 C 
HETATM    2  C2  UNL     1     -33.301   6.293   2.818  1.00 20.00     0.055 C 
HETATM    3  C3  UNL     1     -33.457   5.878   4.269  1.00 20.00     0.195 C 
HETATM    4  C4  UNL     1     -32.334   7.452   2.928  1.00 20.00     0.129 C 
HETATM    5  C5  UNL     1     -32.441   8.433   1.776  1.00 20.00     0.040 C 
HETATM    6  O7  UNL     1     -33.701   7.454   6.112  1.00 20.00    -0.265 OA
HETATM    7  O8  UNL     1     -32.695   8.101   4.155  1.00 20.00    -0.316 OA
ENDROOT
BRANCH   3   8
HETATM    8  C6  UNL     1     -34.781   5.190   4.543  1.00 20.00     0.400 C 
HETATM    9  F9  UNL     1     -35.779   5.813   3.892  1.00 20.00    -0.170 F 
HETATM   10  F10 UNL     1     -34.737   3.909   4.134  1.00 20.00    -0.170 F 
HETATM   11  F11 UNL     1     -35.054   5.207   5.861  1.00 20.00    -0.170 F 
ENDBRANCH   3   8
TORSDOF 1
ENDMDL
MODEL 3
REMARK VINA RESULT:      -5.6      1.691      2.160
REMARK  1 active torsions:
REMARK  status: ('A' for Active; 'I' for Inactive)
REMARK    1  A    between atoms: C3_3  and  C6_6 
ROOT
HETATM    1  C1  UNL     1     -33.319   5.493   2.955  1.00 20.00     0.272 C 
HETATM    2  C2  UNL     1     -33.492   7.258   4.484  1.00 20.00     0.055 C 
HETATM    3  C3  UNL     1     -34.271   6.059   3.979  1.00 20.00     0.195 C 
HETATM    4  C4  UNL     1     -32.745   7.692   3.241  1.00 20.00     0.129 C 
HETATM    5  C5  UNL     1     -31.469   8.455   3.544  1.00 20.00     0.040 C 
HETATM    6  O7  UNL     1     -33.336   4.358   2.505  1.00 20.00    -0.265 OA
HETATM    7  O8  UNL     1     -32.430   6.464   2.570  1.00 20.00    -0.316 OA
ENDROOT
BRANCH   3   8
HETATM    8  C6  UNL     1     -34.609   5.071   5.079  1.00 20.00     0.400 C 
HETATM    9  F9  UNL     1     -35.091   5.715   6.157  1.00 20.00    -0.170 F 
HETATM   10  F10 UNL     1     -35.536   4.194   4.654  1.00 20.00    -0.170 F 
HETATM   11  F11 UNL     1     -33.511   4.386   5.448  1.00 20.00    -0.170 F 
ENDBRANCH   3   8
TORSDOF 1
ENDMDL
MODEL 4
REMARK VINA RESULT:      -5.4      2.688      3.744
REMARK  1 active torsions:
REMARK  status: ('A' for Active; 'I' for Inactive)
REMARK    1  A    between atoms: C3_3  and  C6_6 
ROOT
HETATM    1  C1  UNL     1     -33.576   7.257   4.982  1.00 20.00     0.272 C 
HETATM    2  C2  UNL     1     -33.715   5.889   3.086  1.00 20.00     0.055 C 
HETATM    3  C3  UNL     1     -33.592   7.349   3.477  1.00 20.00     0.195 C 
HETATM    4  C4  UNL     1     -34.556   5.333   4.216  1.00 20.00     0.129 C 
HETATM    5  C5  UNL     1     -34.356   3.846   4.436  1.00 20.00     0.040 C 
HETATM    6  O7  UNL     1     -33.172   8.114   5.753  1.00 20.00    -0.265 OA
HETATM    7  O8  UNL     1     -34.120   6.060   5.373  1.00 20.00    -0.316 OA
ENDROOT
BRANCH   3   8
HETATM    8  C6  UNL     1     -32.346   8.005   2.914  1.00 20.00     0.400 C 
HETATM    9  F9  UNL     1     -31.467   8.267   3.898  1.00 20.00    -0.170 F 
HETATM   10  F10 UNL     1     -31.755   7.197   2.016  1.00 20.00    -0.170 F 
HETATM   11  F11 UNL     1     -32.660   9.163   2.303  1.00 20.00    -0.170 F 
ENDBRANCH   3   8
TORSDOF 1
ENDMDL
MODEL 5
REMARK VINA RESULT:      -5.3      0.637      1.233
REMARK  1 active torsions:
REMARK  status: ('A' for Active; 'I' for Inactive)
REMARK    1  A    between atoms: C3_3  and  C6_6 
ROOT
HETATM    1  C1  UNL     1     -32.924   7.232   4.395  1.00 20.00     0.272 C 
HETATM    2  C2  UNL     1     -33.478   6.478   2.248  1.00 20.00     0.055 C 
HETATM    3  C3  UNL     1     -33.354   5.978   3.675  1.00 20.00     0.195 C 
HETATM    4  C4  UNL     1     -32.386   7.525   2.188  1.00 20.00     0.129 C 
HETATM    5  C5  UNL     1     -32.635   8.591   1.138  1.00 20.00     0.040 C 
HETATM    6  O7  UNL     1     -33.003   7.436   5.597  1.00 20.00    -0.265 OA
HETATM    7  O8  UNL     1     -32.391   8.117   3.494  1.00 20.00    -0.316 OA
ENDROOT
BRANCH   3   8
HETATM    8  C6  UNL     1     -34.652   5.406   4.212  1.00 20.00     0.400 C 
HETATM    9  F9  UNL     1     -34.633   4.062   4.154  1.00 20.00    -0.170 F 
HETATM   10  F10 UNL     1     -34.833   5.777   5.493  1.00 20.00    -0.170 F 
HETATM   11  F11 UNL     1     -35.696   5.850   3.488  1.00 20.00    -0.170 F 
ENDBRANCH   3   8
TORSDOF 1
ENDMDL
MODEL 6
REMARK VINA RESULT:      -4.7     11.898     12.788
REMARK  1 active torsions:
REMARK  status: ('A' for Active; 'I' for Inactive)
REMARK    1  A    between atoms: C3_3  and  C6_6 
ROOT
HETATM    1  C1  UNL     1     -35.933  13.553  -5.200  1.00 20.00     0.272 C 
HETATM    2  C2  UNL     1     -36.170  15.655  -4.195  1.00 20.00     0.055 C 
HETATM    3  C3  UNL     1     -35.234  14.462  -4.220  1.00 20.00     0.195 C 
HETATM    4  C4  UNL     1     -37.518  14.998  -4.398  1.00 20.00     0.129 C 
HETATM    5  C5  UNL     1     -38.552  15.927  -5.006  1.00 20.00     0.040 C 
HETATM    6  O7  UNL     1     -35.428  12.618  -5.803  1.00 20.00    -0.265 OA
HETATM    7  O8  UNL     1     -37.252  13.912  -5.297  1.00 20.00    -0.316 OA
ENDROOT
BRANCH   3   8
HETATM    8  C6  UNL     1     -33.827  14.827  -4.655  1.00 20.00     0.400 C 
HETATM    9  F9  UNL     1     -33.786  15.034  -5.984  1.00 20.00    -0.170 F 
HETATM   10  F10 UNL     1     -33.420  15.948  -4.034  1.00 20.00    -0.170 F 
HETATM   11  F11 UNL     1     -32.970  13.835  -4.351  1.00 20.00    -0.170 F 
ENDBRANCH   3   8
TORSDOF 1
ENDMDL
MODEL 7
REMARK VINA RESULT:      -4.6      3.806      4.626
REMARK  1 active torsions:
REMARK  status: ('A' for Active; 'I' for Inactive)
REMARK    1  A    between atoms: C3_3  and  C6_6 
ROOT
HETATM    1  C1  UNL     1     -32.033   8.054   3.130  1.00 20.00     0.272 C 
HETATM    2  C2  UNL     1     -33.517   7.026   1.637  1.00 20.00     0.055 C 
HETATM    3  C3  UNL     1     -32.989   8.397   2.014  1.00 20.00     0.195 C 
HETATM    4  C4  UNL     1     -33.512   6.312   2.971  1.00 20.00     0.129 C 
HETATM    5  C5  UNL     1     -33.410   4.804   2.844  1.00 20.00     0.040 C 
HETATM    6  O7  UNL     1     -31.127   8.759   3.545  1.00 20.00    -0.265 OA
HETATM    7  O8  UNL     1     -32.353   6.823   3.644  1.00 20.00    -0.316 OA
ENDROOT
BRANCH   3   8
HETATM    8  C6  UNL     1     -32.311   9.105   0.856  1.00 20.00     0.400 C 
HETATM    9  F9  UNL     1     -32.146  10.411   1.136  1.00 20.00    -0.170 F 
HETATM   10  F10 UNL     1     -31.104   8.563   0.616  1.00 20.00    -0.170 F 
HETATM   11  F11 UNL     1     -33.056   8.999  -0.259  1.00 20.00    -0.170 F 
ENDBRANCH   3   8
TORSDOF 1
ENDMDL
MODEL 8
REMARK VINA RESULT:      -4.5      3.169      4.353
REMARK  1 active torsions:
REMARK  status: ('A' for Active; 'I' for Inactive)
REMARK    1  A    between atoms: C3_3  and  C6_6 
ROOT
HETATM    1  C1  UNL     1     -33.411   6.571   2.778  1.00 20.00     0.272 C 
HETATM    2  C2  UNL     1     -32.448   8.071   4.298  1.00 20.00     0.055 C 
HETATM    3  C3  UNL     1     -32.209   7.471   2.925  1.00 20.00     0.195 C 
HETATM    4  C4  UNL     1     -33.129   6.930   5.022  1.00 20.00     0.129 C 
HETATM    5  C5  UNL     1     -34.007   7.388   6.171  1.00 20.00     0.040 C 
HETATM    6  O7  UNL     1     -33.849   6.121   1.731  1.00 20.00    -0.265 OA
HETATM    7  O8  UNL     1     -33.933   6.300   4.016  1.00 20.00    -0.316 OA
ENDROOT
BRANCH   3   8
HETATM    8  C6  UNL     1     -32.121   8.520   1.833  1.00 20.00     0.400 C 
HETATM    9  F9  UNL     1     -31.841   9.726   2.360  1.00 20.00    -0.170 F 
HETATM   10  F10 UNL     1     -31.155   8.203   0.953  1.00 20.00    -0.170 F 
HETATM   11  F11 UNL     1     -33.289   8.606   1.170  1.00 20.00    -0.170 F 
ENDBRANCH   3   8
TORSDOF 1
ENDMDL
MODEL 9
REMARK VINA RESULT:      -4.3     12.373     13.019
REMARK  1 active torsions:
REMARK  status: ('A' for Active; 'I' for Inactive)
REMARK    1  A    between atoms: C3_3  and  C6_6 
ROOT
HETATM    1  C1  UNL     1     -35.808  14.035  -4.965  1.00 20.00     0.272 C 
HETATM    2  C2  UNL     1     -33.685  14.962  -5.312  1.00 20.00     0.055 C 
HETATM    3  C3  UNL     1     -34.547  13.796  -5.758  1.00 20.00     0.195 C 
HETATM    4  C4  UNL     1     -34.127  15.145  -3.875  1.00 20.00     0.129 C 
HETATM    5  C5  UNL     1     -33.909  16.553  -3.356  1.00 20.00     0.040 C 
HETATM    6  O7  UNL     1     -36.910  13.567  -5.206  1.00 20.00    -0.265 OA
HETATM    7  O8  UNL     1     -35.529  14.845  -3.894  1.00 20.00    -0.316 OA
ENDROOT
BRANCH   3   8
HETATM    8  C6  UNL     1     -34.787  13.782  -7.255  1.00 20.00     0.400 C 
HETATM    9  F9  UNL     1     -35.328  12.609  -7.633  1.00 20.00    -0.170 F 
HETATM   10  F10 UNL     1     -35.626  14.773  -7.606  1.00 20.00    -0.170 F 
HETATM   11  F11 UNL     1     -33.628  13.950  -7.918  1.00 20.00    -0.170 F 
ENDBRANCH   3   8
TORSDOF 1
ENDMDL
