MODEL 1
REMARK VINA RESULT:      -3.8      0.000      0.000
REMARK  0 active torsions:
REMARK  status: ('A' for Active; 'I' for Inactive)
ROOT
HETATM    1  C1  UNL     1     -34.339   5.044   4.256  1.00 20.00     0.086 C 
HETATM    2  C2  UNL     1     -34.209   6.494   4.145  1.00 20.00     0.235 C 
HETATM    3  N3  UNL     1     -34.447   3.892   4.343  1.00 20.00    -0.195 NA
HETATM    4 BR4  UNL     1     -32.894   6.957   2.784  1.00 20.00    -0.063 Br
HETATM    5 BR5  UNL     1     -33.764   7.273   5.874  1.00 20.00    -0.063 Br
ENDROOT
TORSDOF 0
ENDMDL
MODEL 2
REMARK VINA RESULT:      -3.4      2.869      3.631
REMARK  0 active torsions:
REMARK  status: ('A' for Active; 'I' for Inactive)
ROOT
HETATM    1  C1  UNL     1     -32.388   7.850   3.367  1.00 20.00     0.086 C 
HETATM    2  C2  UNL     1     -33.607   7.144   3.751  1.00 20.00     0.235 C 
HETATM    3  N3  UNL     1     -31.421   8.414   3.061  1.00 20.00    -0.195 NA
HETATM    4 BR4  UNL     1     -33.802   7.125   5.689  1.00 20.00    -0.063 Br
HETATM    5 BR5  UNL     1     -33.614   5.343   3.006  1.00 20.00    -0.063 Br
ENDROOT
TORSDOF 0
ENDMDL
MODEL 3
REMARK VINA RESULT:      -3.4      2.704      2.755
REMARK  0 active torsions:
REMARK  status: ('A' for Active; 'I' for Inactive)
ROOT
HETATM    1  C1  UNL     1     -33.657   7.161   4.802  1.00 20.00     0.086 C 
HETATM    2  C2  UNL     1     -33.476   7.040   3.358  1.00 20.00     0.235 C 
HETATM    3  N3  UNL     1     -33.804   7.259   5.948  1.00 20.00    -0.195 NA
HETATM    4 BR4  UNL     1     -33.263   5.170   2.853  1.00 20.00    -0.063 Br
HETATM    5 BR5  UNL     1     -31.970   8.125   2.767  1.00 20.00    -0.063 Br
ENDROOT
TORSDOF 0
ENDMDL
MODEL 4
REMARK VINA RESULT:      -2.9      2.730      2.921
REMARK  0 active torsions:
REMARK  status: ('A' for Active; 'I' for Inactive)
ROOT
HETATM    1  C1  UNL     1     -32.973   7.427   3.100  1.00 20.00     0.086 C 
HETATM    2  C2  UNL     1     -33.442   6.548   4.167  1.00 20.00     0.235 C 
HETATM    3  N3  UNL     1     -32.598   8.123   2.251  1.00 20.00    -0.195 NA
HETATM    4 BR4  UNL     1     -35.153   5.749   3.689  1.00 20.00    -0.063 Br
HETATM    5 BR5  UNL     1     -33.542   7.518   5.853  1.00 20.00    -0.063 Br
ENDROOT
TORSDOF 0
ENDMDL
MODEL 5
REMARK VINA RESULT:      -2.8     12.339     12.581
REMARK  0 active torsions:
REMARK  status: ('A' for Active; 'I' for Inactive)
ROOT
HETATM    1  C1  UNL     1     -35.272  13.767  -4.712  1.00 20.00     0.086 C 
HETATM    2  C2  UNL     1     -34.480  14.793  -4.039  1.00 20.00     0.235 C 
HETATM    3  N3  UNL     1     -35.901  12.950  -5.244  1.00 20.00    -0.195 NA
HETATM    4 BR4  UNL     1     -35.640  16.160  -3.279  1.00 20.00    -0.063 Br
HETATM    5 BR5  UNL     1     -33.171  15.554  -5.265  1.00 20.00    -0.063 Br
ENDROOT
TORSDOF 0
ENDMDL
MODEL 6
REMARK VINA RESULT:      -2.8     12.741     13.289
REMARK  0 active torsions:
REMARK  status: ('A' for Active; 'I' for Inactive)
ROOT
HETATM    1  C1  UNL     1     -35.362  13.781  -5.612  1.00 20.00     0.086 C 
HETATM    2  C2  UNL     1     -34.645  14.954  -6.104  1.00 20.00     0.235 C 
HETATM    3  N3  UNL     1     -35.936  12.852  -5.221  1.00 20.00    -0.195 NA
HETATM    4 BR4  UNL     1     -34.002  14.647  -7.917  1.00 20.00    -0.063 Br
HETATM    5 BR5  UNL     1     -33.194  15.422  -4.891  1.00 20.00    -0.063 Br
ENDROOT
TORSDOF 0
ENDMDL
MODEL 7
REMARK VINA RESULT:      -2.8      1.883      1.976
REMARK  0 active torsions:
REMARK  status: ('A' for Active; 'I' for Inactive)
ROOT
HETATM    1  C1  UNL     1     -33.475   5.319   3.089  1.00 20.00     0.086 C 
HETATM    2  C2  UNL     1     -34.201   6.109   4.079  1.00 20.00     0.235 C 
HETATM    3  N3  UNL     1     -32.901   4.692   2.300  1.00 20.00    -0.195 NA
HETATM    4 BR4  UNL     1     -33.153   7.662   4.612  1.00 20.00    -0.063 Br
HETATM    5 BR5  UNL     1     -34.687   5.005   5.608  1.00 20.00    -0.063 Br
ENDROOT
TORSDOF 0
ENDMDL
MODEL 8
REMARK VINA RESULT:      -2.7     12.400     12.887
REMARK  0 active torsions:
REMARK  status: ('A' for Active; 'I' for Inactive)
ROOT
HETATM    1  C1  UNL     1     -35.505  13.953  -5.214  1.00 20.00     0.086 C 
HETATM    2  C2  UNL     1     -35.070  15.346  -5.172  1.00 20.00     0.235 C 
HETATM    3  N3  UNL     1     -35.854  12.847  -5.249  1.00 20.00    -0.195 NA
HETATM    4 BR4  UNL     1     -33.595  15.636  -6.411  1.00 20.00    -0.063 Br
HETATM    5 BR5  UNL     1     -34.597  15.857  -3.352  1.00 20.00    -0.063 Br
ENDROOT
TORSDOF 0
ENDMDL
MODEL 9
REMARK VINA RESULT:      -2.7      2.843      2.893
REMARK  0 active torsions:
REMARK  status: ('A' for Active; 'I' for Inactive)
ROOT
HETATM    1  C1  UNL     1     -33.248   7.253   4.695  1.00 20.00     0.086 C 
HETATM    2  C2  UNL     1     -32.600   6.862   3.447  1.00 20.00     0.235 C 
HETATM    3  N3  UNL     1     -33.760   7.563   5.689  1.00 20.00    -0.195 NA
HETATM    4 BR4  UNL     1     -32.543   8.364   2.209  1.00 20.00    -0.063 Br
HETATM    5 BR5  UNL     1     -33.497   5.317   2.669  1.00 20.00    -0.063 Br
ENDROOT
TORSDOF 0
ENDMDL
