MODEL 1
REMARK VINA RESULT:      -3.9      0.000      0.000
REMARK  1 active torsions:
REMARK  status: ('A' for Active; 'I' for Inactive)
REMARK    1  A    between atoms: C2_2  and  C4_4 
ROOT
HETATM    1  C1  UNL     1     -34.582   4.735   4.494  1.00 20.00     0.207 A 
HETATM    2  C2  UNL     1     -34.070   6.134   4.246  1.00 20.00     0.091 A 
HETATM    3  C3  UNL     1     -33.883   7.065   5.400  1.00 20.00     0.049 C 
HETATM    4  O5  UNL     1     -35.439   5.779   4.006  1.00 20.00    -0.374 OA
ENDROOT
BRANCH   2   5
HETATM    5  C4  UNL     1     -33.297   6.426   3.002  1.00 20.00     0.154 C 
HETATM    6 CL6  UNL     1     -32.112   7.731   3.274  1.00 20.00    -0.127 Cl
ENDBRANCH   2   5
TORSDOF 1
ENDMDL
MODEL 2
REMARK VINA RESULT:      -3.7      2.333      2.762
REMARK  1 active torsions:
REMARK  status: ('A' for Active; 'I' for Inactive)
REMARK    1  A    between atoms: C2_2  and  C4_4 
ROOT
HETATM    1  C1  UNL     1     -33.285   7.684   2.889  1.00 20.00     0.207 A 
HETATM    2  C2  UNL     1     -33.793   6.843   4.035  1.00 20.00     0.091 A 
HETATM    3  C3  UNL     1     -33.581   7.307   5.440  1.00 20.00     0.049 C 
HETATM    4  O5  UNL     1     -32.578   6.519   3.343  1.00 20.00    -0.374 OA
ENDROOT
BRANCH   2   5
HETATM    5  C4  UNL     1     -34.898   5.866   3.799  1.00 20.00     0.154 C 
HETATM    6 CL6  UNL     1     -34.541   4.295   4.563  1.00 20.00    -0.127 Cl
ENDBRANCH   2   5
TORSDOF 1
ENDMDL
MODEL 3
REMARK VINA RESULT:      -3.7      1.733      2.166
REMARK  1 active torsions:
REMARK  status: ('A' for Active; 'I' for Inactive)
REMARK    1  A    between atoms: C2_2  and  C4_4 
ROOT
HETATM    1  C1  UNL     1     -33.072   5.189   2.740  1.00 20.00     0.207 A 
HETATM    2  C2  UNL     1     -33.931   5.876   3.774  1.00 20.00     0.091 A 
HETATM    3  C3  UNL     1     -34.833   5.061   4.642  1.00 20.00     0.049 C 
HETATM    4  O5  UNL     1     -34.293   5.859   2.386  1.00 20.00    -0.374 OA
ENDROOT
BRANCH   2   5
HETATM    5  C4  UNL     1     -33.539   7.227   4.277  1.00 20.00     0.154 C 
HETATM    6 CL6  UNL     1     -33.755   7.342   6.044  1.00 20.00    -0.127 Cl
ENDBRANCH   2   5
TORSDOF 1
ENDMDL
MODEL 4
REMARK VINA RESULT:      -3.6      2.358      3.118
REMARK  1 active torsions:
REMARK  status: ('A' for Active; 'I' for Inactive)
REMARK    1  A    between atoms: C2_2  and  C4_4 
ROOT
HETATM    1  C1  UNL     1     -32.093   7.727   3.259  1.00 20.00     0.207 A 
HETATM    2  C2  UNL     1     -33.263   6.847   3.628  1.00 20.00     0.091 A 
HETATM    3  C3  UNL     1     -33.460   5.546   2.919  1.00 20.00     0.049 C 
HETATM    4  O5  UNL     1     -33.422   7.996   2.784  1.00 20.00    -0.374 OA
ENDROOT
BRANCH   2   5
HETATM    5  C4  UNL     1     -33.901   6.995   4.971  1.00 20.00     0.154 C 
HETATM    6 CL6  UNL     1     -34.577   5.443   5.535  1.00 20.00    -0.127 Cl
ENDBRANCH   2   5
TORSDOF 1
ENDMDL
MODEL 5
REMARK VINA RESULT:      -3.5      1.672      2.109
REMARK  1 active torsions:
REMARK  status: ('A' for Active; 'I' for Inactive)
REMARK    1  A    between atoms: C2_2  and  C4_4 
ROOT
HETATM    1  C1  UNL     1     -35.461   5.821   3.762  1.00 20.00     0.207 A 
HETATM    2  C2  UNL     1     -33.961   5.982   3.711  1.00 20.00     0.091 A 
HETATM    3  C3  UNL     1     -33.160   5.139   2.771  1.00 20.00     0.049 C 
HETATM    4  O5  UNL     1     -34.603   5.237   4.754  1.00 20.00    -0.374 OA
ENDROOT
BRANCH   2   5
HETATM    5  C4  UNL     1     -33.341   7.259   4.177  1.00 20.00     0.154 C 
HETATM    6 CL6  UNL     1     -33.479   7.431   5.947  1.00 20.00    -0.127 Cl
ENDBRANCH   2   5
TORSDOF 1
ENDMDL
MODEL 6
REMARK VINA RESULT:      -3.4      1.204      1.750
REMARK  1 active torsions:
REMARK  status: ('A' for Active; 'I' for Inactive)
REMARK    1  A    between atoms: C2_2  and  C4_4 
ROOT
HETATM    1  C1  UNL     1     -35.360   5.814   3.843  1.00 20.00     0.207 A 
HETATM    2  C2  UNL     1     -33.876   5.994   3.635  1.00 20.00     0.091 A 
HETATM    3  C3  UNL     1     -33.141   5.064   2.724  1.00 20.00     0.049 C 
HETATM    4  O5  UNL     1     -34.400   5.360   4.809  1.00 20.00    -0.374 OA
ENDROOT
BRANCH   2   5
HETATM    5  C4  UNL     1     -33.252   7.326   3.897  1.00 20.00     0.154 C 
HETATM    6 CL6  UNL     1     -32.180   7.809   2.556  1.00 20.00    -0.127 Cl
ENDBRANCH   2   5
TORSDOF 1
ENDMDL
MODEL 7
REMARK VINA RESULT:      -3.2      2.225      2.627
REMARK  1 active torsions:
REMARK  status: ('A' for Active; 'I' for Inactive)
REMARK    1  A    between atoms: C2_2  and  C4_4 
ROOT
HETATM    1  C1  UNL     1     -34.360   6.141   2.622  1.00 20.00     0.207 A 
HETATM    2  C2  UNL     1     -33.457   6.753   3.666  1.00 20.00     0.091 A 
HETATM    3  C3  UNL     1     -32.294   7.588   3.235  1.00 20.00     0.049 C 
HETATM    4  O5  UNL     1     -33.348   5.373   3.292  1.00 20.00    -0.374 OA
ENDROOT
BRANCH   2   5
HETATM    5  C4  UNL     1     -33.970   6.962   5.053  1.00 20.00     0.154 C 
HETATM    6 CL6  UNL     1     -34.495   5.422   5.783  1.00 20.00    -0.127 Cl
ENDBRANCH   2   5
TORSDOF 1
ENDMDL
MODEL 8
REMARK VINA RESULT:      -3.2      2.160      2.770
REMARK  1 active torsions:
REMARK  status: ('A' for Active; 'I' for Inactive)
REMARK    1  A    between atoms: C2_2  and  C4_4 
ROOT
HETATM    1  C1  UNL     1     -33.481   7.190   5.524  1.00 20.00     0.207 A 
HETATM    2  C2  UNL     1     -33.864   6.629   4.176  1.00 20.00     0.091 A 
HETATM    3  C3  UNL     1     -32.892   6.706   3.043  1.00 20.00     0.049 C 
HETATM    4  O5  UNL     1     -34.335   7.909   4.621  1.00 20.00    -0.374 OA
ENDROOT
BRANCH   2   5
HETATM    5  C4  UNL     1     -34.934   5.591   4.087  1.00 20.00     0.154 C 
HETATM    6 CL6  UNL     1     -34.272   3.960   4.375  1.00 20.00    -0.127 Cl
ENDBRANCH   2   5
TORSDOF 1
ENDMDL
MODEL 9
REMARK VINA RESULT:      -3.1     11.696     12.277
REMARK  1 active torsions:
REMARK  status: ('A' for Active; 'I' for Inactive)
REMARK    1  A    between atoms: C2_2  and  C4_4 
ROOT
HETATM    1  C1  UNL     1     -36.691  13.909  -5.377  1.00 20.00     0.207 A 
HETATM    2  C2  UNL     1     -35.183  13.891  -5.423  1.00 20.00     0.091 A 
HETATM    3  C3  UNL     1     -34.485  13.940  -6.744  1.00 20.00     0.049 C 
HETATM    4  O5  UNL     1     -35.944  12.694  -5.215  1.00 20.00    -0.374 OA
ENDROOT
BRANCH   2   5
HETATM    5  C4  UNL     1     -34.404  14.325  -4.224  1.00 20.00     0.154 C 
HETATM    6 CL6  UNL     1     -32.899  15.155  -4.702  1.00 20.00    -0.127 Cl
ENDBRANCH   2   5
TORSDOF 1
ENDMDL
