MODEL 1
REMARK VINA RESULT:      -4.8      0.000      0.000
REMARK  0 active torsions:
REMARK  status: ('A' for Active; 'I' for Inactive)
ROOT
HETATM    1  C1  UNL     1     -34.801  16.013  -3.140  1.00 20.00    -0.024 C 
HETATM    2  C2  UNL     1     -33.618  15.715  -3.691  1.00 20.00    -0.024 C 
HETATM    3  C3  UNL     1     -35.521  13.832  -5.137  1.00 20.00     0.164 C 
HETATM    4  C4  UNL     1     -34.915  16.671  -5.364  1.00 20.00     0.021 C 
HETATM    5  C5  UNL     1     -35.830  16.216  -4.225  1.00 20.00     0.034 C 
HETATM    6  C6  UNL     1     -33.749  15.694  -5.194  1.00 20.00     0.034 C 
HETATM    7  C7  UNL     1     -36.492  14.874  -4.567  1.00 20.00     0.161 C 
HETATM    8  C8  UNL     1     -34.152  14.287  -5.658  1.00 20.00     0.161 C 
HETATM    9  O9  UNL     1     -35.863  12.648  -5.234  1.00 20.00    -0.295 OA
HETATM   10 CL10 UNL     1     -37.777  15.089  -5.787  1.00 20.00    -0.116 Cl
HETATM   11 CL11 UNL     1     -34.231  14.200  -7.438  1.00 20.00    -0.116 Cl
ENDROOT
TORSDOF 0
ENDMDL
MODEL 2
REMARK VINA RESULT:      -4.5      1.535      1.820
REMARK  0 active torsions:
REMARK  status: ('A' for Active; 'I' for Inactive)
ROOT
HETATM    1  C1  UNL     1     -35.431  16.772  -1.843  1.00 20.00    -0.024 C 
HETATM    2  C2  UNL     1     -34.098  16.856  -1.934  1.00 20.00    -0.024 C 
HETATM    3  C3  UNL     1     -34.780  14.763  -4.034  1.00 20.00     0.164 C 
HETATM    4  C4  UNL     1     -34.957  17.668  -3.933  1.00 20.00     0.021 C 
HETATM    5  C5  UNL     1     -36.039  16.852  -3.222  1.00 20.00     0.034 C 
HETATM    6  C6  UNL     1     -33.695  17.000  -3.381  1.00 20.00     0.034 C 
HETATM    7  C7  UNL     1     -36.139  15.444  -3.825  1.00 20.00     0.161 C 
HETATM    8  C8  UNL     1     -33.503  15.611  -4.004  1.00 20.00     0.161 C 
HETATM    9  O9  UNL     1     -34.721  13.555  -4.287  1.00 20.00    -0.295 OA
HETATM   10 CL10 UNL     1     -36.934  15.488  -5.422  1.00 20.00    -0.116 Cl
HETATM   11 CL11 UNL     1     -32.940  15.741  -5.693  1.00 20.00    -0.116 Cl
ENDROOT
TORSDOF 0
ENDMDL
MODEL 3
REMARK VINA RESULT:      -4.3      1.710      2.732
REMARK  0 active torsions:
REMARK  status: ('A' for Active; 'I' for Inactive)
ROOT
HETATM    1  C1  UNL     1     -33.587  16.993  -3.916  1.00 20.00    -0.024 C 
HETATM    2  C2  UNL     1     -34.300  16.199  -3.106  1.00 20.00    -0.024 C 
HETATM    3  C3  UNL     1     -35.697  15.846  -5.786  1.00 20.00     0.164 C 
HETATM    4  C4  UNL     1     -33.232  14.812  -4.632  1.00 20.00     0.021 C 
HETATM    5  C5  UNL     1     -33.231  16.242  -5.176  1.00 20.00     0.034 C 
HETATM    6  C6  UNL     1     -34.484  14.848  -3.751  1.00 20.00     0.034 C 
HETATM    7  C7  UNL     1     -34.343  16.425  -6.218  1.00 20.00     0.161 C 
HETATM    8  C8  UNL     1     -35.752  14.856  -4.616  1.00 20.00     0.161 C 
HETATM    9  O9  UNL     1     -36.724  16.126  -6.415  1.00 20.00    -0.295 OA
HETATM   10 CL10 UNL     1     -33.916  15.622  -7.754  1.00 20.00    -0.116 Cl
HETATM   11 CL11 UNL     1     -36.050  13.247  -5.326  1.00 20.00    -0.116 Cl
ENDROOT
TORSDOF 0
ENDMDL
MODEL 4
REMARK VINA RESULT:      -4.3      1.626      2.391
REMARK  0 active torsions:
REMARK  status: ('A' for Active; 'I' for Inactive)
ROOT
HETATM    1  C1  UNL     1     -35.940  16.949  -5.625  1.00 20.00    -0.024 C 
HETATM    2  C2  UNL     1     -35.424  16.941  -4.389  1.00 20.00    -0.024 C 
HETATM    3  C3  UNL     1     -35.069  14.053  -5.281  1.00 20.00     0.164 C 
HETATM    4  C4  UNL     1     -33.665  16.540  -5.852  1.00 20.00     0.021 C 
HETATM    5  C5  UNL     1     -34.985  16.272  -6.578  1.00 20.00     0.034 C 
HETATM    6  C6  UNL     1     -34.079  16.258  -4.405  1.00 20.00     0.034 C 
HETATM    7  C7  UNL     1     -35.282  14.767  -6.623  1.00 20.00     0.161 C 
HETATM    8  C8  UNL     1     -34.262  14.751  -4.180  1.00 20.00     0.161 C 
HETATM    9  O9  UNL     1     -35.490  12.904  -5.113  1.00 20.00    -0.295 OA
HETATM   10 CL10 UNL     1     -34.228  13.944  -7.806  1.00 20.00    -0.116 Cl
HETATM   11 CL11 UNL     1     -32.684  13.921  -4.104  1.00 20.00    -0.116 Cl
ENDROOT
TORSDOF 0
ENDMDL
MODEL 5
REMARK VINA RESULT:      -4.3      2.051      3.554
REMARK  0 active torsions:
REMARK  status: ('A' for Active; 'I' for Inactive)
ROOT
HETATM    1  C1  UNL     1     -34.151  14.043  -7.918  1.00 20.00    -0.024 C 
HETATM    2  C2  UNL     1     -35.389  13.543  -7.815  1.00 20.00    -0.024 C 
HETATM    3  C3  UNL     1     -34.659  14.121  -4.918  1.00 20.00     0.164 C 
HETATM    4  C4  UNL     1     -35.509  15.769  -7.163  1.00 20.00     0.021 C 
HETATM    5  C5  UNL     1     -34.049  15.315  -7.112  1.00 20.00     0.034 C 
HETATM    6  C6  UNL     1     -36.225  14.436  -6.932  1.00 20.00     0.034 C 
HETATM    7  C7  UNL     1     -33.636  14.982  -5.671  1.00 20.00     0.161 C 
HETATM    8  C8  UNL     1     -36.085  13.995  -5.469  1.00 20.00     0.161 C 
HETATM    9  O9  UNL     1     -34.355  13.588  -3.846  1.00 20.00    -0.295 OA
HETATM   10 CL10 UNL     1     -33.420  16.470  -4.710  1.00 20.00    -0.116 Cl
HETATM   11 CL11 UNL     1     -37.129  14.974  -4.403  1.00 20.00    -0.116 Cl
ENDROOT
TORSDOF 0
ENDMDL
MODEL 6
REMARK VINA RESULT:      -4.1      1.584      2.964
REMARK  0 active torsions:
REMARK  status: ('A' for Active; 'I' for Inactive)
ROOT
HETATM    1  C1  UNL     1     -33.374  16.053  -4.314  1.00 20.00    -0.024 C 
HETATM    2  C2  UNL     1     -34.472  16.313  -3.592  1.00 20.00    -0.024 C 
HETATM    3  C3  UNL     1     -35.616  15.665  -6.336  1.00 20.00     0.164 C 
HETATM    4  C4  UNL     1     -34.555  14.060  -4.149  1.00 20.00     0.021 C 
HETATM    5  C5  UNL     1     -33.563  14.765  -5.077  1.00 20.00     0.034 C 
HETATM    6  C6  UNL     1     -35.491  15.222  -3.806  1.00 20.00     0.034 C 
HETATM    7  C7  UNL     1     -34.210  15.060  -6.437  1.00 20.00     0.161 C 
HETATM    8  C8  UNL     1     -36.379  15.573  -5.008  1.00 20.00     0.161 C 
HETATM    9  O9  UNL     1     -36.153  16.164  -7.330  1.00 20.00    -0.295 OA
HETATM   10 CL10 UNL     1     -34.368  13.568  -7.405  1.00 20.00    -0.116 Cl
HETATM   11 CL11 UNL     1     -37.654  14.347  -5.239  1.00 20.00    -0.116 Cl
ENDROOT
TORSDOF 0
ENDMDL
MODEL 7
REMARK VINA RESULT:      -4.1      2.217      2.929
REMARK  0 active torsions:
REMARK  status: ('A' for Active; 'I' for Inactive)
ROOT
HETATM    1  C1  UNL     1     -33.680  17.013  -6.760  1.00 20.00    -0.024 C 
HETATM    2  C2  UNL     1     -34.190  16.050  -7.539  1.00 20.00    -0.024 C 
HETATM    3  C3  UNL     1     -33.728  14.602  -4.903  1.00 20.00     0.164 C 
HETATM    4  C4  UNL     1     -35.752  16.459  -5.870  1.00 20.00     0.021 C 
HETATM    5  C5  UNL     1     -34.400  17.026  -5.434  1.00 20.00     0.034 C 
HETATM    6  C6  UNL     1     -35.296  15.335  -6.804  1.00 20.00     0.034 C 
HETATM    7  C7  UNL     1     -33.701  16.070  -4.457  1.00 20.00     0.161 C 
HETATM    8  C8  UNL     1     -34.710  14.167  -5.998  1.00 20.00     0.161 C 
HETATM    9  O9  UNL     1     -33.011  13.767  -4.342  1.00 20.00    -0.295 OA
HETATM   10 CL10 UNL     1     -34.473  16.125  -2.849  1.00 20.00    -0.116 Cl
HETATM   11 CL11 UNL     1     -36.001  13.243  -5.184  1.00 20.00    -0.116 Cl
ENDROOT
TORSDOF 0
ENDMDL
MODEL 8
REMARK VINA RESULT:      -4.1      2.371      3.240
REMARK  0 active torsions:
REMARK  status: ('A' for Active; 'I' for Inactive)
ROOT
HETATM    1  C1  UNL     1     -33.984  15.055  -6.260  1.00 20.00    -0.024 C 
HETATM    2  C2  UNL     1     -33.091  15.608  -5.428  1.00 20.00    -0.024 C 
HETATM    3  C3  UNL     1     -35.724  16.796  -4.469  1.00 20.00     0.164 C 
HETATM    4  C4  UNL     1     -34.427  14.209  -4.143  1.00 20.00     0.021 C 
HETATM    5  C5  UNL     1     -35.140  14.499  -5.465  1.00 20.00     0.034 C 
HETATM    6  C6  UNL     1     -33.571  15.470  -4.005  1.00 20.00     0.034 C 
HETATM    7  C7  UNL     1     -36.208  15.585  -5.277  1.00 20.00     0.161 C 
HETATM    8  C8  UNL     1     -34.444  16.677  -3.633  1.00 20.00     0.161 C 
HETATM    9  O9  UNL     1     -36.392  17.835  -4.442  1.00 20.00    -0.295 OA
HETATM   10 CL10 UNL     1     -37.632  14.938  -4.417  1.00 20.00    -0.116 Cl
HETATM   11 CL11 UNL     1     -34.957  16.593  -1.927  1.00 20.00    -0.116 Cl
ENDROOT
TORSDOF 0
ENDMDL
MODEL 9
REMARK VINA RESULT:      -4.1      1.963      3.117
REMARK  0 active torsions:
REMARK  status: ('A' for Active; 'I' for Inactive)
ROOT
HETATM    1  C1  UNL     1     -37.506  16.006  -7.105  1.00 20.00    -0.024 C 
HETATM    2  C2  UNL     1     -37.546  16.437  -5.837  1.00 20.00    -0.024 C 
HETATM    3  C3  UNL     1     -35.927  13.869  -5.620  1.00 20.00     0.164 C 
HETATM    4  C4  UNL     1     -35.331  16.574  -6.521  1.00 20.00     0.021 C 
HETATM    5  C5  UNL     1     -36.088  15.645  -7.472  1.00 20.00     0.034 C 
HETATM    6  C6  UNL     1     -36.160  16.402  -5.245  1.00 20.00     0.034 C 
HETATM    7  C7  UNL     1     -35.821  14.175  -7.119  1.00 20.00     0.161 C 
HETATM    8  C8  UNL     1     -35.901  15.027  -4.614  1.00 20.00     0.161 C 
HETATM    9  O9  UNL     1     -35.970  12.700  -5.223  1.00 20.00    -0.295 OA
HETATM   10 CL10 UNL     1     -34.179  13.686  -7.621  1.00 20.00    -0.116 Cl
HETATM   11 CL11 UNL     1     -34.301  14.978  -3.825  1.00 20.00    -0.116 Cl
ENDROOT
TORSDOF 0
ENDMDL
