MODEL 1
REMARK VINA RESULT:      -5.4      0.000      0.000
REMARK  3 active torsions:
REMARK  status: ('A' for Active; 'I' for Inactive)
REMARK    1  A    between atoms: C7_7  and  C8_8 
REMARK    2  A    between atoms: C7_7  and  N9_9 
REMARK    3  A    between atoms: C8_8  and  N10_10 
ROOT
HETATM    1  C1  UNL     1     -32.513   9.564   1.018  1.00 20.00     0.157 C 
HETATM    2  N9  UNL     1     -32.114   9.646   2.120  1.00 20.00    -0.274 NA
HETATM    3  S11 UNL     1     -33.059   9.485  -0.476  1.00 20.00    -0.055 SA
ENDROOT
BRANCH   2   4
HETATM    4  C7  UNL     1     -31.743   8.369   2.736  1.00 20.00     0.178 C 
BRANCH   4   5
HETATM    5  C8  UNL     1     -32.708   7.287   2.290  1.00 20.00     0.256 C 
BRANCH   5   6
HETATM    6  N10 UNL     1     -33.608   6.907   3.434  1.00 20.00    -0.070 N 
HETATM    7  C5  UNL     1     -33.951   5.436   3.409  1.00 20.00     0.235 C 
HETATM    8  C3  UNL     1     -34.957   5.134   4.510  1.00 20.00     0.028 C 
HETATM    9  C2  UNL     1     -34.446   5.573   5.878  1.00 20.00     0.003 C 
HETATM   10  C4  UNL     1     -34.033   7.041   5.867  1.00 20.00     0.028 C 
HETATM   11  C6  UNL     1     -33.031   7.337   4.761  1.00 20.00     0.235 C 
HETATM   12  H26 UNL     1     -34.485   7.428   3.299  1.00 20.00     0.279 HD
ENDBRANCH   5   6
ENDBRANCH   4   5
ENDBRANCH   2   4
TORSDOF 3
ENDMDL
MODEL 2
REMARK VINA RESULT:      -5.3      0.574      1.578
REMARK  3 active torsions:
REMARK  status: ('A' for Active; 'I' for Inactive)
REMARK    1  A    between atoms: C7_7  and  C8_8 
REMARK    2  A    between atoms: C7_7  and  N9_9 
REMARK    3  A    between atoms: C8_8  and  N10_10 
ROOT
HETATM    1  C1  UNL     1     -32.499   9.498   1.053  1.00 20.00     0.157 C 
HETATM    2  N9  UNL     1     -32.102   9.555   2.157  1.00 20.00    -0.274 NA
HETATM    3  S11 UNL     1     -33.040   9.449  -0.444  1.00 20.00    -0.055 SA
ENDROOT
BRANCH   2   4
HETATM    4  C7  UNL     1     -31.748   8.265   2.752  1.00 20.00     0.178 C 
BRANCH   4   5
HETATM    5  C8  UNL     1     -32.782   7.223   2.368  1.00 20.00     0.256 C 
BRANCH   5   6
HETATM    6  N10 UNL     1     -33.145   6.400   3.573  1.00 20.00    -0.070 N 
HETATM    7  C5  UNL     1     -33.853   7.227   4.621  1.00 20.00     0.235 C 
HETATM    8  C3  UNL     1     -34.085   6.378   5.862  1.00 20.00     0.028 C 
HETATM    9  C2  UNL     1     -34.850   5.099   5.538  1.00 20.00     0.003 C 
HETATM   10  C4  UNL     1     -34.162   4.312   4.426  1.00 20.00     0.028 C 
HETATM   11  C6  UNL     1     -33.930   5.168   3.190  1.00 20.00     0.235 C 
HETATM   12  H26 UNL     1     -32.257   6.081   3.984  1.00 20.00     0.279 HD
ENDBRANCH   5   6
ENDBRANCH   4   5
ENDBRANCH   2   4
TORSDOF 3
ENDMDL
MODEL 3
REMARK VINA RESULT:      -4.1     10.566     11.410
REMARK  3 active torsions:
REMARK  status: ('A' for Active; 'I' for Inactive)
REMARK    1  A    between atoms: C7_7  and  C8_8 
REMARK    2  A    between atoms: C7_7  and  N9_9 
REMARK    3  A    between atoms: C8_8  and  N10_10 
ROOT
HETATM    1  C1  UNL     1     -36.463  13.934  -5.137  1.00 20.00     0.157 C 
HETATM    2  N9  UNL     1     -35.382  13.475  -5.121  1.00 20.00    -0.274 NA
HETATM    3  S11 UNL     1     -37.936  14.538  -5.182  1.00 20.00    -0.055 SA
ENDROOT
BRANCH   2   4
HETATM    4  C7  UNL     1     -34.471  14.080  -4.146  1.00 20.00     0.178 C 
BRANCH   4   5
HETATM    5  C8  UNL     1     -34.534  15.592  -4.257  1.00 20.00     0.256 C 
BRANCH   5   6
HETATM    6  N10 UNL     1     -34.327  16.208  -2.900  1.00 20.00    -0.070 N 
HETATM    7  C5  UNL     1     -33.357  17.364  -2.955  1.00 20.00     0.235 C 
HETATM    8  C3  UNL     1     -33.092  17.867  -1.543  1.00 20.00     0.028 C 
HETATM    9  C2  UNL     1     -34.383  18.245  -0.825  1.00 20.00     0.003 C 
HETATM   10  C4  UNL     1     -35.381  17.091  -0.843  1.00 20.00     0.028 C 
HETATM   11  C6  UNL     1     -35.639  16.590  -2.257  1.00 20.00     0.235 C 
HETATM   12  H26 UNL     1     -33.901  15.478  -2.312  1.00 20.00     0.279 HD
ENDBRANCH   5   6
ENDBRANCH   4   5
ENDBRANCH   2   4
TORSDOF 3
ENDMDL
MODEL 4
REMARK VINA RESULT:      -3.9     11.075     12.223
REMARK  3 active torsions:
REMARK  status: ('A' for Active; 'I' for Inactive)
REMARK    1  A    between atoms: C7_7  and  C8_8 
REMARK    2  A    between atoms: C7_7  and  N9_9 
REMARK    3  A    between atoms: C8_8  and  N10_10 
ROOT
HETATM    1  C1  UNL     1     -38.616  15.094  -4.687  1.00 20.00     0.157 C 
HETATM    2  N9  UNL     1     -38.185  14.028  -4.927  1.00 20.00    -0.274 NA
HETATM    3  S11 UNL     1     -39.222  16.526  -4.342  1.00 20.00    -0.055 SA
ENDROOT
BRANCH   2   4
HETATM    4  C7  UNL     1     -37.075  14.015  -5.883  1.00 20.00     0.178 C 
BRANCH   4   5
HETATM    5  C8  UNL     1     -35.899  13.262  -5.290  1.00 20.00     0.256 C 
BRANCH   5   6
HETATM    6  N10 UNL     1     -34.725  14.192  -5.143  1.00 20.00    -0.070 N 
HETATM    7  C5  UNL     1     -34.557  15.075  -6.357  1.00 20.00     0.235 C 
HETATM    8  C3  UNL     1     -33.289  15.903  -6.207  1.00 20.00     0.028 C 
HETATM    9  C2  UNL     1     -33.293  16.712  -4.914  1.00 20.00     0.003 C 
HETATM   10  C4  UNL     1     -33.538  15.817  -3.704  1.00 20.00     0.028 C 
HETATM   11  C6  UNL     1     -34.804  14.988  -3.863  1.00 20.00     0.235 C 
HETATM   12  H26 UNL     1     -33.889  13.595  -5.080  1.00 20.00     0.279 HD
ENDBRANCH   5   6
ENDBRANCH   4   5
ENDBRANCH   2   4
TORSDOF 3
ENDMDL
MODEL 5
REMARK VINA RESULT:      -3.9     10.904     11.402
REMARK  3 active torsions:
REMARK  status: ('A' for Active; 'I' for Inactive)
REMARK    1  A    between atoms: C7_7  and  C8_8 
REMARK    2  A    between atoms: C7_7  and  N9_9 
REMARK    3  A    between atoms: C8_8  and  N10_10 
ROOT
HETATM    1  C1  UNL     1     -34.301  13.976  -5.956  1.00 20.00     0.157 C 
HETATM    2  N9  UNL     1     -33.945  13.892  -4.840  1.00 20.00    -0.274 NA
HETATM    3  S11 UNL     1     -34.788  14.061  -7.470  1.00 20.00    -0.055 SA
ENDROOT
BRANCH   2   4
HETATM    4  C7  UNL     1     -33.521  15.155  -4.231  1.00 20.00     0.178 C 
BRANCH   4   5
HETATM    5  C8  UNL     1     -34.723  15.869  -3.644  1.00 20.00     0.256 C 
BRANCH   5   6
HETATM    6  N10 UNL     1     -34.349  16.491  -2.326  1.00 20.00    -0.070 N 
HETATM    7  C5  UNL     1     -33.319  17.582  -2.497  1.00 20.00     0.235 C 
HETATM    8  C3  UNL     1     -32.888  18.089  -1.128  1.00 20.00     0.028 C 
HETATM    9  C2  UNL     1     -34.079  18.560  -0.300  1.00 20.00     0.003 C 
HETATM   10  C4  UNL     1     -35.145  17.473  -0.199  1.00 20.00     0.028 C 
HETATM   11  C6  UNL     1     -35.567  16.968  -1.571  1.00 20.00     0.235 C 
HETATM   12  H26 UNL     1     -33.916  15.745  -1.766  1.00 20.00     0.279 HD
ENDBRANCH   5   6
ENDBRANCH   4   5
ENDBRANCH   2   4
TORSDOF 3
ENDMDL
MODEL 6
REMARK VINA RESULT:      -3.7     11.008     11.962
REMARK  3 active torsions:
REMARK  status: ('A' for Active; 'I' for Inactive)
REMARK    1  A    between atoms: C7_7  and  C8_8 
REMARK    2  A    between atoms: C7_7  and  N9_9 
REMARK    3  A    between atoms: C8_8  and  N10_10 
ROOT
HETATM    1  C1  UNL     1     -34.302  17.294  -1.260  1.00 20.00     0.157 C 
HETATM    2  N9  UNL     1     -33.382  17.106  -1.965  1.00 20.00    -0.274 NA
HETATM    3  S11 UNL     1     -35.531  17.553  -0.280  1.00 20.00    -0.055 SA
ENDROOT
BRANCH   2   4
HETATM    4  C7  UNL     1     -33.723  16.840  -3.365  1.00 20.00     0.178 C 
BRANCH   4   5
HETATM    5  C8  UNL     1     -34.610  15.612  -3.451  1.00 20.00     0.256 C 
BRANCH   5   6
HETATM    6  N10 UNL     1     -34.802  15.226  -4.892  1.00 20.00    -0.070 N 
HETATM    7  C5  UNL     1     -33.531  15.400  -5.690  1.00 20.00     0.235 C 
HETATM    8  C3  UNL     1     -33.814  15.114  -7.158  1.00 20.00     0.028 C 
HETATM    9  C2  UNL     1     -34.422  13.730  -7.357  1.00 20.00     0.003 C 
HETATM   10  C4  UNL     1     -35.662  13.542  -6.488  1.00 20.00     0.028 C 
HETATM   11  C6  UNL     1     -35.373  13.834  -5.023  1.00 20.00     0.235 C 
HETATM   12  H26 UNL     1     -35.498  15.879  -5.278  1.00 20.00     0.279 HD
ENDBRANCH   5   6
ENDBRANCH   4   5
ENDBRANCH   2   4
TORSDOF 3
ENDMDL
MODEL 7
REMARK VINA RESULT:      -3.7     11.010     11.745
REMARK  3 active torsions:
REMARK  status: ('A' for Active; 'I' for Inactive)
REMARK    1  A    between atoms: C7_7  and  C8_8 
REMARK    2  A    between atoms: C7_7  and  N9_9 
REMARK    3  A    between atoms: C8_8  and  N10_10 
ROOT
HETATM    1  C1  UNL     1     -34.543  17.246  -1.109  1.00 20.00     0.157 C 
HETATM    2  N9  UNL     1     -33.829  16.973  -2.001  1.00 20.00    -0.274 NA
HETATM    3  S11 UNL     1     -35.488  17.630   0.114  1.00 20.00    -0.055 SA
ENDROOT
BRANCH   2   4
HETATM    4  C7  UNL     1     -34.445  16.167  -3.058  1.00 20.00     0.178 C 
BRANCH   4   5
HETATM    5  C8  UNL     1     -33.368  15.608  -3.968  1.00 20.00     0.256 C 
BRANCH   5   6
HETATM    6  N10 UNL     1     -33.984  14.660  -4.960  1.00 20.00    -0.070 N 
HETATM    7  C5  UNL     1     -35.430  14.373  -4.633  1.00 20.00     0.235 C 
HETATM    8  C3  UNL     1     -35.965  13.319  -5.591  1.00 20.00     0.028 C 
HETATM    9  C2  UNL     1     -35.786  13.736  -7.047  1.00 20.00     0.003 C 
HETATM   10  C4  UNL     1     -34.333  14.095  -7.344  1.00 20.00     0.028 C 
HETATM   11  C6  UNL     1     -33.804  15.146  -6.378  1.00 20.00     0.235 C 
HETATM   12  H26 UNL     1     -33.468  13.774  -4.873  1.00 20.00     0.279 HD
ENDBRANCH   5   6
ENDBRANCH   4   5
ENDBRANCH   2   4
TORSDOF 3
ENDMDL
MODEL 8
REMARK VINA RESULT:      -3.7     10.980     12.091
REMARK  3 active torsions:
REMARK  status: ('A' for Active; 'I' for Inactive)
REMARK    1  A    between atoms: C7_7  and  C8_8 
REMARK    2  A    between atoms: C7_7  and  N9_9 
REMARK    3  A    between atoms: C8_8  and  N10_10 
ROOT
HETATM    1  C1  UNL     1     -32.373  18.755  -0.199  1.00 20.00     0.157 C 
HETATM    2  N9  UNL     1     -32.274  18.552  -1.351  1.00 20.00    -0.274 NA
HETATM    3  S11 UNL     1     -32.484  19.051   1.362  1.00 20.00    -0.055 SA
ENDROOT
BRANCH   2   4
HETATM    4  C7  UNL     1     -33.177  17.524  -1.875  1.00 20.00     0.178 C 
BRANCH   4   5
HETATM    5  C8  UNL     1     -33.463  17.793  -3.340  1.00 20.00     0.256 C 
BRANCH   5   6
HETATM    6  N10 UNL     1     -33.488  16.494  -4.098  1.00 20.00    -0.070 N 
HETATM    7  C5  UNL     1     -34.522  15.543  -3.542  1.00 20.00     0.235 C 
HETATM    8  C3  UNL     1     -34.419  14.207  -4.263  1.00 20.00     0.028 C 
HETATM    9  C2  UNL     1     -34.553  14.369  -5.774  1.00 20.00     0.003 C 
HETATM   10  C4  UNL     1     -33.552  15.388  -6.310  1.00 20.00     0.028 C 
HETATM   11  C6  UNL     1     -33.657  16.719  -5.582  1.00 20.00     0.235 C 
HETATM   12  H26 UNL     1     -32.566  16.059  -3.959  1.00 20.00     0.279 HD
ENDBRANCH   5   6
ENDBRANCH   4   5
ENDBRANCH   2   4
TORSDOF 3
ENDMDL
MODEL 9
REMARK VINA RESULT:      -3.6     11.430     12.151
REMARK  3 active torsions:
REMARK  status: ('A' for Active; 'I' for Inactive)
REMARK    1  A    between atoms: C7_7  and  C8_8 
REMARK    2  A    between atoms: C7_7  and  N9_9 
REMARK    3  A    between atoms: C8_8  and  N10_10 
ROOT
HETATM    1  C1  UNL     1     -38.944  14.768  -5.284  1.00 20.00     0.157 C 
HETATM    2  N9  UNL     1     -38.103  14.038  -4.913  1.00 20.00    -0.274 NA
HETATM    3  S11 UNL     1     -40.104  15.746  -5.768  1.00 20.00    -0.055 SA
ENDROOT
BRANCH   2   4
HETATM    4  C7  UNL     1     -36.805  14.208  -5.571  1.00 20.00     0.178 C 
BRANCH   4   5
HETATM    5  C8  UNL     1     -36.350  15.649  -5.440  1.00 20.00     0.256 C 
BRANCH   5   6
HETATM    6  N10 UNL     1     -35.580  15.823  -4.159  1.00 20.00    -0.070 N 
HETATM    7  C5  UNL     1     -34.180  16.329  -4.414  1.00 20.00     0.235 C 
HETATM    8  C3  UNL     1     -33.411  16.368  -3.101  1.00 20.00     0.028 C 
HETATM    9  C2  UNL     1     -34.132  17.203  -2.049  1.00 20.00     0.003 C 
HETATM   10  C4  UNL     1     -35.569  16.728  -1.857  1.00 20.00     0.028 C 
HETATM   11  C6  UNL     1     -36.330  16.686  -3.173  1.00 20.00     0.235 C 
HETATM   12  H26 UNL     1     -35.496  14.886  -3.742  1.00 20.00     0.279 HD
ENDBRANCH   5   6
ENDBRANCH   4   5
ENDBRANCH   2   4
TORSDOF 3
ENDMDL
