MODEL 1
REMARK VINA RESULT:      -4.8      0.000      0.000
REMARK  3 active torsions:
REMARK  status: ('A' for Active; 'I' for Inactive)
REMARK    1  A    between atoms: C4_4  and  C5_5 
REMARK    2  A    between atoms: C5_5  and  C6_6 
REMARK    3  A    between atoms: C6_6  and  N7_7 
ROOT
HETATM    1  C1  UNL     1     -32.423   7.991   2.505  1.00 20.00     0.158 C 
HETATM    2  N7  UNL     1     -32.573   7.218   3.376  1.00 20.00    -0.271 NA
HETATM    3  S8  UNL     1     -32.189   9.025   1.317  1.00 20.00    -0.055 SA
ENDROOT
BRANCH   2   4
HETATM    4  C6  UNL     1     -33.835   7.359   4.111  1.00 20.00     0.105 C 
HETATM    5  C3  UNL     1     -33.513   7.363   5.600  1.00 20.00     0.034 C 
BRANCH   4   6
HETATM    6  C5  UNL     1     -34.766   6.198   3.749  1.00 20.00     0.026 C 
BRANCH   6   7
HETATM    7  C4  UNL     1     -34.810   5.123   4.838  1.00 20.00    -0.002 C 
HETATM    8  C2  UNL     1     -34.080   3.862   4.405  1.00 20.00     0.005 C 
ENDBRANCH   6   7
ENDBRANCH   4   6
ENDBRANCH   2   4
TORSDOF 3
ENDMDL
MODEL 2
REMARK VINA RESULT:      -4.3      2.642      4.526
REMARK  3 active torsions:
REMARK  status: ('A' for Active; 'I' for Inactive)
REMARK    1  A    between atoms: C4_4  and  C5_5 
REMARK    2  A    between atoms: C5_5  and  C6_6 
REMARK    3  A    between atoms: C6_6  and  N7_7 
ROOT
HETATM    1  C1  UNL     1     -33.861   6.555   4.947  1.00 20.00     0.158 C 
HETATM    2  N7  UNL     1     -33.266   7.466   4.507  1.00 20.00    -0.271 NA
HETATM    3  S8  UNL     1     -34.664   5.331   5.575  1.00 20.00    -0.055 SA
ENDROOT
BRANCH   2   4
HETATM    4  C6  UNL     1     -33.119   7.456   3.047  1.00 20.00     0.105 C 
HETATM    5  C3  UNL     1     -32.943   6.009   2.603  1.00 20.00     0.034 C 
BRANCH   4   6
HETATM    6  C5  UNL     1     -31.908   8.307   2.654  1.00 20.00     0.026 C 
BRANCH   6   7
HETATM    7  C4  UNL     1     -32.001   8.825   1.215  1.00 20.00    -0.002 C 
HETATM    8  C2  UNL     1     -32.655  10.196   1.159  1.00 20.00     0.005 C 
ENDBRANCH   6   7
ENDBRANCH   4   6
ENDBRANCH   2   4
TORSDOF 3
ENDMDL
MODEL 3
REMARK VINA RESULT:      -4.3      1.119      1.838
REMARK  3 active torsions:
REMARK  status: ('A' for Active; 'I' for Inactive)
REMARK    1  A    between atoms: C4_4  and  C5_5 
REMARK    2  A    between atoms: C5_5  and  C6_6 
REMARK    3  A    between atoms: C6_6  and  N7_7 
ROOT
HETATM    1  C1  UNL     1     -32.181   8.385   2.268  1.00 20.00     0.158 C 
HETATM    2  N7  UNL     1     -31.838   7.596   3.066  1.00 20.00    -0.271 NA
HETATM    3  S8  UNL     1     -32.615   9.468   1.184  1.00 20.00    -0.055 SA
ENDROOT
BRANCH   2   4
HETATM    4  C6  UNL     1     -32.893   6.679   3.516  1.00 20.00     0.105 C 
HETATM    5  C3  UNL     1     -33.594   6.129   2.280  1.00 20.00     0.034 C 
BRANCH   4   6
HETATM    6  C5  UNL     1     -33.872   7.437   4.417  1.00 20.00     0.026 C 
BRANCH   6   7
HETATM    7  C4  UNL     1     -34.018   6.788   5.796  1.00 20.00    -0.002 C 
HETATM    8  C2  UNL     1     -34.588   5.383   5.692  1.00 20.00     0.005 C 
ENDBRANCH   6   7
ENDBRANCH   4   6
ENDBRANCH   2   4
TORSDOF 3
ENDMDL
MODEL 4
REMARK VINA RESULT:      -4.1      2.559      4.463
REMARK  3 active torsions:
REMARK  status: ('A' for Active; 'I' for Inactive)
REMARK    1  A    between atoms: C4_4  and  C5_5 
REMARK    2  A    between atoms: C5_5  and  C6_6 
REMARK    3  A    between atoms: C6_6  and  N7_7 
ROOT
HETATM    1  C1  UNL     1     -34.102   6.204   4.201  1.00 20.00     0.158 C 
HETATM    2  N7  UNL     1     -33.752   7.288   3.918  1.00 20.00    -0.271 NA
HETATM    3  S8  UNL     1     -34.604   4.746   4.603  1.00 20.00    -0.055 SA
ENDROOT
BRANCH   2   4
HETATM    4  C6  UNL     1     -32.563   7.344   3.060  1.00 20.00     0.105 C 
HETATM    5  C3  UNL     1     -31.517   8.199   3.763  1.00 20.00     0.034 C 
BRANCH   4   6
HETATM    6  C5  UNL     1     -32.946   7.942   1.703  1.00 20.00     0.026 C 
BRANCH   6   7
HETATM    7  C4  UNL     1     -31.925   8.971   1.209  1.00 20.00    -0.002 C 
HETATM    8  C2  UNL     1     -32.597  10.277   0.816  1.00 20.00     0.005 C 
ENDBRANCH   6   7
ENDBRANCH   4   6
ENDBRANCH   2   4
TORSDOF 3
ENDMDL
MODEL 5
REMARK VINA RESULT:      -4.1      2.797      4.295
REMARK  3 active torsions:
REMARK  status: ('A' for Active; 'I' for Inactive)
REMARK    1  A    between atoms: C4_4  and  C5_5 
REMARK    2  A    between atoms: C5_5  and  C6_6 
REMARK    3  A    between atoms: C6_6  and  N7_7 
ROOT
HETATM    1  C1  UNL     1     -34.779   5.661   4.455  1.00 20.00     0.158 C 
HETATM    2  N7  UNL     1     -34.897   6.118   3.380  1.00 20.00    -0.271 NA
HETATM    3  S8  UNL     1     -34.653   5.041   5.917  1.00 20.00    -0.055 SA
ENDROOT
BRANCH   2   4
HETATM    4  C6  UNL     1     -33.633   6.364   2.676  1.00 20.00     0.105 C 
HETATM    5  C3  UNL     1     -32.902   5.033   2.546  1.00 20.00     0.034 C 
BRANCH   4   6
HETATM    6  C5  UNL     1     -32.801   7.377   3.467  1.00 20.00     0.026 C 
BRANCH   6   7
HETATM    7  C4  UNL     1     -31.772   8.099   2.592  1.00 20.00    -0.002 C 
HETATM    8  C2  UNL     1     -32.443   8.869   1.466  1.00 20.00     0.005 C 
ENDBRANCH   6   7
ENDBRANCH   4   6
ENDBRANCH   2   4
TORSDOF 3
ENDMDL
MODEL 6
REMARK VINA RESULT:      -3.8      1.489      2.467
REMARK  3 active torsions:
REMARK  status: ('A' for Active; 'I' for Inactive)
REMARK    1  A    between atoms: C4_4  and  C5_5 
REMARK    2  A    between atoms: C5_5  and  C6_6 
REMARK    3  A    between atoms: C6_6  and  N7_7 
ROOT
HETATM    1  C1  UNL     1     -32.948   6.325   2.765  1.00 20.00     0.158 C 
HETATM    2  N7  UNL     1     -33.233   5.201   2.948  1.00 20.00    -0.271 NA
HETATM    3  S8  UNL     1     -32.533   7.839   2.496  1.00 20.00    -0.055 SA
ENDROOT
BRANCH   2   4
HETATM    4  C6  UNL     1     -34.423   5.000   3.783  1.00 20.00     0.105 C 
HETATM    5  C3  UNL     1     -35.414   6.112   3.465  1.00 20.00     0.034 C 
BRANCH   4   6
HETATM    6  C5  UNL     1     -34.016   5.026   5.260  1.00 20.00     0.026 C 
BRANCH   6   7
HETATM    7  C4  UNL     1     -34.589   6.237   6.002  1.00 20.00    -0.002 C 
HETATM    8  C2  UNL     1     -33.586   7.378   6.063  1.00 20.00     0.005 C 
ENDBRANCH   6   7
ENDBRANCH   4   6
ENDBRANCH   2   4
TORSDOF 3
ENDMDL
MODEL 7
REMARK VINA RESULT:      -3.6      2.398      3.595
REMARK  3 active torsions:
REMARK  status: ('A' for Active; 'I' for Inactive)
REMARK    1  A    between atoms: C4_4  and  C5_5 
REMARK    2  A    between atoms: C5_5  and  C6_6 
REMARK    3  A    between atoms: C6_6  and  N7_7 
ROOT
HETATM    1  C1  UNL     1     -34.211   6.364   5.902  1.00 20.00     0.158 C 
HETATM    2  N7  UNL     1     -34.793   5.349   5.815  1.00 20.00    -0.271 NA
HETATM    3  S8  UNL     1     -33.425   7.742   6.055  1.00 20.00    -0.055 SA
ENDROOT
BRANCH   2   4
HETATM    4  C6  UNL     1     -34.950   4.848   4.444  1.00 20.00     0.105 C 
HETATM    5  C3  UNL     1     -33.877   3.794   4.203  1.00 20.00     0.034 C 
BRANCH   4   6
HETATM    6  C5  UNL     1     -34.813   6.014   3.460  1.00 20.00     0.026 C 
BRANCH   6   7
HETATM    7  C4  UNL     1     -33.575   5.882   2.568  1.00 20.00    -0.002 C 
HETATM    8  C2  UNL     1     -32.770   7.171   2.541  1.00 20.00     0.005 C 
ENDBRANCH   6   7
ENDBRANCH   4   6
ENDBRANCH   2   4
TORSDOF 3
ENDMDL
MODEL 8
REMARK VINA RESULT:      -3.5      1.660      2.028
REMARK  3 active torsions:
REMARK  status: ('A' for Active; 'I' for Inactive)
REMARK    1  A    between atoms: C4_4  and  C5_5 
REMARK    2  A    between atoms: C5_5  and  C6_6 
REMARK    3  A    between atoms: C6_6  and  N7_7 
ROOT
HETATM    1  C1  UNL     1     -32.873   7.602   4.533  1.00 20.00     0.158 C 
HETATM    2  N7  UNL     1     -33.560   7.267   5.424  1.00 20.00    -0.271 NA
HETATM    3  S8  UNL     1     -31.922   8.077   3.346  1.00 20.00    -0.055 SA
ENDROOT
BRANCH   2   4
HETATM    4  C6  UNL     1     -34.635   6.339   5.054  1.00 20.00     0.105 C 
HETATM    5  C3  UNL     1     -34.526   5.112   5.951  1.00 20.00     0.034 C 
BRANCH   4   6
HETATM    6  C5  UNL     1     -34.491   5.960   3.577  1.00 20.00     0.026 C 
BRANCH   6   7
HETATM    7  C4  UNL     1     -33.962   4.535   3.388  1.00 20.00    -0.002 C 
HETATM    8  C2  UNL     1     -32.822   4.493   2.383  1.00 20.00     0.005 C 
ENDBRANCH   6   7
ENDBRANCH   4   6
ENDBRANCH   2   4
TORSDOF 3
ENDMDL
MODEL 9
REMARK VINA RESULT:      -3.5      2.231      2.911
REMARK  3 active torsions:
REMARK  status: ('A' for Active; 'I' for Inactive)
REMARK    1  A    between atoms: C4_4  and  C5_5 
REMARK    2  A    between atoms: C5_5  and  C6_6 
REMARK    3  A    between atoms: C6_6  and  N7_7 
ROOT
HETATM    1  C1  UNL     1     -32.925   7.643   4.886  1.00 20.00     0.158 C 
HETATM    2  N7  UNL     1     -32.180   8.016   4.059  1.00 20.00    -0.271 NA
HETATM    3  S8  UNL     1     -33.923   7.162   6.030  1.00 20.00    -0.055 SA
ENDROOT
BRANCH   2   4
HETATM    4  C6  UNL     1     -32.281   7.307   2.778  1.00 20.00     0.105 C 
HETATM    5  C3  UNL     1     -32.302   8.349   1.666  1.00 20.00     0.034 C 
BRANCH   4   6
HETATM    6  C5  UNL     1     -33.557   6.460   2.767  1.00 20.00     0.026 C 
BRANCH   6   7
HETATM    7  C4  UNL     1     -33.261   4.958   2.752  1.00 20.00    -0.002 C 
HETATM    8  C2  UNL     1     -33.992   4.235   3.871  1.00 20.00     0.005 C 
ENDBRANCH   6   7
ENDBRANCH   4   6
ENDBRANCH   2   4
TORSDOF 3
ENDMDL
