MODEL 1
REMARK VINA RESULT:      -5.7      0.000      0.000
REMARK  1 active torsions:
REMARK  status: ('A' for Active; 'I' for Inactive)
REMARK    1  A    between atoms: C7_7  and  C11_11 
ROOT
HETATM    1  C1  UNL     1     -33.370   6.917   4.704  1.00 20.00    -0.018 C 
HETATM    2  C2  UNL     1     -32.420   7.806   3.954  1.00 20.00     0.159 C 
HETATM    3  C3  UNL     1     -33.791   7.328   5.907  1.00 20.00     0.023 C 
HETATM    4  C4  UNL     1     -34.340   5.962   2.598  1.00 20.00     0.010 C 
HETATM    5  C5  UNL     1     -33.793   7.238   1.944  1.00 20.00     0.013 C 
HETATM    6  C6  UNL     1     -33.732   5.645   3.978  1.00 20.00     0.017 C 
HETATM    7  C7  UNL     1     -32.392   7.614   2.438  1.00 20.00     0.063 C 
HETATM    8  C8  UNL     1     -34.641   4.677   4.742  1.00 20.00     0.015 C 
HETATM    9  O12 UNL     1     -31.685   8.601   4.535  1.00 20.00    -0.292 OA
ENDROOT
BRANCH   7  10
HETATM   10  C11 UNL     1     -31.900   8.878   1.737  1.00 20.00    -0.011 C 
HETATM   11  C9  UNL     1     -31.229   8.529   0.411  1.00 20.00     0.010 C 
HETATM   12  C10 UNL     1     -33.055   9.852   1.516  1.00 20.00     0.010 C 
ENDBRANCH   7  10
TORSDOF 1
ENDMDL
MODEL 2
REMARK VINA RESULT:      -5.1      1.645      2.640
REMARK  1 active torsions:
REMARK  status: ('A' for Active; 'I' for Inactive)
REMARK    1  A    between atoms: C7_7  and  C11_11 
ROOT
HETATM    1  C1  UNL     1     -34.051   5.337   3.941  1.00 20.00    -0.018 C 
HETATM    2  C2  UNL     1     -33.701   6.203   2.766  1.00 20.00     0.159 C 
HETATM    3  C3  UNL     1     -33.884   4.014   3.815  1.00 20.00     0.023 C 
HETATM    4  C4  UNL     1     -33.526   7.149   5.595  1.00 20.00     0.010 C 
HETATM    5  C5  UNL     1     -32.683   7.737   4.455  1.00 20.00     0.013 C 
HETATM    6  C6  UNL     1     -34.559   6.097   5.142  1.00 20.00     0.017 C 
HETATM    7  C7  UNL     1     -33.376   7.660   3.092  1.00 20.00     0.063 C 
HETATM    8  C8  UNL     1     -34.997   5.244   6.336  1.00 20.00     0.015 C 
HETATM    9  O12 UNL     1     -33.722   5.769   1.617  1.00 20.00    -0.292 OA
ENDROOT
BRANCH   7  10
HETATM   10  C11 UNL     1     -32.494   8.277   2.009  1.00 20.00    -0.011 C 
HETATM   11  C9  UNL     1     -33.154   9.526   1.427  1.00 20.00     0.010 C 
HETATM   12  C10 UNL     1     -31.113   8.610   2.567  1.00 20.00     0.010 C 
ENDBRANCH   7  10
TORSDOF 1
ENDMDL
MODEL 3
REMARK VINA RESULT:      -4.9     10.662     11.979
REMARK  1 active torsions:
REMARK  status: ('A' for Active; 'I' for Inactive)
REMARK    1  A    between atoms: C7_7  and  C11_11 
ROOT
HETATM    1  C1  UNL     1     -33.295  18.070  -3.005  1.00 20.00    -0.018 C 
HETATM    2  C2  UNL     1     -33.730  16.997  -3.961  1.00 20.00     0.159 C 
HETATM    3  C3  UNL     1     -32.960  19.262  -3.516  1.00 20.00     0.023 C 
HETATM    4  C4  UNL     1     -34.691  17.151  -1.136  1.00 20.00     0.010 C 
HETATM    5  C5  UNL     1     -35.489  16.479  -2.262  1.00 20.00     0.013 C 
HETATM    6  C6  UNL     1     -33.294  17.648  -1.557  1.00 20.00     0.017 C 
HETATM    7  C7  UNL     1     -34.598  15.891  -3.362  1.00 20.00     0.063 C 
HETATM    8  C8  UNL     1     -32.785  18.691  -0.557  1.00 20.00     0.015 C 
HETATM    9  O12 UNL     1     -33.369  16.993  -5.135  1.00 20.00    -0.292 OA
ENDROOT
BRANCH   7  10
HETATM   10  C11 UNL     1     -35.451  15.224  -4.439  1.00 20.00    -0.011 C 
HETATM   11  C9  UNL     1     -35.087  13.747  -4.571  1.00 20.00     0.010 C 
HETATM   12  C10 UNL     1     -36.936  15.386  -4.124  1.00 20.00     0.010 C 
ENDBRANCH   7  10
TORSDOF 1
ENDMDL
MODEL 4
REMARK VINA RESULT:      -4.8     10.667     11.918
REMARK  1 active torsions:
REMARK  status: ('A' for Active; 'I' for Inactive)
REMARK    1  A    between atoms: C7_7  and  C11_11 
ROOT
HETATM    1  C1  UNL     1     -34.319  14.982  -3.973  1.00 20.00    -0.018 C 
HETATM    2  C2  UNL     1     -35.490  14.235  -4.543  1.00 20.00     0.159 C 
HETATM    3  C3  UNL     1     -33.091  14.600  -4.349  1.00 20.00     0.023 C 
HETATM    4  C4  UNL     1     -35.632  17.103  -3.719  1.00 20.00     0.010 C 
HETATM    5  C5  UNL     1     -36.552  16.485  -4.781  1.00 20.00     0.013 C 
HETATM    6  C6  UNL     1     -34.694  16.095  -3.026  1.00 20.00     0.017 C 
HETATM    7  C7  UNL     1     -36.816  14.993  -4.552  1.00 20.00     0.063 C 
HETATM    8  C8  UNL     1     -33.525  16.832  -2.366  1.00 20.00     0.015 C 
HETATM    9  O12 UNL     1     -35.387  13.074  -4.932  1.00 20.00    -0.292 OA
ENDROOT
BRANCH   7  10
HETATM   10  C11 UNL     1     -37.750  14.446  -5.629  1.00 20.00    -0.011 C 
HETATM   11  C9  UNL     1     -39.198  14.829  -5.329  1.00 20.00     0.010 C 
HETATM   12  C10 UNL     1     -37.334  14.953  -7.008  1.00 20.00     0.010 C 
ENDBRANCH   7  10
TORSDOF 1
ENDMDL
MODEL 5
REMARK VINA RESULT:      -4.7     10.771     11.666
REMARK  1 active torsions:
REMARK  status: ('A' for Active; 'I' for Inactive)
REMARK    1  A    between atoms: C7_7  and  C11_11 
ROOT
HETATM    1  C1  UNL     1     -36.326  15.641  -4.670  1.00 20.00    -0.018 C 
HETATM    2  C2  UNL     1     -36.224  16.509  -3.449  1.00 20.00     0.159 C 
HETATM    3  C3  UNL     1     -37.036  16.103  -5.707  1.00 20.00     0.023 C 
HETATM    4  C4  UNL     1     -34.102  14.563  -4.246  1.00 20.00     0.010 C 
HETATM    5  C5  UNL     1     -33.823  15.815  -3.403  1.00 20.00     0.013 C 
HETATM    6  C6  UNL     1     -35.592  14.327  -4.560  1.00 20.00     0.017 C 
HETATM    7  C7  UNL     1     -35.020  16.242  -2.547  1.00 20.00     0.063 C 
HETATM    8  C8  UNL     1     -35.734  13.381  -5.756  1.00 20.00     0.015 C 
HETATM    9  O12 UNL     1     -37.082  17.346  -3.179  1.00 20.00    -0.292 OA
ENDROOT
BRANCH   7  10
HETATM   10  C11 UNL     1     -34.672  17.479  -1.721  1.00 20.00    -0.011 C 
HETATM   11  C9  UNL     1     -35.286  17.383  -0.327  1.00 20.00     0.010 C 
HETATM   12  C10 UNL     1     -33.158  17.654  -1.632  1.00 20.00     0.010 C 
ENDBRANCH   7  10
TORSDOF 1
ENDMDL
MODEL 6
REMARK VINA RESULT:      -4.6      1.124      4.071
REMARK  1 active torsions:
REMARK  status: ('A' for Active; 'I' for Inactive)
REMARK    1  A    between atoms: C7_7  and  C11_11 
ROOT
HETATM    1  C1  UNL     1     -32.344   7.986   3.459  1.00 20.00    -0.018 C 
HETATM    2  C2  UNL     1     -33.302   7.294   4.385  1.00 20.00     0.159 C 
HETATM    3  C3  UNL     1     -31.156   8.357   3.953  1.00 20.00     0.023 C 
HETATM    4  C4  UNL     1     -33.259   6.822   1.435  1.00 20.00     0.010 C 
HETATM    5  C5  UNL     1     -33.772   5.788   2.447  1.00 20.00     0.013 C 
HETATM    6  C6  UNL     1     -32.866   8.177   2.056  1.00 20.00     0.017 C 
HETATM    7  C7  UNL     1     -34.361   6.424   3.710  1.00 20.00     0.063 C 
HETATM    8  C8  UNL     1     -31.948   8.946   1.101  1.00 20.00     0.015 C 
HETATM    9  O12 UNL     1     -33.256   7.459   5.602  1.00 20.00    -0.292 OA
ENDROOT
BRANCH   7  10
HETATM   10  C11 UNL     1     -34.869   5.344   4.664  1.00 20.00    -0.011 C 
HETATM   11  C9  UNL     1     -34.163   4.017   4.395  1.00 20.00     0.010 C 
HETATM   12  C10 UNL     1     -34.670   5.775   6.115  1.00 20.00     0.010 C 
ENDBRANCH   7  10
TORSDOF 1
ENDMDL
MODEL 7
REMARK VINA RESULT:      -4.3     11.181     12.342
REMARK  1 active torsions:
REMARK  status: ('A' for Active; 'I' for Inactive)
REMARK    1  A    between atoms: C7_7  and  C11_11 
ROOT
HETATM    1  C1  UNL     1     -33.656  17.231  -4.443  1.00 20.00    -0.018 C 
HETATM    2  C2  UNL     1     -33.927  16.347  -5.626  1.00 20.00     0.159 C 
HETATM    3  C3  UNL     1     -33.381  18.521  -4.677  1.00 20.00     0.023 C 
HETATM    4  C4  UNL     1     -35.111  15.865  -2.925  1.00 20.00     0.010 C 
HETATM    5  C5  UNL     1     -35.763  15.384  -4.229  1.00 20.00     0.013 C 
HETATM    6  C6  UNL     1     -33.732  16.526  -3.111  1.00 20.00     0.017 C 
HETATM    7  C7  UNL     1     -34.746  15.090  -5.336  1.00 20.00     0.063 C 
HETATM    8  C8  UNL     1     -33.388  17.377  -1.885  1.00 20.00     0.015 C 
HETATM    9  O12 UNL     1     -33.478  16.604  -6.740  1.00 20.00    -0.292 OA
ENDROOT
BRANCH   7  10
HETATM   10  C11 UNL     1     -35.456  14.599  -6.596  1.00 20.00    -0.011 C 
HETATM   11  C9  UNL     1     -34.784  13.338  -7.134  1.00 20.00     0.010 C 
HETATM   12  C10 UNL     1     -36.934  14.343  -6.313  1.00 20.00     0.010 C 
ENDBRANCH   7  10
TORSDOF 1
ENDMDL
MODEL 8
REMARK VINA RESULT:      -4.3     10.953     11.645
REMARK  1 active torsions:
REMARK  status: ('A' for Active; 'I' for Inactive)
REMARK    1  A    between atoms: C7_7  and  C11_11 
ROOT
HETATM    1  C1  UNL     1     -34.132  16.971  -1.984  1.00 20.00    -0.018 C 
HETATM    2  C2  UNL     1     -34.343  16.061  -3.158  1.00 20.00     0.159 C 
HETATM    3  C3  UNL     1     -32.941  17.574  -1.866  1.00 20.00     0.023 C 
HETATM    4  C4  UNL     1     -36.563  17.571  -1.848  1.00 20.00     0.010 C 
HETATM    5  C5  UNL     1     -36.603  17.117  -3.313  1.00 20.00     0.013 C 
HETATM    6  C6  UNL     1     -35.325  17.088  -1.067  1.00 20.00     0.017 C 
HETATM    7  C7  UNL     1     -35.798  15.838  -3.569  1.00 20.00     0.063 C 
HETATM    8  C8  UNL     1     -35.123  17.950   0.184  1.00 20.00     0.015 C 
HETATM    9  O12 UNL     1     -33.403  15.501  -3.718  1.00 20.00    -0.292 OA
ENDROOT
BRANCH   7  10
HETATM   10  C11 UNL     1     -35.895  15.432  -5.037  1.00 20.00    -0.011 C 
HETATM   11  C9  UNL     1     -36.736  14.166  -5.189  1.00 20.00     0.010 C 
HETATM   12  C10 UNL     1     -36.479  16.569  -5.871  1.00 20.00     0.010 C 
ENDBRANCH   7  10
TORSDOF 1
ENDMDL
MODEL 9
REMARK VINA RESULT:      -4.3     10.973     12.379
REMARK  1 active torsions:
REMARK  status: ('A' for Active; 'I' for Inactive)
REMARK    1  A    between atoms: C7_7  and  C11_11 
ROOT
HETATM    1  C1  UNL     1     -34.567  16.338  -6.006  1.00 20.00    -0.018 C 
HETATM    2  C2  UNL     1     -34.953  17.124  -4.787  1.00 20.00     0.159 C 
HETATM    3  C3  UNL     1     -34.227  17.021  -7.107  1.00 20.00     0.023 C 
HETATM    4  C4  UNL     1     -33.709  14.410  -4.651  1.00 20.00     0.010 C 
HETATM    5  C5  UNL     1     -33.595  15.447  -3.525  1.00 20.00     0.013 C 
HETATM    6  C6  UNL     1     -34.615  14.842  -5.821  1.00 20.00     0.017 C 
HETATM    7  C7  UNL     1     -34.799  16.392  -3.454  1.00 20.00     0.063 C 
HETATM    8  C8  UNL     1     -34.300  14.005  -7.065  1.00 20.00     0.015 C 
HETATM    9  O12 UNL     1     -35.405  18.263  -4.869  1.00 20.00    -0.292 OA
ENDROOT
BRANCH   7  10
HETATM   10  C11 UNL     1     -34.632  17.383  -2.304  1.00 20.00    -0.011 C 
HETATM   11  C9  UNL     1     -35.477  16.960  -1.105  1.00 20.00     0.010 C 
HETATM   12  C10 UNL     1     -33.162  17.505  -1.910  1.00 20.00     0.010 C 
ENDBRANCH   7  10
TORSDOF 1
ENDMDL
