MODEL 1
REMARK VINA RESULT:      -2.6      0.000      0.000
REMARK  2 active torsions:
REMARK  status: ('A' for Active; 'I' for Inactive)
REMARK    1  A    between atoms: P5_5  and  P6_6 
REMARK    2  A    between atoms: P5_5  and  S8_8 
ROOT
HETATM    1  C1  UNL     1     -32.973  15.473  -5.076  1.00 20.00     0.061 C 
HETATM    2  P5  UNL     1     -34.416  14.675  -4.284  1.00 20.00    -0.021 P 
ENDROOT
BRANCH   2   3
HETATM    3  P6  UNL     1     -35.842  14.578  -5.893  1.00 20.00    -0.027 P 
HETATM    4  C2  UNL     1     -37.475  14.253  -5.228  1.00 20.00     0.060 C 
HETATM    5  C3  UNL     1     -35.996  16.258  -6.517  1.00 20.00     0.060 C 
HETATM    6  S7  UNL     1     -35.236  13.298  -7.230  1.00 20.00    -0.092 SA
ENDBRANCH   2   3
BRANCH   2   7
HETATM    7  S8  UNL     1     -35.199  16.241  -3.110  1.00 20.00    -0.137 SA
HETATM    8  C4  UNL     1     -33.803  16.952  -2.214  1.00 20.00     0.095 C 
ENDBRANCH   2   7
TORSDOF 2
ENDMDL
MODEL 2
REMARK VINA RESULT:      -2.6      1.591      1.958
REMARK  2 active torsions:
REMARK  status: ('A' for Active; 'I' for Inactive)
REMARK    1  A    between atoms: P5_5  and  P6_6 
REMARK    2  A    between atoms: P5_5  and  S8_8 
ROOT
HETATM    1  C1  UNL     1     -32.949  15.495  -5.116  1.00 20.00     0.061 C 
HETATM    2  P5  UNL     1     -34.391  14.687  -4.332  1.00 20.00    -0.021 P 
ENDROOT
BRANCH   2   3
HETATM    3  P6  UNL     1     -35.824  14.624  -5.936  1.00 20.00    -0.027 P 
HETATM    4  C2  UNL     1     -35.596  16.049  -7.000  1.00 20.00     0.060 C 
HETATM    5  C3  UNL     1     -35.321  13.257  -6.993  1.00 20.00     0.060 C 
HETATM    6  S7  UNL     1     -37.619  14.430  -5.205  1.00 20.00    -0.092 SA
ENDBRANCH   2   3
BRANCH   2   7
HETATM    7  S8  UNL     1     -35.163  16.233  -3.126  1.00 20.00    -0.137 SA
HETATM    8  C4  UNL     1     -33.755  16.947  -2.251  1.00 20.00     0.095 C 
ENDBRANCH   2   7
TORSDOF 2
ENDMDL
MODEL 3
REMARK VINA RESULT:      -2.6      2.012      4.202
REMARK  2 active torsions:
REMARK  status: ('A' for Active; 'I' for Inactive)
REMARK    1  A    between atoms: P5_5  and  P6_6 
REMARK    2  A    between atoms: P5_5  and  S8_8 
ROOT
HETATM    1  C1  UNL     1     -36.728  16.571  -5.678  1.00 20.00     0.061 C 
HETATM    2  P5  UNL     1     -36.159  15.484  -4.321  1.00 20.00    -0.021 P 
ENDROOT
BRANCH   2   3
HETATM    3  P6  UNL     1     -34.087  16.029  -4.120  1.00 20.00    -0.027 P 
HETATM    4  C2  UNL     1     -33.058  14.586  -4.391  1.00 20.00     0.060 C 
HETATM    5  C3  UNL     1     -33.707  17.059  -5.546  1.00 20.00     0.060 C 
HETATM    6  S7  UNL     1     -33.806  16.922  -2.412  1.00 20.00    -0.092 SA
ENDBRANCH   2   3
BRANCH   2   7
HETATM    7  S8  UNL     1     -36.020  13.613  -5.282  1.00 20.00    -0.137 SA
HETATM    8  C4  UNL     1     -35.706  13.959  -7.026  1.00 20.00     0.095 C 
ENDBRANCH   2   7
TORSDOF 2
ENDMDL
MODEL 4
REMARK VINA RESULT:      -2.6      1.963      2.299
REMARK  2 active torsions:
REMARK  status: ('A' for Active; 'I' for Inactive)
REMARK    1  A    between atoms: P5_5  and  P6_6 
REMARK    2  A    between atoms: P5_5  and  S8_8 
ROOT
HETATM    1  C1  UNL     1     -33.804  17.501  -5.765  1.00 20.00     0.061 C 
HETATM    2  P5  UNL     1     -33.697  15.795  -5.113  1.00 20.00    -0.021 P 
ENDROOT
BRANCH   2   3
HETATM    3  P6  UNL     1     -35.179  14.754  -6.276  1.00 20.00    -0.027 P 
HETATM    4  C2  UNL     1     -34.367  13.747  -7.518  1.00 20.00     0.060 C 
HETATM    5  C3  UNL     1     -35.894  13.523  -5.175  1.00 20.00     0.060 C 
HETATM    6  S7  UNL     1     -36.476  16.026  -6.977  1.00 20.00    -0.092 SA
ENDBRANCH   2   3
BRANCH   2   7
HETATM    7  S8  UNL     1     -34.663  15.973  -3.247  1.00 20.00    -0.137 SA
HETATM    8  C4  UNL     1     -33.613  17.033  -2.231  1.00 20.00     0.095 C 
ENDBRANCH   2   7
TORSDOF 2
ENDMDL
MODEL 5
REMARK VINA RESULT:      -2.6      1.835      2.904
REMARK  2 active torsions:
REMARK  status: ('A' for Active; 'I' for Inactive)
REMARK    1  A    between atoms: P5_5  and  P6_6 
REMARK    2  A    between atoms: P5_5  and  S8_8 
ROOT
HETATM    1  C1  UNL     1     -36.897  16.218  -3.821  1.00 20.00     0.061 C 
HETATM    2  P5  UNL     1     -35.231  16.720  -4.386  1.00 20.00    -0.021 P 
ENDROOT
BRANCH   2   3
HETATM    3  P6  UNL     1     -34.500  14.935  -5.339  1.00 20.00    -0.027 P 
HETATM    4  C2  UNL     1     -33.835  15.346  -6.953  1.00 20.00     0.060 C 
HETATM    5  C3  UNL     1     -33.032  14.450  -4.418  1.00 20.00     0.060 C 
HETATM    6  S7  UNL     1     -35.898  13.579  -5.354  1.00 20.00    -0.092 SA
ENDBRANCH   2   3
BRANCH   2   7
HETATM    7  S8  UNL     1     -34.136  16.725  -2.584  1.00 20.00    -0.137 SA
HETATM    8  C4  UNL     1     -35.338  16.968  -1.260  1.00 20.00     0.095 C 
ENDBRANCH   2   7
TORSDOF 2
ENDMDL
MODEL 6
REMARK VINA RESULT:      -2.6      1.801      2.081
REMARK  2 active torsions:
REMARK  status: ('A' for Active; 'I' for Inactive)
REMARK    1  A    between atoms: P5_5  and  P6_6 
REMARK    2  A    between atoms: P5_5  and  S8_8 
ROOT
HETATM    1  C1  UNL     1     -33.957  17.698  -5.768  1.00 20.00     0.061 C 
HETATM    2  P5  UNL     1     -33.637  15.961  -5.293  1.00 20.00    -0.021 P 
ENDROOT
BRANCH   2   3
HETATM    3  P6  UNL     1     -35.049  14.876  -6.500  1.00 20.00    -0.027 P 
HETATM    4  C2  UNL     1     -36.130  16.032  -7.344  1.00 20.00     0.060 C 
HETATM    5  C3  UNL     1     -34.099  14.165  -7.853  1.00 20.00     0.060 C 
HETATM    6  S7  UNL     1     -35.966  13.551  -5.407  1.00 20.00    -0.092 SA
ENDBRANCH   2   3
BRANCH   2   7
HETATM    7  S8  UNL     1     -34.527  15.852  -3.386  1.00 20.00    -0.137 SA
HETATM    8  C4  UNL     1     -33.616  16.999  -2.333  1.00 20.00     0.095 C 
ENDBRANCH   2   7
TORSDOF 2
ENDMDL
MODEL 7
REMARK VINA RESULT:      -2.5      1.896      2.071
REMARK  2 active torsions:
REMARK  status: ('A' for Active; 'I' for Inactive)
REMARK    1  A    between atoms: P5_5  and  P6_6 
REMARK    2  A    between atoms: P5_5  and  S8_8 
ROOT
HETATM    1  C1  UNL     1     -32.933  14.431  -4.336  1.00 20.00     0.061 C 
HETATM    2  P5  UNL     1     -34.760  14.411  -4.425  1.00 20.00    -0.021 P 
ENDROOT
BRANCH   2   3
HETATM    3  P6  UNL     1     -35.137  14.970  -6.468  1.00 20.00    -0.027 P 
HETATM    4  C2  UNL     1     -34.417  13.749  -7.567  1.00 20.00     0.060 C 
HETATM    5  C3  UNL     1     -36.903  14.740  -6.725  1.00 20.00     0.060 C 
HETATM    6  S7  UNL     1     -34.534  16.797  -6.772  1.00 20.00    -0.092 SA
ENDBRANCH   2   3
BRANCH   2   7
HETATM    7  S8  UNL     1     -35.273  16.178  -3.394  1.00 20.00    -0.137 SA
HETATM    8  C4  UNL     1     -33.753  16.779  -2.629  1.00 20.00     0.095 C 
ENDBRANCH   2   7
TORSDOF 2
ENDMDL
MODEL 8
REMARK VINA RESULT:      -2.5      2.526      4.460
REMARK  2 active torsions:
REMARK  status: ('A' for Active; 'I' for Inactive)
REMARK    1  A    between atoms: P5_5  and  P6_6 
REMARK    2  A    between atoms: P5_5  and  S8_8 
ROOT
HETATM    1  C1  UNL     1     -34.515  14.168  -4.262  1.00 20.00     0.061 C 
HETATM    2  P5  UNL     1     -33.323  15.447  -4.801  1.00 20.00    -0.021 P 
ENDROOT
BRANCH   2   3
HETATM    3  P6  UNL     1     -34.116  17.236  -3.908  1.00 20.00    -0.027 P 
HETATM    4  C2  UNL     1     -33.356  18.673  -4.667  1.00 20.00     0.060 C 
HETATM    5  C3  UNL     1     -35.823  17.351  -4.465  1.00 20.00     0.060 C 
HETATM    6  S7  UNL     1     -33.929  17.142  -1.971  1.00 20.00    -0.092 SA
ENDBRANCH   2   3
BRANCH   2   7
HETATM    7  S8  UNL     1     -33.844  15.711  -6.827  1.00 20.00    -0.137 SA
HETATM    8  C4  UNL     1     -34.275  14.076  -7.458  1.00 20.00     0.095 C 
ENDBRANCH   2   7
TORSDOF 2
ENDMDL
MODEL 9
REMARK VINA RESULT:      -2.5      1.545      4.256
REMARK  2 active torsions:
REMARK  status: ('A' for Active; 'I' for Inactive)
REMARK    1  A    between atoms: P5_5  and  P6_6 
REMARK    2  A    between atoms: P5_5  and  S8_8 
ROOT
HETATM    1  C1  UNL     1     -37.383  14.443  -4.951  1.00 20.00     0.061 C 
HETATM    2  P5  UNL     1     -35.605  14.013  -4.923  1.00 20.00    -0.021 P 
ENDROOT
BRANCH   2   3
HETATM    3  P6  UNL     1     -34.656  15.942  -4.840  1.00 20.00    -0.027 P 
HETATM    4  C2  UNL     1     -33.994  16.215  -3.196  1.00 20.00     0.060 C 
HETATM    5  C3  UNL     1     -33.170  15.805  -5.846  1.00 20.00     0.060 C 
HETATM    6  S7  UNL     1     -35.896  17.311  -5.458  1.00 20.00    -0.092 SA
ENDBRANCH   2   3
BRANCH   2   7
HETATM    7  S8  UNL     1     -35.255  13.447  -6.924  1.00 20.00    -0.137 SA
HETATM    8  C4  UNL     1     -36.515  14.278  -7.914  1.00 20.00     0.095 C 
ENDBRANCH   2   7
TORSDOF 2
ENDMDL
