MODEL 1
REMARK VINA RESULT:      -5.8      0.000      0.000
REMARK  2 active torsions:
REMARK  status: ('A' for Active; 'I' for Inactive)
REMARK    1  A    between atoms: C1_1  and  C3_3 
REMARK    2  A    between atoms: C2_2  and  C8_8 
ROOT
HETATM    1  C1  UNL     1     -33.019   6.890   3.125  1.00 20.00     0.052 C 
HETATM    2  C2  UNL     1     -33.639   6.672   4.301  1.00 20.00    -0.077 C 
HETATM    3  C4  UNL     1     -33.535   7.582   5.498  1.00 20.00     0.044 C 
ENDROOT
BRANCH   2   4
HETATM    4  C8  UNL     1     -34.520   5.433   4.452  1.00 20.00     0.006 C 
HETATM    5  C6  UNL     1     -33.976   4.238   3.664  1.00 20.00     0.014 C 
HETATM    6  C7  UNL     1     -34.737   5.061   5.922  1.00 20.00     0.014 C 
ENDBRANCH   2   4
BRANCH   1   7
HETATM    7  C3  UNL     1     -32.138   8.051   2.813  1.00 20.00     0.145 C 
HETATM    8  C5  UNL     1     -32.506   8.863   1.599  1.00 20.00     0.096 C 
HETATM    9  O9  UNL     1     -31.138   8.314   3.475  1.00 20.00    -0.294 OA
ENDBRANCH   1   7
TORSDOF 2
ENDMDL
MODEL 2
REMARK VINA RESULT:      -5.6      0.947      1.471
REMARK  2 active torsions:
REMARK  status: ('A' for Active; 'I' for Inactive)
REMARK    1  A    between atoms: C1_1  and  C3_3 
REMARK    2  A    between atoms: C2_2  and  C8_8 
ROOT
HETATM    1  C1  UNL     1     -33.111   7.573   3.618  1.00 20.00     0.052 C 
HETATM    2  C2  UNL     1     -33.514   6.290   3.538  1.00 20.00    -0.077 C 
HETATM    3  C4  UNL     1     -32.986   5.293   2.538  1.00 20.00     0.044 C 
ENDROOT
BRANCH   2   4
HETATM    4  C8  UNL     1     -34.567   5.784   4.523  1.00 20.00     0.006 C 
HETATM    5  C6  UNL     1     -34.571   4.257   4.631  1.00 20.00     0.014 C 
HETATM    6  C7  UNL     1     -34.413   6.426   5.904  1.00 20.00     0.014 C 
ENDBRANCH   2   4
BRANCH   1   7
HETATM    7  C3  UNL     1     -32.090   8.215   2.742  1.00 20.00     0.145 C 
HETATM    8  C5  UNL     1     -32.584   8.766   1.431  1.00 20.00     0.096 C 
HETATM    9  O9  UNL     1     -30.899   8.256   3.042  1.00 20.00    -0.294 OA
ENDBRANCH   1   7
TORSDOF 2
ENDMDL
MODEL 3
REMARK VINA RESULT:      -5.4      1.605      2.386
REMARK  2 active torsions:
REMARK  status: ('A' for Active; 'I' for Inactive)
REMARK    1  A    between atoms: C1_1  and  C3_3 
REMARK    2  A    between atoms: C2_2  and  C8_8 
ROOT
HETATM    1  C1  UNL     1     -32.902   7.977   2.045  1.00 20.00     0.052 C 
HETATM    2  C2  UNL     1     -32.553   7.700   3.317  1.00 20.00    -0.077 C 
HETATM    3  C4  UNL     1     -31.396   8.340   4.040  1.00 20.00     0.044 C 
ENDROOT
BRANCH   2   4
HETATM    4  C8  UNL     1     -33.377   6.680   4.103  1.00 20.00     0.006 C 
HETATM    5  C6  UNL     1     -33.771   7.201   5.488  1.00 20.00     0.014 C 
HETATM    6  C7  UNL     1     -34.611   6.219   3.324  1.00 20.00     0.014 C 
ENDBRANCH   2   4
BRANCH   1   7
HETATM    7  C3  UNL     1     -32.212   8.949   1.151  1.00 20.00     0.145 C 
HETATM    8  C5  UNL     1     -32.822  10.323   1.060  1.00 20.00     0.096 C 
HETATM    9  O9  UNL     1     -31.227   8.644   0.484  1.00 20.00    -0.294 OA
ENDBRANCH   1   7
TORSDOF 2
ENDMDL
MODEL 4
REMARK VINA RESULT:      -5.1      1.908      4.502
REMARK  2 active torsions:
REMARK  status: ('A' for Active; 'I' for Inactive)
REMARK    1  A    between atoms: C1_1  and  C3_3 
REMARK    2  A    between atoms: C2_2  and  C8_8 
ROOT
HETATM    1  C1  UNL     1     -33.229   7.315   1.927  1.00 20.00     0.052 C 
HETATM    2  C2  UNL     1     -32.328   8.297   2.121  1.00 20.00    -0.077 C 
HETATM    3  C4  UNL     1     -31.409   8.385   3.311  1.00 20.00     0.044 C 
ENDROOT
BRANCH   2   4
HETATM    4  C8  UNL     1     -32.204   9.402   1.072  1.00 20.00     0.006 C 
HETATM    5  C6  UNL     1     -32.875   9.022  -0.250  1.00 20.00     0.014 C 
HETATM    6  C7  UNL     1     -32.737  10.742   1.587  1.00 20.00     0.014 C 
ENDBRANCH   2   4
BRANCH   1   7
HETATM    7  C3  UNL     1     -33.466   6.165   2.845  1.00 20.00     0.145 C 
HETATM    8  C5  UNL     1     -34.435   6.398   3.974  1.00 20.00     0.096 C 
HETATM    9  O9  UNL     1     -32.873   5.095   2.725  1.00 20.00    -0.294 OA
ENDBRANCH   1   7
TORSDOF 2
ENDMDL
MODEL 5
REMARK VINA RESULT:      -5.1      2.051      4.311
REMARK  2 active torsions:
REMARK  status: ('A' for Active; 'I' for Inactive)
REMARK    1  A    between atoms: C1_1  and  C3_3 
REMARK    2  A    between atoms: C2_2  and  C8_8 
ROOT
HETATM    1  C1  UNL     1     -33.824   6.893   3.960  1.00 20.00     0.052 C 
HETATM    2  C2  UNL     1     -32.936   6.607   2.988  1.00 20.00    -0.077 C 
HETATM    3  C4  UNL     1     -32.865   5.288   2.262  1.00 20.00     0.044 C 
ENDROOT
BRANCH   2   4
HETATM    4  C8  UNL     1     -31.931   7.679   2.568  1.00 20.00     0.006 C 
HETATM    5  C6  UNL     1     -32.517   8.647   1.537  1.00 20.00     0.014 C 
HETATM    6  C7  UNL     1     -31.371   8.440   3.772  1.00 20.00     0.014 C 
ENDBRANCH   2   4
BRANCH   1   7
HETATM    7  C3  UNL     1     -34.871   5.966   4.475  1.00 20.00     0.145 C 
HETATM    8  C5  UNL     1     -34.571   5.276   5.780  1.00 20.00     0.096 C 
HETATM    9  O9  UNL     1     -35.905   5.733   3.855  1.00 20.00    -0.294 OA
ENDBRANCH   1   7
TORSDOF 2
ENDMDL
MODEL 6
REMARK VINA RESULT:      -5.0      1.485      4.470
REMARK  2 active torsions:
REMARK  status: ('A' for Active; 'I' for Inactive)
REMARK    1  A    between atoms: C1_1  and  C3_3 
REMARK    2  A    between atoms: C2_2  and  C8_8 
ROOT
HETATM    1  C1  UNL     1     -33.732   7.516   3.038  1.00 20.00     0.052 C 
HETATM    2  C2  UNL     1     -32.612   8.157   2.654  1.00 20.00    -0.077 C 
HETATM    3  C4  UNL     1     -31.353   8.238   3.478  1.00 20.00     0.044 C 
ENDROOT
BRANCH   2   4
HETATM    4  C8  UNL     1     -32.587   8.847   1.290  1.00 20.00     0.006 C 
HETATM    5  C6  UNL     1     -32.878  10.347   1.397  1.00 20.00     0.014 C 
HETATM    6  C7  UNL     1     -31.271   8.601   0.548  1.00 20.00     0.014 C 
ENDBRANCH   2   4
BRANCH   1   7
HETATM    7  C3  UNL     1     -33.913   6.787   4.326  1.00 20.00     0.145 C 
HETATM    8  C5  UNL     1     -34.410   5.369   4.228  1.00 20.00     0.096 C 
HETATM    9  O9  UNL     1     -33.717   7.319   5.415  1.00 20.00    -0.294 OA
ENDBRANCH   1   7
TORSDOF 2
ENDMDL
MODEL 7
REMARK VINA RESULT:      -4.5      1.074      1.635
REMARK  2 active torsions:
REMARK  status: ('A' for Active; 'I' for Inactive)
REMARK    1  A    between atoms: C1_1  and  C3_3 
REMARK    2  A    between atoms: C2_2  and  C8_8 
ROOT
HETATM    1  C1  UNL     1     -33.109   7.077   2.900  1.00 20.00     0.052 C 
HETATM    2  C2  UNL     1     -33.577   6.789   4.130  1.00 20.00    -0.077 C 
HETATM    3  C4  UNL     1     -33.316   7.625   5.357  1.00 20.00     0.044 C 
ENDROOT
BRANCH   2   4
HETATM    4  C8  UNL     1     -34.441   5.542   4.318  1.00 20.00     0.006 C 
HETATM    5  C6  UNL     1     -34.569   5.144   5.791  1.00 20.00     0.014 C 
HETATM    6  C7  UNL     1     -35.822   5.702   3.676  1.00 20.00     0.014 C 
ENDBRANCH   2   4
BRANCH   1   7
HETATM    7  C3  UNL     1     -32.266   8.255   2.550  1.00 20.00     0.145 C 
HETATM    8  C5  UNL     1     -30.978   8.407   3.315  1.00 20.00     0.096 C 
HETATM    9  O9  UNL     1     -32.614   9.089   1.718  1.00 20.00    -0.294 OA
ENDBRANCH   1   7
TORSDOF 2
ENDMDL
MODEL 8
REMARK VINA RESULT:      -4.3     11.703     12.279
REMARK  2 active torsions:
REMARK  status: ('A' for Active; 'I' for Inactive)
REMARK    1  A    between atoms: C1_1  and  C3_3 
REMARK    2  A    between atoms: C2_2  and  C8_8 
ROOT
HETATM    1  C1  UNL     1     -35.869  14.824  -4.254  1.00 20.00     0.052 C 
HETATM    2  C2  UNL     1     -34.729  15.317  -3.733  1.00 20.00    -0.077 C 
HETATM    3  C4  UNL     1     -33.349  14.987  -4.242  1.00 20.00     0.044 C 
ENDROOT
BRANCH   2   4
HETATM    4  C8  UNL     1     -34.814  16.287  -2.554  1.00 20.00     0.006 C 
HETATM    5  C6  UNL     1     -33.534  17.110  -2.390  1.00 20.00     0.014 C 
HETATM    6  C7  UNL     1     -36.039  17.200  -2.653  1.00 20.00     0.014 C 
ENDBRANCH   2   4
BRANCH   1   7
HETATM    7  C3  UNL     1     -35.958  13.882  -5.405  1.00 20.00     0.145 C 
HETATM    8  C5  UNL     1     -36.221  14.496  -6.754  1.00 20.00     0.096 C 
HETATM    9  O9  UNL     1     -35.869  12.665  -5.266  1.00 20.00    -0.294 OA
ENDBRANCH   1   7
TORSDOF 2
ENDMDL
MODEL 9
REMARK VINA RESULT:      -4.3      2.079      4.156
REMARK  2 active torsions:
REMARK  status: ('A' for Active; 'I' for Inactive)
REMARK    1  A    between atoms: C1_1  and  C3_3 
REMARK    2  A    between atoms: C2_2  and  C8_8 
ROOT
HETATM    1  C1  UNL     1     -33.761   5.827   3.640  1.00 20.00     0.052 C 
HETATM    2  C2  UNL     1     -33.372   7.030   4.106  1.00 20.00    -0.077 C 
HETATM    3  C4  UNL     1     -33.460   7.453   5.549  1.00 20.00     0.044 C 
ENDROOT
BRANCH   2   4
HETATM    4  C8  UNL     1     -32.789   8.047   3.125  1.00 20.00     0.006 C 
HETATM    5  C6  UNL     1     -31.345   8.420   3.470  1.00 20.00     0.014 C 
HETATM    6  C7  UNL     1     -32.896   7.569   1.675  1.00 20.00     0.014 C 
ENDBRANCH   2   4
BRANCH   1   7
HETATM    7  C3  UNL     1     -34.337   4.726   4.464  1.00 20.00     0.145 C 
HETATM    8  C5  UNL     1     -34.831   5.105   5.835  1.00 20.00     0.096 C 
HETATM    9  O9  UNL     1     -34.368   3.562   4.076  1.00 20.00    -0.294 OA
ENDBRANCH   1   7
TORSDOF 2
ENDMDL
