MODEL 1
REMARK VINA RESULT:      -5.0      0.000      0.000
REMARK  1 active torsions:
REMARK  status: ('A' for Active; 'I' for Inactive)
REMARK    1  A    between atoms: C1_1  and  C2_2 
ROOT
HETATM    1  C2  UNL     1     -34.474   5.685   4.020  1.00 20.00     0.395 C 
HETATM    2  F4  UNL     1     -33.861   4.888   3.106  1.00 20.00    -0.178 F 
HETATM    3  F5  UNL     1     -35.722   5.929   3.538  1.00 20.00    -0.178 F 
HETATM    4 CL7  UNL     1     -34.607   4.827   5.564  1.00 20.00    -0.038 Cl
ENDROOT
BRANCH   1   5
HETATM    5  C1  UNL     1     -33.730   6.971   4.269  1.00 20.00     0.307 C 
HETATM    6  O3  UNL     1     -33.261   7.625   3.341  1.00 20.00    -0.272 OA
HETATM    7 CL6  UNL     1     -33.665   7.411   5.951  1.00 20.00    -0.036 Cl
ENDBRANCH   1   5
TORSDOF 1
ENDMDL
MODEL 2
REMARK VINA RESULT:      -4.9      1.860      1.955
REMARK  1 active torsions:
REMARK  status: ('A' for Active; 'I' for Inactive)
REMARK    1  A    between atoms: C1_1  and  C2_2 
ROOT
HETATM    1  C2  UNL     1     -34.642   5.470   4.269  1.00 20.00     0.395 C 
HETATM    2  F4  UNL     1     -34.793   4.161   4.605  1.00 20.00    -0.178 F 
HETATM    3  F5  UNL     1     -35.847   5.882   3.793  1.00 20.00    -0.178 F 
HETATM    4 CL7  UNL     1     -34.235   6.411   5.713  1.00 20.00    -0.038 Cl
ENDROOT
BRANCH   1   5
HETATM    5  C1  UNL     1     -33.554   5.691   3.252  1.00 20.00     0.307 C 
HETATM    6  O3  UNL     1     -33.059   4.752   2.634  1.00 20.00    -0.272 OA
HETATM    7 CL6  UNL     1     -33.145   7.369   3.041  1.00 20.00    -0.036 Cl
ENDBRANCH   1   5
TORSDOF 1
ENDMDL
MODEL 3
REMARK VINA RESULT:      -4.9      1.230      1.518
REMARK  1 active torsions:
REMARK  status: ('A' for Active; 'I' for Inactive)
REMARK    1  A    between atoms: C1_1  and  C2_2 
ROOT
HETATM    1  C2  UNL     1     -34.799   5.563   4.576  1.00 20.00     0.395 C 
HETATM    2  F4  UNL     1     -35.943   5.786   3.877  1.00 20.00    -0.178 F 
HETATM    3  F5  UNL     1     -35.169   5.425   5.878  1.00 20.00    -0.178 F 
HETATM    4 CL7  UNL     1     -34.050   4.056   4.024  1.00 20.00    -0.038 Cl
ENDROOT
BRANCH   1   5
HETATM    5  C1  UNL     1     -33.788   6.667   4.415  1.00 20.00     0.307 C 
HETATM    6  O3  UNL     1     -33.305   6.933   3.317  1.00 20.00    -0.272 OA
HETATM    7 CL6  UNL     1     -33.446   7.505   5.901  1.00 20.00    -0.036 Cl
ENDBRANCH   1   5
TORSDOF 1
ENDMDL
MODEL 4
REMARK VINA RESULT:      -4.8      1.416      1.416
REMARK  1 active torsions:
REMARK  status: ('A' for Active; 'I' for Inactive)
REMARK    1  A    between atoms: C1_1  and  C2_2 
ROOT
HETATM    1  C2  UNL     1     -34.435   5.711   4.084  1.00 20.00     0.395 C 
HETATM    2  F4  UNL     1     -33.790   5.020   3.107  1.00 20.00    -0.178 F 
HETATM    3  F5  UNL     1     -35.676   5.987   3.598  1.00 20.00    -0.178 F 
HETATM    4 CL7  UNL     1     -34.590   4.696   5.527  1.00 20.00    -0.038 Cl
ENDROOT
BRANCH   1   5
HETATM    5  C1  UNL     1     -33.717   6.973   4.481  1.00 20.00     0.307 C 
HETATM    6  O3  UNL     1     -33.840   7.448   5.607  1.00 20.00    -0.272 OA
HETATM    7 CL6  UNL     1     -32.706   7.613   3.217  1.00 20.00    -0.036 Cl
ENDBRANCH   1   5
TORSDOF 1
ENDMDL
MODEL 5
REMARK VINA RESULT:      -4.8      2.095      2.179
REMARK  1 active torsions:
REMARK  status: ('A' for Active; 'I' for Inactive)
REMARK    1  A    between atoms: C1_1  and  C2_2 
ROOT
HETATM    1  C2  UNL     1     -34.445   6.181   3.754  1.00 20.00     0.395 C 
HETATM    2  F4  UNL     1     -34.081   7.445   3.409  1.00 20.00    -0.178 F 
HETATM    3  F5  UNL     1     -35.724   6.021   3.317  1.00 20.00    -0.178 F 
HETATM    4 CL7  UNL     1     -33.400   5.015   2.927  1.00 20.00    -0.038 Cl
ENDROOT
BRANCH   1   5
HETATM    5  C1  UNL     1     -34.343   5.925   5.234  1.00 20.00     0.307 C 
HETATM    6  O3  UNL     1     -34.622   4.828   5.711  1.00 20.00    -0.272 OA
HETATM    7 CL6  UNL     1     -33.763   7.300   6.129  1.00 20.00    -0.036 Cl
ENDBRANCH   1   5
TORSDOF 1
ENDMDL
MODEL 6
REMARK VINA RESULT:      -4.8      1.920      2.427
REMARK  1 active torsions:
REMARK  status: ('A' for Active; 'I' for Inactive)
REMARK    1  A    between atoms: C1_1  and  C2_2 
ROOT
HETATM    1  C2  UNL     1     -34.346   5.856   3.787  1.00 20.00     0.395 C 
HETATM    2  F4  UNL     1     -35.593   6.001   3.266  1.00 20.00    -0.178 F 
HETATM    3  F5  UNL     1     -33.853   4.695   3.277  1.00 20.00    -0.178 F 
HETATM    4 CL7  UNL     1     -33.322   7.202   3.262  1.00 20.00    -0.038 Cl
ENDROOT
BRANCH   1   5
HETATM    5  C1  UNL     1     -34.339   5.830   5.293  1.00 20.00     0.307 C 
HETATM    6  O3  UNL     1     -34.669   4.823   5.914  1.00 20.00    -0.272 OA
HETATM    7 CL6  UNL     1     -33.787   7.321   6.001  1.00 20.00    -0.036 Cl
ENDBRANCH   1   5
TORSDOF 1
ENDMDL
MODEL 7
REMARK VINA RESULT:      -4.8      2.107      2.673
REMARK  1 active torsions:
REMARK  status: ('A' for Active; 'I' for Inactive)
REMARK    1  A    between atoms: C1_1  and  C2_2 
ROOT
HETATM    1  C2  UNL     1     -33.610   5.687   3.025  1.00 20.00     0.395 C 
HETATM    2  F4  UNL     1     -34.512   5.912   2.033  1.00 20.00    -0.178 F 
HETATM    3  F5  UNL     1     -32.747   4.750   2.549  1.00 20.00    -0.178 F 
HETATM    4 CL7  UNL     1     -32.717   7.178   3.367  1.00 20.00    -0.038 Cl
ENDROOT
BRANCH   1   5
HETATM    5  C1  UNL     1     -34.253   5.228   4.307  1.00 20.00     0.307 C 
HETATM    6  O3  UNL     1     -34.686   4.086   4.430  1.00 20.00    -0.272 OA
HETATM    7 CL6  UNL     1     -34.258   6.451   5.545  1.00 20.00    -0.036 Cl
ENDBRANCH   1   5
TORSDOF 1
ENDMDL
MODEL 8
REMARK VINA RESULT:      -4.8      1.990      2.191
REMARK  1 active torsions:
REMARK  status: ('A' for Active; 'I' for Inactive)
REMARK    1  A    between atoms: C1_1  and  C2_2 
ROOT
HETATM    1  C2  UNL     1     -34.536   5.859   4.103  1.00 20.00     0.395 C 
HETATM    2  F4  UNL     1     -35.767   6.033   3.552  1.00 20.00    -0.178 F 
HETATM    3  F5  UNL     1     -34.368   6.877   4.990  1.00 20.00    -0.178 F 
HETATM    4 CL7  UNL     1     -34.487   4.317   4.974  1.00 20.00    -0.038 Cl
ENDROOT
BRANCH   1   5
HETATM    5  C1  UNL     1     -33.432   5.846   3.079  1.00 20.00     0.307 C 
HETATM    6  O3  UNL     1     -33.014   4.792   2.607  1.00 20.00    -0.272 OA
HETATM    7 CL6  UNL     1     -32.887   7.439   2.639  1.00 20.00    -0.036 Cl
ENDBRANCH   1   5
TORSDOF 1
ENDMDL
MODEL 9
REMARK VINA RESULT:      -4.7      2.324      2.823
REMARK  1 active torsions:
REMARK  status: ('A' for Active; 'I' for Inactive)
REMARK    1  A    between atoms: C1_1  and  C2_2 
ROOT
HETATM    1  C2  UNL     1     -34.640   6.003   4.127  1.00 20.00     0.395 C 
HETATM    2  F4  UNL     1     -35.965   6.036   3.823  1.00 20.00    -0.178 F 
HETATM    3  F5  UNL     1     -34.062   7.013   3.423  1.00 20.00    -0.178 F 
HETATM    4 CL7  UNL     1     -34.421   6.304   5.859  1.00 20.00    -0.038 Cl
ENDROOT
BRANCH   1   5
HETATM    5  C1  UNL     1     -33.997   4.680   3.803  1.00 20.00     0.307 C 
HETATM    6  O3  UNL     1     -34.290   3.661   4.423  1.00 20.00    -0.272 OA
HETATM    7 CL6  UNL     1     -32.878   4.770   2.474  1.00 20.00    -0.036 Cl
ENDBRANCH   1   5
TORSDOF 1
ENDMDL
