MODEL 1
REMARK VINA RESULT:      -5.0      0.000      0.000
REMARK  1 active torsions:
REMARK  status: ('A' for Active; 'I' for Inactive)
REMARK    1  A    between atoms: C1_1  and  C2_2 
ROOT
HETATM    1  C2  UNL     1     -34.645   5.446   4.273  1.00 20.00     0.391 C 
HETATM    2  F4  UNL     1     -35.833   5.877   3.770  1.00 20.00    -0.178 F 
HETATM    3  F5  UNL     1     -34.818   4.139   4.598  1.00 20.00    -0.178 F 
HETATM    4 CL6  UNL     1     -34.255   6.374   5.728  1.00 20.00    -0.039 Cl
ENDROOT
BRANCH   1   5
HETATM    5  C1  UNL     1     -33.537   5.651   3.290  1.00 20.00     0.282 C 
HETATM    6  O3  UNL     1     -33.048   4.763   2.605  1.00 20.00    -0.277 OA
HETATM    7 BR7  UNL     1     -32.850   7.408   3.013  1.00 20.00    -0.001 Br
ENDBRANCH   1   5
TORSDOF 1
ENDMDL
MODEL 2
REMARK VINA RESULT:      -4.9      2.083      2.300
REMARK  1 active torsions:
REMARK  status: ('A' for Active; 'I' for Inactive)
REMARK    1  A    between atoms: C1_1  and  C2_2 
ROOT
HETATM    1  C2  UNL     1     -34.749   5.598   4.630  1.00 20.00     0.391 C 
HETATM    2  F4  UNL     1     -35.132   5.330   5.907  1.00 20.00    -0.178 F 
HETATM    3  F5  UNL     1     -35.885   5.860   3.935  1.00 20.00    -0.178 F 
HETATM    4 CL6  UNL     1     -33.951   4.173   3.949  1.00 20.00    -0.039 Cl
ENDROOT
BRANCH   1   5
HETATM    5  C1  UNL     1     -33.775   6.732   4.585  1.00 20.00     0.282 C 
HETATM    6  O3  UNL     1     -33.463   7.414   5.552  1.00 20.00    -0.277 OA
HETATM    7 BR7  UNL     1     -32.896   7.140   2.943  1.00 20.00    -0.001 Br
ENDBRANCH   1   5
TORSDOF 1
ENDMDL
MODEL 3
REMARK VINA RESULT:      -4.9      1.927      1.927
REMARK  1 active torsions:
REMARK  status: ('A' for Active; 'I' for Inactive)
REMARK    1  A    between atoms: C1_1  and  C2_2 
ROOT
HETATM    1  C2  UNL     1     -34.452   5.667   4.079  1.00 20.00     0.391 C 
HETATM    2  F4  UNL     1     -35.693   5.962   3.608  1.00 20.00    -0.178 F 
HETATM    3  F5  UNL     1     -33.847   4.918   3.122  1.00 20.00    -0.178 F 
HETATM    4 CL6  UNL     1     -34.600   4.724   5.568  1.00 20.00    -0.039 Cl
ENDROOT
BRANCH   1   5
HETATM    5  C1  UNL     1     -33.687   6.911   4.401  1.00 20.00     0.282 C 
HETATM    6  O3  UNL     1     -33.744   7.499   5.472  1.00 20.00    -0.277 OA
HETATM    7 BR7  UNL     1     -32.488   7.630   3.104  1.00 20.00    -0.001 Br
ENDBRANCH   1   5
TORSDOF 1
ENDMDL
MODEL 4
REMARK VINA RESULT:      -4.8      1.237      1.483
REMARK  1 active torsions:
REMARK  status: ('A' for Active; 'I' for Inactive)
REMARK    1  A    between atoms: C1_1  and  C2_2 
ROOT
HETATM    1  C2  UNL     1     -34.567   5.879   4.194  1.00 20.00     0.391 C 
HETATM    2  F4  UNL     1     -34.435   6.886   5.097  1.00 20.00    -0.178 F 
HETATM    3  F5  UNL     1     -35.788   6.035   3.621  1.00 20.00    -0.178 F 
HETATM    4 CL6  UNL     1     -34.501   4.325   5.038  1.00 20.00    -0.039 Cl
ENDROOT
BRANCH   1   5
HETATM    5  C1  UNL     1     -33.457   5.901   3.192  1.00 20.00     0.282 C 
HETATM    6  O3  UNL     1     -33.041   4.915   2.600  1.00 20.00    -0.277 OA
HETATM    7 BR7  UNL     1     -32.647   7.567   2.737  1.00 20.00    -0.001 Br
ENDBRANCH   1   5
TORSDOF 1
ENDMDL
MODEL 5
REMARK VINA RESULT:      -4.7      2.130      2.160
REMARK  1 active torsions:
REMARK  status: ('A' for Active; 'I' for Inactive)
REMARK    1  A    between atoms: C1_1  and  C2_2 
ROOT
HETATM    1  C2  UNL     1     -34.426   5.703   3.530  1.00 20.00     0.391 C 
HETATM    2  F4  UNL     1     -35.711   6.065   3.271  1.00 20.00    -0.178 F 
HETATM    3  F5  UNL     1     -33.921   5.223   2.365  1.00 20.00    -0.178 F 
HETATM    4 CL6  UNL     1     -34.415   4.426   4.754  1.00 20.00    -0.039 Cl
ENDROOT
BRANCH   1   5
HETATM    5  C1  UNL     1     -33.638   6.856   4.065  1.00 20.00     0.282 C 
HETATM    6  O3  UNL     1     -32.938   7.591   3.382  1.00 20.00    -0.277 OA
HETATM    7 BR7  UNL     1     -33.747   7.276   5.922  1.00 20.00    -0.001 Br
ENDBRANCH   1   5
TORSDOF 1
ENDMDL
MODEL 6
REMARK VINA RESULT:      -4.6      2.409      2.768
REMARK  1 active torsions:
REMARK  status: ('A' for Active; 'I' for Inactive)
REMARK    1  A    between atoms: C1_1  and  C2_2 
ROOT
HETATM    1  C2  UNL     1     -33.518   5.799   2.940  1.00 20.00     0.391 C 
HETATM    2  F4  UNL     1     -32.779   4.712   2.590  1.00 20.00    -0.178 F 
HETATM    3  F5  UNL     1     -34.418   5.989   1.941  1.00 20.00    -0.178 F 
HETATM    4 CL6  UNL     1     -32.459   7.210   3.063  1.00 20.00    -0.039 Cl
ENDROOT
BRANCH   1   5
HETATM    5  C1  UNL     1     -34.173   5.602   4.270  1.00 20.00     0.282 C 
HETATM    6  O3  UNL     1     -34.828   4.616   4.579  1.00 20.00    -0.277 OA
HETATM    7 BR7  UNL     1     -33.949   6.926   5.624  1.00 20.00    -0.001 Br
ENDBRANCH   1   5
TORSDOF 1
ENDMDL
MODEL 7
REMARK VINA RESULT:      -4.4      2.915      3.192
REMARK  1 active torsions:
REMARK  status: ('A' for Active; 'I' for Inactive)
REMARK    1  A    between atoms: C1_1  and  C2_2 
ROOT
HETATM    1  C2  UNL     1     -33.366   6.226   2.894  1.00 20.00     0.391 C 
HETATM    2  F4  UNL     1     -32.574   5.132   2.740  1.00 20.00    -0.178 F 
HETATM    3  F5  UNL     1     -34.412   6.064   2.044  1.00 20.00    -0.178 F 
HETATM    4 CL6  UNL     1     -32.455   7.675   2.445  1.00 20.00    -0.039 Cl
ENDROOT
BRANCH   1   5
HETATM    5  C1  UNL     1     -33.802   6.384   4.316  1.00 20.00     0.282 C 
HETATM    6  O3  UNL     1     -33.652   7.403   4.975  1.00 20.00    -0.277 OA
HETATM    7 BR7  UNL     1     -34.705   4.942   5.178  1.00 20.00    -0.001 Br
ENDBRANCH   1   5
TORSDOF 1
ENDMDL
MODEL 8
REMARK VINA RESULT:      -4.4      3.313      3.457
REMARK  1 active torsions:
REMARK  status: ('A' for Active; 'I' for Inactive)
REMARK    1  A    between atoms: C1_1  and  C2_2 
ROOT
HETATM    1  C2  UNL     1     -33.222   7.123   3.812  1.00 20.00     0.391 C 
HETATM    2  F4  UNL     1     -33.979   8.068   3.192  1.00 20.00    -0.178 F 
HETATM    3  F5  UNL     1     -31.981   7.656   3.951  1.00 20.00    -0.178 F 
HETATM    4 CL6  UNL     1     -33.139   5.680   2.793  1.00 20.00    -0.039 Cl
ENDROOT
BRANCH   1   5
HETATM    5  C1  UNL     1     -33.823   6.723   5.122  1.00 20.00     0.282 C 
HETATM    6  O3  UNL     1     -33.855   7.437   6.115  1.00 20.00    -0.277 OA
HETATM    7 BR7  UNL     1     -34.658   5.015   5.280  1.00 20.00    -0.001 Br
ENDBRANCH   1   5
TORSDOF 1
ENDMDL
MODEL 9
REMARK VINA RESULT:      -4.4      2.484      2.791
REMARK  1 active torsions:
REMARK  status: ('A' for Active; 'I' for Inactive)
REMARK    1  A    between atoms: C1_1  and  C2_2 
ROOT
HETATM    1  C2  UNL     1     -33.364   7.161   4.017  1.00 20.00     0.391 C 
HETATM    2  F4  UNL     1     -32.084   7.493   3.699  1.00 20.00    -0.178 F 
HETATM    3  F5  UNL     1     -34.163   8.038   3.357  1.00 20.00    -0.178 F 
HETATM    4 CL6  UNL     1     -33.598   7.342   5.762  1.00 20.00    -0.039 Cl
ENDROOT
BRANCH   1   5
HETATM    5  C1  UNL     1     -33.658   5.738   3.662  1.00 20.00     0.282 C 
HETATM    6  O3  UNL     1     -33.262   5.184   2.645  1.00 20.00    -0.277 OA
HETATM    7 BR7  UNL     1     -34.666   4.665   4.874  1.00 20.00    -0.001 Br
ENDBRANCH   1   5
TORSDOF 1
ENDMDL
