MODEL 1
REMARK VINA RESULT:      -5.5      0.000      0.000
REMARK  1 active torsions:
REMARK  status: ('A' for Active; 'I' for Inactive)
REMARK    1  A    between atoms: C1_1  and  C6_6 
ROOT
HETATM    1  C2  UNL     1     -34.499   4.673   5.337  1.00 20.00     0.005 C 
HETATM    2  C3  UNL     1     -34.276   6.113   5.825  1.00 20.00     0.006 C 
HETATM    3  C4  UNL     1     -33.210   5.157   3.239  1.00 20.00     0.017 C 
HETATM    4  C5  UNL     1     -35.308   6.186   3.688  1.00 20.00     0.010 C 
HETATM    5  C6  UNL     1     -32.941   6.576   3.766  1.00 20.00     0.059 C 
HETATM    6  C7  UNL     1     -34.604   4.837   3.810  1.00 20.00    -0.013 C 
HETATM    7  C8  UNL     1     -34.246   6.920   4.514  1.00 20.00    -0.003 C 
ENDROOT
BRANCH   5   8
HETATM    8  C1  UNL     1     -32.672   7.538   2.649  1.00 20.00     0.127 C 
HETATM    9  C9  UNL     1     -31.551   8.520   2.856  1.00 20.00     0.091 C 
HETATM   10  O10 UNL     1     -33.334   7.524   1.612  1.00 20.00    -0.298 OA
ENDBRANCH   5   8
TORSDOF 1
ENDMDL
MODEL 2
REMARK VINA RESULT:      -4.9      1.397      2.130
REMARK  1 active torsions:
REMARK  status: ('A' for Active; 'I' for Inactive)
REMARK    1  A    between atoms: C1_1  and  C6_6 
ROOT
HETATM    1  C2  UNL     1     -35.253   5.662   4.338  1.00 20.00     0.005 C 
HETATM    2  C3  UNL     1     -35.256   6.104   2.866  1.00 20.00     0.006 C 
HETATM    3  C4  UNL     1     -33.302   7.167   4.813  1.00 20.00     0.017 C 
HETATM    4  C5  UNL     1     -33.103   5.260   3.403  1.00 20.00     0.010 C 
HETATM    5  C6  UNL     1     -33.354   7.647   3.353  1.00 20.00     0.059 C 
HETATM    6  C7  UNL     1     -33.760   5.699   4.709  1.00 20.00    -0.013 C 
HETATM    7  C8  UNL     1     -33.767   6.373   2.585  1.00 20.00    -0.003 C 
ENDROOT
BRANCH   5   8
HETATM    8  C1  UNL     1     -32.025   8.165   2.895  1.00 20.00     0.127 C 
HETATM    9  C9  UNL     1     -31.932   8.622   1.465  1.00 20.00     0.091 C 
HETATM   10  O10 UNL     1     -31.056   8.215   3.653  1.00 20.00    -0.298 OA
ENDBRANCH   5   8
TORSDOF 1
ENDMDL
MODEL 3
REMARK VINA RESULT:      -4.9     11.504     12.667
REMARK  1 active torsions:
REMARK  status: ('A' for Active; 'I' for Inactive)
REMARK    1  A    between atoms: C1_1  and  C6_6 
ROOT
HETATM    1  C2  UNL     1     -33.649  17.009  -4.012  1.00 20.00     0.005 C 
HETATM    2  C3  UNL     1     -34.494  16.053  -3.155  1.00 20.00     0.006 C 
HETATM    3  C4  UNL     1     -34.353  15.803  -6.097  1.00 20.00     0.017 C 
HETATM    4  C5  UNL     1     -32.976  14.771  -4.453  1.00 20.00     0.010 C 
HETATM    5  C6  UNL     1     -35.242  14.892  -5.235  1.00 20.00     0.059 C 
HETATM    6  C7  UNL     1     -33.166  16.109  -5.163  1.00 20.00    -0.013 C 
HETATM    7  C8  UNL     1     -34.419  14.731  -3.939  1.00 20.00    -0.003 C 
ENDROOT
BRANCH   5   8
HETATM    8  C1  UNL     1     -35.492  13.574  -5.901  1.00 20.00     0.127 C 
HETATM    9  C9  UNL     1     -35.159  13.481  -7.365  1.00 20.00     0.091 C 
HETATM   10  O10 UNL     1     -35.946  12.613  -5.281  1.00 20.00    -0.298 OA
ENDBRANCH   5   8
TORSDOF 1
ENDMDL
MODEL 4
REMARK VINA RESULT:      -4.5      1.763      3.588
REMARK  1 active torsions:
REMARK  status: ('A' for Active; 'I' for Inactive)
REMARK    1  A    between atoms: C1_1  and  C6_6 
ROOT
HETATM    1  C2  UNL     1     -32.802   8.177   2.016  1.00 20.00     0.005 C 
HETATM    2  C3  UNL     1     -34.054   8.452   2.865  1.00 20.00     0.006 C 
HETATM    3  C4  UNL     1     -32.908   5.740   2.603  1.00 20.00     0.017 C 
HETATM    4  C5  UNL     1     -32.421   7.404   4.233  1.00 20.00     0.010 C 
HETATM    5  C6  UNL     1     -34.194   6.017   3.399  1.00 20.00     0.059 C 
HETATM    6  C7  UNL     1     -32.104   7.042   2.785  1.00 20.00    -0.013 C 
HETATM    7  C8  UNL     1     -33.935   7.416   3.997  1.00 20.00    -0.003 C 
ENDROOT
BRANCH   5   8
HETATM    8  C1  UNL     1     -34.415   4.989   4.466  1.00 20.00     0.127 C 
HETATM    9  C9  UNL     1     -34.664   5.501   5.858  1.00 20.00     0.091 C 
HETATM   10  O10 UNL     1     -34.395   3.785   4.215  1.00 20.00    -0.298 OA
ENDBRANCH   5   8
TORSDOF 1
ENDMDL
MODEL 5
REMARK VINA RESULT:      -4.4     11.287     12.743
REMARK  1 active torsions:
REMARK  status: ('A' for Active; 'I' for Inactive)
REMARK    1  A    between atoms: C1_1  and  C6_6 
ROOT
HETATM    1  C2  UNL     1     -33.586  16.761  -3.779  1.00 20.00     0.005 C 
HETATM    2  C3  UNL     1     -33.956  17.009  -5.250  1.00 20.00     0.006 C 
HETATM    3  C4  UNL     1     -34.153  14.328  -4.021  1.00 20.00     0.017 C 
HETATM    4  C5  UNL     1     -35.817  16.024  -4.154  1.00 20.00     0.010 C 
HETATM    5  C6  UNL     1     -34.461  14.578  -5.506  1.00 20.00     0.059 C 
HETATM    6  C7  UNL     1     -34.570  15.654  -3.356  1.00 20.00    -0.013 C 
HETATM    7  C8  UNL     1     -35.083  15.990  -5.498  1.00 20.00    -0.003 C 
ENDROOT
BRANCH   5   8
HETATM    8  C1  UNL     1     -35.411  13.556  -6.052  1.00 20.00     0.127 C 
HETATM    9  C9  UNL     1     -35.697  13.616  -7.527  1.00 20.00     0.091 C 
HETATM   10  O10 UNL     1     -35.932  12.708  -5.328  1.00 20.00    -0.298 OA
ENDBRANCH   5   8
TORSDOF 1
ENDMDL
MODEL 6
REMARK VINA RESULT:      -4.3     11.776     12.899
REMARK  1 active torsions:
REMARK  status: ('A' for Active; 'I' for Inactive)
REMARK    1  A    between atoms: C1_1  and  C6_6 
ROOT
HETATM    1  C2  UNL     1     -33.322  16.886  -5.199  1.00 20.00     0.005 C 
HETATM    2  C3  UNL     1     -34.791  17.294  -5.003  1.00 20.00     0.006 C 
HETATM    3  C4  UNL     1     -34.024  14.549  -5.787  1.00 20.00     0.017 C 
HETATM    4  C5  UNL     1     -34.323  15.438  -3.599  1.00 20.00     0.010 C 
HETATM    5  C6  UNL     1     -35.491  14.986  -5.647  1.00 20.00     0.059 C 
HETATM    6  C7  UNL     1     -33.305  15.418  -4.736  1.00 20.00    -0.013 C 
HETATM    7  C8  UNL     1     -35.441  15.999  -4.484  1.00 20.00    -0.003 C 
ENDROOT
BRANCH   5   8
HETATM    8  C1  UNL     1     -36.385  13.825  -5.334  1.00 20.00     0.127 C 
HETATM    9  C9  UNL     1     -37.848  14.125  -5.159  1.00 20.00     0.091 C 
HETATM   10  O10 UNL     1     -35.943  12.682  -5.226  1.00 20.00    -0.298 OA
ENDBRANCH   5   8
TORSDOF 1
ENDMDL
MODEL 7
REMARK VINA RESULT:      -4.2     12.042     12.861
REMARK  1 active torsions:
REMARK  status: ('A' for Active; 'I' for Inactive)
REMARK    1  A    between atoms: C1_1  and  C6_6 
ROOT
HETATM    1  C2  UNL     1     -33.660  18.454   0.257  1.00 20.00     0.005 C 
HETATM    2  C3  UNL     1     -32.418  18.408  -0.647  1.00 20.00     0.006 C 
HETATM    3  C4  UNL     1     -34.901  16.955  -1.327  1.00 20.00     0.017 C 
HETATM    4  C5  UNL     1     -34.264  19.168  -1.930  1.00 20.00     0.010 C 
HETATM    5  C6  UNL     1     -33.632  16.867  -2.191  1.00 20.00     0.059 C 
HETATM    6  C7  UNL     1     -34.824  18.381  -0.748  1.00 20.00    -0.013 C 
HETATM    7  C8  UNL     1     -33.023  18.278  -2.056  1.00 20.00    -0.003 C 
ENDROOT
BRANCH   5   8
HETATM    8  C1  UNL     1     -33.957  16.537  -3.616  1.00 20.00     0.127 C 
HETATM    9  C9  UNL     1     -35.029  15.507  -3.846  1.00 20.00     0.091 C 
HETATM   10  O10 UNL     1     -33.375  17.082  -4.553  1.00 20.00    -0.298 OA
ENDBRANCH   5   8
TORSDOF 1
ENDMDL
MODEL 8
REMARK VINA RESULT:      -4.2     11.427     12.507
REMARK  1 active torsions:
REMARK  status: ('A' for Active; 'I' for Inactive)
REMARK    1  A    between atoms: C1_1  and  C6_6 
ROOT
HETATM    1  C2  UNL     1     -34.389  14.802  -6.273  1.00 20.00     0.005 C 
HETATM    2  C3  UNL     1     -33.352  15.885  -5.935  1.00 20.00     0.006 C 
HETATM    3  C4  UNL     1     -35.651  15.318  -4.166  1.00 20.00     0.017 C 
HETATM    4  C5  UNL     1     -33.474  14.357  -4.122  1.00 20.00     0.010 C 
HETATM    5  C6  UNL     1     -34.642  16.439  -3.870  1.00 20.00     0.059 C 
HETATM    6  C7  UNL     1     -34.791  14.263  -4.888  1.00 20.00    -0.013 C 
HETATM    7  C8  UNL     1     -33.313  15.857  -4.397  1.00 20.00    -0.003 C 
ENDROOT
BRANCH   5   8
HETATM    8  C1  UNL     1     -34.572  16.747  -2.406  1.00 20.00     0.127 C 
HETATM    9  C9  UNL     1     -33.295  17.362  -1.903  1.00 20.00     0.091 C 
HETATM   10  O10 UNL     1     -35.514  16.508  -1.651  1.00 20.00    -0.298 OA
ENDBRANCH   5   8
TORSDOF 1
ENDMDL
MODEL 9
REMARK VINA RESULT:      -4.2     11.419     12.833
REMARK  1 active torsions:
REMARK  status: ('A' for Active; 'I' for Inactive)
REMARK    1  A    between atoms: C1_1  and  C6_6 
ROOT
HETATM    1  C2  UNL     1     -33.866  16.190  -3.216  1.00 20.00     0.005 C 
HETATM    2  C3  UNL     1     -35.380  16.047  -3.439  1.00 20.00     0.006 C 
HETATM    3  C4  UNL     1     -33.434  15.663  -5.630  1.00 20.00     0.017 C 
HETATM    4  C5  UNL     1     -34.316  14.040  -4.129  1.00 20.00     0.010 C 
HETATM    5  C6  UNL     1     -34.953  15.582  -5.854  1.00 20.00     0.059 C 
HETATM    6  C7  UNL     1     -33.272  15.153  -4.185  1.00 20.00    -0.013 C 
HETATM    7  C8  UNL     1     -35.465  14.969  -4.534  1.00 20.00    -0.003 C 
ENDROOT
BRANCH   5   8
HETATM    8  C1  UNL     1     -35.292  14.723  -7.034  1.00 20.00     0.127 C 
HETATM    9  C9  UNL     1     -34.149  14.301  -7.916  1.00 20.00     0.091 C 
HETATM   10  O10 UNL     1     -36.449  14.379  -7.269  1.00 20.00    -0.298 OA
ENDBRANCH   5   8
TORSDOF 1
ENDMDL
