MODEL 1
REMARK VINA RESULT:      -5.7      0.000      0.000
REMARK  1 active torsions:
REMARK  status: ('A' for Active; 'I' for Inactive)
REMARK    1  A    between atoms: C5_5  and  C8_8 
ROOT
HETATM    1  C1  UNL     1     -32.910   7.515   4.901  1.00 20.00     0.010 C 
HETATM    2  C2  UNL     1     -34.117   6.942   5.641  1.00 20.00     0.035 C 
HETATM    3  C3  UNL     1     -33.226   6.036   2.880  1.00 20.00     0.041 C 
HETATM    4  C5  UNL     1     -33.116   7.488   3.378  1.00 20.00     0.019 C 
HETATM    5  C6  UNL     1     -34.560   5.628   5.080  1.00 20.00     0.151 A 
HETATM    6  C7  UNL     1     -34.151   5.195   3.698  1.00 20.00     0.151 A 
HETATM    7  O10 UNL     1     -35.440   5.757   3.946  1.00 20.00    -0.375 OA
ENDROOT
BRANCH   4   8
HETATM    8  C8  UNL     1     -32.000   8.211   2.669  1.00 20.00     0.149 A 
HETATM    9  C4  UNL     1     -32.297   9.382   1.794  1.00 20.00     0.200 A 
HETATM   10  O9  UNL     1     -32.041   8.075   1.254  1.00 20.00    -0.381 OA
ENDBRANCH   4   8
TORSDOF 1
ENDMDL
MODEL 2
REMARK VINA RESULT:      -4.5      1.411      2.168
REMARK  1 active torsions:
REMARK  status: ('A' for Active; 'I' for Inactive)
REMARK    1  A    between atoms: C5_5  and  C8_8 
ROOT
HETATM    1  C1  UNL     1     -34.018   5.892   2.987  1.00 20.00     0.010 C 
HETATM    2  C2  UNL     1     -34.251   4.565   3.709  1.00 20.00     0.035 C 
HETATM    3  C3  UNL     1     -33.936   7.238   5.120  1.00 20.00     0.041 C 
HETATM    4  C5  UNL     1     -33.176   6.857   3.837  1.00 20.00     0.019 C 
HETATM    5  C6  UNL     1     -34.723   4.755   5.115  1.00 20.00     0.151 A 
HETATM    6  C7  UNL     1     -34.534   6.067   5.828  1.00 20.00     0.151 A 
HETATM    7  O10 UNL     1     -33.652   4.966   6.056  1.00 20.00    -0.375 OA
ENDROOT
BRANCH   4   8
HETATM    8  C8  UNL     1     -32.807   8.088   3.051  1.00 20.00     0.149 A 
HETATM    9  C4  UNL     1     -31.706   8.039   2.047  1.00 20.00     0.200 A 
HETATM   10  O9  UNL     1     -31.515   8.595   3.358  1.00 20.00    -0.381 OA
ENDBRANCH   4   8
TORSDOF 1
ENDMDL
MODEL 3
REMARK VINA RESULT:      -4.0     11.286     11.868
REMARK  1 active torsions:
REMARK  status: ('A' for Active; 'I' for Inactive)
REMARK    1  A    between atoms: C5_5  and  C8_8 
ROOT
HETATM    1  C1  UNL     1     -34.335  15.549  -5.454  1.00 20.00     0.010 C 
HETATM    2  C2  UNL     1     -34.256  14.220  -6.203  1.00 20.00     0.035 C 
HETATM    3  C3  UNL     1     -36.562  15.017  -4.392  1.00 20.00     0.041 C 
HETATM    4  C5  UNL     1     -35.096  15.404  -4.126  1.00 20.00     0.019 C 
HETATM    5  C6  UNL     1     -35.584  13.539  -6.300  1.00 20.00     0.151 A 
HETATM    6  C7  UNL     1     -36.716  13.906  -5.378  1.00 20.00     0.151 A 
HETATM    7  O10 UNL     1     -35.910  12.751  -5.138  1.00 20.00    -0.375 OA
ENDROOT
BRANCH   4   8
HETATM    8  C8  UNL     1     -35.018  16.673  -3.318  1.00 20.00     0.149 A 
HETATM    9  C4  UNL     1     -34.126  16.753  -2.125  1.00 20.00     0.200 A 
HETATM   10  O9  UNL     1     -35.543  16.544  -2.002  1.00 20.00    -0.381 OA
ENDBRANCH   4   8
TORSDOF 1
ENDMDL
MODEL 4
REMARK VINA RESULT:      -4.0     11.023     11.978
REMARK  1 active torsions:
REMARK  status: ('A' for Active; 'I' for Inactive)
REMARK    1  A    between atoms: C5_5  and  C8_8 
ROOT
HETATM    1  C1  UNL     1     -33.487  16.946  -4.866  1.00 20.00     0.010 C 
HETATM    2  C2  UNL     1     -33.125  15.777  -5.781  1.00 20.00     0.035 C 
HETATM    3  C3  UNL     1     -34.853  15.520  -3.294  1.00 20.00     0.041 C 
HETATM    4  C5  UNL     1     -33.662  16.489  -3.409  1.00 20.00     0.019 C 
HETATM    5  C6  UNL     1     -34.026  14.599  -5.586  1.00 20.00     0.151 A 
HETATM    6  C7  UNL     1     -34.853  14.452  -4.338  1.00 20.00     0.151 A 
HETATM    7  O10 UNL     1     -33.623  13.744  -4.498  1.00 20.00    -0.375 OA
ENDROOT
BRANCH   4   8
HETATM    8  C8  UNL     1     -33.846  17.670  -2.491  1.00 20.00     0.149 A 
HETATM    9  C4  UNL     1     -32.854  17.947  -1.412  1.00 20.00     0.200 A 
HETATM   10  O9  UNL     1     -34.112  17.307  -1.142  1.00 20.00    -0.381 OA
ENDBRANCH   4   8
TORSDOF 1
ENDMDL
MODEL 5
REMARK VINA RESULT:      -3.9     11.356     12.346
REMARK  1 active torsions:
REMARK  status: ('A' for Active; 'I' for Inactive)
REMARK    1  A    between atoms: C5_5  and  C8_8 
ROOT
HETATM    1  C1  UNL     1     -34.794  16.692  -2.004  1.00 20.00     0.010 C 
HETATM    2  C2  UNL     1     -34.392  17.510  -0.778  1.00 20.00     0.035 C 
HETATM    3  C3  UNL     1     -33.356  18.033  -3.586  1.00 20.00     0.041 C 
HETATM    4  C5  UNL     1     -33.658  16.627  -3.037  1.00 20.00     0.019 C 
HETATM    5  C6  UNL     1     -33.785  18.827  -1.143  1.00 20.00     0.151 A 
HETATM    6  C7  UNL     1     -33.238  19.075  -2.523  1.00 20.00     0.151 A 
HETATM    7  O10 UNL     1     -32.376  18.749  -1.431  1.00 20.00    -0.375 OA
ENDROOT
BRANCH   4   8
HETATM    8  C8  UNL     1     -34.000  15.679  -4.157  1.00 20.00     0.149 A 
HETATM    9  C4  UNL     1     -33.151  14.480  -4.416  1.00 20.00     0.200 A 
HETATM   10  O9  UNL     1     -33.045  15.673  -5.210  1.00 20.00    -0.381 OA
ENDBRANCH   4   8
TORSDOF 1
ENDMDL
MODEL 6
REMARK VINA RESULT:      -3.9     11.053     12.567
REMARK  1 active torsions:
REMARK  status: ('A' for Active; 'I' for Inactive)
REMARK    1  A    between atoms: C5_5  and  C8_8 
ROOT
HETATM    1  C1  UNL     1     -34.957  15.442  -6.689  1.00 20.00     0.010 C 
HETATM    2  C2  UNL     1     -33.719  16.203  -6.218  1.00 20.00     0.035 C 
HETATM    3  C3  UNL     1     -35.093  14.025  -4.605  1.00 20.00     0.041 C 
HETATM    4  C5  UNL     1     -35.844  15.021  -5.507  1.00 20.00     0.019 C 
HETATM    5  C6  UNL     1     -33.007  15.503  -5.104  1.00 20.00     0.151 A 
HETATM    6  C7  UNL     1     -33.699  14.451  -4.280  1.00 20.00     0.151 A 
HETATM    7  O10 UNL     1     -33.557  15.790  -3.804  1.00 20.00    -0.375 OA
ENDROOT
BRANCH   4   8
HETATM    8  C8  UNL     1     -37.142  14.428  -5.990  1.00 20.00     0.149 A 
HETATM    9  C4  UNL     1     -38.445  14.969  -5.506  1.00 20.00     0.200 A 
HETATM   10  O9  UNL     1     -37.878  13.761  -4.973  1.00 20.00    -0.381 OA
ENDBRANCH   4   8
TORSDOF 1
ENDMDL
MODEL 7
REMARK VINA RESULT:      -3.8     11.211     12.479
REMARK  1 active torsions:
REMARK  status: ('A' for Active; 'I' for Inactive)
REMARK    1  A    between atoms: C5_5  and  C8_8 
ROOT
HETATM    1  C1  UNL     1     -33.362  15.880  -6.121  1.00 20.00     0.010 C 
HETATM    2  C2  UNL     1     -33.573  17.162  -5.316  1.00 20.00     0.035 C 
HETATM    3  C3  UNL     1     -34.524  14.417  -4.424  1.00 20.00     0.041 C 
HETATM    4  C5  UNL     1     -34.504  14.877  -5.892  1.00 20.00     0.019 C 
HETATM    5  C6  UNL     1     -33.906  16.889  -3.884  1.00 20.00     0.151 A 
HETATM    6  C7  UNL     1     -34.413  15.541  -3.446  1.00 20.00     0.151 A 
HETATM    7  O10 UNL     1     -35.306  16.635  -3.659  1.00 20.00    -0.375 OA
ENDROOT
BRANCH   4   8
HETATM    8  C8  UNL     1     -34.378  13.695  -6.819  1.00 20.00     0.149 A 
HETATM    9  C4  UNL     1     -35.525  13.286  -7.680  1.00 20.00     0.200 A 
HETATM   10  O9  UNL     1     -35.206  12.597  -6.459  1.00 20.00    -0.381 OA
ENDBRANCH   4   8
TORSDOF 1
ENDMDL
MODEL 8
REMARK VINA RESULT:      -3.7      1.218      3.938
REMARK  1 active torsions:
REMARK  status: ('A' for Active; 'I' for Inactive)
REMARK    1  A    between atoms: C5_5  and  C8_8 
ROOT
HETATM    1  C1  UNL     1     -33.486   7.490   4.918  1.00 20.00     0.010 C 
HETATM    2  C2  UNL     1     -32.215   8.284   4.624  1.00 20.00     0.035 C 
HETATM    3  C3  UNL     1     -33.774   6.733   2.527  1.00 20.00     0.041 C 
HETATM    4  C5  UNL     1     -33.619   6.273   3.988  1.00 20.00     0.019 C 
HETATM    5  C6  UNL     1     -32.045   8.573   3.167  1.00 20.00     0.151 A 
HETATM    6  C7  UNL     1     -32.789   7.781   2.125  1.00 20.00     0.151 A 
HETATM    7  O10 UNL     1     -31.424   7.497   2.437  1.00 20.00    -0.375 OA
ENDROOT
BRANCH   4   8
HETATM    8  C8  UNL     1     -34.779   5.403   4.398  1.00 20.00     0.149 A 
HETATM    9  C4  UNL     1     -34.692   4.560   5.625  1.00 20.00     0.200 A 
HETATM   10  O9  UNL     1     -34.507   4.011   4.310  1.00 20.00    -0.381 OA
ENDBRANCH   4   8
TORSDOF 1
ENDMDL
MODEL 9
REMARK VINA RESULT:      -3.6     11.213     12.060
REMARK  1 active torsions:
REMARK  status: ('A' for Active; 'I' for Inactive)
REMARK    1  A    between atoms: C5_5  and  C8_8 
ROOT
HETATM    1  C1  UNL     1     -35.639  16.110  -4.107  1.00 20.00     0.010 C 
HETATM    2  C2  UNL     1     -34.316  15.871  -3.383  1.00 20.00     0.035 C 
HETATM    3  C3  UNL     1     -35.183  14.372  -5.880  1.00 20.00     0.041 C 
HETATM    4  C5  UNL     1     -36.156  14.826  -4.777  1.00 20.00     0.019 C 
HETATM    5  C6  UNL     1     -33.320  15.151  -4.236  1.00 20.00     0.151 A 
HETATM    6  C7  UNL     1     -33.753  14.377  -5.452  1.00 20.00     0.151 A 
HETATM    7  O10 UNL     1     -33.476  13.719  -4.214  1.00 20.00    -0.375 OA
ENDROOT
BRANCH   4   8
HETATM    8  C8  UNL     1     -37.540  15.029  -5.337  1.00 20.00     0.149 A 
HETATM    9  C4  UNL     1     -38.706  15.199  -4.423  1.00 20.00     0.200 A 
HETATM   10  O9  UNL     1     -38.425  13.948  -5.073  1.00 20.00    -0.381 OA
ENDBRANCH   4   8
TORSDOF 1
ENDMDL
