MODEL 1
REMARK VINA RESULT:      -4.8      0.000      0.000
REMARK  1 active torsions:
REMARK  status: ('A' for Active; 'I' for Inactive)
REMARK    1  A    between atoms: C1_1  and  C5_5 
ROOT
HETATM    1  C2  UNL     1     -36.150  16.731  -4.383  1.00 20.00     0.006 C 
HETATM    2  C3  UNL     1     -34.849  17.318  -4.945  1.00 20.00     0.006 C 
HETATM    3  C4  UNL     1     -34.374  16.322  -2.868  1.00 20.00     0.011 C 
HETATM    4  C5  UNL     1     -35.071  14.421  -4.093  1.00 20.00     0.067 C 
HETATM    5  C6  UNL     1     -35.656  15.665  -3.386  1.00 20.00    -0.002 C 
HETATM    6  C7  UNL     1     -33.768  16.453  -4.274  1.00 20.00    -0.006 C 
HETATM    7  C8  UNL     1     -33.798  14.978  -4.803  1.00 20.00    -0.033 C 
HETATM    8  C10 UNL     1     -32.546  14.217  -4.316  1.00 20.00     0.016 C 
HETATM    9  C11 UNL     1     -33.814  14.890  -6.337  1.00 20.00     0.016 C 
ENDROOT
BRANCH   4  10
HETATM   10  C1  UNL     1     -36.073  13.716  -4.956  1.00 20.00     0.128 C 
HETATM   11  C9  UNL     1     -37.408  14.388  -5.130  1.00 20.00     0.091 C 
HETATM   12  O12 UNL     1     -35.817  12.641  -5.496  1.00 20.00    -0.298 OA
ENDBRANCH   4  10
TORSDOF 1
ENDMDL
MODEL 2
REMARK VINA RESULT:      -4.8      1.534      2.185
REMARK  1 active torsions:
REMARK  status: ('A' for Active; 'I' for Inactive)
REMARK    1  A    between atoms: C1_1  and  C5_5 
ROOT
HETATM    1  C2  UNL     1     -34.150  16.321  -3.509  1.00 20.00     0.006 C 
HETATM    2  C3  UNL     1     -33.364  16.817  -4.729  1.00 20.00     0.006 C 
HETATM    3  C4  UNL     1     -32.965  14.512  -4.480  1.00 20.00     0.011 C 
HETATM    4  C5  UNL     1     -35.294  14.489  -4.896  1.00 20.00     0.067 C 
HETATM    5  C6  UNL     1     -34.287  14.807  -3.766  1.00 20.00    -0.002 C 
HETATM    6  C7  UNL     1     -33.229  15.545  -5.586  1.00 20.00    -0.006 C 
HETATM    7  C8  UNL     1     -34.611  15.088  -6.164  1.00 20.00    -0.033 C 
HETATM    8  C10 UNL     1     -34.401  13.984  -7.223  1.00 20.00     0.016 C 
HETATM    9  C11 UNL     1     -35.384  16.228  -6.846  1.00 20.00     0.016 C 
ENDROOT
BRANCH   4  10
HETATM   10  C1  UNL     1     -36.683  14.961  -4.588  1.00 20.00     0.128 C 
HETATM   11  C9  UNL     1     -37.806  14.291  -5.332  1.00 20.00     0.091 C 
HETATM   12  O12 UNL     1     -36.894  15.851  -3.765  1.00 20.00    -0.298 OA
ENDBRANCH   4  10
TORSDOF 1
ENDMDL
MODEL 3
REMARK VINA RESULT:      -4.7      2.019      3.676
REMARK  1 active torsions:
REMARK  status: ('A' for Active; 'I' for Inactive)
REMARK    1  A    between atoms: C1_1  and  C5_5 
ROOT
HETATM    1  C2  UNL     1     -33.004  15.535  -5.013  1.00 20.00     0.006 C 
HETATM    2  C3  UNL     1     -33.887  15.933  -6.203  1.00 20.00     0.006 C 
HETATM    3  C4  UNL     1     -34.833  14.036  -5.183  1.00 20.00     0.011 C 
HETATM    4  C5  UNL     1     -35.008  15.594  -3.410  1.00 20.00     0.067 C 
HETATM    5  C6  UNL     1     -33.957  14.712  -4.125  1.00 20.00    -0.002 C 
HETATM    6  C7  UNL     1     -35.264  15.373  -5.807  1.00 20.00    -0.006 C 
HETATM    7  C8  UNL     1     -35.873  16.144  -4.586  1.00 20.00    -0.033 C 
HETATM    8  C10 UNL     1     -37.350  15.741  -4.390  1.00 20.00     0.016 C 
HETATM    9  C11 UNL     1     -35.840  17.670  -4.763  1.00 20.00     0.016 C 
ENDROOT
BRANCH   4  10
HETATM   10  C1  UNL     1     -34.391  16.605  -2.492  1.00 20.00     0.128 C 
HETATM   11  C9  UNL     1     -35.179  16.974  -1.265  1.00 20.00     0.091 C 
HETATM   12  O12 UNL     1     -33.293  17.108  -2.729  1.00 20.00    -0.298 OA
ENDBRANCH   4  10
TORSDOF 1
ENDMDL
MODEL 4
REMARK VINA RESULT:      -4.6      1.740      3.552
REMARK  1 active torsions:
REMARK  status: ('A' for Active; 'I' for Inactive)
REMARK    1  A    between atoms: C1_1  and  C5_5 
ROOT
HETATM    1  C2  UNL     1     -35.152  13.146  -6.797  1.00 20.00     0.006 C 
HETATM    2  C3  UNL     1     -34.554  14.007  -7.917  1.00 20.00     0.006 C 
HETATM    3  C4  UNL     1     -36.730  14.780  -7.473  1.00 20.00     0.011 C 
HETATM    4  C5  UNL     1     -35.697  15.222  -5.391  1.00 20.00     0.067 C 
HETATM    5  C6  UNL     1     -36.262  14.043  -6.216  1.00 20.00    -0.002 C 
HETATM    6  C7  UNL     1     -35.329  15.329  -7.780  1.00 20.00    -0.006 C 
HETATM    7  C8  UNL     1     -34.955  16.084  -6.459  1.00 20.00    -0.033 C 
HETATM    8  C10 UNL     1     -35.539  17.513  -6.483  1.00 20.00     0.016 C 
HETATM    9  C11 UNL     1     -33.438  16.217  -6.251  1.00 20.00     0.016 C 
ENDROOT
BRANCH   4  10
HETATM   10  C1  UNL     1     -34.896  14.773  -4.206  1.00 20.00     0.128 C 
HETATM   11  C9  UNL     1     -34.701  15.776  -3.102  1.00 20.00     0.091 C 
HETATM   12  O12 UNL     1     -34.422  13.640  -4.139  1.00 20.00    -0.298 OA
ENDBRANCH   4  10
TORSDOF 1
ENDMDL
MODEL 5
REMARK VINA RESULT:      -4.6      1.349      2.884
REMARK  1 active torsions:
REMARK  status: ('A' for Active; 'I' for Inactive)
REMARK    1  A    between atoms: C1_1  and  C5_5 
ROOT
HETATM    1  C2  UNL     1     -33.376  14.754  -4.168  1.00 20.00     0.006 C 
HETATM    2  C3  UNL     1     -34.167  15.748  -3.308  1.00 20.00     0.006 C 
HETATM    3  C4  UNL     1     -33.558  16.824  -5.308  1.00 20.00     0.011 C 
HETATM    4  C5  UNL     1     -34.951  15.113  -6.163  1.00 20.00     0.067 C 
HETATM    5  C6  UNL     1     -33.528  15.320  -5.593  1.00 20.00    -0.002 C 
HETATM    6  C7  UNL     1     -34.757  16.709  -4.354  1.00 20.00    -0.006 C 
HETATM    7  C8  UNL     1     -35.839  16.005  -5.241  1.00 20.00    -0.033 C 
HETATM    8  C10 UNL     1     -36.592  17.053  -6.088  1.00 20.00     0.016 C 
HETATM    9  C11 UNL     1     -36.892  15.248  -4.417  1.00 20.00     0.016 C 
ENDROOT
BRANCH   4  10
HETATM   10  C1  UNL     1     -35.328  13.667  -6.273  1.00 20.00     0.128 C 
HETATM   11  C9  UNL     1     -35.534  13.125  -7.662  1.00 20.00     0.091 C 
HETATM   12  O12 UNL     1     -35.461  12.956  -5.277  1.00 20.00    -0.298 OA
ENDBRANCH   4  10
TORSDOF 1
ENDMDL
MODEL 6
REMARK VINA RESULT:      -4.5      1.767      3.655
REMARK  1 active torsions:
REMARK  status: ('A' for Active; 'I' for Inactive)
REMARK    1  A    between atoms: C1_1  and  C5_5 
ROOT
HETATM    1  C2  UNL     1     -34.413  14.649  -6.221  1.00 20.00     0.006 C 
HETATM    2  C3  UNL     1     -35.148  14.103  -4.990  1.00 20.00     0.006 C 
HETATM    3  C4  UNL     1     -32.910  14.514  -4.393  1.00 20.00     0.011 C 
HETATM    4  C5  UNL     1     -33.612  16.711  -4.922  1.00 20.00     0.067 C 
HETATM    5  C6  UNL     1     -33.206  15.390  -5.614  1.00 20.00    -0.002 C 
HETATM    6  C7  UNL     1     -34.327  14.678  -3.822  1.00 20.00    -0.006 C 
HETATM    7  C8  UNL     1     -34.481  16.233  -3.718  1.00 20.00    -0.033 C 
HETATM    8  C10 UNL     1     -33.871  16.737  -2.392  1.00 20.00     0.016 C 
HETATM    9  C11 UNL     1     -35.947  16.695  -3.746  1.00 20.00     0.016 C 
ENDROOT
BRANCH   4  10
HETATM   10  C1  UNL     1     -34.241  17.693  -5.864  1.00 20.00     0.128 C 
HETATM   11  C9  UNL     1     -33.990  19.151  -5.589  1.00 20.00     0.091 C 
HETATM   12  O12 UNL     1     -34.926  17.325  -6.817  1.00 20.00    -0.298 OA
ENDBRANCH   4  10
TORSDOF 1
ENDMDL
MODEL 7
REMARK VINA RESULT:      -4.5      1.436      2.465
REMARK  1 active torsions:
REMARK  status: ('A' for Active; 'I' for Inactive)
REMARK    1  A    between atoms: C1_1  and  C5_5 
ROOT
HETATM    1  C2  UNL     1     -34.605  15.919  -7.525  1.00 20.00     0.006 C 
HETATM    2  C3  UNL     1     -33.550  16.603  -6.646  1.00 20.00     0.006 C 
HETATM    3  C4  UNL     1     -35.678  17.300  -5.926  1.00 20.00     0.011 C 
HETATM    4  C5  UNL     1     -35.821  14.983  -5.468  1.00 20.00     0.067 C 
HETATM    5  C6  UNL     1     -35.877  15.970  -6.657  1.00 20.00    -0.002 C 
HETATM    6  C7  UNL     1     -34.321  16.878  -5.342  1.00 20.00    -0.006 C 
HETATM    7  C8  UNL     1     -34.667  15.551  -4.585  1.00 20.00    -0.033 C 
HETATM    8  C10 UNL     1     -35.194  15.873  -3.170  1.00 20.00     0.016 C 
HETATM    9  C11 UNL     1     -33.456  14.621  -4.416  1.00 20.00     0.016 C 
ENDROOT
BRANCH   4  10
HETATM   10  C1  UNL     1     -35.701  13.554  -5.903  1.00 20.00     0.128 C 
HETATM   11  C9  UNL     1     -35.327  13.313  -7.340  1.00 20.00     0.091 C 
HETATM   12  O12 UNL     1     -35.895  12.623  -5.122  1.00 20.00    -0.298 OA
ENDBRANCH   4  10
TORSDOF 1
ENDMDL
MODEL 8
REMARK VINA RESULT:      -4.5      1.662      3.093
REMARK  1 active torsions:
REMARK  status: ('A' for Active; 'I' for Inactive)
REMARK    1  A    between atoms: C1_1  and  C5_5 
ROOT
HETATM    1  C2  UNL     1     -33.641  17.348  -3.594  1.00 20.00     0.006 C 
HETATM    2  C3  UNL     1     -34.344  16.505  -2.522  1.00 20.00     0.006 C 
HETATM    3  C4  UNL     1     -35.990  17.530  -3.853  1.00 20.00     0.011 C 
HETATM    4  C5  UNL     1     -34.931  16.169  -5.473  1.00 20.00     0.067 C 
HETATM    5  C6  UNL     1     -34.712  17.486  -4.694  1.00 20.00    -0.002 C 
HETATM    6  C7  UNL     1     -35.697  16.181  -3.178  1.00 20.00    -0.006 C 
HETATM    7  C8  UNL     1     -35.532  15.212  -4.397  1.00 20.00    -0.033 C 
HETATM    8  C10 UNL     1     -36.914  14.700  -4.857  1.00 20.00     0.016 C 
HETATM    9  C11 UNL     1     -34.677  13.977  -4.072  1.00 20.00     0.016 C 
ENDROOT
BRANCH   4  10
HETATM   10  C1  UNL     1     -33.698  15.700  -6.184  1.00 20.00     0.128 C 
HETATM   11  C9  UNL     1     -33.885  15.146  -7.570  1.00 20.00     0.091 C 
HETATM   12  O12 UNL     1     -32.586  15.767  -5.660  1.00 20.00    -0.298 OA
ENDBRANCH   4  10
TORSDOF 1
ENDMDL
MODEL 9
REMARK VINA RESULT:      -4.5      1.748      3.005
REMARK  1 active torsions:
REMARK  status: ('A' for Active; 'I' for Inactive)
REMARK    1  A    between atoms: C1_1  and  C5_5 
ROOT
HETATM    1  C2  UNL     1     -33.355  17.003  -4.534  1.00 20.00     0.006 C 
HETATM    2  C3  UNL     1     -33.584  16.510  -5.968  1.00 20.00     0.006 C 
HETATM    3  C4  UNL     1     -33.056  14.653  -4.623  1.00 20.00     0.011 C 
HETATM    4  C5  UNL     1     -35.079  15.343  -3.607  1.00 20.00     0.067 C 
HETATM    5  C6  UNL     1     -33.586  15.739  -3.683  1.00 20.00    -0.002 C 
HETATM    6  C7  UNL     1     -34.013  15.046  -5.759  1.00 20.00    -0.006 C 
HETATM    7  C8  UNL     1     -35.419  14.948  -5.077  1.00 20.00    -0.033 C 
HETATM    8  C10 UNL     1     -35.931  13.492  -5.128  1.00 20.00     0.016 C 
HETATM    9  C11 UNL     1     -36.481  15.825  -5.760  1.00 20.00     0.016 C 
ENDROOT
BRANCH   4  10
HETATM   10  C1  UNL     1     -35.931  16.402  -2.975  1.00 20.00     0.128 C 
HETATM   11  C9  UNL     1     -35.498  16.902  -1.623  1.00 20.00     0.091 C 
HETATM   12  O12 UNL     1     -36.934  16.843  -3.535  1.00 20.00    -0.298 OA
ENDBRANCH   4  10
TORSDOF 1
ENDMDL
