MODEL 1
REMARK VINA RESULT:      -4.7      0.000      0.000
REMARK  0 active torsions:
REMARK  status: ('A' for Active; 'I' for Inactive)
ROOT
HETATM    1  C1  UNL     1     -32.724   7.059   3.239  1.00 20.00     0.025 C 
HETATM    2  C2  UNL     1     -33.606   7.134   4.447  1.00 20.00     0.081 C 
HETATM    3  C3  UNL     1     -34.395   5.839   4.265  1.00 20.00     0.029 C 
HETATM    4  C4  UNL     1     -31.914   8.231   2.800  1.00 20.00     0.067 C 
HETATM    5  C5  UNL     1     -34.545   5.066   5.572  1.00 20.00     0.034 C 
HETATM    6  C6  UNL     1     -35.765   6.097   3.628  1.00 20.00     0.034 C 
HETATM    7  N7  UNL     1     -32.713   5.919   2.625  1.00 20.00    -0.210 NA
HETATM    8  N8  UNL     1     -33.526   5.105   3.338  1.00 20.00    -0.208 NA
HETATM    9  H20 UNL     1     -32.955   4.417   3.830  1.00 20.00     0.149 HD
ENDROOT
TORSDOF 0
ENDMDL
MODEL 2
REMARK VINA RESULT:      -4.0      1.590      1.978
REMARK  0 active torsions:
REMARK  status: ('A' for Active; 'I' for Inactive)
ROOT
HETATM    1  C1  UNL     1     -32.656   7.484   3.821  1.00 20.00     0.025 C 
HETATM    2  C2  UNL     1     -33.546   6.696   2.911  1.00 20.00     0.081 C 
HETATM    3  C3  UNL     1     -34.365   5.938   3.953  1.00 20.00     0.029 C 
HETATM    4  C4  UNL     1     -31.470   8.220   3.295  1.00 20.00     0.067 C 
HETATM    5  C5  UNL     1     -35.853   5.914   3.612  1.00 20.00     0.034 C 
HETATM    6  C6  UNL     1     -33.835   4.515   4.165  1.00 20.00     0.034 C 
HETATM    7  N7  UNL     1     -32.995   7.487   5.070  1.00 20.00    -0.210 NA
HETATM    8  N8  UNL     1     -34.133   6.758   5.148  1.00 20.00    -0.208 NA
HETATM    9  H20 UNL     1     -34.916   7.387   5.326  1.00 20.00     0.149 HD
ENDROOT
TORSDOF 0
ENDMDL
MODEL 3
REMARK VINA RESULT:      -4.0     11.245     12.330
REMARK  0 active torsions:
REMARK  status: ('A' for Active; 'I' for Inactive)
ROOT
HETATM    1  C1  UNL     1     -35.556  13.700  -6.541  1.00 20.00     0.025 C 
HETATM    2  C2  UNL     1     -34.433  14.619  -6.171  1.00 20.00     0.081 C 
HETATM    3  C3  UNL     1     -34.423  14.409  -4.658  1.00 20.00     0.029 C 
HETATM    4  C4  UNL     1     -36.153  13.721  -7.907  1.00 20.00     0.067 C 
HETATM    5  C5  UNL     1     -33.008  14.257  -4.107  1.00 20.00     0.034 C 
HETATM    6  C6  UNL     1     -35.172  15.527  -3.926  1.00 20.00     0.034 C 
HETATM    7  N7  UNL     1     -35.951  12.896  -5.607  1.00 20.00    -0.210 NA
HETATM    8  N8  UNL     1     -35.150  13.139  -4.543  1.00 20.00    -0.208 NA
HETATM    9  H20 UNL     1     -34.510  12.353  -4.426  1.00 20.00     0.149 HD
ENDROOT
TORSDOF 0
ENDMDL
MODEL 4
REMARK VINA RESULT:      -4.0      1.940      2.599
REMARK  0 active torsions:
REMARK  status: ('A' for Active; 'I' for Inactive)
ROOT
HETATM    1  C1  UNL     1     -32.396   8.737   1.882  1.00 20.00     0.025 C 
HETATM    2  C2  UNL     1     -33.656   8.079   2.351  1.00 20.00     0.081 C 
HETATM    3  C3  UNL     1     -33.071   7.128   3.393  1.00 20.00     0.029 C 
HETATM    4  C4  UNL     1     -32.380   9.594   0.661  1.00 20.00     0.067 C 
HETATM    5  C5  UNL     1     -33.892   7.106   4.680  1.00 20.00     0.034 C 
HETATM    6  C6  UNL     1     -32.901   5.711   2.835  1.00 20.00     0.034 C 
HETATM    7  N7  UNL     1     -31.346   8.519   2.608  1.00 20.00    -0.210 NA
HETATM    8  N8  UNL     1     -31.762   7.745   3.638  1.00 20.00    -0.208 NA
HETATM    9  H20 UNL     1     -31.769   8.307   4.490  1.00 20.00     0.149 HD
ENDROOT
TORSDOF 0
ENDMDL
MODEL 5
REMARK VINA RESULT:      -4.0      0.922      3.368
REMARK  0 active torsions:
REMARK  status: ('A' for Active; 'I' for Inactive)
ROOT
HETATM    1  C1  UNL     1     -33.943   6.065   3.855  1.00 20.00     0.025 C 
HETATM    2  C2  UNL     1     -33.909   7.556   3.725  1.00 20.00     0.081 C 
HETATM    3  C3  UNL     1     -32.662   7.705   2.856  1.00 20.00     0.029 C 
HETATM    4  C4  UNL     1     -34.846   5.395   4.835  1.00 20.00     0.067 C 
HETATM    5  C5  UNL     1     -32.859   8.721   1.734  1.00 20.00     0.034 C 
HETATM    6  C6  UNL     1     -31.427   8.057   3.693  1.00 20.00     0.034 C 
HETATM    7  N7  UNL     1     -33.153   5.416   3.060  1.00 20.00    -0.210 NA
HETATM    8  N8  UNL     1     -32.540   6.353   2.300  1.00 20.00    -0.208 NA
HETATM    9  H20 UNL     1     -32.914   6.305   1.352  1.00 20.00     0.149 HD
ENDROOT
TORSDOF 0
ENDMDL
MODEL 6
REMARK VINA RESULT:      -3.9     11.628     12.251
REMARK  0 active torsions:
REMARK  status: ('A' for Active; 'I' for Inactive)
ROOT
HETATM    1  C1  UNL     1     -34.741  14.634  -4.445  1.00 20.00     0.025 C 
HETATM    2  C2  UNL     1     -35.943  15.397  -4.906  1.00 20.00     0.081 C 
HETATM    3  C3  UNL     1     -36.720  14.265  -5.575  1.00 20.00     0.029 C 
HETATM    4  C4  UNL     1     -33.527  15.337  -3.938  1.00 20.00     0.067 C 
HETATM    5  C5  UNL     1     -38.206  14.300  -5.227  1.00 20.00     0.034 C 
HETATM    6  C6  UNL     1     -36.519  14.262  -7.095  1.00 20.00     0.034 C 
HETATM    7  N7  UNL     1     -34.838  13.344  -4.509  1.00 20.00    -0.210 NA
HETATM    8  N8  UNL     1     -36.085  13.088  -4.969  1.00 20.00    -0.208 NA
HETATM    9  H20 UNL     1     -36.648  12.714  -4.205  1.00 20.00     0.149 HD
ENDROOT
TORSDOF 0
ENDMDL
MODEL 7
REMARK VINA RESULT:      -3.8     12.292     13.028
REMARK  0 active torsions:
REMARK  status: ('A' for Active; 'I' for Inactive)
ROOT
HETATM    1  C1  UNL     1     -36.774  14.049  -5.556  1.00 20.00     0.025 C 
HETATM    2  C2  UNL     1     -36.024  14.950  -6.486  1.00 20.00     0.081 C 
HETATM    3  C3  UNL     1     -34.679  14.227  -6.509  1.00 20.00     0.029 C 
HETATM    4  C4  UNL     1     -38.094  14.450  -4.988  1.00 20.00     0.067 C 
HETATM    5  C5  UNL     1     -34.102  14.126  -7.918  1.00 20.00     0.034 C 
HETATM    6  C6  UNL     1     -33.670  14.879  -5.556  1.00 20.00     0.034 C 
HETATM    7  N7  UNL     1     -36.206  12.915  -5.296  1.00 20.00    -0.210 NA
HETATM    8  N8  UNL     1     -35.063  12.897  -6.021  1.00 20.00    -0.208 NA
HETATM    9  H20 UNL     1     -35.171  12.236  -6.791  1.00 20.00     0.149 HD
ENDROOT
TORSDOF 0
ENDMDL
MODEL 8
REMARK VINA RESULT:      -3.8      1.998      4.129
REMARK  0 active torsions:
REMARK  status: ('A' for Active; 'I' for Inactive)
ROOT
HETATM    1  C1  UNL     1     -32.991   7.447   3.467  1.00 20.00     0.025 C 
HETATM    2  C2  UNL     1     -33.152   7.617   1.988  1.00 20.00     0.081 C 
HETATM    3  C3  UNL     1     -32.146   8.742   1.752  1.00 20.00     0.029 C 
HETATM    4  C4  UNL     1     -33.949   6.623   4.258  1.00 20.00     0.067 C 
HETATM    5  C5  UNL     1     -31.289   8.499   0.513  1.00 20.00     0.034 C 
HETATM    6  C6  UNL     1     -32.834  10.109   1.674  1.00 20.00     0.034 C 
HETATM    7  N7  UNL     1     -31.972   8.050   3.991  1.00 20.00    -0.210 NA
HETATM    8  N8  UNL     1     -31.324   8.647   2.964  1.00 20.00    -0.208 NA
HETATM    9  H20 UNL     1     -30.455   8.143   2.785  1.00 20.00     0.149 HD
ENDROOT
TORSDOF 0
ENDMDL
MODEL 9
REMARK VINA RESULT:      -3.6      1.780      2.805
REMARK  0 active torsions:
REMARK  status: ('A' for Active; 'I' for Inactive)
ROOT
HETATM    1  C1  UNL     1     -33.988   6.781   5.143  1.00 20.00     0.025 C 
HETATM    2  C2  UNL     1     -33.569   7.085   3.737  1.00 20.00     0.081 C 
HETATM    3  C3  UNL     1     -34.089   5.829   3.042  1.00 20.00     0.029 C 
HETATM    4  C4  UNL     1     -33.490   7.593   6.290  1.00 20.00     0.067 C 
HETATM    5  C5  UNL     1     -34.792   6.148   1.725  1.00 20.00     0.034 C 
HETATM    6  C6  UNL     1     -32.974   4.800   2.825  1.00 20.00     0.034 C 
HETATM    7  N7  UNL     1     -34.806   5.787   5.279  1.00 20.00    -0.210 NA
HETATM    8  N8  UNL     1     -35.059   5.339   4.028  1.00 20.00    -0.208 NA
HETATM    9  H20 UNL     1     -36.012   5.597   3.771  1.00 20.00     0.149 HD
ENDROOT
TORSDOF 0
ENDMDL
