MODEL 1
REMARK VINA RESULT:      -5.4      0.000      0.000
REMARK  2 active torsions:
REMARK  status: ('A' for Active; 'I' for Inactive)
REMARK    1  A    between atoms: C6_6  and  C8_8 
REMARK    2  A    between atoms: C8_8  and  O9_9 
ROOT
HETATM    1  C1  UNL     1     -34.623   5.082   5.572  1.00 20.00    -0.030 C 
HETATM    2  C2  UNL     1     -34.314   6.323   5.972  1.00 20.00    -0.030 C 
HETATM    3  C3  UNL     1     -34.300   4.556   4.205  1.00 20.00     0.031 C 
HETATM    4  C4  UNL     1     -33.591   7.311   5.105  1.00 20.00     0.034 C 
HETATM    5  C5  UNL     1     -33.926   5.653   3.185  1.00 20.00    -0.009 C 
HETATM    6  C6  UNL     1     -32.966   6.670   3.850  1.00 20.00     0.016 C 
HETATM    7  C7  UNL     1     -35.187   6.296   2.592  1.00 20.00     0.011 C 
ENDROOT
BRANCH   6   8
HETATM    8  C8  UNL     1     -32.470   7.747   2.885  1.00 20.00     0.169 C 
BRANCH   8   9
HETATM    9  O9  UNL     1     -31.376   8.416   3.483  1.00 20.00    -0.400 OA
HETATM   10  H23 UNL     1     -31.691   9.295   3.754  1.00 20.00     0.209 HD
ENDBRANCH   8   9
ENDBRANCH   6   8
TORSDOF 2
ENDMDL
MODEL 2
REMARK VINA RESULT:      -5.0      1.083      2.181
REMARK  2 active torsions:
REMARK  status: ('A' for Active; 'I' for Inactive)
REMARK    1  A    between atoms: C6_6  and  C8_8 
REMARK    2  A    between atoms: C8_8  and  O9_9 
ROOT
HETATM    1  C1  UNL     1     -34.380   4.396   4.278  1.00 20.00    -0.030 C 
HETATM    2  C2  UNL     1     -33.318   4.412   3.462  1.00 20.00    -0.030 C 
HETATM    3  C3  UNL     1     -35.111   5.638   4.697  1.00 20.00     0.031 C 
HETATM    4  C4  UNL     1     -32.762   5.667   2.859  1.00 20.00     0.034 C 
HETATM    5  C5  UNL     1     -34.335   6.943   4.421  1.00 20.00    -0.009 C 
HETATM    6  C6  UNL     1     -33.702   6.879   3.010  1.00 20.00     0.016 C 
HETATM    7  C7  UNL     1     -33.319   7.218   5.538  1.00 20.00     0.011 C 
ENDROOT
BRANCH   6   8
HETATM    8  C8  UNL     1     -32.987   8.170   2.612  1.00 20.00     0.169 C 
BRANCH   8   9
HETATM    9  O9  UNL     1     -31.591   7.940   2.652  1.00 20.00    -0.400 OA
HETATM   10  H23 UNL     1     -31.155   8.794   2.493  1.00 20.00     0.209 HD
ENDBRANCH   8   9
ENDBRANCH   6   8
TORSDOF 2
ENDMDL
MODEL 3
REMARK VINA RESULT:      -5.0      2.135      3.314
REMARK  2 active torsions:
REMARK  status: ('A' for Active; 'I' for Inactive)
REMARK    1  A    between atoms: C6_6  and  C8_8 
REMARK    2  A    between atoms: C8_8  and  O9_9 
ROOT
HETATM    1  C1  UNL     1     -32.070   8.100   3.346  1.00 20.00    -0.030 C 
HETATM    2  C2  UNL     1     -32.425   7.906   4.623  1.00 20.00    -0.030 C 
HETATM    3  C3  UNL     1     -32.745   7.417   2.194  1.00 20.00     0.031 C 
HETATM    4  C4  UNL     1     -33.552   7.006   5.036  1.00 20.00     0.034 C 
HETATM    5  C5  UNL     1     -33.617   6.212   2.605  1.00 20.00    -0.009 C 
HETATM    6  C6  UNL     1     -34.449   6.581   3.858  1.00 20.00     0.016 C 
HETATM    7  C7  UNL     1     -32.756   4.955   2.789  1.00 20.00     0.011 C 
ENDROOT
BRANCH   6   8
HETATM    8  C8  UNL     1     -35.414   5.475   4.286  1.00 20.00     0.169 C 
BRANCH   8   9
HETATM    9  O9  UNL     1     -34.983   4.962   5.533  1.00 20.00    -0.400 OA
HETATM   10  H23 UNL     1     -34.379   4.223   5.345  1.00 20.00     0.209 HD
ENDBRANCH   8   9
ENDBRANCH   6   8
TORSDOF 2
ENDMDL
MODEL 4
REMARK VINA RESULT:      -4.3      1.803      2.266
REMARK  2 active torsions:
REMARK  status: ('A' for Active; 'I' for Inactive)
REMARK    1  A    between atoms: C6_6  and  C8_8 
REMARK    2  A    between atoms: C8_8  and  O9_9 
ROOT
HETATM    1  C1  UNL     1     -33.993   6.984   6.142  1.00 20.00    -0.030 C 
HETATM    2  C2  UNL     1     -33.279   7.740   5.296  1.00 20.00    -0.030 C 
HETATM    3  C3  UNL     1     -34.547   5.639   5.773  1.00 20.00     0.031 C 
HETATM    4  C4  UNL     1     -32.936   7.313   3.900  1.00 20.00     0.034 C 
HETATM    5  C5  UNL     1     -34.551   5.361   4.255  1.00 20.00    -0.009 C 
HETATM    6  C6  UNL     1     -33.204   5.818   3.641  1.00 20.00     0.016 C 
HETATM    7  C7  UNL     1     -35.777   6.000   3.588  1.00 20.00     0.011 C 
ENDROOT
BRANCH   6   8
HETATM    8  C8  UNL     1     -33.082   5.497   2.152  1.00 20.00     0.169 C 
BRANCH   8   9
HETATM    9  O9  UNL     1     -32.852   4.108   2.009  1.00 20.00    -0.400 OA
HETATM   10  H23 UNL     1     -32.919   3.903   1.061  1.00 20.00     0.209 HD
ENDBRANCH   8   9
ENDBRANCH   6   8
TORSDOF 2
ENDMDL
MODEL 5
REMARK VINA RESULT:      -4.2     11.895     12.510
REMARK  2 active torsions:
REMARK  status: ('A' for Active; 'I' for Inactive)
REMARK    1  A    between atoms: C6_6  and  C8_8 
REMARK    2  A    between atoms: C8_8  and  O9_9 
ROOT
HETATM    1  C1  UNL     1     -34.508  16.918  -2.282  1.00 20.00    -0.030 C 
HETATM    2  C2  UNL     1     -33.479  16.422  -2.982  1.00 20.00    -0.030 C 
HETATM    3  C3  UNL     1     -35.934  16.518  -2.524  1.00 20.00     0.031 C 
HETATM    4  C4  UNL     1     -33.638  15.394  -4.063  1.00 20.00     0.034 C 
HETATM    5  C5  UNL     1     -36.158  15.784  -3.863  1.00 20.00    -0.009 C 
HETATM    6  C6  UNL     1     -35.034  14.741  -4.076  1.00 20.00     0.016 C 
HETATM    7  C7  UNL     1     -36.291  16.788  -5.017  1.00 20.00     0.011 C 
ENDROOT
BRANCH   6   8
HETATM    8  C8  UNL     1     -35.224  13.901  -5.339  1.00 20.00     0.169 C 
BRANCH   8   9
HETATM    9  O9  UNL     1     -35.951  12.736  -4.997  1.00 20.00    -0.400 OA
HETATM   10  H23 UNL     1     -36.264  12.852  -4.084  1.00 20.00     0.209 HD
ENDBRANCH   8   9
ENDBRANCH   6   8
TORSDOF 2
ENDMDL
MODEL 6
REMARK VINA RESULT:      -4.1     11.809     13.243
REMARK  2 active torsions:
REMARK  status: ('A' for Active; 'I' for Inactive)
REMARK    1  A    between atoms: C6_6  and  C8_8 
REMARK    2  A    between atoms: C8_8  and  O9_9 
ROOT
HETATM    1  C1  UNL     1     -33.274  16.596  -4.880  1.00 20.00    -0.030 C 
HETATM    2  C2  UNL     1     -33.461  15.584  -4.022  1.00 20.00    -0.030 C 
HETATM    3  C3  UNL     1     -34.117  16.800  -6.104  1.00 20.00     0.031 C 
HETATM    4  C4  UNL     1     -34.548  14.562  -4.179  1.00 20.00     0.034 C 
HETATM    5  C5  UNL     1     -34.961  15.568  -6.494  1.00 20.00    -0.009 C 
HETATM    6  C6  UNL     1     -35.607  14.961  -5.224  1.00 20.00     0.016 C 
HETATM    7  C7  UNL     1     -34.120  14.565  -7.295  1.00 20.00     0.011 C 
ENDROOT
BRANCH   6   8
HETATM    8  C8  UNL     1     -36.537  13.786  -5.526  1.00 20.00     0.169 C 
BRANCH   8   9
HETATM    9  O9  UNL     1     -35.960  12.609  -4.992  1.00 20.00    -0.400 OA
HETATM   10  H23 UNL     1     -35.223  12.885  -4.421  1.00 20.00     0.209 HD
ENDBRANCH   8   9
ENDBRANCH   6   8
TORSDOF 2
ENDMDL
MODEL 7
REMARK VINA RESULT:      -4.0     12.107     12.869
REMARK  2 active torsions:
REMARK  status: ('A' for Active; 'I' for Inactive)
REMARK    1  A    between atoms: C6_6  and  C8_8 
REMARK    2  A    between atoms: C8_8  and  O9_9 
ROOT
HETATM    1  C1  UNL     1     -35.138  16.386  -2.753  1.00 20.00    -0.030 C 
HETATM    2  C2  UNL     1     -35.523  16.814  -1.544  1.00 20.00    -0.030 C 
HETATM    3  C3  UNL     1     -33.807  16.723  -3.358  1.00 20.00     0.031 C 
HETATM    4  C4  UNL     1     -34.656  17.655  -0.654  1.00 20.00     0.034 C 
HETATM    5  C5  UNL     1     -33.078  17.887  -2.654  1.00 20.00    -0.009 C 
HETATM    6  C6  UNL     1     -33.188  17.713  -1.119  1.00 20.00     0.016 C 
HETATM    7  C7  UNL     1     -33.600  19.240  -3.157  1.00 20.00     0.011 C 
ENDROOT
BRANCH   6   8
HETATM    8  C8  UNL     1     -32.416  18.774  -0.336  1.00 20.00     0.169 C 
BRANCH   8   9
HETATM    9  O9  UNL     1     -31.077  18.339  -0.192  1.00 20.00    -0.400 OA
HETATM   10  H23 UNL     1     -30.561  19.100   0.125  1.00 20.00     0.209 HD
ENDBRANCH   8   9
ENDBRANCH   6   8
TORSDOF 2
ENDMDL
MODEL 8
REMARK VINA RESULT:      -4.0     12.079     13.196
REMARK  2 active torsions:
REMARK  status: ('A' for Active; 'I' for Inactive)
REMARK    1  A    between atoms: C6_6  and  C8_8 
REMARK    2  A    between atoms: C8_8  and  O9_9 
ROOT
HETATM    1  C1  UNL     1     -33.325  16.947  -4.772  1.00 20.00    -0.030 C 
HETATM    2  C2  UNL     1     -33.789  16.866  -6.027  1.00 20.00    -0.030 C 
HETATM    3  C3  UNL     1     -33.688  15.964  -3.698  1.00 20.00     0.031 C 
HETATM    4  C4  UNL     1     -34.699  15.772  -6.499  1.00 20.00     0.034 C 
HETATM    5  C5  UNL     1     -34.908  15.084  -4.043  1.00 20.00    -0.009 C 
HETATM    6  C6  UNL     1     -34.795  14.595  -5.508  1.00 20.00     0.016 C 
HETATM    7  C7  UNL     1     -36.217  15.828  -3.744  1.00 20.00     0.011 C 
ENDROOT
BRANCH   6   8
HETATM    8  C8  UNL     1     -35.917  13.640  -5.912  1.00 20.00     0.169 C 
BRANCH   8   9
HETATM    9  O9  UNL     1     -35.938  12.559  -4.998  1.00 20.00    -0.400 OA
HETATM   10  H23 UNL     1     -35.026  12.433  -4.684  1.00 20.00     0.209 HD
ENDBRANCH   8   9
ENDBRANCH   6   8
TORSDOF 2
ENDMDL
MODEL 9
REMARK VINA RESULT:      -3.8     11.749     13.103
REMARK  2 active torsions:
REMARK  status: ('A' for Active; 'I' for Inactive)
REMARK    1  A    between atoms: C6_6  and  C8_8 
REMARK    2  A    between atoms: C8_8  and  O9_9 
ROOT
HETATM    1  C1  UNL     1     -33.299  18.664  -3.137  1.00 20.00    -0.030 C 
HETATM    2  C2  UNL     1     -33.338  18.298  -4.426  1.00 20.00    -0.030 C 
HETATM    3  C3  UNL     1     -33.587  17.719  -2.008  1.00 20.00     0.031 C 
HETATM    4  C4  UNL     1     -33.645  16.901  -4.877  1.00 20.00     0.034 C 
HETATM    5  C5  UNL     1     -34.281  16.413  -2.447  1.00 20.00    -0.009 C 
HETATM    6  C6  UNL     1     -33.602  15.872  -3.730  1.00 20.00     0.016 C 
HETATM    7  C7  UNL     1     -35.794  16.624  -2.596  1.00 20.00     0.011 C 
ENDROOT
BRANCH   6   8
HETATM    8  C8  UNL     1     -34.167  14.529  -4.189  1.00 20.00     0.169 C 
BRANCH   8   9
HETATM    9  O9  UNL     1     -33.171  13.854  -4.934  1.00 20.00    -0.400 OA
HETATM   10  H23 UNL     1     -32.557  13.454  -4.295  1.00 20.00     0.209 HD
ENDBRANCH   8   9
ENDBRANCH   6   8
TORSDOF 2
ENDMDL
