MODEL 1
REMARK VINA RESULT:      -5.8      0.000      0.000
REMARK  2 active torsions:
REMARK  status: ('A' for Active; 'I' for Inactive)
REMARK    1  A    between atoms: C3_3  and  C7_7 
REMARK    2  A    between atoms: C4_4  and  C8_8 
ROOT
HETATM    1  C5  UNL     1     -33.247   7.152   4.751  1.00 20.00     0.014 C 
HETATM    2  C6  UNL     1     -32.605   8.239   3.895  1.00 20.00     0.037 C 
HETATM    3  C7  UNL     1     -34.384   6.469   3.980  1.00 20.00     0.036 C 
HETATM    4  C8  UNL     1     -32.186   7.687   2.533  1.00 20.00     0.144 C 
HETATM    5  C9  UNL     1     -33.905   5.991   2.593  1.00 20.00     0.126 C 
HETATM    6  C10 UNL     1     -32.984   4.769   2.603  1.00 20.00     0.040 C 
HETATM    7  O11 UNL     1     -33.299   7.076   1.874  1.00 20.00    -0.377 OA
ENDROOT
BRANCH   3   8
HETATM    8  C3  UNL     1     -35.023   5.383   4.790  1.00 20.00    -0.030 C 
HETATM    9  C1  UNL     1     -34.542   4.940   5.956  1.00 20.00     0.007 C 
ENDBRANCH   3   8
BRANCH   4  10
HETATM   10  C4  UNL     1     -31.675   8.777   1.645  1.00 20.00    -0.005 C 
HETATM   11  C2  UNL     1     -32.434   9.767   1.162  1.00 20.00     0.009 C 
ENDBRANCH   4  10
TORSDOF 2
ENDMDL
MODEL 2
REMARK VINA RESULT:      -4.4     11.293     12.316
REMARK  2 active torsions:
REMARK  status: ('A' for Active; 'I' for Inactive)
REMARK    1  A    between atoms: C3_3  and  C7_7 
REMARK    2  A    between atoms: C4_4  and  C8_8 
ROOT
HETATM    1  C5  UNL     1     -35.004  15.311  -3.549  1.00 20.00     0.014 C 
HETATM    2  C6  UNL     1     -34.959  14.359  -4.740  1.00 20.00     0.037 C 
HETATM    3  C7  UNL     1     -33.676  16.068  -3.422  1.00 20.00     0.036 C 
HETATM    4  C8  UNL     1     -34.539  15.093  -6.012  1.00 20.00     0.144 C 
HETATM    5  C9  UNL     1     -33.286  16.733  -4.759  1.00 20.00     0.126 C 
HETATM    6  C10 UNL     1     -34.114  17.961  -5.146  1.00 20.00     0.040 C 
HETATM    7  O11 UNL     1     -33.292  15.764  -5.817  1.00 20.00    -0.377 OA
ENDROOT
BRANCH   3   8
HETATM    8  C3  UNL     1     -33.698  17.026  -2.270  1.00 20.00    -0.030 C 
HETATM    9  C1  UNL     1     -34.685  17.091  -1.371  1.00 20.00     0.007 C 
ENDBRANCH   3   8
BRANCH   4  10
HETATM   10  C4  UNL     1     -34.369  14.140  -7.152  1.00 20.00    -0.005 C 
HETATM   11  C2  UNL     1     -35.112  13.041  -7.325  1.00 20.00     0.009 C 
ENDBRANCH   4  10
TORSDOF 2
ENDMDL
MODEL 3
REMARK VINA RESULT:      -4.3      1.194      4.677
REMARK  2 active torsions:
REMARK  status: ('A' for Active; 'I' for Inactive)
REMARK    1  A    between atoms: C3_3  and  C7_7 
REMARK    2  A    between atoms: C4_4  and  C8_8 
ROOT
HETATM    1  C5  UNL     1     -33.045   6.678   1.836  1.00 20.00     0.014 C 
HETATM    2  C6  UNL     1     -33.931   6.006   2.880  1.00 20.00     0.037 C 
HETATM    3  C7  UNL     1     -32.996   8.192   2.075  1.00 20.00     0.036 C 
HETATM    4  C8  UNL     1     -33.504   6.397   4.294  1.00 20.00     0.144 C 
HETATM    5  C9  UNL     1     -32.617   8.512   3.536  1.00 20.00     0.126 C 
HETATM    6  C10 UNL     1     -31.152   8.261   3.904  1.00 20.00     0.040 C 
HETATM    7  O11 UNL     1     -33.491   7.820   4.440  1.00 20.00    -0.377 OA
ENDROOT
BRANCH   3   8
HETATM    8  C3  UNL     1     -32.117   8.878   1.073  1.00 20.00    -0.030 C 
HETATM    9  C1  UNL     1     -32.444  10.010   0.443  1.00 20.00     0.007 C 
ENDBRANCH   3   8
BRANCH   4  10
HETATM   10  C4  UNL     1     -34.449   5.844   5.313  1.00 20.00    -0.005 C 
HETATM   11  C2  UNL     1     -34.713   4.541   5.459  1.00 20.00     0.009 C 
ENDBRANCH   4  10
TORSDOF 2
ENDMDL
MODEL 4
REMARK VINA RESULT:      -4.2     11.358     12.086
REMARK  2 active torsions:
REMARK  status: ('A' for Active; 'I' for Inactive)
REMARK    1  A    between atoms: C3_3  and  C7_7 
REMARK    2  A    between atoms: C4_4  and  C8_8 
ROOT
HETATM    1  C5  UNL     1     -33.426  17.695  -2.265  1.00 20.00     0.014 C 
HETATM    2  C6  UNL     1     -32.546  18.164  -1.111  1.00 20.00     0.037 C 
HETATM    3  C7  UNL     1     -34.538  16.774  -1.746  1.00 20.00     0.036 C 
HETATM    4  C8  UNL     1     -33.389  18.779   0.006  1.00 20.00     0.144 C 
HETATM    5  C9  UNL     1     -35.308  17.434  -0.584  1.00 20.00     0.126 C 
HETATM    6  C10 UNL     1     -36.243  18.579  -0.983  1.00 20.00     0.040 C 
HETATM    7  O11 UNL     1     -34.395  17.859   0.440  1.00 20.00    -0.377 OA
ENDROOT
BRANCH   3   8
HETATM    8  C3  UNL     1     -35.430  16.311  -2.858  1.00 20.00    -0.030 C 
HETATM    9  C1  UNL     1     -35.053  15.453  -3.811  1.00 20.00     0.007 C 
ENDBRANCH   3   8
BRANCH   4  10
HETATM   10  C4  UNL     1     -32.545  19.122   1.191  1.00 20.00    -0.005 C 
HETATM   11  C2  UNL     1     -31.237  18.857   1.280  1.00 20.00     0.009 C 
ENDBRANCH   4  10
TORSDOF 2
ENDMDL
MODEL 5
REMARK VINA RESULT:      -4.2     11.145     11.861
REMARK  2 active torsions:
REMARK  status: ('A' for Active; 'I' for Inactive)
REMARK    1  A    between atoms: C3_3  and  C7_7 
REMARK    2  A    between atoms: C4_4  and  C8_8 
ROOT
HETATM    1  C5  UNL     1     -33.948  14.705  -5.075  1.00 20.00     0.014 C 
HETATM    2  C6  UNL     1     -33.495  15.389  -3.789  1.00 20.00     0.037 C 
HETATM    3  C7  UNL     1     -35.341  14.091  -4.889  1.00 20.00     0.036 C 
HETATM    4  C8  UNL     1     -34.549  16.379  -3.295  1.00 20.00     0.144 C 
HETATM    5  C9  UNL     1     -36.337  15.130  -4.333  1.00 20.00     0.126 C 
HETATM    6  C10 UNL     1     -36.785  16.205  -5.326  1.00 20.00     0.040 C 
HETATM    7  O11 UNL     1     -35.814  15.731  -3.138  1.00 20.00    -0.377 OA
ENDROOT
BRANCH   3   8
HETATM    8  C3  UNL     1     -35.820  13.426  -6.144  1.00 20.00    -0.030 C 
HETATM    9  C1  UNL     1     -35.032  13.138  -7.184  1.00 20.00     0.007 C 
ENDBRANCH   3   8
BRANCH   4  10
HETATM   10  C4  UNL     1     -34.166  16.955  -1.969  1.00 20.00    -0.005 C 
HETATM   11  C2  UNL     1     -35.035  17.202  -0.982  1.00 20.00     0.009 C 
ENDBRANCH   4  10
TORSDOF 2
ENDMDL
MODEL 6
REMARK VINA RESULT:      -4.1     10.913     11.966
REMARK  2 active torsions:
REMARK  status: ('A' for Active; 'I' for Inactive)
REMARK    1  A    between atoms: C3_3  and  C7_7 
REMARK    2  A    between atoms: C4_4  and  C8_8 
ROOT
HETATM    1  C5  UNL     1     -35.698  14.912  -4.808  1.00 20.00     0.014 C 
HETATM    2  C6  UNL     1     -35.815  15.926  -3.674  1.00 20.00     0.037 C 
HETATM    3  C7  UNL     1     -34.517  15.268  -5.720  1.00 20.00     0.036 C 
HETATM    4  C8  UNL     1     -34.485  16.078  -2.937  1.00 20.00     0.144 C 
HETATM    5  C9  UNL     1     -33.223  15.465  -4.903  1.00 20.00     0.126 C 
HETATM    6  C10 UNL     1     -32.596  14.182  -4.350  1.00 20.00     0.040 C 
HETATM    7  O11 UNL     1     -33.439  16.418  -3.851  1.00 20.00    -0.377 OA
ENDROOT
BRANCH   3   8
HETATM    8  C3  UNL     1     -34.367  14.278  -6.835  1.00 20.00    -0.030 C 
HETATM    9  C1  UNL     1     -35.175  13.229  -7.017  1.00 20.00     0.007 C 
ENDBRANCH   3   8
BRANCH   4  10
HETATM   10  C4  UNL     1     -34.561  17.162  -1.910  1.00 20.00    -0.005 C 
HETATM   11  C2  UNL     1     -35.365  17.126  -0.841  1.00 20.00     0.009 C 
ENDBRANCH   4  10
TORSDOF 2
ENDMDL
MODEL 7
REMARK VINA RESULT:      -4.1      1.068      1.995
REMARK  2 active torsions:
REMARK  status: ('A' for Active; 'I' for Inactive)
REMARK    1  A    between atoms: C3_3  and  C7_7 
REMARK    2  A    between atoms: C4_4  and  C8_8 
ROOT
HETATM    1  C5  UNL     1     -34.485   6.170   2.470  1.00 20.00     0.014 C 
HETATM    2  C6  UNL     1     -33.545   7.032   1.633  1.00 20.00     0.037 C 
HETATM    3  C7  UNL     1     -33.745   5.606   3.690  1.00 20.00     0.036 C 
HETATM    4  C8  UNL     1     -32.865   8.097   2.493  1.00 20.00     0.144 C 
HETATM    5  C9  UNL     1     -33.035   6.728   4.476  1.00 20.00     0.126 C 
HETATM    6  C10 UNL     1     -33.956   7.649   5.281  1.00 20.00     0.040 C 
HETATM    7  O11 UNL     1     -32.192   7.493   3.602  1.00 20.00    -0.377 OA
ENDROOT
BRANCH   3   8
HETATM    8  C3  UNL     1     -34.650   4.769   4.542  1.00 20.00    -0.030 C 
HETATM    9  C1  UNL     1     -34.542   4.668   5.870  1.00 20.00     0.007 C 
ENDBRANCH   3   8
BRANCH   4  10
HETATM   10  C4  UNL     1     -31.849   8.858   1.704  1.00 20.00    -0.005 C 
HETATM   11  C2  UNL     1     -32.138   9.592   0.623  1.00 20.00     0.009 C 
ENDBRANCH   4  10
TORSDOF 2
ENDMDL
MODEL 8
REMARK VINA RESULT:      -4.0     11.183     11.996
REMARK  2 active torsions:
REMARK  status: ('A' for Active; 'I' for Inactive)
REMARK    1  A    between atoms: C3_3  and  C7_7 
REMARK    2  A    between atoms: C4_4  and  C8_8 
ROOT
HETATM    1  C5  UNL     1     -33.086  17.890  -1.979  1.00 20.00     0.014 C 
HETATM    2  C6  UNL     1     -32.899  18.302  -0.522  1.00 20.00     0.037 C 
HETATM    3  C7  UNL     1     -34.048  16.700  -2.076  1.00 20.00     0.036 C 
HETATM    4  C8  UNL     1     -34.248  18.538   0.157  1.00 20.00     0.144 C 
HETATM    5  C9  UNL     1     -35.363  16.985  -1.320  1.00 20.00     0.126 C 
HETATM    6  C10 UNL     1     -36.303  17.987  -1.995  1.00 20.00     0.040 C 
HETATM    7  O11 UNL     1     -35.083  17.384   0.031  1.00 20.00    -0.377 OA
ENDROOT
BRANCH   3   8
HETATM    8  C3  UNL     1     -34.265  16.284  -3.500  1.00 20.00    -0.030 C 
HETATM    9  C1  UNL     1     -34.629  15.052  -3.871  1.00 20.00     0.007 C 
ENDBRANCH   3   8
BRANCH   4  10
HETATM   10  C4  UNL     1     -34.074  18.816   1.616  1.00 20.00    -0.005 C 
HETATM   11  C2  UNL     1     -32.917  18.674   2.272  1.00 20.00     0.009 C 
ENDBRANCH   4  10
TORSDOF 2
ENDMDL
MODEL 9
REMARK VINA RESULT:      -4.0     11.021     12.234
REMARK  2 active torsions:
REMARK  status: ('A' for Active; 'I' for Inactive)
REMARK    1  A    between atoms: C3_3  and  C7_7 
REMARK    2  A    between atoms: C4_4  and  C8_8 
ROOT
HETATM    1  C5  UNL     1     -34.889  17.874  -0.639  1.00 20.00     0.014 C 
HETATM    2  C6  UNL     1     -35.452  16.729  -1.476  1.00 20.00     0.037 C 
HETATM    3  C7  UNL     1     -33.362  17.926  -0.767  1.00 20.00     0.036 C 
HETATM    4  C8  UNL     1     -34.954  16.809  -2.918  1.00 20.00     0.144 C 
HETATM    5  C9  UNL     1     -32.930  17.945  -2.249  1.00 20.00     0.126 C 
HETATM    6  C10 UNL     1     -33.181  19.261  -2.988  1.00 20.00     0.040 C 
HETATM    7  O11 UNL     1     -33.524  16.845  -2.955  1.00 20.00    -0.377 OA
ENDROOT
BRANCH   3   8
HETATM    8  C3  UNL     1     -32.782  19.054   0.031  1.00 20.00    -0.030 C 
HETATM    9  C1  UNL     1     -31.761  18.918   0.884  1.00 20.00     0.007 C 
ENDBRANCH   3   8
BRANCH   4  10
HETATM   10  C4  UNL     1     -35.399  15.620  -3.707  1.00 20.00    -0.005 C 
HETATM   11  C2  UNL     1     -34.599  14.600  -4.039  1.00 20.00     0.009 C 
ENDBRANCH   4  10
TORSDOF 2
ENDMDL
