MODEL 1
REMARK VINA RESULT:      -5.9      0.000      0.000
REMARK  2 active torsions:
REMARK  status: ('A' for Active; 'I' for Inactive)
REMARK    1  A    between atoms: C6_6  and  C8_8 
REMARK    2  A    between atoms: C8_8  and  O9_9 
ROOT
HETATM    1  C1  UNL     1     -34.678   5.114   5.632  1.00 20.00    -0.030 C 
HETATM    2  C2  UNL     1     -34.360   6.381   5.923  1.00 20.00    -0.030 C 
HETATM    3  C3  UNL     1     -34.321   4.460   4.331  1.00 20.00     0.031 C 
HETATM    4  C4  UNL     1     -33.643   7.285   4.968  1.00 20.00     0.034 C 
HETATM    5  C5  UNL     1     -33.273   5.244   3.512  1.00 20.00    -0.009 C 
HETATM    6  C6  UNL     1     -33.610   6.753   3.519  1.00 20.00     0.016 C 
HETATM    7  C7  UNL     1     -33.180   4.651   2.105  1.00 20.00     0.011 C 
ENDROOT
BRANCH   6   8
HETATM    8  C8  UNL     1     -32.635   7.594   2.691  1.00 20.00     0.169 C 
BRANCH   8   9
HETATM    9  O9  UNL     1     -31.644   8.111   3.559  1.00 20.00    -0.400 OA
HETATM   10  H23 UNL     1     -31.062   7.372   3.803  1.00 20.00     0.209 HD
ENDBRANCH   8   9
ENDBRANCH   6   8
TORSDOF 2
ENDMDL
MODEL 2
REMARK VINA RESULT:      -5.4      0.733      2.446
REMARK  2 active torsions:
REMARK  status: ('A' for Active; 'I' for Inactive)
REMARK    1  A    between atoms: C6_6  and  C8_8 
REMARK    2  A    between atoms: C8_8  and  O9_9 
ROOT
HETATM    1  C1  UNL     1     -34.433   4.220   4.679  1.00 20.00    -0.030 C 
HETATM    2  C2  UNL     1     -34.064   4.294   3.395  1.00 20.00    -0.030 C 
HETATM    3  C3  UNL     1     -34.317   5.372   5.631  1.00 20.00     0.031 C 
HETATM    4  C4  UNL     1     -33.468   5.526   2.784  1.00 20.00     0.034 C 
HETATM    5  C5  UNL     1     -34.067   6.726   4.935  1.00 20.00    -0.009 C 
HETATM    6  C6  UNL     1     -33.003   6.568   3.823  1.00 20.00     0.016 C 
HETATM    7  C7  UNL     1     -33.696   7.777   5.983  1.00 20.00     0.011 C 
ENDROOT
BRANCH   6   8
HETATM    8  C8  UNL     1     -32.672   7.882   3.112  1.00 20.00     0.169 C 
BRANCH   8   9
HETATM    9  O9  UNL     1     -31.338   8.233   3.424  1.00 20.00    -0.400 OA
HETATM   10  H23 UNL     1     -31.355   9.137   3.784  1.00 20.00     0.209 HD
ENDBRANCH   8   9
ENDBRANCH   6   8
TORSDOF 2
ENDMDL
MODEL 3
REMARK VINA RESULT:      -5.0      1.945      3.862
REMARK  2 active torsions:
REMARK  status: ('A' for Active; 'I' for Inactive)
REMARK    1  A    between atoms: C6_6  and  C8_8 
REMARK    2  A    between atoms: C8_8  and  O9_9 
ROOT
HETATM    1  C1  UNL     1     -32.143   7.865   2.937  1.00 20.00    -0.030 C 
HETATM    2  C2  UNL     1     -32.602   6.858   2.185  1.00 20.00    -0.030 C 
HETATM    3  C3  UNL     1     -32.578   8.092   4.354  1.00 20.00     0.031 C 
HETATM    4  C4  UNL     1     -33.621   5.872   2.670  1.00 20.00     0.034 C 
HETATM    5  C5  UNL     1     -33.319   6.888   4.973  1.00 20.00    -0.009 C 
HETATM    6  C6  UNL     1     -34.340   6.312   3.963  1.00 20.00     0.016 C 
HETATM    7  C7  UNL     1     -33.953   7.308   6.301  1.00 20.00     0.011 C 
ENDROOT
BRANCH   6   8
HETATM    8  C8  UNL     1     -35.146   5.137   4.522  1.00 20.00     0.169 C 
BRANCH   8   9
HETATM    9  O9  UNL     1     -34.395   3.953   4.336  1.00 20.00    -0.400 OA
HETATM   10  H23 UNL     1     -33.629   4.003   4.933  1.00 20.00     0.209 HD
ENDBRANCH   8   9
ENDBRANCH   6   8
TORSDOF 2
ENDMDL
MODEL 4
REMARK VINA RESULT:      -4.9      1.605      2.711
REMARK  2 active torsions:
REMARK  status: ('A' for Active; 'I' for Inactive)
REMARK    1  A    between atoms: C6_6  and  C8_8 
REMARK    2  A    between atoms: C8_8  and  O9_9 
ROOT
HETATM    1  C1  UNL     1     -34.047   6.908   6.174  1.00 20.00    -0.030 C 
HETATM    2  C2  UNL     1     -34.694   5.791   5.824  1.00 20.00    -0.030 C 
HETATM    3  C3  UNL     1     -33.173   7.678   5.230  1.00 20.00     0.031 C 
HETATM    4  C4  UNL     1     -34.588   5.176   4.461  1.00 20.00     0.034 C 
HETATM    5  C5  UNL     1     -33.357   7.275   3.751  1.00 20.00    -0.009 C 
HETATM    6  C6  UNL     1     -33.421   5.735   3.620  1.00 20.00     0.016 C 
HETATM    7  C7  UNL     1     -32.248   7.908   2.909  1.00 20.00     0.011 C 
ENDROOT
BRANCH   6   8
HETATM    8  C8  UNL     1     -33.562   5.257   2.173  1.00 20.00     0.169 C 
BRANCH   8   9
HETATM    9  O9  UNL     1     -32.759   4.104   2.005  1.00 20.00    -0.400 OA
HETATM   10  H23 UNL     1     -32.957   3.743   1.124  1.00 20.00     0.209 HD
ENDBRANCH   8   9
ENDBRANCH   6   8
TORSDOF 2
ENDMDL
MODEL 5
REMARK VINA RESULT:      -4.9      1.223      2.377
REMARK  2 active torsions:
REMARK  status: ('A' for Active; 'I' for Inactive)
REMARK    1  A    between atoms: C6_6  and  C8_8 
REMARK    2  A    between atoms: C8_8  and  O9_9 
ROOT
HETATM    1  C1  UNL     1     -33.899   4.028   3.455  1.00 20.00    -0.030 C 
HETATM    2  C2  UNL     1     -34.394   4.182   4.689  1.00 20.00    -0.030 C 
HETATM    3  C3  UNL     1     -33.280   5.149   2.676  1.00 20.00     0.031 C 
HETATM    4  C4  UNL     1     -34.409   5.498   5.407  1.00 20.00     0.034 C 
HETATM    5  C5  UNL     1     -32.953   6.390   3.534  1.00 20.00    -0.009 C 
HETATM    6  C6  UNL     1     -34.129   6.706   4.488  1.00 20.00     0.016 C 
HETATM    7  C7  UNL     1     -32.587   7.560   2.617  1.00 20.00     0.011 C 
ENDROOT
BRANCH   6   8
HETATM    8  C8  UNL     1     -33.894   7.952   5.345  1.00 20.00     0.169 C 
BRANCH   8   9
HETATM    9  O9  UNL     1     -32.888   7.657   6.295  1.00 20.00    -0.400 OA
HETATM   10  H23 UNL     1     -33.280   7.782   7.176  1.00 20.00     0.209 HD
ENDBRANCH   8   9
ENDBRANCH   6   8
TORSDOF 2
ENDMDL
MODEL 6
REMARK VINA RESULT:      -4.4      2.067      3.180
REMARK  2 active torsions:
REMARK  status: ('A' for Active; 'I' for Inactive)
REMARK    1  A    between atoms: C6_6  and  C8_8 
REMARK    2  A    between atoms: C8_8  and  O9_9 
ROOT
HETATM    1  C1  UNL     1     -31.908   8.265   4.067  1.00 20.00    -0.030 C 
HETATM    2  C2  UNL     1     -32.586   8.217   5.220  1.00 20.00    -0.030 C 
HETATM    3  C3  UNL     1     -32.245   7.409   2.884  1.00 20.00     0.031 C 
HETATM    4  C4  UNL     1     -33.733   7.281   5.456  1.00 20.00     0.034 C 
HETATM    5  C5  UNL     1     -33.629   6.733   2.984  1.00 20.00    -0.009 C 
HETATM    6  C6  UNL     1     -33.841   6.157   4.404  1.00 20.00     0.016 C 
HETATM    7  C7  UNL     1     -33.764   5.683   1.880  1.00 20.00     0.011 C 
ENDROOT
BRANCH   6   8
HETATM    8  C8  UNL     1     -35.179   5.433   4.569  1.00 20.00     0.169 C 
BRANCH   8   9
HETATM    9  O9  UNL     1     -34.919   4.061   4.791  1.00 20.00    -0.400 OA
HETATM   10  H23 UNL     1     -34.733   3.660   3.924  1.00 20.00     0.209 HD
ENDBRANCH   8   9
ENDBRANCH   6   8
TORSDOF 2
ENDMDL
MODEL 7
REMARK VINA RESULT:      -4.4      1.569      2.494
REMARK  2 active torsions:
REMARK  status: ('A' for Active; 'I' for Inactive)
REMARK    1  A    between atoms: C6_6  and  C8_8 
REMARK    2  A    between atoms: C8_8  and  O9_9 
ROOT
HETATM    1  C1  UNL     1     -33.467   7.626   6.043  1.00 20.00    -0.030 C 
HETATM    2  C2  UNL     1     -32.775   8.080   4.991  1.00 20.00    -0.030 C 
HETATM    3  C3  UNL     1     -34.320   6.394   5.990  1.00 20.00     0.031 C 
HETATM    4  C4  UNL     1     -32.806   7.422   3.645  1.00 20.00     0.034 C 
HETATM    5  C5  UNL     1     -34.062   5.516   4.747  1.00 20.00    -0.009 C 
HETATM    6  C6  UNL     1     -33.951   6.400   3.482  1.00 20.00     0.016 C 
HETATM    7  C7  UNL     1     -35.151   4.447   4.645  1.00 20.00     0.011 C 
ENDROOT
BRANCH   6   8
HETATM    8  C8  UNL     1     -33.735   5.594   2.199  1.00 20.00     0.169 C 
BRANCH   8   9
HETATM    9  O9  UNL     1     -32.727   4.632   2.442  1.00 20.00    -0.400 OA
HETATM   10  H23 UNL     1     -32.559   4.627   3.399  1.00 20.00     0.209 HD
ENDBRANCH   8   9
ENDBRANCH   6   8
TORSDOF 2
ENDMDL
MODEL 8
REMARK VINA RESULT:      -4.2     12.103     12.525
REMARK  2 active torsions:
REMARK  status: ('A' for Active; 'I' for Inactive)
REMARK    1  A    between atoms: C6_6  and  C8_8 
REMARK    2  A    between atoms: C8_8  and  O9_9 
ROOT
HETATM    1  C1  UNL     1     -34.966  17.070  -2.339  1.00 20.00    -0.030 C 
HETATM    2  C2  UNL     1     -36.212  16.882  -2.790  1.00 20.00    -0.030 C 
HETATM    3  C3  UNL     1     -33.785  16.307  -2.859  1.00 20.00     0.031 C 
HETATM    4  C4  UNL     1     -36.560  15.870  -3.839  1.00 20.00     0.034 C 
HETATM    5  C5  UNL     1     -34.068  15.552  -4.175  1.00 20.00    -0.009 C 
HETATM    6  C6  UNL     1     -35.439  14.841  -4.100  1.00 20.00     0.016 C 
HETATM    7  C7  UNL     1     -32.908  14.600  -4.475  1.00 20.00     0.011 C 
ENDROOT
BRANCH   6   8
HETATM    8  C8  UNL     1     -35.772  14.035  -5.357  1.00 20.00     0.169 C 
BRANCH   8   9
HETATM    9  O9  UNL     1     -35.921  12.677  -4.990  1.00 20.00    -0.400 OA
HETATM   10  H23 UNL     1     -36.582  12.289  -5.589  1.00 20.00     0.209 HD
ENDBRANCH   8   9
ENDBRANCH   6   8
TORSDOF 2
ENDMDL
MODEL 9
REMARK VINA RESULT:      -4.0      1.375      2.883
REMARK  2 active torsions:
REMARK  status: ('A' for Active; 'I' for Inactive)
REMARK    1  A    between atoms: C6_6  and  C8_8 
REMARK    2  A    between atoms: C8_8  and  O9_9 
ROOT
HETATM    1  C1  UNL     1     -33.184   5.407   2.151  1.00 20.00    -0.030 C 
HETATM    2  C2  UNL     1     -32.946   6.720   2.254  1.00 20.00    -0.030 C 
HETATM    3  C3  UNL     1     -33.770   4.592   3.264  1.00 20.00     0.031 C 
HETATM    4  C4  UNL     1     -33.212   7.504   3.504  1.00 20.00     0.034 C 
HETATM    5  C5  UNL     1     -34.387   5.443   4.395  1.00 20.00    -0.009 C 
HETATM    6  C6  UNL     1     -33.450   6.622   4.748  1.00 20.00     0.016 C 
HETATM    7  C7  UNL     1     -34.706   4.544   5.592  1.00 20.00     0.011 C 
ENDROOT
BRANCH   6   8
HETATM    8  C8  UNL     1     -33.978   7.491   5.893  1.00 20.00     0.169 C 
BRANCH   8   9
HETATM    9  O9  UNL     1     -32.871   8.010   6.604  1.00 20.00    -0.400 OA
HETATM   10  H23 UNL     1     -32.716   8.911   6.275  1.00 20.00     0.209 HD
ENDBRANCH   8   9
ENDBRANCH   6   8
TORSDOF 2
ENDMDL
