MODEL 1
REMARK VINA RESULT:      -5.0      0.000      0.000
REMARK  2 active torsions:
REMARK  status: ('A' for Active; 'I' for Inactive)
REMARK    1  A    between atoms: C3_3  and  C7_7 
REMARK    2  A    between atoms: C4_4  and  C8_8 
ROOT
HETATM    1  C5  UNL     1     -31.340   8.212   3.849  1.00 20.00     0.014 C 
HETATM    2  C6  UNL     1     -31.737   9.298   2.848  1.00 20.00     0.037 C 
HETATM    3  C7  UNL     1     -32.429   7.139   3.987  1.00 20.00     0.036 C 
HETATM    4  C8  UNL     1     -32.195   8.674   1.528  1.00 20.00     0.144 C 
HETATM    5  C9  UNL     1     -32.851   6.644   2.588  1.00 20.00     0.126 C 
HETATM    6  C10 UNL     1     -33.992   5.632   2.617  1.00 20.00     0.040 C 
HETATM    7  O11 UNL     1     -33.253   7.741   1.757  1.00 20.00    -0.377 OA
ENDROOT
BRANCH   3   8
HETATM    8  C3  UNL     1     -33.575   7.667   4.802  1.00 20.00    -0.030 C 
HETATM    9  C1  UNL     1     -33.922   7.189   6.003  1.00 20.00     0.007 C 
ENDBRANCH   3   8
BRANCH   4  10
HETATM   10  C4  UNL     1     -32.695   9.721   0.589  1.00 20.00    -0.005 C 
HETATM   11  C2  UNL     1     -33.241   9.459  -0.603  1.00 20.00     0.009 C 
ENDBRANCH   4  10
TORSDOF 2
ENDMDL
MODEL 2
REMARK VINA RESULT:      -5.0      1.649      3.208
REMARK  2 active torsions:
REMARK  status: ('A' for Active; 'I' for Inactive)
REMARK    1  A    between atoms: C3_3  and  C7_7 
REMARK    2  A    between atoms: C4_4  and  C8_8 
ROOT
HETATM    1  C5  UNL     1     -34.998   6.034   3.092  1.00 20.00     0.014 C 
HETATM    2  C6  UNL     1     -33.712   6.380   2.342  1.00 20.00     0.037 C 
HETATM    3  C7  UNL     1     -34.783   6.010   4.612  1.00 20.00     0.036 C 
HETATM    4  C8  UNL     1     -33.074   7.645   2.920  1.00 20.00     0.144 C 
HETATM    5  C9  UNL     1     -34.072   7.306   5.056  1.00 20.00     0.126 C 
HETATM    6  C10 UNL     1     -33.739   7.340   6.544  1.00 20.00     0.040 C 
HETATM    7  O11 UNL     1     -32.854   7.498   4.325  1.00 20.00    -0.377 OA
ENDROOT
BRANCH   3   8
HETATM    8  C3  UNL     1     -34.048   4.762   5.012  1.00 20.00    -0.030 C 
HETATM    9  C1  UNL     1     -34.005   3.649   4.271  1.00 20.00     0.007 C 
ENDBRANCH   3   8
BRANCH   4  10
HETATM   10  C4  UNL     1     -31.758   7.923   2.271  1.00 20.00    -0.005 C 
HETATM   11  C2  UNL     1     -31.609   8.657   1.164  1.00 20.00     0.009 C 
ENDBRANCH   4  10
TORSDOF 2
ENDMDL
MODEL 3
REMARK VINA RESULT:      -4.0     10.197     11.288
REMARK  2 active torsions:
REMARK  status: ('A' for Active; 'I' for Inactive)
REMARK    1  A    between atoms: C3_3  and  C7_7 
REMARK    2  A    between atoms: C4_4  and  C8_8 
ROOT
HETATM    1  C5  UNL     1     -33.281  14.791  -4.330  1.00 20.00     0.014 C 
HETATM    2  C6  UNL     1     -33.059  15.607  -5.604  1.00 20.00     0.037 C 
HETATM    3  C7  UNL     1     -34.710  14.950  -3.793  1.00 20.00     0.036 C 
HETATM    4  C8  UNL     1     -34.163  15.326  -6.625  1.00 20.00     0.144 C 
HETATM    5  C9  UNL     1     -35.722  14.709  -4.932  1.00 20.00     0.126 C 
HETATM    6  C10 UNL     1     -37.173  14.926  -4.516  1.00 20.00     0.040 C 
HETATM    7  O11 UNL     1     -35.450  15.566  -6.049  1.00 20.00    -0.377 OA
ENDROOT
BRANCH   3   8
HETATM    8  C3  UNL     1     -34.869  16.288  -3.130  1.00 20.00    -0.030 C 
HETATM    9  C1  UNL     1     -34.052  16.753  -2.178  1.00 20.00     0.007 C 
ENDBRANCH   3   8
BRANCH   4  10
HETATM   10  C4  UNL     1     -34.019  16.206  -7.822  1.00 20.00    -0.005 C 
HETATM   11  C2  UNL     1     -33.968  17.540  -7.768  1.00 20.00     0.009 C 
ENDBRANCH   4  10
TORSDOF 2
ENDMDL
MODEL 4
REMARK VINA RESULT:      -4.0     10.075     11.895
REMARK  2 active torsions:
REMARK  status: ('A' for Active; 'I' for Inactive)
REMARK    1  A    between atoms: C3_3  and  C7_7 
REMARK    2  A    between atoms: C4_4  and  C8_8 
ROOT
HETATM    1  C5  UNL     1     -32.992  14.789  -4.889  1.00 20.00     0.014 C 
HETATM    2  C6  UNL     1     -34.039  14.919  -3.782  1.00 20.00     0.037 C 
HETATM    3  C7  UNL     1     -33.351  15.639  -6.116  1.00 20.00     0.036 C 
HETATM    4  C8  UNL     1     -34.327  16.391  -3.481  1.00 20.00     0.144 C 
HETATM    5  C9  UNL     1     -33.686  17.078  -5.671  1.00 20.00     0.126 C 
HETATM    6  C10 UNL     1     -34.137  17.981  -6.814  1.00 20.00     0.040 C 
HETATM    7  O11 UNL     1     -34.716  17.079  -4.673  1.00 20.00    -0.377 OA
ENDROOT
BRANCH   3   8
HETATM    8  C3  UNL     1     -34.457  14.984  -6.894  1.00 20.00    -0.030 C 
HETATM    9  C1  UNL     1     -34.369  13.766  -7.440  1.00 20.00     0.007 C 
ENDBRANCH   3   8
BRANCH   4  10
HETATM   10  C4  UNL     1     -35.432  16.526  -2.487  1.00 20.00    -0.005 C 
HETATM   11  C2  UNL     1     -35.259  16.942  -1.228  1.00 20.00     0.009 C 
ENDBRANCH   4  10
TORSDOF 2
ENDMDL
MODEL 5
REMARK VINA RESULT:      -4.0      9.800     10.755
REMARK  2 active torsions:
REMARK  status: ('A' for Active; 'I' for Inactive)
REMARK    1  A    between atoms: C3_3  and  C7_7 
REMARK    2  A    between atoms: C4_4  and  C8_8 
ROOT
HETATM    1  C5  UNL     1     -36.123  17.717  -2.415  1.00 20.00     0.014 C 
HETATM    2  C6  UNL     1     -35.737  16.384  -3.056  1.00 20.00     0.037 C 
HETATM    3  C7  UNL     1     -35.131  18.134  -1.321  1.00 20.00     0.036 C 
HETATM    4  C8  UNL     1     -34.270  16.400  -3.491  1.00 20.00     0.144 C 
HETATM    5  C9  UNL     1     -33.690  18.040  -1.864  1.00 20.00     0.126 C 
HETATM    6  C10 UNL     1     -32.623  18.356  -0.821  1.00 20.00     0.040 C 
HETATM    7  O11 UNL     1     -33.424  16.732  -2.387  1.00 20.00    -0.377 OA
ENDROOT
BRANCH   3   8
HETATM    8  C3  UNL     1     -35.354  17.315  -0.081  1.00 20.00    -0.030 C 
HETATM    9  C1  UNL     1     -35.895  17.794   1.045  1.00 20.00     0.007 C 
ENDBRANCH   3   8
BRANCH   4  10
HETATM   10  C4  UNL     1     -33.853  15.063  -4.008  1.00 20.00    -0.005 C 
HETATM   11  C2  UNL     1     -34.705  14.078  -4.310  1.00 20.00     0.009 C 
ENDBRANCH   4  10
TORSDOF 2
ENDMDL
MODEL 6
REMARK VINA RESULT:      -3.9     10.350     11.776
REMARK  2 active torsions:
REMARK  status: ('A' for Active; 'I' for Inactive)
REMARK    1  A    between atoms: C3_3  and  C7_7 
REMARK    2  A    between atoms: C4_4  and  C8_8 
ROOT
HETATM    1  C5  UNL     1     -33.003  15.542  -5.284  1.00 20.00     0.014 C 
HETATM    2  C6  UNL     1     -33.490  15.531  -3.835  1.00 20.00     0.037 C 
HETATM    3  C7  UNL     1     -34.172  15.528  -6.279  1.00 20.00     0.036 C 
HETATM    4  C8  UNL     1     -34.537  16.623  -3.609  1.00 20.00     0.144 C 
HETATM    5  C9  UNL     1     -35.187  16.627  -5.901  1.00 20.00     0.126 C 
HETATM    6  C10 UNL     1     -36.431  16.639  -6.785  1.00 20.00     0.040 C 
HETATM    7  O11 UNL     1     -35.614  16.484  -4.540  1.00 20.00    -0.377 OA
ENDROOT
BRANCH   3   8
HETATM    8  C3  UNL     1     -34.778  14.156  -6.347  1.00 20.00    -0.030 C 
HETATM    9  C1  UNL     1     -34.779  13.391  -7.445  1.00 20.00     0.007 C 
ENDBRANCH   3   8
BRANCH   4  10
HETATM   10  C4  UNL     1     -35.103  16.542  -2.230  1.00 20.00    -0.005 C 
HETATM   11  C2  UNL     1     -34.623  17.220  -1.183  1.00 20.00     0.009 C 
ENDBRANCH   4  10
TORSDOF 2
ENDMDL
MODEL 7
REMARK VINA RESULT:      -3.8      9.985     11.041
REMARK  2 active torsions:
REMARK  status: ('A' for Active; 'I' for Inactive)
REMARK    1  A    between atoms: C3_3  and  C7_7 
REMARK    2  A    between atoms: C4_4  and  C8_8 
ROOT
HETATM    1  C5  UNL     1     -33.442  17.577  -2.920  1.00 20.00     0.014 C 
HETATM    2  C6  UNL     1     -33.744  17.465  -1.425  1.00 20.00     0.037 C 
HETATM    3  C7  UNL     1     -34.386  16.706  -3.759  1.00 20.00     0.036 C 
HETATM    4  C8  UNL     1     -35.233  17.690  -1.157  1.00 20.00     0.144 C 
HETATM    5  C9  UNL     1     -35.847  16.976  -3.345  1.00 20.00     0.126 C 
HETATM    6  C10 UNL     1     -36.860  16.094  -4.068  1.00 20.00     0.040 C 
HETATM    7  O11 UNL     1     -36.023  16.787  -1.935  1.00 20.00    -0.377 OA
ENDROOT
BRANCH   3   8
HETATM    8  C3  UNL     1     -33.993  15.260  -3.647  1.00 20.00    -0.030 C 
HETATM    9  C1  UNL     1     -33.103  14.661  -4.447  1.00 20.00     0.007 C 
ENDBRANCH   3   8
BRANCH   4  10
HETATM   10  C4  UNL     1     -35.555  17.465   0.283  1.00 20.00    -0.005 C 
HETATM   11  C2  UNL     1     -34.963  18.111   1.292  1.00 20.00     0.009 C 
ENDBRANCH   4  10
TORSDOF 2
ENDMDL
MODEL 8
REMARK VINA RESULT:      -3.8     10.273     11.744
REMARK  2 active torsions:
REMARK  status: ('A' for Active; 'I' for Inactive)
REMARK    1  A    between atoms: C3_3  and  C7_7 
REMARK    2  A    between atoms: C4_4  and  C8_8 
ROOT
HETATM    1  C5  UNL     1     -37.158  14.396  -4.935  1.00 20.00     0.014 C 
HETATM    2  C6  UNL     1     -36.320  15.342  -4.074  1.00 20.00     0.037 C 
HETATM    3  C7  UNL     1     -36.563  14.224  -6.339  1.00 20.00     0.036 C 
HETATM    4  C8  UNL     1     -34.846  14.933  -4.102  1.00 20.00     0.144 C 
HETATM    5  C9  UNL     1     -35.062  13.883  -6.229  1.00 20.00     0.126 C 
HETATM    6  C10 UNL     1     -34.360  13.775  -7.579  1.00 20.00     0.040 C 
HETATM    7  O11 UNL     1     -34.370  14.866  -5.448  1.00 20.00    -0.377 OA
ENDROOT
BRANCH   3   8
HETATM    8  C3  UNL     1     -36.836  15.446  -7.170  1.00 20.00    -0.030 C 
HETATM    9  C1  UNL     1     -38.063  15.880  -7.483  1.00 20.00     0.007 C 
ENDBRANCH   3   8
BRANCH   4  10
HETATM   10  C4  UNL     1     -34.005  15.919  -3.361  1.00 20.00    -0.005 C 
HETATM   11  C2  UNL     1     -34.448  16.666  -2.345  1.00 20.00     0.009 C 
ENDBRANCH   4  10
TORSDOF 2
ENDMDL
MODEL 9
REMARK VINA RESULT:      -3.8      1.480      4.470
REMARK  2 active torsions:
REMARK  status: ('A' for Active; 'I' for Inactive)
REMARK    1  A    between atoms: C3_3  and  C7_7 
REMARK    2  A    between atoms: C4_4  and  C8_8 
ROOT
HETATM    1  C5  UNL     1     -32.761   6.776   1.583  1.00 20.00     0.014 C 
HETATM    2  C6  UNL     1     -33.951   6.281   2.405  1.00 20.00     0.037 C 
HETATM    3  C7  UNL     1     -32.142   8.046   2.182  1.00 20.00     0.036 C 
HETATM    4  C8  UNL     1     -33.578   6.176   3.885  1.00 20.00     0.144 C 
HETATM    5  C9  UNL     1     -31.879   7.834   3.687  1.00 20.00     0.126 C 
HETATM    6  C10 UNL     1     -31.339   9.074   4.393  1.00 20.00     0.040 C 
HETATM    7  O11 UNL     1     -33.075   7.426   4.364  1.00 20.00    -0.377 OA
ENDROOT
BRANCH   3   8
HETATM    8  C3  UNL     1     -33.015   9.234   1.892  1.00 20.00    -0.030 C 
HETATM    9  C1  UNL     1     -32.709  10.189   1.006  1.00 20.00     0.007 C 
ENDBRANCH   3   8
BRANCH   4  10
HETATM   10  C4  UNL     1     -34.766   5.808   4.710  1.00 20.00    -0.005 C 
HETATM   11  C2  UNL     1     -34.716   5.006   5.778  1.00 20.00     0.009 C 
ENDBRANCH   4  10
TORSDOF 2
ENDMDL
