MODEL 1
REMARK VINA RESULT:      -5.2      0.000      0.000
REMARK  1 active torsions:
REMARK  status: ('A' for Active; 'I' for Inactive)
REMARK    1  A    between atoms: C3_3  and  C7_7 
ROOT
HETATM    1  C1  UNL     1     -34.379   5.241   4.014  1.00 20.00    -0.019 C 
HETATM    2  C2  UNL     1     -34.382   5.746   5.259  1.00 20.00    -0.087 C 
HETATM    3  C4  UNL     1     -33.737   7.068   5.586  1.00 20.00     0.034 C 
HETATM    4  C5  UNL     1     -33.434   7.912   4.349  1.00 20.00     0.016 C 
HETATM    5  C6  UNL     1     -33.707   5.899   2.832  1.00 20.00     0.015 C 
HETATM    6  C7  UNL     1     -32.788   7.067   3.250  1.00 20.00     0.054 C 
HETATM    7  C8  UNL     1     -35.033   5.028   6.404  1.00 20.00     0.043 C 
HETATM    8  C9  UNL     1     -32.914   4.855   2.036  1.00 20.00     0.015 C 
ENDROOT
BRANCH   6   9
HETATM    9  C3  UNL     1     -32.499   7.957   2.077  1.00 20.00     0.236 C 
HETATM   10  O10 UNL     1     -31.949   9.049   2.176  1.00 20.00    -0.306 OA
ENDBRANCH   6   9
TORSDOF 1
ENDMDL
MODEL 2
REMARK VINA RESULT:      -5.0      2.287      4.352
REMARK  1 active torsions:
REMARK  status: ('A' for Active; 'I' for Inactive)
REMARK    1  A    between atoms: C3_3  and  C7_7 
ROOT
HETATM    1  C1  UNL     1     -33.365   8.175   3.711  1.00 20.00    -0.019 C 
HETATM    2  C2  UNL     1     -32.704   7.927   2.568  1.00 20.00    -0.087 C 
HETATM    3  C4  UNL     1     -32.601   6.539   1.989  1.00 20.00     0.034 C 
HETATM    4  C5  UNL     1     -33.601   5.558   2.598  1.00 20.00     0.016 C 
HETATM    5  C6  UNL     1     -34.031   7.113   4.555  1.00 20.00     0.015 C 
HETATM    6  C7  UNL     1     -33.638   5.683   4.122  1.00 20.00     0.054 C 
HETATM    7  C8  UNL     1     -32.028   9.018   1.790  1.00 20.00     0.043 C 
HETATM    8  C9  UNL     1     -33.691   7.335   6.033  1.00 20.00     0.015 C 
ENDROOT
BRANCH   6   9
HETATM    9  C3  UNL     1     -34.621   4.683   4.655  1.00 20.00     0.236 C 
HETATM   10  O10 UNL     1     -34.528   3.475   4.464  1.00 20.00    -0.306 OA
ENDBRANCH   6   9
TORSDOF 1
ENDMDL
MODEL 3
REMARK VINA RESULT:      -4.5     11.885     12.675
REMARK  1 active torsions:
REMARK  status: ('A' for Active; 'I' for Inactive)
REMARK    1  A    between atoms: C3_3  and  C7_7 
ROOT
HETATM    1  C1  UNL     1     -32.940  17.871  -1.662  1.00 20.00    -0.019 C 
HETATM    2  C2  UNL     1     -33.899  17.029  -2.080  1.00 20.00    -0.087 C 
HETATM    3  C4  UNL     1     -35.179  16.830  -1.310  1.00 20.00     0.034 C 
HETATM    4  C5  UNL     1     -35.427  17.917  -0.265  1.00 20.00     0.016 C 
HETATM    5  C6  UNL     1     -33.008  18.666  -0.378  1.00 20.00     0.015 C 
HETATM    6  C7  UNL     1     -34.160  18.206   0.541  1.00 20.00     0.054 C 
HETATM    7  C8  UNL     1     -33.760  16.234  -3.346  1.00 20.00     0.043 C 
HETATM    8  C9  UNL     1     -31.668  18.577   0.360  1.00 20.00     0.015 C 
ENDROOT
BRANCH   6   9
HETATM    9  C3  UNL     1     -34.477  19.262   1.558  1.00 20.00     0.236 C 
HETATM   10  O10 UNL     1     -34.402  19.080   2.768  1.00 20.00    -0.306 OA
ENDBRANCH   6   9
TORSDOF 1
ENDMDL
MODEL 4
REMARK VINA RESULT:      -4.5      2.180      3.941
REMARK  1 active torsions:
REMARK  status: ('A' for Active; 'I' for Inactive)
REMARK    1  A    between atoms: C3_3  and  C7_7 
ROOT
HETATM    1  C1  UNL     1     -32.979   6.930   2.266  1.00 20.00    -0.019 C 
HETATM    2  C2  UNL     1     -32.192   8.019   2.254  1.00 20.00    -0.087 C 
HETATM    3  C4  UNL     1     -31.924   8.825   3.498  1.00 20.00     0.034 C 
HETATM    4  C5  UNL     1     -32.307   8.093   4.783  1.00 20.00     0.016 C 
HETATM    5  C6  UNL     1     -33.707   6.422   3.488  1.00 20.00     0.015 C 
HETATM    6  C7  UNL     1     -33.681   7.434   4.654  1.00 20.00     0.054 C 
HETATM    7  C8  UNL     1     -31.524   8.500   0.999  1.00 20.00     0.043 C 
HETATM    8  C9  UNL     1     -35.152   6.066   3.122  1.00 20.00     0.015 C 
ENDROOT
BRANCH   6   9
HETATM    9  C3  UNL     1     -34.003   6.753   5.951  1.00 20.00     0.236 C 
HETATM   10  O10 UNL     1     -34.342   5.577   6.031  1.00 20.00    -0.306 OA
ENDBRANCH   6   9
TORSDOF 1
ENDMDL
MODEL 5
REMARK VINA RESULT:      -4.4     11.789     12.208
REMARK  1 active torsions:
REMARK  status: ('A' for Active; 'I' for Inactive)
REMARK    1  A    between atoms: C3_3  and  C7_7 
ROOT
HETATM    1  C1  UNL     1     -33.821  15.904  -3.097  1.00 20.00    -0.019 C 
HETATM    2  C2  UNL     1     -34.768  16.670  -2.529  1.00 20.00    -0.087 C 
HETATM    3  C4  UNL     1     -36.208  16.619  -2.971  1.00 20.00     0.034 C 
HETATM    4  C5  UNL     1     -36.533  15.391  -3.821  1.00 20.00     0.016 C 
HETATM    5  C6  UNL     1     -34.072  14.957  -4.246  1.00 20.00     0.015 C 
HETATM    6  C7  UNL     1     -35.461  15.160  -4.887  1.00 20.00     0.054 C 
HETATM    7  C8  UNL     1     -34.454  17.624  -1.414  1.00 20.00     0.043 C 
HETATM    8  C9  UNL     1     -32.969  15.115  -5.300  1.00 20.00     0.015 C 
ENDROOT
BRANCH   6   9
HETATM    9  C3  UNL     1     -35.850  13.957  -5.695  1.00 20.00     0.236 C 
HETATM   10  O10 UNL     1     -35.893  12.820  -5.238  1.00 20.00    -0.306 OA
ENDBRANCH   6   9
TORSDOF 1
ENDMDL
MODEL 6
REMARK VINA RESULT:      -4.4     11.555     12.842
REMARK  1 active torsions:
REMARK  status: ('A' for Active; 'I' for Inactive)
REMARK    1  A    between atoms: C3_3  and  C7_7 
ROOT
HETATM    1  C1  UNL     1     -33.281  16.305  -4.939  1.00 20.00    -0.019 C 
HETATM    2  C2  UNL     1     -33.881  16.160  -3.745  1.00 20.00    -0.087 C 
HETATM    3  C4  UNL     1     -34.929  15.104  -3.502  1.00 20.00     0.034 C 
HETATM    4  C5  UNL     1     -34.956  14.023  -4.581  1.00 20.00     0.016 C 
HETATM    5  C6  UNL     1     -33.608  15.478  -6.160  1.00 20.00     0.015 C 
HETATM    6  C7  UNL     1     -34.891  14.640  -5.980  1.00 20.00     0.054 C 
HETATM    7  C8  UNL     1     -33.544  17.037  -2.576  1.00 20.00     0.043 C 
HETATM    8  C9  UNL     1     -33.733  16.389  -7.387  1.00 20.00     0.015 C 
ENDROOT
BRANCH   6   9
HETATM    9  C3  UNL     1     -34.943  13.530  -6.988  1.00 20.00     0.236 C 
HETATM   10  O10 UNL     1     -35.083  12.349  -6.688  1.00 20.00    -0.306 OA
ENDBRANCH   6   9
TORSDOF 1
ENDMDL
MODEL 7
REMARK VINA RESULT:      -4.3      2.229      3.764
REMARK  1 active torsions:
REMARK  status: ('A' for Active; 'I' for Inactive)
REMARK    1  A    between atoms: C3_3  and  C7_7 
ROOT
HETATM    1  C1  UNL     1     -32.318   6.522   2.456  1.00 20.00    -0.019 C 
HETATM    2  C2  UNL     1     -32.704   7.788   2.692  1.00 20.00    -0.087 C 
HETATM    3  C4  UNL     1     -33.792   8.119   3.680  1.00 20.00     0.034 C 
HETATM    4  C5  UNL     1     -34.124   6.962   4.621  1.00 20.00     0.016 C 
HETATM    5  C6  UNL     1     -32.942   5.309   3.105  1.00 20.00     0.015 C 
HETATM    6  C7  UNL     1     -34.250   5.646   3.852  1.00 20.00     0.054 C 
HETATM    7  C8  UNL     1     -32.073   8.954   1.988  1.00 20.00     0.043 C 
HETATM    8  C9  UNL     1     -33.193   4.227   2.048  1.00 20.00     0.015 C 
ENDROOT
BRANCH   6   9
HETATM    9  C3  UNL     1     -34.595   4.559   4.827  1.00 20.00     0.236 C 
HETATM   10  O10 UNL     1     -34.478   4.679   6.042  1.00 20.00    -0.306 OA
ENDBRANCH   6   9
TORSDOF 1
ENDMDL
MODEL 8
REMARK VINA RESULT:      -4.3     11.630     12.270
REMARK  1 active torsions:
REMARK  status: ('A' for Active; 'I' for Inactive)
REMARK    1  A    between atoms: C3_3  and  C7_7 
ROOT
HETATM    1  C1  UNL     1     -35.744  16.112  -3.747  1.00 20.00    -0.019 C 
HETATM    2  C2  UNL     1     -34.530  16.037  -3.175  1.00 20.00    -0.087 C 
HETATM    3  C4  UNL     1     -33.481  15.065  -3.650  1.00 20.00     0.034 C 
HETATM    4  C5  UNL     1     -33.788  14.474  -5.026  1.00 20.00     0.016 C 
HETATM    5  C6  UNL     1     -36.206  15.222  -4.878  1.00 20.00     0.015 C 
HETATM    6  C7  UNL     1     -35.249  14.036  -5.124  1.00 20.00     0.054 C 
HETATM    7  C8  UNL     1     -34.139  16.921  -2.027  1.00 20.00     0.043 C 
HETATM    8  C9  UNL     1     -37.624  14.715  -4.593  1.00 20.00     0.015 C 
ENDROOT
BRANCH   6   9
HETATM    9  C3  UNL     1     -35.477  13.449  -6.486  1.00 20.00     0.236 C 
HETATM   10  O10 UNL     1     -35.136  12.314  -6.799  1.00 20.00    -0.306 OA
ENDBRANCH   6   9
TORSDOF 1
ENDMDL
MODEL 9
REMARK VINA RESULT:      -4.3     11.909     12.592
REMARK  1 active torsions:
REMARK  status: ('A' for Active; 'I' for Inactive)
REMARK    1  A    between atoms: C3_3  and  C7_7 
ROOT
HETATM    1  C1  UNL     1     -35.423  17.045  -0.988  1.00 20.00    -0.019 C 
HETATM    2  C2  UNL     1     -35.164  16.826  -2.289  1.00 20.00    -0.087 C 
HETATM    3  C4  UNL     1     -33.873  17.262  -2.931  1.00 20.00     0.034 C 
HETATM    4  C5  UNL     1     -32.785  17.614  -1.917  1.00 20.00     0.016 C 
HETATM    5  C6  UNL     1     -34.492  17.776  -0.049  1.00 20.00     0.015 C 
HETATM    6  C7  UNL     1     -33.343  18.489  -0.792  1.00 20.00     0.054 C 
HETATM    7  C8  UNL     1     -36.145  16.128  -3.185  1.00 20.00     0.043 C 
HETATM    8  C9  UNL     1     -35.288  18.780   0.793  1.00 20.00     0.015 C 
ENDROOT
BRANCH   6   9
HETATM    9  C3  UNL     1     -32.224  18.813   0.153  1.00 20.00     0.236 C 
HETATM   10  O10 UNL     1     -31.071  18.424  -0.004  1.00 20.00    -0.306 OA
ENDBRANCH   6   9
TORSDOF 1
ENDMDL
