MODEL 1
REMARK VINA RESULT:      -5.8      0.000      0.000
REMARK  1 active torsions:
REMARK  status: ('A' for Active; 'I' for Inactive)
REMARK    1  A    between atoms: C3_3  and  C7_7 
ROOT
HETATM    1  C1  UNL     1     -32.518   7.822   4.032  1.00 20.00    -0.019 C 
HETATM    2  C2  UNL     1     -32.602   7.868   2.690  1.00 20.00    -0.087 C 
HETATM    3  C4  UNL     1     -33.409   6.866   1.907  1.00 20.00     0.034 C 
HETATM    4  C5  UNL     1     -33.779   5.625   2.720  1.00 20.00     0.016 C 
HETATM    5  C6  UNL     1     -33.240   6.812   4.894  1.00 20.00     0.015 C 
HETATM    6  C7  UNL     1     -34.296   6.009   4.106  1.00 20.00     0.054 C 
HETATM    7  C8  UNL     1     -31.895   8.920   1.888  1.00 20.00     0.043 C 
HETATM    8  C9  UNL     1     -33.886   7.522   6.090  1.00 20.00     0.015 C 
ENDROOT
BRANCH   6   9
HETATM    9  C3  UNL     1     -34.654   4.757   4.853  1.00 20.00     0.236 C 
HETATM   10  O10 UNL     1     -34.375   3.630   4.457  1.00 20.00    -0.306 OA
ENDBRANCH   6   9
TORSDOF 1
ENDMDL
MODEL 2
REMARK VINA RESULT:      -5.0      2.269      4.354
REMARK  1 active torsions:
REMARK  status: ('A' for Active; 'I' for Inactive)
REMARK    1  A    between atoms: C3_3  and  C7_7 
ROOT
HETATM    1  C1  UNL     1     -33.997   5.410   3.847  1.00 20.00    -0.019 C 
HETATM    2  C2  UNL     1     -34.175   5.852   5.105  1.00 20.00    -0.087 C 
HETATM    3  C4  UNL     1     -33.684   7.204   5.551  1.00 20.00     0.034 C 
HETATM    4  C5  UNL     1     -32.671   7.824   4.588  1.00 20.00     0.016 C 
HETATM    5  C6  UNL     1     -33.340   6.213   2.749  1.00 20.00     0.015 C 
HETATM    6  C7  UNL     1     -33.137   7.692   3.138  1.00 20.00     0.054 C 
HETATM    7  C8  UNL     1     -34.871   5.025   6.144  1.00 20.00     0.043 C 
HETATM    8  C9  UNL     1     -34.169   6.105   1.463  1.00 20.00     0.015 C 
ENDROOT
BRANCH   6   9
HETATM    9  C3  UNL     1     -32.113   8.325   2.242  1.00 20.00     0.236 C 
HETATM   10  O10 UNL     1     -32.367   9.240   1.466  1.00 20.00    -0.306 OA
ENDBRANCH   6   9
TORSDOF 1
ENDMDL
MODEL 3
REMARK VINA RESULT:      -4.9      2.201      3.801
REMARK  1 active torsions:
REMARK  status: ('A' for Active; 'I' for Inactive)
REMARK    1  A    between atoms: C3_3  and  C7_7 
ROOT
HETATM    1  C1  UNL     1     -33.874   6.866   5.095  1.00 20.00    -0.019 C 
HETATM    2  C2  UNL     1     -34.173   5.610   4.717  1.00 20.00    -0.087 C 
HETATM    3  C4  UNL     1     -33.908   5.114   3.319  1.00 20.00     0.034 C 
HETATM    4  C5  UNL     1     -33.645   6.242   2.321  1.00 20.00     0.016 C 
HETATM    5  C6  UNL     1     -33.214   7.889   4.200  1.00 20.00     0.015 C 
HETATM    6  C7  UNL     1     -32.670   7.269   2.895  1.00 20.00     0.054 C 
HETATM    7  C8  UNL     1     -34.792   4.624   5.662  1.00 20.00     0.043 C 
HETATM    8  C9  UNL     1     -32.092   8.600   4.966  1.00 20.00     0.015 C 
ENDROOT
BRANCH   6   9
HETATM    9  C3  UNL     1     -32.441   8.343   1.872  1.00 20.00     0.236 C 
HETATM   10  O10 UNL     1     -31.421   8.426   1.195  1.00 20.00    -0.306 OA
ENDBRANCH   6   9
TORSDOF 1
ENDMDL
MODEL 4
REMARK VINA RESULT:      -4.8     11.240     11.860
REMARK  1 active torsions:
REMARK  status: ('A' for Active; 'I' for Inactive)
REMARK    1  A    between atoms: C3_3  and  C7_7 
ROOT
HETATM    1  C1  UNL     1     -33.350  16.303  -3.220  1.00 20.00    -0.019 C 
HETATM    2  C2  UNL     1     -34.169  16.852  -2.304  1.00 20.00    -0.087 C 
HETATM    3  C4  UNL     1     -35.633  16.504  -2.233  1.00 20.00     0.034 C 
HETATM    4  C5  UNL     1     -36.145  15.801  -3.490  1.00 20.00     0.016 C 
HETATM    5  C6  UNL     1     -33.780  15.266  -4.231  1.00 20.00     0.015 C 
HETATM    6  C7  UNL     1     -35.185  14.698  -3.935  1.00 20.00     0.054 C 
HETATM    7  C8  UNL     1     -33.676  17.849  -1.298  1.00 20.00     0.043 C 
HETATM    8  C9  UNL     1     -32.744  14.136  -4.285  1.00 20.00     0.015 C 
ENDROOT
BRANCH   6   9
HETATM    9  C3  UNL     1     -35.742  14.037  -5.162  1.00 20.00     0.236 C 
HETATM   10  O10 UNL     1     -35.937  12.830  -5.250  1.00 20.00    -0.306 OA
ENDBRANCH   6   9
TORSDOF 1
ENDMDL
MODEL 5
REMARK VINA RESULT:      -4.8      1.030      2.297
REMARK  1 active torsions:
REMARK  status: ('A' for Active; 'I' for Inactive)
REMARK    1  A    between atoms: C3_3  and  C7_7 
ROOT
HETATM    1  C1  UNL     1     -33.086   6.904   2.330  1.00 20.00    -0.019 C 
HETATM    2  C2  UNL     1     -32.266   7.916   2.666  1.00 20.00    -0.087 C 
HETATM    3  C4  UNL     1     -32.094   8.361   4.095  1.00 20.00     0.034 C 
HETATM    4  C5  UNL     1     -33.186   7.832   5.025  1.00 20.00     0.016 C 
HETATM    5  C6  UNL     1     -33.877   6.085   3.323  1.00 20.00     0.015 C 
HETATM    6  C7  UNL     1     -33.446   6.346   4.782  1.00 20.00     0.054 C 
HETATM    7  C8  UNL     1     -31.473   8.668   1.639  1.00 20.00     0.043 C 
HETATM    8  C9  UNL     1     -33.750   4.595   2.983  1.00 20.00     0.015 C 
ENDROOT
BRANCH   6   9
HETATM    9  C3  UNL     1     -34.515   5.880   5.727  1.00 20.00     0.236 C 
HETATM   10  O10 UNL     1     -34.611   4.723   6.121  1.00 20.00    -0.306 OA
ENDBRANCH   6   9
TORSDOF 1
ENDMDL
MODEL 6
REMARK VINA RESULT:      -4.7     11.424     12.045
REMARK  1 active torsions:
REMARK  status: ('A' for Active; 'I' for Inactive)
REMARK    1  A    between atoms: C3_3  and  C7_7 
ROOT
HETATM    1  C1  UNL     1     -35.574  16.502  -2.707  1.00 20.00    -0.019 C 
HETATM    2  C2  UNL     1     -34.229  16.521  -2.697  1.00 20.00    -0.087 C 
HETATM    3  C4  UNL     1     -33.412  15.642  -3.608  1.00 20.00     0.034 C 
HETATM    4  C5  UNL     1     -34.222  14.504  -4.229  1.00 20.00     0.016 C 
HETATM    5  C6  UNL     1     -36.404  15.650  -3.638  1.00 20.00     0.015 C 
HETATM    6  C7  UNL     1     -35.562  15.008  -4.762  1.00 20.00     0.054 C 
HETATM    7  C8  UNL     1     -33.456  17.419  -1.777  1.00 20.00     0.043 C 
HETATM    8  C9  UNL     1     -37.541  16.491  -4.233  1.00 20.00     0.015 C 
ENDROOT
BRANCH   6   9
HETATM    9  C3  UNL     1     -36.307  13.854  -5.368  1.00 20.00     0.236 C 
HETATM   10  O10 UNL     1     -35.949  12.686  -5.259  1.00 20.00    -0.306 OA
ENDBRANCH   6   9
TORSDOF 1
ENDMDL
MODEL 7
REMARK VINA RESULT:      -4.1     11.864     12.672
REMARK  1 active torsions:
REMARK  status: ('A' for Active; 'I' for Inactive)
REMARK    1  A    between atoms: C3_3  and  C7_7 
ROOT
HETATM    1  C1  UNL     1     -35.795  15.636  -3.471  1.00 20.00    -0.019 C 
HETATM    2  C2  UNL     1     -35.171  14.852  -4.369  1.00 20.00    -0.087 C 
HETATM    3  C4  UNL     1     -33.783  15.159  -4.866  1.00 20.00     0.034 C 
HETATM    4  C5  UNL     1     -33.337  16.588  -4.560  1.00 20.00     0.016 C 
HETATM    5  C6  UNL     1     -35.177  16.860  -2.838  1.00 20.00     0.015 C 
HETATM    6  C7  UNL     1     -33.662  16.971  -3.117  1.00 20.00     0.054 C 
HETATM    7  C8  UNL     1     -35.820  13.624  -4.934  1.00 20.00     0.043 C 
HETATM    8  C9  UNL     1     -35.446  16.854  -1.328  1.00 20.00     0.015 C 
ENDROOT
BRANCH   6   9
HETATM    9  C3  UNL     1     -33.194  18.375  -2.870  1.00 20.00     0.236 C 
HETATM   10  O10 UNL     1     -32.461  18.689  -1.938  1.00 20.00    -0.306 OA
ENDBRANCH   6   9
TORSDOF 1
ENDMDL
MODEL 8
REMARK VINA RESULT:      -4.1     11.374     12.123
REMARK  1 active torsions:
REMARK  status: ('A' for Active; 'I' for Inactive)
REMARK    1  A    between atoms: C3_3  and  C7_7 
ROOT
HETATM    1  C1  UNL     1     -36.562  16.106  -3.942  1.00 20.00    -0.019 C 
HETATM    2  C2  UNL     1     -37.354  15.174  -4.503  1.00 20.00    -0.087 C 
HETATM    3  C4  UNL     1     -36.797  13.902  -5.087  1.00 20.00     0.034 C 
HETATM    4  C5  UNL     1     -35.287  13.957  -5.319  1.00 20.00     0.016 C 
HETATM    5  C6  UNL     1     -35.064  15.971  -3.795  1.00 20.00     0.015 C 
HETATM    6  C7  UNL     1     -34.565  14.544  -4.106  1.00 20.00     0.054 C 
HETATM    7  C8  UNL     1     -38.842  15.344  -4.585  1.00 20.00     0.043 C 
HETATM    8  C9  UNL     1     -34.643  16.392  -2.381  1.00 20.00     0.015 C 
ENDROOT
BRANCH   6   9
HETATM    9  C3  UNL     1     -33.090  14.563  -4.383  1.00 20.00     0.236 C 
HETATM   10  O10 UNL     1     -32.342  13.627  -4.125  1.00 20.00    -0.306 OA
ENDBRANCH   6   9
TORSDOF 1
ENDMDL
MODEL 9
REMARK VINA RESULT:      -4.1     11.661     12.500
REMARK  1 active torsions:
REMARK  status: ('A' for Active; 'I' for Inactive)
REMARK    1  A    between atoms: C3_3  and  C7_7 
ROOT
HETATM    1  C1  UNL     1     -33.675  17.099  -4.486  1.00 20.00    -0.019 C 
HETATM    2  C2  UNL     1     -33.842  17.330  -3.171  1.00 20.00    -0.087 C 
HETATM    3  C4  UNL     1     -34.750  16.480  -2.322  1.00 20.00     0.034 C 
HETATM    4  C5  UNL     1     -35.711  15.621  -3.143  1.00 20.00     0.016 C 
HETATM    5  C6  UNL     1     -34.325  15.961  -5.238  1.00 20.00     0.015 C 
HETATM    6  C7  UNL     1     -34.985  14.931  -4.297  1.00 20.00     0.054 C 
HETATM    7  C8  UNL     1     -33.138  18.453  -2.468  1.00 20.00     0.043 C 
HETATM    8  C9  UNL     1     -33.289  15.279  -6.141  1.00 20.00     0.015 C 
ENDROOT
BRANCH   6   9
HETATM    9  C3  UNL     1     -35.971  14.095  -5.059  1.00 20.00     0.236 C 
HETATM   10  O10 UNL     1     -35.894  12.875  -5.152  1.00 20.00    -0.306 OA
ENDBRANCH   6   9
TORSDOF 1
ENDMDL
