MODEL 1
REMARK VINA RESULT:      -4.4      0.000      0.000
REMARK  5 active torsions:
REMARK  status: ('A' for Active; 'I' for Inactive)
REMARK    1  A    between atoms: C2_2  and  C3_3 
REMARK    2  A    between atoms: C3_3  and  N7_7 
REMARK    3  A    between atoms: C4_4  and  C5_5 
REMARK    4  A    between atoms: C4_4  and  N7_7 
REMARK    5  A    between atoms: N6_6  and  N7_7 
ROOT
HETATM    1  N7  UNL     1     -32.750   6.984   3.504  1.00 20.00    -0.205 NA
ENDROOT
BRANCH   1   2
HETATM    2  C3  UNL     1     -31.897   8.093   3.182  1.00 20.00     0.111 C 
BRANCH   2   3
HETATM    3  C2  UNL     1     -31.871   8.392   1.687  1.00 20.00     0.011 C 
HETATM    4  C1  UNL     1     -32.477   9.746   1.347  1.00 20.00     0.006 C 
ENDBRANCH   2   3
ENDBRANCH   1   2
BRANCH   1   5
HETATM    5  C4  UNL     1     -33.919   7.437   4.286  1.00 20.00     0.127 C 
BRANCH   5   6
HETATM    6  C5  UNL     1     -33.925   6.883   5.701  1.00 20.00     0.130 C 
HETATM    7 CL9  UNL     1     -34.601   5.237   5.750  1.00 20.00    -0.129 Cl
ENDBRANCH   5   6
ENDBRANCH   1   5
BRANCH   1   8
HETATM    8  N6  UNL     1     -33.140   6.246   2.468  1.00 20.00     0.030 NA
HETATM    9  O8  UNL     1     -33.018   5.041   2.717  1.00 20.00    -0.082 OA
ENDBRANCH   1   8
TORSDOF 5
ENDMDL
MODEL 2
REMARK VINA RESULT:      -4.1      1.966      2.189
REMARK  5 active torsions:
REMARK  status: ('A' for Active; 'I' for Inactive)
REMARK    1  A    between atoms: C2_2  and  C3_3 
REMARK    2  A    between atoms: C3_3  and  N7_7 
REMARK    3  A    between atoms: C4_4  and  C5_5 
REMARK    4  A    between atoms: C4_4  and  N7_7 
REMARK    5  A    between atoms: N6_6  and  N7_7 
ROOT
HETATM    1  N7  UNL     1     -33.514   7.422   3.904  1.00 20.00    -0.205 NA
ENDROOT
BRANCH   1   2
HETATM    2  C3  UNL     1     -32.493   7.206   2.918  1.00 20.00     0.111 C 
BRANCH   2   3
HETATM    3  C2  UNL     1     -31.751   8.489   2.559  1.00 20.00     0.011 C 
HETATM    4  C1  UNL     1     -32.375   9.218   1.378  1.00 20.00     0.006 C 
ENDBRANCH   2   3
ENDBRANCH   1   2
BRANCH   1   5
HETATM    5  C4  UNL     1     -34.547   6.368   3.823  1.00 20.00     0.127 C 
BRANCH   5   6
HETATM    6  C5  UNL     1     -33.988   5.039   3.341  1.00 20.00     0.130 C 
HETATM    7 CL9  UNL     1     -34.082   3.798   4.615  1.00 20.00    -0.129 Cl
ENDBRANCH   5   6
ENDBRANCH   1   5
BRANCH   1   8
HETATM    8  N6  UNL     1     -33.080   7.554   5.154  1.00 20.00     0.030 NA
HETATM    9  O8  UNL     1     -33.985   7.312   5.961  1.00 20.00    -0.082 OA
ENDBRANCH   1   8
TORSDOF 5
ENDMDL
MODEL 3
REMARK VINA RESULT:      -4.1      3.018      4.290
REMARK  5 active torsions:
REMARK  status: ('A' for Active; 'I' for Inactive)
REMARK    1  A    between atoms: C2_2  and  C3_3 
REMARK    2  A    between atoms: C3_3  and  N7_7 
REMARK    3  A    between atoms: C4_4  and  C5_5 
REMARK    4  A    between atoms: C4_4  and  N7_7 
REMARK    5  A    between atoms: N6_6  and  N7_7 
ROOT
HETATM    1  N7  UNL     1     -32.896   7.124   4.003  1.00 20.00    -0.205 NA
ENDROOT
BRANCH   1   2
HETATM    2  C3  UNL     1     -33.667   6.330   3.088  1.00 20.00     0.111 C 
BRANCH   2   3
HETATM    3  C2  UNL     1     -34.868   5.673   3.759  1.00 20.00     0.011 C 
HETATM    4  C1  UNL     1     -34.499   4.401   4.510  1.00 20.00     0.006 C 
ENDBRANCH   2   3
ENDBRANCH   1   2
BRANCH   1   5
HETATM    5  C4  UNL     1     -32.005   8.047   3.269  1.00 20.00     0.127 C 
BRANCH   5   6
HETATM    6  C5  UNL     1     -32.437   8.250   1.826  1.00 20.00     0.130 C 
HETATM    7 CL9  UNL     1     -32.465   9.978   1.397  1.00 20.00    -0.129 Cl
ENDBRANCH   5   6
ENDBRANCH   1   5
BRANCH   1   8
HETATM    8  N6  UNL     1     -33.602   7.786   4.917  1.00 20.00     0.030 NA
HETATM    9  O8  UNL     1     -33.269   7.447   6.058  1.00 20.00    -0.082 OA
ENDBRANCH   1   8
TORSDOF 5
ENDMDL
MODEL 4
REMARK VINA RESULT:      -4.1      2.433      4.001
REMARK  5 active torsions:
REMARK  status: ('A' for Active; 'I' for Inactive)
REMARK    1  A    between atoms: C2_2  and  C3_3 
REMARK    2  A    between atoms: C3_3  and  N7_7 
REMARK    3  A    between atoms: C4_4  and  C5_5 
REMARK    4  A    between atoms: C4_4  and  N7_7 
REMARK    5  A    between atoms: N6_6  and  N7_7 
ROOT
HETATM    1  N7  UNL     1     -33.118   7.037   2.776  1.00 20.00    -0.205 NA
ENDROOT
BRANCH   1   2
HETATM    2  C3  UNL     1     -34.145   7.331   3.735  1.00 20.00     0.111 C 
BRANCH   2   3
HETATM    3  C2  UNL     1     -33.672   7.130   5.171  1.00 20.00     0.011 C 
HETATM    4  C1  UNL     1     -34.412   6.006   5.882  1.00 20.00     0.006 C 
ENDBRANCH   2   3
ENDBRANCH   1   2
BRANCH   1   5
HETATM    5  C4  UNL     1     -32.094   8.103   2.765  1.00 20.00     0.127 C 
BRANCH   5   6
HETATM    6  C5  UNL     1     -31.890   8.703   1.384  1.00 20.00     0.130 C 
HETATM    7 CL9  UNL     1     -32.740  10.259   1.223  1.00 20.00    -0.129 Cl
ENDBRANCH   5   6
ENDBRANCH   1   5
BRANCH   1   8
HETATM    8  N6  UNL     1     -32.546   5.843   2.902  1.00 20.00     0.030 NA
HETATM    9  O8  UNL     1     -33.335   4.943   2.592  1.00 20.00    -0.082 OA
ENDBRANCH   1   8
TORSDOF 5
ENDMDL
MODEL 5
REMARK VINA RESULT:      -4.1      1.869      2.129
REMARK  5 active torsions:
REMARK  status: ('A' for Active; 'I' for Inactive)
REMARK    1  A    between atoms: C2_2  and  C3_3 
REMARK    2  A    between atoms: C3_3  and  N7_7 
REMARK    3  A    between atoms: C4_4  and  C5_5 
REMARK    4  A    between atoms: C4_4  and  N7_7 
REMARK    5  A    between atoms: N6_6  and  N7_7 
ROOT
HETATM    1  N7  UNL     1     -32.970   7.780   2.897  1.00 20.00    -0.205 NA
ENDROOT
BRANCH   1   2
HETATM    2  C3  UNL     1     -32.221   8.185   1.741  1.00 20.00     0.111 C 
BRANCH   2   3
HETATM    3  C2  UNL     1     -32.660   9.546   1.212  1.00 20.00     0.011 C 
HETATM    4  C1  UNL     1     -33.017   9.515  -0.267  1.00 20.00     0.006 C 
ENDBRANCH   2   3
ENDBRANCH   1   2
BRANCH   1   5
HETATM    5  C4  UNL     1     -33.449   6.390   2.745  1.00 20.00     0.127 C 
BRANCH   5   6
HETATM    6  C5  UNL     1     -34.557   6.044   3.725  1.00 20.00     0.130 C 
HETATM    7 CL9  UNL     1     -34.372   4.388   4.353  1.00 20.00    -0.129 Cl
ENDBRANCH   5   6
ENDBRANCH   1   5
BRANCH   1   8
HETATM    8  N6  UNL     1     -32.347   7.933   4.062  1.00 20.00     0.030 NA
HETATM    9  O8  UNL     1     -31.159   8.229   3.889  1.00 20.00    -0.082 OA
ENDBRANCH   1   8
TORSDOF 5
ENDMDL
MODEL 6
REMARK VINA RESULT:      -4.0      2.354      3.955
REMARK  5 active torsions:
REMARK  status: ('A' for Active; 'I' for Inactive)
REMARK    1  A    between atoms: C2_2  and  C3_3 
REMARK    2  A    between atoms: C3_3  and  N7_7 
REMARK    3  A    between atoms: C4_4  and  C5_5 
REMARK    4  A    between atoms: C4_4  and  N7_7 
REMARK    5  A    between atoms: N6_6  and  N7_7 
ROOT
HETATM    1  N7  UNL     1     -33.480   6.568   2.982  1.00 20.00    -0.205 NA
ENDROOT
BRANCH   1   2
HETATM    2  C3  UNL     1     -34.654   6.130   3.682  1.00 20.00     0.111 C 
BRANCH   2   3
HETATM    3  C2  UNL     1     -34.482   6.185   5.196  1.00 20.00     0.011 C 
HETATM    4  C1  UNL     1     -34.564   4.812   5.848  1.00 20.00     0.006 C 
ENDBRANCH   2   3
ENDBRANCH   1   2
BRANCH   1   5
HETATM    5  C4  UNL     1     -32.762   7.597   3.763  1.00 20.00     0.127 C 
BRANCH   5   6
HETATM    6  C5  UNL     1     -31.639   8.250   2.975  1.00 20.00     0.130 C 
HETATM    7 CL9  UNL     1     -32.249   9.000   1.479  1.00 20.00    -0.129 Cl
ENDBRANCH   5   6
ENDBRANCH   1   5
BRANCH   1   8
HETATM    8  N6  UNL     1     -32.647   5.602   2.607  1.00 20.00     0.030 NA
HETATM    9  O8  UNL     1     -33.230   4.513   2.560  1.00 20.00    -0.082 OA
ENDBRANCH   1   8
TORSDOF 5
ENDMDL
MODEL 7
REMARK VINA RESULT:      -3.9      3.049      4.415
REMARK  5 active torsions:
REMARK  status: ('A' for Active; 'I' for Inactive)
REMARK    1  A    between atoms: C2_2  and  C3_3 
REMARK    2  A    between atoms: C3_3  and  N7_7 
REMARK    3  A    between atoms: C4_4  and  C5_5 
REMARK    4  A    between atoms: C4_4  and  N7_7 
REMARK    5  A    between atoms: N6_6  and  N7_7 
ROOT
HETATM    1  N7  UNL     1     -32.475   7.385   3.010  1.00 20.00    -0.205 NA
ENDROOT
BRANCH   1   2
HETATM    2  C3  UNL     1     -33.621   7.175   3.849  1.00 20.00     0.111 C 
BRANCH   2   3
HETATM    3  C2  UNL     1     -34.221   5.785   3.676  1.00 20.00     0.011 C 
HETATM    4  C1  UNL     1     -34.650   5.160   4.996  1.00 20.00     0.006 C 
ENDBRANCH   2   3
ENDBRANCH   1   2
BRANCH   1   5
HETATM    5  C4  UNL     1     -32.884   7.914   1.692  1.00 20.00     0.127 C 
BRANCH   5   6
HETATM    6  C5  UNL     1     -31.916   8.954   1.154  1.00 20.00     0.130 C 
HETATM    7 CL9  UNL     1     -32.656  10.573   1.125  1.00 20.00    -0.129 Cl
ENDBRANCH   5   6
ENDBRANCH   1   5
BRANCH   1   8
HETATM    8  N6  UNL     1     -31.514   8.139   3.537  1.00 20.00     0.030 NA
HETATM    9  O8  UNL     1     -31.819   8.506   4.677  1.00 20.00    -0.082 OA
ENDBRANCH   1   8
TORSDOF 5
ENDMDL
MODEL 8
REMARK VINA RESULT:      -3.7      2.212      3.203
REMARK  5 active torsions:
REMARK  status: ('A' for Active; 'I' for Inactive)
REMARK    1  A    between atoms: C2_2  and  C3_3 
REMARK    2  A    between atoms: C3_3  and  N7_7 
REMARK    3  A    between atoms: C4_4  and  C5_5 
REMARK    4  A    between atoms: C4_4  and  N7_7 
REMARK    5  A    between atoms: N6_6  and  N7_7 
ROOT
HETATM    1  N7  UNL     1     -32.574   7.138   2.730  1.00 20.00    -0.205 NA
ENDROOT
BRANCH   1   2
HETATM    2  C3  UNL     1     -32.561   7.643   4.074  1.00 20.00     0.111 C 
BRANCH   2   3
HETATM    3  C2  UNL     1     -33.935   7.583   4.731  1.00 20.00     0.011 C 
HETATM    4  C1  UNL     1     -33.884   7.041   6.152  1.00 20.00     0.006 C 
ENDBRANCH   2   3
ENDBRANCH   1   2
BRANCH   1   5
HETATM    5  C4  UNL     1     -33.665   6.156   2.554  1.00 20.00     0.127 C 
BRANCH   5   6
HETATM    6  C5  UNL     1     -33.223   4.733   2.856  1.00 20.00     0.130 C 
HETATM    7 CL9  UNL     1     -34.175   4.028   4.185  1.00 20.00    -0.129 Cl
ENDBRANCH   5   6
ENDBRANCH   1   5
BRANCH   1   8
HETATM    8  N6  UNL     1     -32.621   8.062   1.774  1.00 20.00     0.030 NA
HETATM    9  O8  UNL     1     -31.961   9.058   2.094  1.00 20.00    -0.082 OA
ENDBRANCH   1   8
TORSDOF 5
ENDMDL
MODEL 9
REMARK VINA RESULT:      -3.7      3.167      4.121
REMARK  5 active torsions:
REMARK  status: ('A' for Active; 'I' for Inactive)
REMARK    1  A    between atoms: C2_2  and  C3_3 
REMARK    2  A    between atoms: C3_3  and  N7_7 
REMARK    3  A    between atoms: C4_4  and  C5_5 
REMARK    4  A    between atoms: C4_4  and  N7_7 
REMARK    5  A    between atoms: N6_6  and  N7_7 
ROOT
HETATM    1  N7  UNL     1     -33.370   6.914   4.260  1.00 20.00    -0.205 NA
ENDROOT
BRANCH   1   2
HETATM    2  C3  UNL     1     -34.488   6.039   4.046  1.00 20.00     0.111 C 
BRANCH   2   3
HETATM    3  C2  UNL     1     -34.056   4.602   3.775  1.00 20.00     0.011 C 
HETATM    4  C1  UNL     1     -33.062   4.492   2.628  1.00 20.00     0.006 C 
ENDBRANCH   2   3
ENDBRANCH   1   2
BRANCH   1   5
HETATM    5  C4  UNL     1     -33.256   7.892   3.158  1.00 20.00     0.127 C 
BRANCH   5   6
HETATM    6  C5  UNL     1     -31.813   8.178   2.778  1.00 20.00     0.130 C 
HETATM    7 CL9  UNL     1     -31.689   8.764   1.101  1.00 20.00    -0.129 Cl
ENDBRANCH   5   6
ENDBRANCH   1   5
BRANCH   1   8
HETATM    8  N6  UNL     1     -33.349   7.534   5.437  1.00 20.00     0.030 NA
HETATM    9  O8  UNL     1     -34.162   7.022   6.217  1.00 20.00    -0.082 OA
ENDBRANCH   1   8
TORSDOF 5
ENDMDL
