MODEL 1
REMARK VINA RESULT:      -4.3      0.000      0.000
REMARK  2 active torsions:
REMARK  status: ('A' for Active; 'I' for Inactive)
REMARK    1  A    between atoms: C1_1  and  O5_5 
REMARK    2  A    between atoms: C3_3  and  O5_5 
ROOT
HETATM    1  O5  UNL     1     -34.006   7.132   4.009  1.00 20.00    -0.288 OA
ENDROOT
BRANCH   1   2
HETATM    2  C1  UNL     1     -34.053   6.787   5.335  1.00 20.00     0.359 C 
HETATM    3  O4  UNL     1     -33.689   7.531   6.240  1.00 20.00    -0.245 OA
HETATM    4 CL6  UNL     1     -34.686   5.180   5.579  1.00 20.00    -0.012 Cl
ENDBRANCH   1   2
BRANCH   1   5
HETATM    5  C3  UNL     1     -32.797   6.853   3.285  1.00 20.00     0.224 C 
HETATM    6  C2  UNL     1     -32.567   7.915   2.222  1.00 20.00     0.057 C 
HETATM    7 CL7  UNL     1     -32.981   5.258   2.508  1.00 20.00    -0.095 Cl
ENDBRANCH   1   5
TORSDOF 2
ENDMDL
MODEL 2
REMARK VINA RESULT:      -4.2      2.013      2.367
REMARK  2 active torsions:
REMARK  status: ('A' for Active; 'I' for Inactive)
REMARK    1  A    between atoms: C1_1  and  O5_5 
REMARK    2  A    between atoms: C3_3  and  O5_5 
ROOT
HETATM    1  O5  UNL     1     -33.448   6.131   3.371  1.00 20.00    -0.288 OA
ENDROOT
BRANCH   1   2
HETATM    2  C1  UNL     1     -34.562   5.474   3.826  1.00 20.00     0.359 C 
HETATM    3  O4  UNL     1     -35.701   5.919   3.714  1.00 20.00    -0.245 OA
HETATM    4 CL6  UNL     1     -34.172   3.948   4.574  1.00 20.00    -0.012 Cl
ENDBRANCH   1   2
BRANCH   1   5
HETATM    5  C3  UNL     1     -33.231   7.478   3.825  1.00 20.00     0.224 C 
HETATM    6  C2  UNL     1     -31.854   7.958   3.396  1.00 20.00     0.057 C 
HETATM    7 CL7  UNL     1     -33.338   7.477   5.606  1.00 20.00    -0.095 Cl
ENDBRANCH   1   5
TORSDOF 2
ENDMDL
MODEL 3
REMARK VINA RESULT:      -4.1      1.881      3.370
REMARK  2 active torsions:
REMARK  status: ('A' for Active; 'I' for Inactive)
REMARK    1  A    between atoms: C1_1  and  O5_5 
REMARK    2  A    between atoms: C3_3  and  O5_5 
ROOT
HETATM    1  O5  UNL     1     -34.585   6.204   3.362  1.00 20.00    -0.288 OA
ENDROOT
BRANCH   1   2
HETATM    2  C1  UNL     1     -33.318   5.995   2.881  1.00 20.00     0.359 C 
HETATM    3  O4  UNL     1     -32.863   4.881   2.642  1.00 20.00    -0.245 OA
HETATM    4 CL6  UNL     1     -32.442   7.486   2.652  1.00 20.00    -0.012 Cl
ENDBRANCH   1   2
BRANCH   1   5
HETATM    5  C3  UNL     1     -34.814   5.992   4.765  1.00 20.00     0.224 C 
HETATM    6  C2  UNL     1     -33.902   6.890   5.585  1.00 20.00     0.057 C 
HETATM    7 CL7  UNL     1     -34.452   4.282   5.125  1.00 20.00    -0.095 Cl
ENDBRANCH   1   5
TORSDOF 2
ENDMDL
MODEL 4
REMARK VINA RESULT:      -4.1      2.057      3.410
REMARK  2 active torsions:
REMARK  status: ('A' for Active; 'I' for Inactive)
REMARK    1  A    between atoms: C1_1  and  O5_5 
REMARK    2  A    between atoms: C3_3  and  O5_5 
ROOT
HETATM    1  O5  UNL     1     -32.882   6.835   3.368  1.00 20.00    -0.288 OA
ENDROOT
BRANCH   1   2
HETATM    2  C1  UNL     1     -32.104   7.904   3.001  1.00 20.00     0.359 C 
HETATM    3  O4  UNL     1     -31.170   8.321   3.678  1.00 20.00    -0.245 OA
HETATM    4 CL6  UNL     1     -32.597   8.590   1.476  1.00 20.00    -0.012 Cl
ENDBRANCH   1   2
BRANCH   1   5
HETATM    5  C3  UNL     1     -34.056   7.098   4.154  1.00 20.00     0.224 C 
HETATM    6  C2  UNL     1     -33.685   7.224   5.622  1.00 20.00     0.057 C 
HETATM    7 CL7  UNL     1     -35.178   5.728   3.935  1.00 20.00    -0.095 Cl
ENDBRANCH   1   5
TORSDOF 2
ENDMDL
MODEL 5
REMARK VINA RESULT:      -4.1      2.032      2.224
REMARK  2 active torsions:
REMARK  status: ('A' for Active; 'I' for Inactive)
REMARK    1  A    between atoms: C1_1  and  O5_5 
REMARK    2  A    between atoms: C3_3  and  O5_5 
ROOT
HETATM    1  O5  UNL     1     -34.840   6.186   3.782  1.00 20.00    -0.288 OA
ENDROOT
BRANCH   1   2
HETATM    2  C1  UNL     1     -34.494   5.827   5.059  1.00 20.00     0.359 C 
HETATM    3  O4  UNL     1     -34.605   4.684   5.491  1.00 20.00    -0.245 OA
HETATM    4 CL6  UNL     1     -33.881   7.173   5.983  1.00 20.00    -0.012 Cl
ENDBRANCH   1   2
BRANCH   1   5
HETATM    5  C3  UNL     1     -33.823   6.127   2.768  1.00 20.00     0.224 C 
HETATM    6  C2  UNL     1     -33.111   4.785   2.820  1.00 20.00     0.057 C 
HETATM    7 CL7  UNL     1     -32.656   7.438   3.088  1.00 20.00    -0.095 Cl
ENDBRANCH   1   5
TORSDOF 2
ENDMDL
MODEL 6
REMARK VINA RESULT:      -4.1      2.295      3.676
REMARK  2 active torsions:
REMARK  status: ('A' for Active; 'I' for Inactive)
REMARK    1  A    between atoms: C1_1  and  O5_5 
REMARK    2  A    between atoms: C3_3  and  O5_5 
ROOT
HETATM    1  O5  UNL     1     -33.532   7.764   3.150  1.00 20.00    -0.288 OA
ENDROOT
BRANCH   1   2
HETATM    2  C1  UNL     1     -32.287   8.194   2.772  1.00 20.00     0.359 C 
HETATM    3  O4  UNL     1     -31.294   8.098   3.486  1.00 20.00    -0.245 OA
HETATM    4 CL6  UNL     1     -32.282   8.885   1.170  1.00 20.00    -0.012 Cl
ENDBRANCH   1   2
BRANCH   1   5
HETATM    5  C3  UNL     1     -33.611   6.688   4.100  1.00 20.00     0.224 C 
HETATM    6  C2  UNL     1     -34.846   5.843   3.831  1.00 20.00     0.057 C 
HETATM    7 CL7  UNL     1     -33.720   7.406   5.730  1.00 20.00    -0.095 Cl
ENDBRANCH   1   5
TORSDOF 2
ENDMDL
MODEL 7
REMARK VINA RESULT:      -4.0      1.599      3.518
REMARK  2 active torsions:
REMARK  status: ('A' for Active; 'I' for Inactive)
REMARK    1  A    between atoms: C1_1  and  O5_5 
REMARK    2  A    between atoms: C3_3  and  O5_5 
ROOT
HETATM    1  O5  UNL     1     -34.181   6.624   3.815  1.00 20.00    -0.288 OA
ENDROOT
BRANCH   1   2
HETATM    2  C1  UNL     1     -33.255   6.503   2.811  1.00 20.00     0.359 C 
HETATM    3  O4  UNL     1     -32.736   7.464   2.252  1.00 20.00    -0.245 OA
HETATM    4 CL6  UNL     1     -32.906   4.837   2.429  1.00 20.00    -0.012 Cl
ENDBRANCH   1   2
BRANCH   1   5
HETATM    5  C3  UNL     1     -33.821   6.149   5.122  1.00 20.00     0.224 C 
HETATM    6  C2  UNL     1     -34.780   5.057   5.565  1.00 20.00     0.057 C 
HETATM    7 CL7  UNL     1     -33.921   7.528   6.251  1.00 20.00    -0.095 Cl
ENDBRANCH   1   5
TORSDOF 2
ENDMDL
MODEL 8
REMARK VINA RESULT:      -4.0      1.729      2.626
REMARK  2 active torsions:
REMARK  status: ('A' for Active; 'I' for Inactive)
REMARK    1  A    between atoms: C1_1  and  O5_5 
REMARK    2  A    between atoms: C3_3  and  O5_5 
ROOT
HETATM    1  O5  UNL     1     -34.463   6.865   3.926  1.00 20.00    -0.288 OA
ENDROOT
BRANCH   1   2
HETATM    2  C1  UNL     1     -33.365   7.354   4.585  1.00 20.00     0.359 C 
HETATM    3  O4  UNL     1     -33.304   7.464   5.806  1.00 20.00    -0.245 OA
HETATM    4 CL6  UNL     1     -32.078   7.794   3.493  1.00 20.00    -0.012 Cl
ENDBRANCH   1   2
BRANCH   1   5
HETATM    5  C3  UNL     1     -34.591   5.439   3.800  1.00 20.00     0.224 C 
HETATM    6  C2  UNL     1     -34.568   4.789   5.174  1.00 20.00     0.057 C 
HETATM    7 CL7  UNL     1     -33.210   4.850   2.836  1.00 20.00    -0.095 Cl
ENDBRANCH   1   5
TORSDOF 2
ENDMDL
MODEL 9
REMARK VINA RESULT:      -3.9      2.219      3.483
REMARK  2 active torsions:
REMARK  status: ('A' for Active; 'I' for Inactive)
REMARK    1  A    between atoms: C1_1  and  O5_5 
REMARK    2  A    between atoms: C3_3  and  O5_5 
ROOT
HETATM    1  O5  UNL     1     -33.360   7.387   2.620  1.00 20.00    -0.288 OA
ENDROOT
BRANCH   1   2
HETATM    2  C1  UNL     1     -32.165   8.060   2.653  1.00 20.00     0.359 C 
HETATM    3  O4  UNL     1     -31.504   8.209   3.676  1.00 20.00    -0.245 OA
HETATM    4 CL6  UNL     1     -31.704   8.671   1.086  1.00 20.00    -0.012 Cl
ENDBRANCH   1   2
BRANCH   1   5
HETATM    5  C3  UNL     1     -33.480   6.193   3.410  1.00 20.00     0.224 C 
HETATM    6  C2  UNL     1     -33.007   4.989   2.612  1.00 20.00     0.057 C 
HETATM    7 CL7  UNL     1     -35.201   5.991   3.836  1.00 20.00    -0.095 Cl
ENDBRANCH   1   5
TORSDOF 2
ENDMDL
