MODEL 1
REMARK VINA RESULT:      -5.6      0.000      0.000
REMARK  1 active torsions:
REMARK  status: ('A' for Active; 'I' for Inactive)
REMARK    1  A    between atoms: C2_2  and  C5_5 
ROOT
HETATM    1  C3  UNL     1     -34.362   6.161   2.228  1.00 20.00     0.039 C 
HETATM    2  C4  UNL     1     -35.147   6.352   3.506  1.00 20.00     0.040 C 
HETATM    3  C5  UNL     1     -32.924   6.362   2.680  1.00 20.00     0.151 C 
HETATM    4  C6  UNL     1     -34.204   5.782   4.564  1.00 20.00     0.054 C 
HETATM    5  C9  UNL     1     -34.385   4.272   4.742  1.00 20.00     0.045 C 
HETATM    6  C10 UNL     1     -34.359   6.491   5.906  1.00 20.00     0.045 C 
HETATM    7  O11 UNL     1     -32.869   6.012   4.073  1.00 20.00    -0.371 OA
ENDROOT
BRANCH   3   8
HETATM    8  C2  UNL     1     -32.447   7.771   2.537  1.00 20.00    -0.059 C 
HETATM    9  C1  UNL     1     -32.807   8.524   1.480  1.00 20.00    -0.026 C 
HETATM   10  C7  UNL     1     -32.426   9.920   1.194  1.00 20.00     0.036 C 
HETATM   11  C8  UNL     1     -31.556   8.257   3.644  1.00 20.00     0.046 C 
ENDBRANCH   3   8
TORSDOF 1
ENDMDL
MODEL 2
REMARK VINA RESULT:      -4.6      1.394      4.482
REMARK  1 active torsions:
REMARK  status: ('A' for Active; 'I' for Inactive)
REMARK    1  A    between atoms: C2_2  and  C5_5 
ROOT
HETATM    1  C3  UNL     1     -31.279   7.881   3.236  1.00 20.00     0.039 C 
HETATM    2  C4  UNL     1     -31.678   9.288   2.854  1.00 20.00     0.040 C 
HETATM    3  C5  UNL     1     -32.470   7.054   2.776  1.00 20.00     0.151 C 
HETATM    4  C6  UNL     1     -32.475   9.073   1.570  1.00 20.00     0.054 C 
HETATM    5  C9  UNL     1     -31.574   9.049   0.331  1.00 20.00     0.045 C 
HETATM    6  C10 UNL     1     -33.575  10.116   1.400  1.00 20.00     0.045 C 
HETATM    7  O11 UNL     1     -33.087   7.774   1.694  1.00 20.00    -0.371 OA
ENDROOT
BRANCH   3   8
HETATM    8  C2  UNL     1     -33.498   6.848   3.841  1.00 20.00    -0.059 C 
HETATM    9  C1  UNL     1     -33.281   7.257   5.105  1.00 20.00    -0.026 C 
HETATM   10  C7  UNL     1     -34.187   7.129   6.263  1.00 20.00     0.036 C 
HETATM   11  C8  UNL     1     -34.754   6.160   3.388  1.00 20.00     0.046 C 
ENDBRANCH   3   8
TORSDOF 1
ENDMDL
MODEL 3
REMARK VINA RESULT:      -4.4     11.230     12.389
REMARK  1 active torsions:
REMARK  status: ('A' for Active; 'I' for Inactive)
REMARK    1  A    between atoms: C2_2  and  C5_5 
ROOT
HETATM    1  C3  UNL     1     -32.918  15.135  -4.880  1.00 20.00     0.039 C 
HETATM    2  C4  UNL     1     -33.407  15.744  -6.175  1.00 20.00     0.040 C 
HETATM    3  C5  UNL     1     -34.211  14.828  -4.140  1.00 20.00     0.151 C 
HETATM    4  C6  UNL     1     -34.703  14.979  -6.435  1.00 20.00     0.054 C 
HETATM    5  C9  UNL     1     -34.458  13.676  -7.202  1.00 20.00     0.045 C 
HETATM    6  C10 UNL     1     -35.733  15.834  -7.167  1.00 20.00     0.045 C 
HETATM    7  O11 UNL     1     -35.229  14.634  -5.138  1.00 20.00    -0.371 OA
ENDROOT
BRANCH   3   8
HETATM    8  C2  UNL     1     -34.654  15.929  -3.234  1.00 20.00    -0.059 C 
HETATM    9  C1  UNL     1     -33.772  16.590  -2.460  1.00 20.00    -0.026 C 
HETATM   10  C7  UNL     1     -34.046  17.693  -1.518  1.00 20.00     0.036 C 
HETATM   11  C8  UNL     1     -36.127  16.222  -3.260  1.00 20.00     0.046 C 
ENDBRANCH   3   8
TORSDOF 1
ENDMDL
MODEL 4
REMARK VINA RESULT:      -4.3     11.298     12.000
REMARK  1 active torsions:
REMARK  status: ('A' for Active; 'I' for Inactive)
REMARK    1  A    between atoms: C2_2  and  C5_5 
ROOT
HETATM    1  C3  UNL     1     -33.632  16.838  -4.767  1.00 20.00     0.039 C 
HETATM    2  C4  UNL     1     -35.040  16.628  -5.277  1.00 20.00     0.040 C 
HETATM    3  C5  UNL     1     -33.631  16.076  -3.451  1.00 20.00     0.151 C 
HETATM    4  C6  UNL     1     -35.365  15.218  -4.787  1.00 20.00     0.054 C 
HETATM    5  C9  UNL     1     -34.904  14.145  -5.776  1.00 20.00     0.045 C 
HETATM    6  C10 UNL     1     -36.851  15.050  -4.484  1.00 20.00     0.045 C 
HETATM    7  O11 UNL     1     -34.622  15.041  -3.565  1.00 20.00    -0.371 OA
ENDROOT
BRANCH   3   8
HETATM    8  C2  UNL     1     -33.981  16.925  -2.272  1.00 20.00    -0.059 C 
HETATM    9  C1  UNL     1     -35.111  16.712  -1.572  1.00 20.00    -0.026 C 
HETATM   10  C7  UNL     1     -35.597  17.455  -0.393  1.00 20.00     0.036 C 
HETATM   11  C8  UNL     1     -32.990  18.007  -1.950  1.00 20.00     0.046 C 
ENDBRANCH   3   8
TORSDOF 1
ENDMDL
MODEL 5
REMARK VINA RESULT:      -4.3     10.922     11.874
REMARK  1 active torsions:
REMARK  status: ('A' for Active; 'I' for Inactive)
REMARK    1  A    between atoms: C2_2  and  C5_5 
ROOT
HETATM    1  C3  UNL     1     -35.836  15.653  -3.951  1.00 20.00     0.039 C 
HETATM    2  C4  UNL     1     -34.935  14.443  -4.053  1.00 20.00     0.040 C 
HETATM    3  C5  UNL     1     -34.851  16.792  -3.739  1.00 20.00     0.151 C 
HETATM    4  C6  UNL     1     -33.695  15.007  -4.742  1.00 20.00     0.054 C 
HETATM    5  C9  UNL     1     -33.820  14.975  -6.268  1.00 20.00     0.045 C 
HETATM    6  C10 UNL     1     -32.423  14.287  -4.304  1.00 20.00     0.045 C 
HETATM    7  O11 UNL     1     -33.607  16.387  -4.335  1.00 20.00    -0.371 OA
ENDROOT
BRANCH   3   8
HETATM    8  C2  UNL     1     -34.596  17.098  -2.299  1.00 20.00    -0.059 C 
HETATM    9  C1  UNL     1     -35.597  17.088  -1.398  1.00 20.00    -0.026 C 
HETATM   10  C7  UNL     1     -35.513  17.365   0.049  1.00 20.00     0.036 C 
HETATM   11  C8  UNL     1     -33.168  17.411  -1.957  1.00 20.00     0.046 C 
ENDBRANCH   3   8
TORSDOF 1
ENDMDL
MODEL 6
REMARK VINA RESULT:      -4.2      1.122      4.239
REMARK  1 active torsions:
REMARK  status: ('A' for Active; 'I' for Inactive)
REMARK    1  A    between atoms: C2_2  and  C5_5 
ROOT
HETATM    1  C3  UNL     1     -33.780   6.147   2.385  1.00 20.00     0.039 C 
HETATM    2  C4  UNL     1     -32.311   6.493   2.309  1.00 20.00     0.040 C 
HETATM    3  C5  UNL     1     -34.296   7.091   3.461  1.00 20.00     0.151 C 
HETATM    4  C6  UNL     1     -32.306   7.994   2.591  1.00 20.00     0.054 C 
HETATM    5  C9  UNL     1     -32.512   8.819   1.318  1.00 20.00     0.045 C 
HETATM    6  C10 UNL     1     -31.032   8.435   3.304  1.00 20.00     0.045 C 
HETATM    7  O11 UNL     1     -33.429   8.238   3.462  1.00 20.00    -0.371 OA
ENDROOT
BRANCH   3   8
HETATM    8  C2  UNL     1     -34.280   6.496   4.831  1.00 20.00    -0.059 C 
HETATM    9  C1  UNL     1     -34.729   5.246   5.053  1.00 20.00    -0.026 C 
HETATM   10  C7  UNL     1     -34.780   4.519   6.336  1.00 20.00     0.036 C 
HETATM   11  C8  UNL     1     -33.736   7.392   5.908  1.00 20.00     0.046 C 
ENDBRANCH   3   8
TORSDOF 1
ENDMDL
MODEL 7
REMARK VINA RESULT:      -4.2      1.420      4.424
REMARK  1 active torsions:
REMARK  status: ('A' for Active; 'I' for Inactive)
REMARK    1  A    between atoms: C2_2  and  C5_5 
ROOT
HETATM    1  C3  UNL     1     -31.268   8.133   3.399  1.00 20.00     0.039 C 
HETATM    2  C4  UNL     1     -31.823   9.449   2.905  1.00 20.00     0.040 C 
HETATM    3  C5  UNL     1     -32.251   7.118   2.837  1.00 20.00     0.151 C 
HETATM    4  C6  UNL     1     -32.407   9.076   1.544  1.00 20.00     0.054 C 
HETATM    5  C9  UNL     1     -31.363   9.159   0.428  1.00 20.00     0.045 C 
HETATM    6  C10 UNL     1     -33.622   9.929   1.192  1.00 20.00     0.045 C 
HETATM    7  O11 UNL     1     -32.826   7.701   1.655  1.00 20.00    -0.371 OA
ENDROOT
BRANCH   3   8
HETATM    8  C2  UNL     1     -33.363   6.783   3.777  1.00 20.00    -0.059 C 
HETATM    9  C1  UNL     1     -34.336   5.921   3.426  1.00 20.00    -0.026 C 
HETATM   10  C7  UNL     1     -35.493   5.488   4.232  1.00 20.00     0.036 C 
HETATM   11  C8  UNL     1     -33.301   7.476   5.108  1.00 20.00     0.046 C 
ENDBRANCH   3   8
TORSDOF 1
ENDMDL
MODEL 8
REMARK VINA RESULT:      -4.1     11.415     12.564
REMARK  1 active torsions:
REMARK  status: ('A' for Active; 'I' for Inactive)
REMARK    1  A    between atoms: C2_2  and  C5_5 
ROOT
HETATM    1  C3  UNL     1     -33.692  16.302  -6.589  1.00 20.00     0.039 C 
HETATM    2  C4  UNL     1     -35.086  15.833  -6.938  1.00 20.00     0.040 C 
HETATM    3  C5  UNL     1     -33.454  15.673  -5.225  1.00 20.00     0.151 C 
HETATM    4  C6  UNL     1     -35.137  14.441  -6.311  1.00 20.00     0.054 C 
HETATM    5  C9  UNL     1     -34.597  13.365  -7.256  1.00 20.00     0.045 C 
HETATM    6  C10 UNL     1     -36.544  14.076  -5.848  1.00 20.00     0.045 C 
HETATM    7  O11 UNL     1     -34.272  14.492  -5.159  1.00 20.00    -0.371 OA
ENDROOT
BRANCH   3   8
HETATM    8  C2  UNL     1     -33.832  16.562  -4.085  1.00 20.00    -0.059 C 
HETATM    9  C1  UNL     1     -34.441  16.069  -2.990  1.00 20.00    -0.026 C 
HETATM   10  C7  UNL     1     -34.876  16.808  -1.789  1.00 20.00     0.036 C 
HETATM   11  C8  UNL     1     -33.484  18.012  -4.267  1.00 20.00     0.046 C 
ENDBRANCH   3   8
TORSDOF 1
ENDMDL
MODEL 9
REMARK VINA RESULT:      -4.0     11.518     12.492
REMARK  1 active torsions:
REMARK  status: ('A' for Active; 'I' for Inactive)
REMARK    1  A    between atoms: C2_2  and  C5_5 
ROOT
HETATM    1  C3  UNL     1     -36.725  14.795  -4.565  1.00 20.00     0.039 C 
HETATM    2  C4  UNL     1     -36.019  13.663  -5.276  1.00 20.00     0.040 C 
HETATM    3  C5  UNL     1     -35.928  16.016  -4.997  1.00 20.00     0.151 C 
HETATM    4  C6  UNL     1     -35.572  14.317  -6.582  1.00 20.00     0.054 C 
HETATM    5  C9  UNL     1     -36.657  14.247  -7.661  1.00 20.00     0.045 C 
HETATM    6  C10 UNL     1     -34.271  13.715  -7.105  1.00 20.00     0.045 C 
HETATM    7  O11 UNL     1     -35.345  15.707  -6.274  1.00 20.00    -0.371 OA
ENDROOT
BRANCH   3   8
HETATM    8  C2  UNL     1     -34.822  16.369  -4.056  1.00 20.00    -0.059 C 
HETATM    9  C1  UNL     1     -35.065  16.596  -2.751  1.00 20.00    -0.026 C 
HETATM   10  C7  UNL     1     -34.092  16.951  -1.700  1.00 20.00     0.036 C 
HETATM   11  C8  UNL     1     -33.458  16.447  -4.678  1.00 20.00     0.046 C 
ENDBRANCH   3   8
TORSDOF 1
ENDMDL
