MODEL 1
REMARK VINA RESULT:      -5.1      0.000      0.000
REMARK  1 active torsions:
REMARK  status: ('A' for Active; 'I' for Inactive)
REMARK    1  A    between atoms: C3_3  and  C6_6 
ROOT
HETATM    1  C1  UNL     1     -31.840   8.592   3.539  1.00 20.00    -0.024 C 
HETATM    2  C2  UNL     1     -32.198   7.941   2.419  1.00 20.00    -0.087 C 
HETATM    3  C4  UNL     1     -32.384   8.269   4.897  1.00 20.00     0.032 C 
HETATM    4  C5  UNL     1     -33.172   6.793   2.443  1.00 20.00     0.045 C 
HETATM    5  C6  UNL     1     -33.465   6.244   3.849  1.00 20.00     0.055 C 
HETATM    6  C7  UNL     1     -33.642   7.383   4.867  1.00 20.00    -0.004 C 
HETATM    7  C8  UNL     1     -31.652   8.318   1.073  1.00 20.00     0.043 C 
HETATM    8  C9  UNL     1     -33.938   6.865   6.278  1.00 20.00     0.011 C 
ENDROOT
BRANCH   5   9
HETATM    9  C3  UNL     1     -34.697   5.390   3.762  1.00 20.00     0.236 C 
HETATM   10  O10 UNL     1     -34.783   4.274   4.263  1.00 20.00    -0.306 OA
ENDBRANCH   5   9
TORSDOF 1
ENDMDL
MODEL 2
REMARK VINA RESULT:      -4.9     11.622     12.050
REMARK  1 active torsions:
REMARK  status: ('A' for Active; 'I' for Inactive)
REMARK    1  A    between atoms: C3_3  and  C6_6 
ROOT
HETATM    1  C1  UNL     1     -35.568  16.913  -1.271  1.00 20.00    -0.024 C 
HETATM    2  C2  UNL     1     -34.439  16.832  -1.994  1.00 20.00    -0.087 C 
HETATM    3  C4  UNL     1     -35.674  17.657   0.025  1.00 20.00     0.032 C 
HETATM    4  C5  UNL     1     -33.169  17.520  -1.566  1.00 20.00     0.045 C 
HETATM    5  C6  UNL     1     -33.359  18.548  -0.438  1.00 20.00     0.055 C 
HETATM    6  C7  UNL     1     -34.312  18.017   0.646  1.00 20.00    -0.004 C 
HETATM    7  C8  UNL     1     -34.369  16.049  -3.272  1.00 20.00     0.043 C 
HETATM    8  C9  UNL     1     -34.519  19.021   1.784  1.00 20.00     0.011 C 
ENDROOT
BRANCH   5   9
HETATM    9  C3  UNL     1     -32.005  18.863   0.129  1.00 20.00     0.236 C 
HETATM   10  O10 UNL     1     -30.977  18.289  -0.216  1.00 20.00    -0.306 OA
ENDBRANCH   5   9
TORSDOF 1
ENDMDL
MODEL 3
REMARK VINA RESULT:      -4.8      1.719      2.694
REMARK  1 active torsions:
REMARK  status: ('A' for Active; 'I' for Inactive)
REMARK    1  A    between atoms: C3_3  and  C6_6 
ROOT
HETATM    1  C1  UNL     1     -32.872   6.245   1.917  1.00 20.00    -0.024 C 
HETATM    2  C2  UNL     1     -32.632   7.440   2.482  1.00 20.00    -0.087 C 
HETATM    3  C4  UNL     1     -33.553   5.114   2.624  1.00 20.00     0.032 C 
HETATM    4  C5  UNL     1     -33.061   7.754   3.891  1.00 20.00     0.045 C 
HETATM    5  C6  UNL     1     -34.044   6.737   4.492  1.00 20.00     0.055 C 
HETATM    6  C7  UNL     1     -33.634   5.295   4.151  1.00 20.00    -0.004 C 
HETATM    7  C8  UNL     1     -31.918   8.536   1.747  1.00 20.00     0.043 C 
HETATM    8  C9  UNL     1     -34.596   4.259   4.739  1.00 20.00     0.011 C 
ENDROOT
BRANCH   5   9
HETATM    9  C3  UNL     1     -34.084   6.958   5.977  1.00 20.00     0.236 C 
HETATM   10  O10 UNL     1     -33.428   7.822   6.550  1.00 20.00    -0.306 OA
ENDBRANCH   5   9
TORSDOF 1
ENDMDL
MODEL 4
REMARK VINA RESULT:      -4.7     11.459     12.417
REMARK  1 active torsions:
REMARK  status: ('A' for Active; 'I' for Inactive)
REMARK    1  A    between atoms: C3_3  and  C6_6 
ROOT
HETATM    1  C1  UNL     1     -33.267  16.575  -4.626  1.00 20.00    -0.024 C 
HETATM    2  C2  UNL     1     -34.167  16.209  -3.698  1.00 20.00    -0.087 C 
HETATM    3  C4  UNL     1     -33.239  16.023  -6.018  1.00 20.00     0.032 C 
HETATM    4  C5  UNL     1     -35.259  15.215  -3.996  1.00 20.00     0.045 C 
HETATM    5  C6  UNL     1     -35.441  14.909  -5.492  1.00 20.00     0.055 C 
HETATM    6  C7  UNL     1     -34.084  14.749  -6.198  1.00 20.00    -0.004 C 
HETATM    7  C8  UNL     1     -34.140  16.765  -2.304  1.00 20.00     0.043 C 
HETATM    8  C9  UNL     1     -34.235  14.442  -7.691  1.00 20.00     0.011 C 
ENDROOT
BRANCH   5   9
HETATM    9  C3  UNL     1     -36.270  13.663  -5.608  1.00 20.00     0.236 C 
HETATM   10  O10 UNL     1     -35.899  12.565  -5.208  1.00 20.00    -0.306 OA
ENDBRANCH   5   9
TORSDOF 1
ENDMDL
MODEL 5
REMARK VINA RESULT:      -4.5      2.175      3.443
REMARK  1 active torsions:
REMARK  status: ('A' for Active; 'I' for Inactive)
REMARK    1  A    between atoms: C3_3  and  C6_6 
ROOT
HETATM    1  C1  UNL     1     -34.299   4.554   4.089  1.00 20.00    -0.024 C 
HETATM    2  C2  UNL     1     -33.478   4.828   3.062  1.00 20.00    -0.087 C 
HETATM    3  C4  UNL     1     -34.537   5.489   5.235  1.00 20.00     0.032 C 
HETATM    4  C5  UNL     1     -32.739   6.137   2.962  1.00 20.00     0.045 C 
HETATM    5  C6  UNL     1     -33.235   7.217   3.937  1.00 20.00     0.055 C 
HETATM    6  C7  UNL     1     -33.506   6.628   5.332  1.00 20.00    -0.004 C 
HETATM    7  C8  UNL     1     -33.244   3.849   1.950  1.00 20.00     0.043 C 
HETATM    8  C9  UNL     1     -34.000   7.683   6.326  1.00 20.00     0.011 C 
ENDROOT
BRANCH   5   9
HETATM    9  C3  UNL     1     -32.195   8.299   3.992  1.00 20.00     0.236 C 
HETATM   10  O10 UNL     1     -31.228   8.346   3.240  1.00 20.00    -0.306 OA
ENDBRANCH   5   9
TORSDOF 1
ENDMDL
MODEL 6
REMARK VINA RESULT:      -4.4     11.427     12.078
REMARK  1 active torsions:
REMARK  status: ('A' for Active; 'I' for Inactive)
REMARK    1  A    between atoms: C3_3  and  C6_6 
ROOT
HETATM    1  C1  UNL     1     -33.734  15.921  -3.219  1.00 20.00    -0.024 C 
HETATM    2  C2  UNL     1     -34.963  16.228  -2.772  1.00 20.00    -0.087 C 
HETATM    3  C4  UNL     1     -33.475  15.172  -4.491  1.00 20.00     0.032 C 
HETATM    4  C5  UNL     1     -36.204  15.862  -3.543  1.00 20.00     0.045 C 
HETATM    5  C6  UNL     1     -35.938  15.407  -4.987  1.00 20.00     0.055 C 
HETATM    6  C7  UNL     1     -34.720  14.471  -5.062  1.00 20.00    -0.004 C 
HETATM    7  C8  UNL     1     -35.178  16.952  -1.476  1.00 20.00     0.043 C 
HETATM    8  C9  UNL     1     -34.433  14.000  -6.491  1.00 20.00     0.011 C 
ENDROOT
BRANCH   5   9
HETATM    9  C3  UNL     1     -37.180  14.732  -5.493  1.00 20.00     0.236 C 
HETATM   10  O10 UNL     1     -37.716  13.787  -4.924  1.00 20.00    -0.306 OA
ENDBRANCH   5   9
TORSDOF 1
ENDMDL
MODEL 7
REMARK VINA RESULT:      -4.3      2.084      4.135
REMARK  1 active torsions:
REMARK  status: ('A' for Active; 'I' for Inactive)
REMARK    1  A    between atoms: C3_3  and  C6_6 
ROOT
HETATM    1  C1  UNL     1     -34.377   5.546   5.534  1.00 20.00    -0.024 C 
HETATM    2  C2  UNL     1     -33.989   6.828   5.644  1.00 20.00    -0.087 C 
HETATM    3  C4  UNL     1     -34.174   4.720   4.300  1.00 20.00     0.032 C 
HETATM    4  C5  UNL     1     -33.280   7.544   4.525  1.00 20.00     0.045 C 
HETATM    5  C6  UNL     1     -32.773   6.619   3.406  1.00 20.00     0.055 C 
HETATM    6  C7  UNL     1     -33.817   5.547   3.052  1.00 20.00    -0.004 C 
HETATM    7  C8  UNL     1     -34.240   7.628   6.888  1.00 20.00     0.043 C 
HETATM    8  C9  UNL     1     -33.339   4.611   1.938  1.00 20.00     0.011 C 
ENDROOT
BRANCH   5   9
HETATM    9  C3  UNL     1     -32.440   7.474   2.218  1.00 20.00     0.236 C 
HETATM   10  O10 UNL     1     -31.783   8.507   2.291  1.00 20.00    -0.306 OA
ENDBRANCH   5   9
TORSDOF 1
ENDMDL
MODEL 8
REMARK VINA RESULT:      -4.3     11.565     11.954
REMARK  1 active torsions:
REMARK  status: ('A' for Active; 'I' for Inactive)
REMARK    1  A    between atoms: C3_3  and  C6_6 
ROOT
HETATM    1  C1  UNL     1     -33.286  17.124  -2.344  1.00 20.00    -0.024 C 
HETATM    2  C2  UNL     1     -34.528  16.617  -2.414  1.00 20.00    -0.087 C 
HETATM    3  C4  UNL     1     -32.818  18.025  -1.243  1.00 20.00     0.032 C 
HETATM    4  C5  UNL     1     -35.563  16.897  -1.355  1.00 20.00     0.045 C 
HETATM    5  C6  UNL     1     -34.997  17.527  -0.073  1.00 20.00     0.055 C 
HETATM    6  C7  UNL     1     -33.959  18.616  -0.396  1.00 20.00    -0.004 C 
HETATM    7  C8  UNL     1     -34.966  15.743  -3.553  1.00 20.00     0.043 C 
HETATM    8  C9  UNL     1     -33.379  19.263   0.865  1.00 20.00     0.011 C 
ENDROOT
BRANCH   5   9
HETATM    9  C3  UNL     1     -36.149  18.084   0.713  1.00 20.00     0.236 C 
HETATM   10  O10 UNL     1     -37.268  18.256   0.242  1.00 20.00    -0.306 OA
ENDBRANCH   5   9
TORSDOF 1
ENDMDL
MODEL 9
REMARK VINA RESULT:      -4.2     11.689     12.298
REMARK  1 active torsions:
REMARK  status: ('A' for Active; 'I' for Inactive)
REMARK    1  A    between atoms: C3_3  and  C6_6 
ROOT
HETATM    1  C1  UNL     1     -34.595  17.707  -0.283  1.00 20.00    -0.024 C 
HETATM    2  C2  UNL     1     -33.393  18.102  -0.734  1.00 20.00    -0.087 C 
HETATM    3  C4  UNL     1     -35.599  16.977  -1.122  1.00 20.00     0.032 C 
HETATM    4  C5  UNL     1     -32.937  17.813  -2.141  1.00 20.00     0.045 C 
HETATM    5  C6  UNL     1     -33.805  16.786  -2.886  1.00 20.00     0.055 C 
HETATM    6  C7  UNL     1     -35.302  17.030  -2.632  1.00 20.00    -0.004 C 
HETATM    7  C8  UNL     1     -32.430  18.859   0.132  1.00 20.00     0.043 C 
HETATM    8  C9  UNL     1     -36.191  16.021  -3.364  1.00 20.00     0.011 C 
ENDROOT
BRANCH   5   9
HETATM    9  C3  UNL     1     -33.475  16.880  -4.348  1.00 20.00     0.236 C 
HETATM   10  O10 UNL     1     -32.999  15.953  -4.994  1.00 20.00    -0.306 OA
ENDBRANCH   5   9
TORSDOF 1
ENDMDL
