MODEL 1
REMARK VINA RESULT:      -5.7      0.000      0.000
REMARK  2 active torsions:
REMARK  status: ('A' for Active; 'I' for Inactive)
REMARK    1  A    between atoms: C1_1  and  S11_11 
REMARK    2  A    between atoms: C8_8  and  S11_11 
ROOT
HETATM    1  C2  UNL     1     -34.442   4.992   5.756  1.00 20.00     0.005 C 
HETATM    2  C3  UNL     1     -34.158   6.501   5.778  1.00 20.00     0.006 C 
HETATM    3  C4  UNL     1     -35.455   6.003   3.856  1.00 20.00     0.010 C 
HETATM    4  C5  UNL     1     -33.433   4.807   3.466  1.00 20.00     0.020 C 
HETATM    5  C6  UNL     1     -34.743   4.718   4.273  1.00 20.00    -0.013 C 
HETATM    6  C7  UNL     1     -34.295   6.901   4.296  1.00 20.00     0.000 C 
HETATM    7  C8  UNL     1     -33.090   6.310   3.531  1.00 20.00     0.059 C 
ENDROOT
BRANCH   7   8
HETATM    8  S11 UNL     1     -32.909   7.041   1.872  1.00 20.00    -0.088 SA
BRANCH   8   9
HETATM    9  C1  UNL     1     -32.066   8.531   2.286  1.00 20.00     0.182 C 
HETATM   10  C9  UNL     1     -32.337   9.651   1.322  1.00 20.00     0.104 C 
HETATM   11  O10 UNL     1     -31.334   8.649   3.261  1.00 20.00    -0.286 OA
ENDBRANCH   8   9
ENDBRANCH   7   8
TORSDOF 2
ENDMDL
MODEL 2
REMARK VINA RESULT:      -4.8      1.391      2.116
REMARK  2 active torsions:
REMARK  status: ('A' for Active; 'I' for Inactive)
REMARK    1  A    between atoms: C1_1  and  S11_11 
REMARK    2  A    between atoms: C8_8  and  S11_11 
ROOT
HETATM    1  C2  UNL     1     -35.366   5.723   4.140  1.00 20.00     0.005 C 
HETATM    2  C3  UNL     1     -35.133   6.161   2.687  1.00 20.00     0.006 C 
HETATM    3  C4  UNL     1     -33.107   5.274   3.545  1.00 20.00     0.010 C 
HETATM    4  C5  UNL     1     -33.481   7.187   4.914  1.00 20.00     0.020 C 
HETATM    5  C6  UNL     1     -33.948   5.729   4.736  1.00 20.00    -0.013 C 
HETATM    6  C7  UNL     1     -33.611   6.401   2.638  1.00 20.00     0.000 C 
HETATM    7  C8  UNL     1     -33.304   7.672   3.460  1.00 20.00     0.059 C 
ENDROOT
BRANCH   7   8
HETATM    8  S11 UNL     1     -31.621   8.295   3.149  1.00 20.00    -0.088 SA
BRANCH   8   9
HETATM    9  C1  UNL     1     -31.820   8.908   1.510  1.00 20.00     0.182 C 
HETATM   10  C9  UNL     1     -32.793  10.050   1.419  1.00 20.00     0.104 C 
HETATM   11  O10 UNL     1     -31.228   8.456   0.538  1.00 20.00    -0.286 OA
ENDBRANCH   8   9
ENDBRANCH   7   8
TORSDOF 2
ENDMDL
MODEL 3
REMARK VINA RESULT:      -4.4     11.409     12.260
REMARK  2 active torsions:
REMARK  status: ('A' for Active; 'I' for Inactive)
REMARK    1  A    between atoms: C1_1  and  S11_11 
REMARK    2  A    between atoms: C8_8  and  S11_11 
ROOT
HETATM    1  C2  UNL     1     -33.580  18.360  -0.120  1.00 20.00     0.005 C 
HETATM    2  C3  UNL     1     -32.636  18.035  -1.287  1.00 20.00     0.006 C 
HETATM    3  C4  UNL     1     -34.635  18.961  -2.165  1.00 20.00     0.010 C 
HETATM    4  C5  UNL     1     -35.379  16.943  -1.145  1.00 20.00     0.020 C 
HETATM    5  C6  UNL     1     -34.964  18.384  -0.790  1.00 20.00    -0.013 C 
HETATM    6  C7  UNL     1     -33.601  17.876  -2.478  1.00 20.00     0.000 C 
HETATM    7  C8  UNL     1     -34.397  16.568  -2.274  1.00 20.00     0.059 C 
ENDROOT
BRANCH   7   8
HETATM    8  S11 UNL     1     -35.265  16.054  -3.790  1.00 20.00    -0.088 SA
BRANCH   8   9
HETATM    9  C1  UNL     1     -34.326  14.623  -4.208  1.00 20.00     0.182 C 
HETATM   10  C9  UNL     1     -32.911  14.938  -4.603  1.00 20.00     0.104 C 
HETATM   11  O10 UNL     1     -34.774  13.484  -4.180  1.00 20.00    -0.286 OA
ENDBRANCH   8   9
ENDBRANCH   7   8
TORSDOF 2
ENDMDL
MODEL 4
REMARK VINA RESULT:      -4.3     11.390     12.269
REMARK  2 active torsions:
REMARK  status: ('A' for Active; 'I' for Inactive)
REMARK    1  A    between atoms: C1_1  and  S11_11 
REMARK    2  A    between atoms: C8_8  and  S11_11 
ROOT
HETATM    1  C2  UNL     1     -34.025  18.088  -0.196  1.00 20.00     0.005 C 
HETATM    2  C3  UNL     1     -32.718  18.197  -0.995  1.00 20.00     0.006 C 
HETATM    3  C4  UNL     1     -34.514  18.883  -2.384  1.00 20.00     0.010 C 
HETATM    4  C5  UNL     1     -35.009  16.594  -1.955  1.00 20.00     0.020 C 
HETATM    5  C6  UNL     1     -35.096  17.984  -1.295  1.00 20.00    -0.013 C 
HETATM    6  C7  UNL     1     -33.198  18.104  -2.457  1.00 20.00     0.000 C 
HETATM    7  C8  UNL     1     -33.666  16.654  -2.713  1.00 20.00     0.059 C 
ENDROOT
BRANCH   7   8
HETATM    8  S11 UNL     1     -33.869  16.306  -4.489  1.00 20.00    -0.088 SA
BRANCH   8   9
HETATM    9  C1  UNL     1     -33.917  14.545  -4.450  1.00 20.00     0.182 C 
HETATM   10  C9  UNL     1     -35.298  13.986  -4.639  1.00 20.00     0.104 C 
HETATM   11  O10 UNL     1     -32.927  13.842  -4.288  1.00 20.00    -0.286 OA
ENDBRANCH   8   9
ENDBRANCH   7   8
TORSDOF 2
ENDMDL
MODEL 5
REMARK VINA RESULT:      -4.3     11.460     12.572
REMARK  2 active torsions:
REMARK  status: ('A' for Active; 'I' for Inactive)
REMARK    1  A    between atoms: C1_1  and  S11_11 
REMARK    2  A    between atoms: C8_8  and  S11_11 
ROOT
HETATM    1  C2  UNL     1     -35.147  18.793  -2.711  1.00 20.00     0.005 C 
HETATM    2  C3  UNL     1     -35.913  17.640  -2.046  1.00 20.00     0.006 C 
HETATM    3  C4  UNL     1     -33.619  17.051  -2.175  1.00 20.00     0.010 C 
HETATM    4  C5  UNL     1     -34.258  17.231  -4.462  1.00 20.00     0.020 C 
HETATM    5  C6  UNL     1     -33.882  18.104  -3.249  1.00 20.00    -0.013 C 
HETATM    6  C7  UNL     1     -35.008  16.422  -2.319  1.00 20.00     0.000 C 
HETATM    7  C8  UNL     1     -35.089  16.097  -3.826  1.00 20.00     0.059 C 
ENDROOT
BRANCH   7   8
HETATM    8  S11 UNL     1     -34.403  14.453  -4.208  1.00 20.00    -0.088 SA
BRANCH   8   9
HETATM    9  C1  UNL     1     -35.819  13.693  -4.929  1.00 20.00     0.182 C 
HETATM   10  C9  UNL     1     -37.038  14.570  -4.908  1.00 20.00     0.104 C 
HETATM   11  O10 UNL     1     -35.816  12.564  -5.405  1.00 20.00    -0.286 OA
ENDBRANCH   8   9
ENDBRANCH   7   8
TORSDOF 2
ENDMDL
MODEL 6
REMARK VINA RESULT:      -4.3     11.713     12.326
REMARK  2 active torsions:
REMARK  status: ('A' for Active; 'I' for Inactive)
REMARK    1  A    between atoms: C1_1  and  S11_11 
REMARK    2  A    between atoms: C8_8  and  S11_11 
ROOT
HETATM    1  C2  UNL     1     -35.176  17.002  -1.549  1.00 20.00     0.005 C 
HETATM    2  C3  UNL     1     -33.730  16.845  -2.041  1.00 20.00     0.006 C 
HETATM    3  C4  UNL     1     -35.047  17.690  -3.823  1.00 20.00     0.010 C 
HETATM    4  C5  UNL     1     -35.999  15.546  -3.420  1.00 20.00     0.020 C 
HETATM    5  C6  UNL     1     -35.990  16.980  -2.855  1.00 20.00    -0.013 C 
HETATM    6  C7  UNL     1     -33.895  16.713  -3.568  1.00 20.00     0.000 C 
HETATM    7  C8  UNL     1     -34.535  15.338  -3.860  1.00 20.00     0.059 C 
ENDROOT
BRANCH   7   8
HETATM    8  S11 UNL     1     -34.410  14.887  -5.620  1.00 20.00    -0.088 SA
BRANCH   8   9
HETATM    9  C1  UNL     1     -35.789  13.800  -5.755  1.00 20.00     0.182 C 
HETATM   10  C9  UNL     1     -36.901  14.356  -6.599  1.00 20.00     0.104 C 
HETATM   11  O10 UNL     1     -35.843  12.700  -5.219  1.00 20.00    -0.286 OA
ENDBRANCH   8   9
ENDBRANCH   7   8
TORSDOF 2
ENDMDL
MODEL 7
REMARK VINA RESULT:      -4.2     11.801     12.679
REMARK  2 active torsions:
REMARK  status: ('A' for Active; 'I' for Inactive)
REMARK    1  A    between atoms: C1_1  and  S11_11 
REMARK    2  A    between atoms: C8_8  and  S11_11 
ROOT
HETATM    1  C2  UNL     1     -34.509  17.821  -2.325  1.00 20.00     0.005 C 
HETATM    2  C3  UNL     1     -35.402  16.583  -2.166  1.00 20.00     0.006 C 
HETATM    3  C4  UNL     1     -33.471  15.970  -3.399  1.00 20.00     0.010 C 
HETATM    4  C5  UNL     1     -34.537  17.556  -4.820  1.00 20.00     0.020 C 
HETATM    5  C6  UNL     1     -33.656  17.478  -3.558  1.00 20.00    -0.013 C 
HETATM    6  C7  UNL     1     -34.977  15.695  -3.352  1.00 20.00     0.000 C 
HETATM    7  C8  UNL     1     -35.492  16.356  -4.650  1.00 20.00     0.059 C 
ENDROOT
BRANCH   7   8
HETATM    8  S11 UNL     1     -35.418  15.219  -6.071  1.00 20.00    -0.088 SA
BRANCH   8   9
HETATM    9  C1  UNL     1     -36.400  13.894  -5.451  1.00 20.00     0.182 C 
HETATM   10  C9  UNL     1     -37.829  14.282  -5.202  1.00 20.00     0.104 C 
HETATM   11  O10 UNL     1     -35.967  12.767  -5.244  1.00 20.00    -0.286 OA
ENDBRANCH   8   9
ENDBRANCH   7   8
TORSDOF 2
ENDMDL
MODEL 8
REMARK VINA RESULT:      -4.1     11.793     12.678
REMARK  2 active torsions:
REMARK  status: ('A' for Active; 'I' for Inactive)
REMARK    1  A    between atoms: C1_1  and  S11_11 
REMARK    2  A    between atoms: C8_8  and  S11_11 
ROOT
HETATM    1  C2  UNL     1     -33.552  17.850  -3.440  1.00 20.00     0.005 C 
HETATM    2  C3  UNL     1     -34.831  18.035  -4.270  1.00 20.00     0.006 C 
HETATM    3  C4  UNL     1     -35.244  16.408  -2.594  1.00 20.00     0.010 C 
HETATM    4  C5  UNL     1     -33.558  15.389  -3.930  1.00 20.00     0.020 C 
HETATM    5  C6  UNL     1     -33.736  16.451  -2.827  1.00 20.00    -0.013 C 
HETATM    6  C7  UNL     1     -35.575  16.701  -4.060  1.00 20.00     0.000 C 
HETATM    7  C8  UNL     1     -34.801  15.600  -4.818  1.00 20.00     0.059 C 
ENDROOT
BRANCH   7   8
HETATM    8  S11 UNL     1     -35.781  14.075  -4.994  1.00 20.00    -0.088 SA
BRANCH   8   9
HETATM    9  C1  UNL     1     -35.133  13.471  -6.516  1.00 20.00     0.182 C 
HETATM   10  C9  UNL     1     -34.640  14.562  -7.424  1.00 20.00     0.104 C 
HETATM   11  O10 UNL     1     -35.085  12.283  -6.811  1.00 20.00    -0.286 OA
ENDBRANCH   8   9
ENDBRANCH   7   8
TORSDOF 2
ENDMDL
MODEL 9
REMARK VINA RESULT:      -4.1     11.351     12.620
REMARK  2 active torsions:
REMARK  status: ('A' for Active; 'I' for Inactive)
REMARK    1  A    between atoms: C1_1  and  S11_11 
REMARK    2  A    between atoms: C8_8  and  S11_11 
ROOT
HETATM    1  C2  UNL     1     -34.719  16.365  -2.994  1.00 20.00     0.005 C 
HETATM    2  C3  UNL     1     -35.865  15.647  -3.721  1.00 20.00     0.006 C 
HETATM    3  C4  UNL     1     -33.907  14.321  -3.901  1.00 20.00     0.010 C 
HETATM    4  C5  UNL     1     -33.323  16.306  -5.078  1.00 20.00     0.020 C 
HETATM    5  C6  UNL     1     -33.463  15.760  -3.644  1.00 20.00    -0.013 C 
HETATM    6  C7  UNL     1     -35.125  14.744  -4.727  1.00 20.00     0.000 C 
HETATM    7  C8  UNL     1     -34.509  15.650  -5.816  1.00 20.00     0.059 C 
ENDROOT
BRANCH   7   8
HETATM    8  S11 UNL     1     -33.965  14.697  -7.269  1.00 20.00    -0.088 SA
BRANCH   8   9
HETATM    9  C1  UNL     1     -35.251  13.496  -7.345  1.00 20.00     0.182 C 
HETATM   10  C9  UNL     1     -36.535  14.037  -7.907  1.00 20.00     0.104 C 
HETATM   11  O10 UNL     1     -35.118  12.334  -6.980  1.00 20.00    -0.286 OA
ENDBRANCH   8   9
ENDBRANCH   7   8
TORSDOF 2
ENDMDL
