MODEL 1
REMARK VINA RESULT:      -5.3      0.000      0.000
REMARK  1 active torsions:
REMARK  status: ('A' for Active; 'I' for Inactive)
REMARK    1  A    between atoms: C3_3  and  C7_7 
ROOT
HETATM    1  C1  UNL     1     -34.234   5.927   4.228  1.00 20.00    -0.020 C 
HETATM    2  C2  UNL     1     -33.718   6.952   4.928  1.00 20.00    -0.086 C 
HETATM    3  C4  UNL     1     -32.778   7.958   4.308  1.00 20.00     0.045 C 
HETATM    4  C5  UNL     1     -33.324   6.901   2.079  1.00 20.00     0.020 C 
HETATM    5  C6  UNL     1     -33.968   5.684   2.764  1.00 20.00     0.005 C 
HETATM    6  C7  UNL     1     -32.229   7.527   2.942  1.00 20.00     0.051 C 
HETATM    7  C8  UNL     1     -34.049   7.167   6.375  1.00 20.00     0.043 C 
HETATM    8  C9  UNL     1     -33.115   4.425   2.594  1.00 20.00     0.014 C 
ENDROOT
BRANCH   6   9
HETATM    9  C3  UNL     1     -31.643   8.717   2.246  1.00 20.00     0.236 C 
HETATM   10  O10 UNL     1     -31.672   8.869   1.029  1.00 20.00    -0.306 OA
ENDBRANCH   6   9
TORSDOF 1
ENDMDL
MODEL 2
REMARK VINA RESULT:      -4.8     11.360     12.007
REMARK  1 active torsions:
REMARK  status: ('A' for Active; 'I' for Inactive)
REMARK    1  A    between atoms: C3_3  and  C7_7 
ROOT
HETATM    1  C1  UNL     1     -35.565  16.890  -1.378  1.00 20.00    -0.020 C 
HETATM    2  C2  UNL     1     -34.421  16.793  -2.077  1.00 20.00    -0.086 C 
HETATM    3  C4  UNL     1     -33.149  17.476  -1.637  1.00 20.00     0.045 C 
HETATM    4  C5  UNL     1     -34.339  18.016   0.525  1.00 20.00     0.020 C 
HETATM    5  C6  UNL     1     -35.703  17.648  -0.083  1.00 20.00     0.005 C 
HETATM    6  C7  UNL     1     -33.361  18.522  -0.535  1.00 20.00     0.051 C 
HETATM    7  C8  UNL     1     -34.333  15.991  -3.342  1.00 20.00     0.043 C 
HETATM    8  C9  UNL     1     -36.576  18.887  -0.297  1.00 20.00     0.014 C 
ENDROOT
BRANCH   6   9
HETATM    9  C3  UNL     1     -32.043  18.849   0.097  1.00 20.00     0.236 C 
HETATM   10  O10 UNL     1     -30.990  18.304  -0.215  1.00 20.00    -0.306 OA
ENDBRANCH   6   9
TORSDOF 1
ENDMDL
MODEL 3
REMARK VINA RESULT:      -4.6     11.301     11.813
REMARK  1 active torsions:
REMARK  status: ('A' for Active; 'I' for Inactive)
REMARK    1  A    between atoms: C3_3  and  C7_7 
ROOT
HETATM    1  C1  UNL     1     -33.567  15.826  -3.387  1.00 20.00    -0.020 C 
HETATM    2  C2  UNL     1     -34.571  16.388  -2.693  1.00 20.00    -0.086 C 
HETATM    3  C4  UNL     1     -36.021  16.167  -3.052  1.00 20.00     0.045 C 
HETATM    4  C5  UNL     1     -35.217  14.406  -4.675  1.00 20.00     0.020 C 
HETATM    5  C6  UNL     1     -33.765  14.901  -4.562  1.00 20.00     0.005 C 
HETATM    6  C7  UNL     1     -36.223  15.530  -4.433  1.00 20.00     0.051 C 
HETATM    7  C8  UNL     1     -34.315  17.270  -1.507  1.00 20.00     0.043 C 
HETATM    8  C9  UNL     1     -33.303  15.591  -5.848  1.00 20.00     0.014 C 
ENDROOT
BRANCH   6   9
HETATM    9  C3  UNL     1     -37.620  15.000  -4.535  1.00 20.00     0.236 C 
HETATM   10  O10 UNL     1     -37.887  13.870  -4.929  1.00 20.00    -0.306 OA
ENDBRANCH   6   9
TORSDOF 1
ENDMDL
MODEL 4
REMARK VINA RESULT:      -4.5     11.296     12.393
REMARK  1 active torsions:
REMARK  status: ('A' for Active; 'I' for Inactive)
REMARK    1  A    between atoms: C3_3  and  C7_7 
ROOT
HETATM    1  C1  UNL     1     -33.216  16.621  -4.788  1.00 20.00    -0.020 C 
HETATM    2  C2  UNL     1     -33.964  16.294  -3.721  1.00 20.00    -0.086 C 
HETATM    3  C4  UNL     1     -35.101  15.304  -3.807  1.00 20.00     0.045 C 
HETATM    4  C5  UNL     1     -34.293  14.777  -6.142  1.00 20.00     0.020 C 
HETATM    5  C6  UNL     1     -33.397  16.027  -6.162  1.00 20.00     0.005 C 
HETATM    6  C7  UNL     1     -35.516  14.967  -5.245  1.00 20.00     0.051 C 
HETATM    7  C8  UNL     1     -33.713  16.889  -2.367  1.00 20.00     0.043 C 
HETATM    8  C9  UNL     1     -33.936  17.091  -7.120  1.00 20.00     0.014 C 
ENDROOT
BRANCH   6   9
HETATM    9  C3  UNL     1     -36.349  13.722  -5.241  1.00 20.00     0.236 C 
HETATM   10  O10 UNL     1     -35.874  12.591  -5.271  1.00 20.00    -0.306 OA
ENDBRANCH   6   9
TORSDOF 1
ENDMDL
MODEL 5
REMARK VINA RESULT:      -4.3     11.044     12.003
REMARK  1 active torsions:
REMARK  status: ('A' for Active; 'I' for Inactive)
REMARK    1  A    between atoms: C3_3  and  C7_7 
ROOT
HETATM    1  C1  UNL     1     -33.892  16.274  -3.177  1.00 20.00    -0.020 C 
HETATM    2  C2  UNL     1     -34.001  15.191  -3.965  1.00 20.00    -0.086 C 
HETATM    3  C4  UNL     1     -35.333  14.702  -4.481  1.00 20.00     0.045 C 
HETATM    4  C5  UNL     1     -36.325  16.840  -3.571  1.00 20.00     0.020 C 
HETATM    5  C6  UNL     1     -35.057  17.131  -2.750  1.00 20.00     0.005 C 
HETATM    6  C7  UNL     1     -36.537  15.340  -3.778  1.00 20.00     0.051 C 
HETATM    7  C8  UNL     1     -32.800  14.398  -4.390  1.00 20.00     0.043 C 
HETATM    8  C9  UNL     1     -35.304  16.958  -1.250  1.00 20.00     0.014 C 
ENDROOT
BRANCH   6   9
HETATM    9  C3  UNL     1     -37.770  15.104  -4.595  1.00 20.00     0.236 C 
HETATM   10  O10 UNL     1     -38.144  13.991  -4.948  1.00 20.00    -0.306 OA
ENDBRANCH   6   9
TORSDOF 1
ENDMDL
MODEL 6
REMARK VINA RESULT:      -4.3     11.482     12.371
REMARK  1 active torsions:
REMARK  status: ('A' for Active; 'I' for Inactive)
REMARK    1  A    between atoms: C3_3  and  C7_7 
ROOT
HETATM    1  C1  UNL     1     -32.932  18.000  -1.835  1.00 20.00    -0.020 C 
HETATM    2  C2  UNL     1     -33.929  17.120  -2.027  1.00 20.00    -0.086 C 
HETATM    3  C4  UNL     1     -35.114  17.030  -1.096  1.00 20.00     0.045 C 
HETATM    4  C5  UNL     1     -34.256  19.143  -0.009  1.00 20.00     0.020 C 
HETATM    5  C6  UNL     1     -32.894  19.004  -0.710  1.00 20.00     0.005 C 
HETATM    6  C7  UNL     1     -34.918  17.785   0.224  1.00 20.00     0.051 C 
HETATM    7  C8  UNL     1     -33.932  16.170  -3.188  1.00 20.00     0.043 C 
HETATM    8  C9  UNL     1     -31.786  18.633   0.278  1.00 20.00     0.014 C 
ENDROOT
BRANCH   6   9
HETATM    9  C3  UNL     1     -36.246  17.969   0.892  1.00 20.00     0.236 C 
HETATM   10  O10 UNL     1     -37.250  18.357   0.303  1.00 20.00    -0.306 OA
ENDBRANCH   6   9
TORSDOF 1
ENDMDL
MODEL 7
REMARK VINA RESULT:      -3.9     11.597     12.363
REMARK  1 active torsions:
REMARK  status: ('A' for Active; 'I' for Inactive)
REMARK    1  A    between atoms: C3_3  and  C7_7 
ROOT
HETATM    1  C1  UNL     1     -33.274  18.975   1.789  1.00 20.00    -0.020 C 
HETATM    2  C2  UNL     1     -32.099  18.738   1.182  1.00 20.00    -0.086 C 
HETATM    3  C4  UNL     1     -31.996  18.483  -0.302  1.00 20.00     0.045 C 
HETATM    4  C5  UNL     1     -34.427  19.154  -0.455  1.00 20.00     0.020 C 
HETATM    5  C6  UNL     1     -34.598  19.048   1.070  1.00 20.00     0.005 C 
HETATM    6  C7  UNL     1     -33.346  18.205  -0.974  1.00 20.00     0.051 C 
HETATM    7  C8  UNL     1     -30.807  18.716   1.944  1.00 20.00     0.043 C 
HETATM    8  C9  UNL     1     -35.464  17.847   1.457  1.00 20.00     0.014 C 
ENDROOT
BRANCH   6   9
HETATM    9  C3  UNL     1     -33.201  18.355  -2.458  1.00 20.00     0.236 C 
HETATM   10  O10 UNL     1     -32.568  19.263  -2.986  1.00 20.00    -0.306 OA
ENDBRANCH   6   9
TORSDOF 1
ENDMDL
MODEL 8
REMARK VINA RESULT:      -3.9     11.231     11.955
REMARK  1 active torsions:
REMARK  status: ('A' for Active; 'I' for Inactive)
REMARK    1  A    between atoms: C3_3  and  C7_7 
ROOT
HETATM    1  C1  UNL     1     -34.174  18.809   0.362  1.00 20.00    -0.020 C 
HETATM    2  C2  UNL     1     -33.224  18.266  -0.418  1.00 20.00    -0.086 C 
HETATM    3  C4  UNL     1     -33.556  17.350  -1.571  1.00 20.00     0.045 C 
HETATM    4  C5  UNL     1     -35.975  17.980  -1.209  1.00 20.00     0.020 C 
HETATM    5  C6  UNL     1     -35.654  18.599   0.163  1.00 20.00     0.005 C 
HETATM    6  C7  UNL     1     -35.007  16.853  -1.565  1.00 20.00     0.051 C 
HETATM    7  C8  UNL     1     -31.766  18.542  -0.196  1.00 20.00     0.043 C 
HETATM    8  C9  UNL     1     -36.216  17.753   1.308  1.00 20.00     0.014 C 
ENDROOT
BRANCH   6   9
HETATM    9  C3  UNL     1     -35.345  16.293  -2.913  1.00 20.00     0.236 C 
HETATM   10  O10 UNL     1     -34.714  15.385  -3.445  1.00 20.00    -0.306 OA
ENDBRANCH   6   9
TORSDOF 1
ENDMDL
MODEL 9
REMARK VINA RESULT:      -3.9     10.818     12.825
REMARK  1 active torsions:
REMARK  status: ('A' for Active; 'I' for Inactive)
REMARK    1  A    between atoms: C3_3  and  C7_7 
ROOT
HETATM    1  C1  UNL     1     -33.319  16.117  -5.618  1.00 20.00    -0.020 C 
HETATM    2  C2  UNL     1     -34.303  16.268  -6.521  1.00 20.00    -0.086 C 
HETATM    3  C4  UNL     1     -35.717  15.811  -6.256  1.00 20.00     0.045 C 
HETATM    4  C5  UNL     1     -35.000  15.405  -3.868  1.00 20.00     0.020 C 
HETATM    5  C6  UNL     1     -33.514  15.518  -4.248  1.00 20.00     0.005 C 
HETATM    6  C7  UNL     1     -35.849  14.895  -5.032  1.00 20.00     0.051 C 
HETATM    7  C8  UNL     1     -34.058  16.907  -7.856  1.00 20.00     0.043 C 
HETATM    8  C9  UNL     1     -32.808  14.162  -4.170  1.00 20.00     0.014 C 
ENDROOT
BRANCH   6   9
HETATM    9  C3  UNL     1     -37.288  14.819  -4.624  1.00 20.00     0.236 C 
HETATM   10  O10 UNL     1     -38.030  13.892  -4.934  1.00 20.00    -0.306 OA
ENDBRANCH   6   9
TORSDOF 1
ENDMDL
