MODEL 1
REMARK VINA RESULT:      -6.8      0.000      0.000
REMARK  2 active torsions:
REMARK  status: ('A' for Active; 'I' for Inactive)
REMARK    1  A    between atoms: C1_1  and  C10_10 
REMARK    2  A    between atoms: C8_8  and  C10_10 
ROOT
HETATM    1  C2  UNL     1     -34.418   4.937   5.692  1.00 20.00     0.005 C 
HETATM    2  C3  UNL     1     -34.163   6.450   5.787  1.00 20.00     0.005 C 
HETATM    3  C4  UNL     1     -35.426   6.018   3.826  1.00 20.00     0.009 C 
HETATM    4  C5  UNL     1     -33.381   4.878   3.409  1.00 20.00     0.010 C 
HETATM    5  C6  UNL     1     -34.697   4.728   4.194  1.00 20.00    -0.014 C 
HETATM    6  C7  UNL     1     -34.289   6.913   4.324  1.00 20.00    -0.010 C 
HETATM    7  C8  UNL     1     -33.065   6.383   3.540  1.00 20.00    -0.003 C 
ENDROOT
BRANCH   7   8
HETATM    8  C10 UNL     1     -32.894   7.058   2.184  1.00 20.00     0.082 C 
BRANCH   8   9
HETATM    9  C1  UNL     1     -32.059   8.321   2.268  1.00 20.00     0.123 C 
HETATM   10  C9  UNL     1     -32.135   9.239   1.076  1.00 20.00     0.091 C 
HETATM   11  O11 UNL     1     -31.357   8.598   3.239  1.00 20.00    -0.298 OA
ENDBRANCH   8   9
ENDBRANCH   7   8
TORSDOF 2
ENDMDL
MODEL 2
REMARK VINA RESULT:      -5.3      1.273      2.092
REMARK  2 active torsions:
REMARK  status: ('A' for Active; 'I' for Inactive)
REMARK    1  A    between atoms: C1_1  and  C10_10 
REMARK    2  A    between atoms: C8_8  and  C10_10 
ROOT
HETATM    1  C2  UNL     1     -35.236   5.804   4.211  1.00 20.00     0.005 C 
HETATM    2  C3  UNL     1     -35.152   6.196   2.727  1.00 20.00     0.005 C 
HETATM    3  C4  UNL     1     -33.057   5.304   3.393  1.00 20.00     0.009 C 
HETATM    4  C5  UNL     1     -33.260   7.257   4.736  1.00 20.00     0.010 C 
HETATM    5  C6  UNL     1     -33.762   5.804   4.652  1.00 20.00    -0.014 C 
HETATM    6  C7  UNL     1     -33.642   6.411   2.512  1.00 20.00    -0.010 C 
HETATM    7  C8  UNL     1     -33.225   7.701   3.257  1.00 20.00    -0.003 C 
ENDROOT
BRANCH   7   8
HETATM    8  C10 UNL     1     -31.849   8.207   2.839  1.00 20.00     0.082 C 
BRANCH   8   9
HETATM    9  C1  UNL     1     -31.868   8.875   1.479  1.00 20.00     0.123 C 
HETATM   10  C9  UNL     1     -32.792  10.058   1.341  1.00 20.00     0.091 C 
HETATM   11  O11 UNL     1     -31.182   8.493   0.533  1.00 20.00    -0.298 OA
ENDBRANCH   8   9
ENDBRANCH   7   8
TORSDOF 2
ENDMDL
MODEL 3
REMARK VINA RESULT:      -4.6     11.433     12.286
REMARK  2 active torsions:
REMARK  status: ('A' for Active; 'I' for Inactive)
REMARK    1  A    between atoms: C1_1  and  C10_10 
REMARK    2  A    between atoms: C8_8  and  C10_10 
ROOT
HETATM    1  C2  UNL     1     -33.606  18.400  -0.089  1.00 20.00     0.005 C 
HETATM    2  C3  UNL     1     -32.592  18.061  -1.193  1.00 20.00     0.005 C 
HETATM    3  C4  UNL     1     -34.556  18.921  -2.208  1.00 20.00     0.009 C 
HETATM    4  C5  UNL     1     -35.320  16.922  -1.169  1.00 20.00     0.010 C 
HETATM    5  C6  UNL     1     -34.950  18.379  -0.836  1.00 20.00    -0.014 C 
HETATM    6  C7  UNL     1     -33.486  17.849  -2.429  1.00 20.00    -0.010 C 
HETATM    7  C8  UNL     1     -34.274  16.531  -2.236  1.00 20.00    -0.003 C 
ENDROOT
BRANCH   7   8
HETATM    8  C10 UNL     1     -34.921  16.035  -3.525  1.00 20.00     0.082 C 
BRANCH   8   9
HETATM    9  C1  UNL     1     -34.129  14.919  -4.176  1.00 20.00     0.123 C 
HETATM   10  C9  UNL     1     -32.980  15.352  -5.050  1.00 20.00     0.091 C 
HETATM   11  O11 UNL     1     -34.390  13.728  -4.015  1.00 20.00    -0.298 OA
ENDBRANCH   8   9
ENDBRANCH   7   8
TORSDOF 2
ENDMDL
MODEL 4
REMARK VINA RESULT:      -4.5     11.284     12.241
REMARK  2 active torsions:
REMARK  status: ('A' for Active; 'I' for Inactive)
REMARK    1  A    between atoms: C1_1  and  C10_10 
REMARK    2  A    between atoms: C8_8  and  C10_10 
ROOT
HETATM    1  C2  UNL     1     -34.022  18.109  -0.269  1.00 20.00     0.005 C 
HETATM    2  C3  UNL     1     -32.719  18.113  -1.082  1.00 20.00     0.005 C 
HETATM    3  C4  UNL     1     -34.496  18.786  -2.501  1.00 20.00     0.009 C 
HETATM    4  C5  UNL     1     -35.085  16.555  -1.926  1.00 20.00     0.010 C 
HETATM    5  C6  UNL     1     -35.106  17.984  -1.354  1.00 20.00    -0.014 C 
HETATM    6  C7  UNL     1     -33.215  17.949  -2.531  1.00 20.00    -0.010 C 
HETATM    7  C8  UNL     1     -33.750  16.507  -2.700  1.00 20.00    -0.003 C 
ENDROOT
BRANCH   7   8
HETATM    8  C10 UNL     1     -33.942  16.115  -4.161  1.00 20.00     0.082 C 
BRANCH   8   9
HETATM    9  C1  UNL     1     -33.966  14.612  -4.357  1.00 20.00     0.123 C 
HETATM   10  C9  UNL     1     -35.320  14.005  -4.618  1.00 20.00     0.091 C 
HETATM   11  O11 UNL     1     -32.955  13.913  -4.311  1.00 20.00    -0.298 OA
ENDBRANCH   8   9
ENDBRANCH   7   8
TORSDOF 2
ENDMDL
MODEL 5
REMARK VINA RESULT:      -4.5      1.938      4.891
REMARK  2 active torsions:
REMARK  status: ('A' for Active; 'I' for Inactive)
REMARK    1  A    between atoms: C1_1  and  C10_10 
REMARK    2  A    between atoms: C8_8  and  C10_10 
ROOT
HETATM    1  C2  UNL     1     -32.974  10.068  -0.007  1.00 20.00     0.005 C 
HETATM    2  C3  UNL     1     -32.592  10.580   1.392  1.00 20.00     0.005 C 
HETATM    3  C4  UNL     1     -31.222   8.716   0.869  1.00 20.00     0.009 C 
HETATM    4  C5  UNL     1     -33.407   7.778   0.918  1.00 20.00     0.010 C 
HETATM    5  C6  UNL     1     -32.482   8.611   0.013  1.00 20.00    -0.014 C 
HETATM    6  C7  UNL     1     -31.964   9.339   2.053  1.00 20.00    -0.010 C 
HETATM    7  C8  UNL     1     -33.090   8.315   2.331  1.00 20.00    -0.003 C 
ENDROOT
BRANCH   7   8
HETATM    8  C10 UNL     1     -32.661   7.208   3.288  1.00 20.00     0.082 C 
BRANCH   8   9
HETATM    9  C1  UNL     1     -33.800   6.729   4.164  1.00 20.00     0.123 C 
HETATM   10  C9  UNL     1     -33.769   7.196   5.596  1.00 20.00     0.091 C 
HETATM   11  O11 UNL     1     -34.704   6.002   3.754  1.00 20.00    -0.298 OA
ENDBRANCH   8   9
ENDBRANCH   7   8
TORSDOF 2
ENDMDL
MODEL 6
REMARK VINA RESULT:      -4.4     11.155     12.432
REMARK  2 active torsions:
REMARK  status: ('A' for Active; 'I' for Inactive)
REMARK    1  A    between atoms: C1_1  and  C10_10 
REMARK    2  A    between atoms: C8_8  and  C10_10 
ROOT
HETATM    1  C2  UNL     1     -34.691  18.627  -2.780  1.00 20.00     0.005 C 
HETATM    2  C3  UNL     1     -35.985  18.039  -3.365  1.00 20.00     0.005 C 
HETATM    3  C4  UNL     1     -35.213  16.602  -1.643  1.00 20.00     0.009 C 
HETATM    4  C5  UNL     1     -33.471  16.489  -3.258  1.00 20.00     0.010 C 
HETATM    5  C6  UNL     1     -34.013  17.402  -2.143  1.00 20.00    -0.014 C 
HETATM    6  C7  UNL     1     -35.869  16.542  -3.025  1.00 20.00    -0.010 C 
HETATM    7  C8  UNL     1     -34.756  15.929  -3.908  1.00 20.00    -0.003 C 
ENDROOT
BRANCH   7   8
HETATM    8  C10 UNL     1     -34.781  14.405  -3.919  1.00 20.00     0.082 C 
BRANCH   8   9
HETATM    9  C1  UNL     1     -35.492  13.848  -5.136  1.00 20.00     0.123 C 
HETATM   10  C9  UNL     1     -35.657  14.799  -6.293  1.00 20.00     0.091 C 
HETATM   11  O11 UNL     1     -35.917  12.696  -5.196  1.00 20.00    -0.298 OA
ENDBRANCH   8   9
ENDBRANCH   7   8
TORSDOF 2
ENDMDL
MODEL 7
REMARK VINA RESULT:      -4.3     11.261     12.063
REMARK  2 active torsions:
REMARK  status: ('A' for Active; 'I' for Inactive)
REMARK    1  A    between atoms: C1_1  and  C10_10 
REMARK    2  A    between atoms: C8_8  and  C10_10 
ROOT
HETATM    1  C2  UNL     1     -35.721  13.619  -5.181  1.00 20.00     0.005 C 
HETATM    2  C3  UNL     1     -36.555  14.768  -4.592  1.00 20.00     0.005 C 
HETATM    3  C4  UNL     1     -34.762  15.697  -5.836  1.00 20.00     0.009 C 
HETATM    4  C5  UNL     1     -33.652  14.524  -4.090  1.00 20.00     0.010 C 
HETATM    5  C6  UNL     1     -34.355  14.280  -5.438  1.00 20.00    -0.014 C 
HETATM    6  C7  UNL     1     -35.551  15.935  -4.547  1.00 20.00    -0.010 C 
HETATM    7  C8  UNL     1     -34.508  15.634  -3.444  1.00 20.00    -0.003 C 
ENDROOT
BRANCH   7   8
HETATM    8  C10 UNL     1     -33.679  16.857  -3.065  1.00 20.00     0.082 C 
BRANCH   8   9
HETATM    9  C1  UNL     1     -33.906  17.287  -1.630  1.00 20.00     0.123 C 
HETATM   10  C9  UNL     1     -35.283  17.026  -1.077  1.00 20.00     0.091 C 
HETATM   11  O11 UNL     1     -33.036  17.818  -0.942  1.00 20.00    -0.298 OA
ENDBRANCH   8   9
ENDBRANCH   7   8
TORSDOF 2
ENDMDL
MODEL 8
REMARK VINA RESULT:      -4.3     11.563     12.672
REMARK  2 active torsions:
REMARK  status: ('A' for Active; 'I' for Inactive)
REMARK    1  A    between atoms: C1_1  and  C10_10 
REMARK    2  A    between atoms: C8_8  and  C10_10 
ROOT
HETATM    1  C2  UNL     1     -33.631  17.789  -3.711  1.00 20.00     0.005 C 
HETATM    2  C3  UNL     1     -34.986  17.789  -4.435  1.00 20.00     0.005 C 
HETATM    3  C4  UNL     1     -35.118  16.312  -2.583  1.00 20.00     0.009 C 
HETATM    4  C5  UNL     1     -33.465  15.299  -3.961  1.00 20.00     0.010 C 
HETATM    5  C6  UNL     1     -33.644  16.450  -2.954  1.00 20.00    -0.014 C 
HETATM    6  C7  UNL     1     -35.591  16.431  -4.034  1.00 20.00    -0.010 C 
HETATM    7  C8  UNL     1     -34.793  15.315  -4.749  1.00 20.00    -0.003 C 
ENDROOT
BRANCH   7   8
HETATM    8  C10 UNL     1     -35.501  13.965  -4.714  1.00 20.00     0.082 C 
BRANCH   8   9
HETATM    9  C1  UNL     1     -36.781  13.963  -5.525  1.00 20.00     0.123 C 
HETATM   10  C9  UNL     1     -36.633  14.296  -6.987  1.00 20.00     0.091 C 
HETATM   11  O11 UNL     1     -37.883  13.710  -5.041  1.00 20.00    -0.298 OA
ENDBRANCH   8   9
ENDBRANCH   7   8
TORSDOF 2
ENDMDL
MODEL 9
REMARK VINA RESULT:      -4.3     11.281     12.552
REMARK  2 active torsions:
REMARK  status: ('A' for Active; 'I' for Inactive)
REMARK    1  A    between atoms: C1_1  and  C10_10 
REMARK    2  A    between atoms: C8_8  and  C10_10 
ROOT
HETATM    1  C2  UNL     1     -34.916  15.010  -5.980  1.00 20.00     0.005 C 
HETATM    2  C3  UNL     1     -33.678  15.920  -5.961  1.00 20.00     0.005 C 
HETATM    3  C4  UNL     1     -33.507  14.375  -4.170  1.00 20.00     0.009 C 
HETATM    4  C5  UNL     1     -35.446  15.633  -3.609  1.00 20.00     0.010 C 
HETATM    5  C6  UNL     1     -34.985  14.491  -4.534  1.00 20.00    -0.014 C 
HETATM    6  C7  UNL     1     -33.214  15.841  -4.495  1.00 20.00    -0.010 C 
HETATM    7  C8  UNL     1     -34.241  16.599  -3.620  1.00 20.00    -0.003 C 
ENDROOT
BRANCH   7   8
HETATM    8  C10 UNL     1     -33.722  16.891  -2.216  1.00 20.00     0.082 C 
BRANCH   8   9
HETATM    9  C1  UNL     1     -33.003  18.222  -2.132  1.00 20.00     0.123 C 
HETATM   10  C9  UNL     1     -33.410  19.255  -3.151  1.00 20.00     0.091 C 
HETATM   11  O11 UNL     1     -32.137  18.466  -1.292  1.00 20.00    -0.298 OA
ENDBRANCH   8   9
ENDBRANCH   7   8
TORSDOF 2
ENDMDL
