MODEL 1
REMARK VINA RESULT:      -4.1      0.000      0.000
REMARK  1 active torsions:
REMARK  status: ('A' for Active; 'I' for Inactive)
REMARK    1  A    between atoms: C1_1  and  C3_3 
ROOT
HETATM    1  C1  UNL     1     -34.693   5.250   4.608  1.00 20.00     0.037 C 
HETATM    2  C2  UNL     1     -34.484   5.907   5.755  1.00 20.00    -0.028 C 
HETATM    3  C4  UNL     1     -33.762   7.212   5.832  1.00 20.00     0.036 C 
ENDROOT
BRANCH   1   4
HETATM    4  C3  UNL     1     -34.194   5.826   3.346  1.00 20.00     0.258 C 
HETATM    5  O5  UNL     1     -33.194   5.396   2.787  1.00 20.00    -0.302 OA
ENDBRANCH   1   4
TORSDOF 1
ENDMDL
MODEL 2
REMARK VINA RESULT:      -4.0      1.322      1.646
REMARK  1 active torsions:
REMARK  status: ('A' for Active; 'I' for Inactive)
REMARK    1  A    between atoms: C1_1  and  C3_3 
ROOT
HETATM    1  C1  UNL     1     -34.591   5.748   5.713  1.00 20.00     0.037 C 
HETATM    2  C2  UNL     1     -33.903   6.895   5.660  1.00 20.00    -0.028 C 
HETATM    3  C4  UNL     1     -33.289   7.425   4.407  1.00 20.00     0.036 C 
ENDROOT
BRANCH   1   4
HETATM    4  C3  UNL     1     -34.764   4.954   4.482  1.00 20.00     0.258 C 
HETATM    5  O5  UNL     1     -34.277   3.837   4.357  1.00 20.00    -0.302 OA
ENDBRANCH   1   4
TORSDOF 1
ENDMDL
MODEL 3
REMARK VINA RESULT:      -4.0      1.343      1.698
REMARK  1 active torsions:
REMARK  status: ('A' for Active; 'I' for Inactive)
REMARK    1  A    between atoms: C1_1  and  C3_3 
ROOT
HETATM    1  C1  UNL     1     -34.207   6.083   3.717  1.00 20.00     0.037 C 
HETATM    2  C2  UNL     1     -33.729   7.143   4.380  1.00 20.00    -0.028 C 
HETATM    3  C4  UNL     1     -33.739   7.252   5.869  1.00 20.00     0.036 C 
ENDROOT
BRANCH   1   4
HETATM    4  C3  UNL     1     -34.776   4.955   4.478  1.00 20.00     0.258 C 
HETATM    5  O5  UNL     1     -34.362   3.810   4.348  1.00 20.00    -0.302 OA
ENDBRANCH   1   4
TORSDOF 1
ENDMDL
MODEL 4
REMARK VINA RESULT:      -4.0      1.428      2.107
REMARK  1 active torsions:
REMARK  status: ('A' for Active; 'I' for Inactive)
REMARK    1  A    between atoms: C1_1  and  C3_3 
ROOT
HETATM    1  C1  UNL     1     -34.043   6.806   5.478  1.00 20.00     0.037 C 
HETATM    2  C2  UNL     1     -34.483   5.564   5.714  1.00 20.00    -0.028 C 
HETATM    3  C4  UNL     1     -34.573   4.511   4.659  1.00 20.00     0.036 C 
ENDROOT
BRANCH   1   4
HETATM    4  C3  UNL     1     -33.620   7.172   4.113  1.00 20.00     0.258 C 
HETATM    5  O5  UNL     1     -32.488   7.572   3.871  1.00 20.00    -0.302 OA
ENDBRANCH   1   4
TORSDOF 1
ENDMDL
MODEL 5
REMARK VINA RESULT:      -3.8      1.898      2.703
REMARK  1 active torsions:
REMARK  status: ('A' for Active; 'I' for Inactive)
REMARK    1  A    between atoms: C1_1  and  C3_3 
ROOT
HETATM    1  C1  UNL     1     -34.632   5.377   5.475  1.00 20.00     0.037 C 
HETATM    2  C2  UNL     1     -34.424   4.454   4.529  1.00 20.00    -0.028 C 
HETATM    3  C4  UNL     1     -33.702   4.736   3.252  1.00 20.00     0.036 C 
ENDROOT
BRANCH   1   4
HETATM    4  C3  UNL     1     -34.132   6.749   5.266  1.00 20.00     0.258 C 
HETATM    5  O5  UNL     1     -33.454   7.327   6.105  1.00 20.00    -0.302 OA
ENDBRANCH   1   4
TORSDOF 1
ENDMDL
MODEL 6
REMARK VINA RESULT:      -3.7      1.326      1.781
REMARK  1 active torsions:
REMARK  status: ('A' for Active; 'I' for Inactive)
REMARK    1  A    between atoms: C1_1  and  C3_3 
ROOT
HETATM    1  C1  UNL     1     -34.306   5.996   3.332  1.00 20.00     0.037 C 
HETATM    2  C2  UNL     1     -34.815   5.207   4.286  1.00 20.00    -0.028 C 
HETATM    3  C4  UNL     1     -34.542   5.398   5.741  1.00 20.00     0.036 C 
ENDROOT
BRANCH   1   4
HETATM    4  C3  UNL     1     -33.429   7.117   3.718  1.00 20.00     0.258 C 
HETATM    5  O5  UNL     1     -32.308   7.257   3.245  1.00 20.00    -0.302 OA
ENDBRANCH   1   4
TORSDOF 1
ENDMDL
MODEL 7
REMARK VINA RESULT:      -3.6      1.859      2.691
REMARK  1 active torsions:
REMARK  status: ('A' for Active; 'I' for Inactive)
REMARK    1  A    between atoms: C1_1  and  C3_3 
ROOT
HETATM    1  C1  UNL     1     -34.946   5.746   4.436  1.00 20.00     0.037 C 
HETATM    2  C2  UNL     1     -34.420   5.906   3.216  1.00 20.00    -0.028 C 
HETATM    3  C4  UNL     1     -33.038   6.419   2.980  1.00 20.00     0.036 C 
ENDROOT
BRANCH   1   4
HETATM    4  C3  UNL     1     -34.136   6.087   5.620  1.00 20.00     0.258 C 
HETATM    5  O5  UNL     1     -34.082   7.228   6.063  1.00 20.00    -0.302 OA
ENDBRANCH   1   4
TORSDOF 1
ENDMDL
MODEL 8
REMARK VINA RESULT:      -3.3      4.306      5.303
REMARK  1 active torsions:
REMARK  status: ('A' for Active; 'I' for Inactive)
REMARK    1  A    between atoms: C1_1  and  C3_3 
ROOT
HETATM    1  C1  UNL     1     -32.283   9.600   1.842  1.00 20.00     0.037 C 
HETATM    2  C2  UNL     1     -32.621  10.143   0.666  1.00 20.00    -0.028 C 
HETATM    3  C4  UNL     1     -33.165   9.351  -0.477  1.00 20.00     0.036 C 
ENDROOT
BRANCH   1   4
HETATM    4  C3  UNL     1     -32.450   8.147   2.038  1.00 20.00     0.258 C 
HETATM    5  O5  UNL     1     -32.136   7.594   3.085  1.00 20.00    -0.302 OA
ENDBRANCH   1   4
TORSDOF 1
ENDMDL
MODEL 9
REMARK VINA RESULT:      -3.2      2.883      3.699
REMARK  1 active torsions:
REMARK  status: ('A' for Active; 'I' for Inactive)
REMARK    1  A    between atoms: C1_1  and  C3_3 
ROOT
HETATM    1  C1  UNL     1     -32.177   7.662   3.287  1.00 20.00     0.037 C 
HETATM    2  C2  UNL     1     -31.789   8.649   2.472  1.00 20.00    -0.028 C 
HETATM    3  C4  UNL     1     -32.375   8.872   1.116  1.00 20.00     0.036 C 
ENDROOT
BRANCH   1   4
HETATM    4  C3  UNL     1     -33.236   6.736   2.843  1.00 20.00     0.258 C 
HETATM    5  O5  UNL     1     -33.045   5.531   2.745  1.00 20.00    -0.302 OA
ENDBRANCH   1   4
TORSDOF 1
ENDMDL
