MODEL 1
REMARK VINA RESULT:      -6.0      0.000      0.000
REMARK  1 active torsions:
REMARK  status: ('A' for Active; 'I' for Inactive)
REMARK    1  A    between atoms: C3_3  and  C6_6 
ROOT
HETATM    1  C1  UNL     1     -34.377   6.344   5.933  1.00 20.00    -0.030 C 
HETATM    2  C2  UNL     1     -34.683   5.078   5.624  1.00 20.00    -0.030 C 
HETATM    3  C4  UNL     1     -33.658   7.266   4.997  1.00 20.00     0.038 C 
HETATM    4  C5  UNL     1     -34.313   4.441   4.319  1.00 20.00     0.031 C 
HETATM    5  C6  UNL     1     -33.573   6.740   3.554  1.00 20.00     0.054 C 
HETATM    6  C7  UNL     1     -33.255   5.233   3.524  1.00 20.00    -0.004 C 
HETATM    7  C8  UNL     1     -33.173   4.684   2.095  1.00 20.00     0.011 C 
ENDROOT
BRANCH   5   8
HETATM    8  C3  UNL     1     -32.522   7.535   2.837  1.00 20.00     0.236 C 
HETATM    9  O9  UNL     1     -31.605   8.113   3.409  1.00 20.00    -0.306 OA
ENDBRANCH   5   8
TORSDOF 1
ENDMDL
MODEL 2
REMARK VINA RESULT:      -5.6      0.693      2.433
REMARK  1 active torsions:
REMARK  status: ('A' for Active; 'I' for Inactive)
REMARK    1  A    between atoms: C3_3  and  C6_6 
ROOT
HETATM    1  C1  UNL     1     -34.070   4.270   3.445  1.00 20.00    -0.030 C 
HETATM    2  C2  UNL     1     -34.491   4.261   4.716  1.00 20.00    -0.030 C 
HETATM    3  C4  UNL     1     -33.398   5.449   2.812  1.00 20.00     0.038 C 
HETATM    4  C5  UNL     1     -34.359   5.440   5.631  1.00 20.00     0.031 C 
HETATM    5  C6  UNL     1     -32.961   6.526   3.819  1.00 20.00     0.054 C 
HETATM    6  C7  UNL     1     -34.037   6.758   4.897  1.00 20.00    -0.004 C 
HETATM    7  C8  UNL     1     -33.619   7.823   5.917  1.00 20.00     0.011 C 
ENDROOT
BRANCH   5   8
HETATM    8  C3  UNL     1     -32.676   7.784   3.052  1.00 20.00     0.236 C 
HETATM    9  O9  UNL     1     -31.571   8.312   3.006  1.00 20.00    -0.306 OA
ENDBRANCH   5   8
TORSDOF 1
ENDMDL
MODEL 3
REMARK VINA RESULT:      -5.3      1.976      3.880
REMARK  1 active torsions:
REMARK  status: ('A' for Active; 'I' for Inactive)
REMARK    1  A    between atoms: C3_3  and  C6_6 
ROOT
HETATM    1  C1  UNL     1     -32.608   6.947   2.158  1.00 20.00    -0.030 C 
HETATM    2  C2  UNL     1     -32.134   7.928   2.934  1.00 20.00    -0.030 C 
HETATM    3  C4  UNL     1     -33.632   5.957   2.622  1.00 20.00     0.038 C 
HETATM    4  C5  UNL     1     -32.557   8.124   4.358  1.00 20.00     0.031 C 
HETATM    5  C6  UNL     1     -34.311   6.344   3.947  1.00 20.00     0.054 C 
HETATM    6  C7  UNL     1     -33.292   6.908   4.956  1.00 20.00    -0.004 C 
HETATM    7  C8  UNL     1     -33.948   7.307   6.282  1.00 20.00     0.011 C 
ENDROOT
BRANCH   5   8
HETATM    8  C3  UNL     1     -34.996   5.122   4.485  1.00 20.00     0.236 C 
HETATM    9  O9  UNL     1     -34.531   3.991   4.392  1.00 20.00    -0.306 OA
ENDBRANCH   5   8
TORSDOF 1
ENDMDL
MODEL 4
REMARK VINA RESULT:      -5.0      1.550      2.703
REMARK  1 active torsions:
REMARK  status: ('A' for Active; 'I' for Inactive)
REMARK    1  A    between atoms: C3_3  and  C6_6 
ROOT
HETATM    1  C1  UNL     1     -34.730   5.265   5.713  1.00 20.00    -0.030 C 
HETATM    2  C2  UNL     1     -34.336   6.493   6.072  1.00 20.00    -0.030 C 
HETATM    3  C4  UNL     1     -34.385   4.646   4.394  1.00 20.00     0.038 C 
HETATM    4  C5  UNL     1     -33.532   7.388   5.179  1.00 20.00     0.031 C 
HETATM    5  C6  UNL     1     -33.297   5.408   3.619  1.00 20.00     0.054 C 
HETATM    6  C7  UNL     1     -33.506   6.931   3.707  1.00 20.00    -0.004 C 
HETATM    7  C8  UNL     1     -32.428   7.712   2.947  1.00 20.00     0.011 C 
ENDROOT
BRANCH   5   8
HETATM    8  C3  UNL     1     -33.330   4.933   2.196  1.00 20.00     0.236 C 
HETATM    9  O9  UNL     1     -32.714   3.950   1.798  1.00 20.00    -0.306 OA
ENDBRANCH   5   8
TORSDOF 1
ENDMDL
MODEL 5
REMARK VINA RESULT:      -4.8      1.381      2.447
REMARK  1 active torsions:
REMARK  status: ('A' for Active; 'I' for Inactive)
REMARK    1  A    between atoms: C3_3  and  C6_6 
ROOT
HETATM    1  C1  UNL     1     -34.401   4.170   4.593  1.00 20.00    -0.030 C 
HETATM    2  C2  UNL     1     -33.865   4.014   3.377  1.00 20.00    -0.030 C 
HETATM    3  C4  UNL     1     -34.443   5.485   5.308  1.00 20.00     0.038 C 
HETATM    4  C5  UNL     1     -33.225   5.134   2.614  1.00 20.00     0.031 C 
HETATM    5  C6  UNL     1     -34.100   6.687   4.413  1.00 20.00     0.054 C 
HETATM    6  C7  UNL     1     -32.916   6.372   3.479  1.00 20.00    -0.004 C 
HETATM    7  C8  UNL     1     -32.560   7.555   2.571  1.00 20.00     0.011 C 
ENDROOT
BRANCH   5   8
HETATM    8  C3  UNL     1     -33.795   7.853   5.307  1.00 20.00     0.236 C 
HETATM    9  O9  UNL     1     -33.449   7.735   6.477  1.00 20.00    -0.306 OA
ENDBRANCH   5   8
TORSDOF 1
ENDMDL
MODEL 6
REMARK VINA RESULT:      -4.6      1.557      2.550
REMARK  1 active torsions:
REMARK  status: ('A' for Active; 'I' for Inactive)
REMARK    1  A    between atoms: C3_3  and  C6_6 
ROOT
HETATM    1  C1  UNL     1     -32.749   8.089   4.933  1.00 20.00    -0.030 C 
HETATM    2  C2  UNL     1     -33.451   7.672   5.993  1.00 20.00    -0.030 C 
HETATM    3  C4  UNL     1     -32.758   7.380   3.613  1.00 20.00     0.038 C 
HETATM    4  C5  UNL     1     -34.298   6.436   5.980  1.00 20.00     0.031 C 
HETATM    5  C6  UNL     1     -33.866   6.321   3.488  1.00 20.00     0.054 C 
HETATM    6  C7  UNL     1     -34.012   5.504   4.785  1.00 20.00    -0.004 C 
HETATM    7  C8  UNL     1     -35.117   4.446   4.686  1.00 20.00     0.011 C 
ENDROOT
BRANCH   5   8
HETATM    8  C3  UNL     1     -33.527   5.439   2.321  1.00 20.00     0.236 C 
HETATM    9  O9  UNL     1     -32.722   4.517   2.384  1.00 20.00    -0.306 OA
ENDBRANCH   5   8
TORSDOF 1
ENDMDL
MODEL 7
REMARK VINA RESULT:      -4.2      2.043      3.168
REMARK  1 active torsions:
REMARK  status: ('A' for Active; 'I' for Inactive)
REMARK    1  A    between atoms: C3_3  and  C6_6 
ROOT
HETATM    1  C1  UNL     1     -32.705   8.311   5.175  1.00 20.00    -0.030 C 
HETATM    2  C2  UNL     1     -32.000   8.332   4.038  1.00 20.00    -0.030 C 
HETATM    3  C4  UNL     1     -33.700   7.240   5.504  1.00 20.00     0.038 C 
HETATM    4  C5  UNL     1     -32.151   7.302   2.961  1.00 20.00     0.031 C 
HETATM    5  C6  UNL     1     -33.621   6.017   4.574  1.00 20.00     0.054 C 
HETATM    6  C7  UNL     1     -33.420   6.438   3.106  1.00 20.00    -0.004 C 
HETATM    7  C8  UNL     1     -33.332   5.234   2.162  1.00 20.00     0.011 C 
ENDROOT
BRANCH   5   8
HETATM    8  C3  UNL     1     -34.884   5.226   4.749  1.00 20.00     0.236 C 
HETATM    9  O9  UNL     1     -34.920   4.001   4.743  1.00 20.00    -0.306 OA
ENDBRANCH   5   8
TORSDOF 1
ENDMDL
MODEL 8
REMARK VINA RESULT:      -4.2     12.009     12.510
REMARK  1 active torsions:
REMARK  status: ('A' for Active; 'I' for Inactive)
REMARK    1  A    between atoms: C3_3  and  C6_6 
ROOT
HETATM    1  C1  UNL     1     -36.128  16.852  -2.853  1.00 20.00    -0.030 C 
HETATM    2  C2  UNL     1     -34.872  17.085  -2.454  1.00 20.00    -0.030 C 
HETATM    3  C4  UNL     1     -36.496  15.752  -3.800  1.00 20.00     0.038 C 
HETATM    4  C5  UNL     1     -33.698  16.289  -2.935  1.00 20.00     0.031 C 
HETATM    5  C6  UNL     1     -35.367  14.734  -4.035  1.00 20.00     0.054 C 
HETATM    6  C7  UNL     1     -34.002  15.432  -4.180  1.00 20.00    -0.004 C 
HETATM    7  C8  UNL     1     -32.860  14.435  -4.407  1.00 20.00     0.011 C 
ENDROOT
BRANCH   5   8
HETATM    8  C3  UNL     1     -35.710  13.942  -5.262  1.00 20.00     0.236 C 
HETATM    9  O9  UNL     1     -35.893  12.730  -5.255  1.00 20.00    -0.306 OA
ENDBRANCH   5   8
TORSDOF 1
ENDMDL
MODEL 9
REMARK VINA RESULT:      -4.1     12.327     12.884
REMARK  1 active torsions:
REMARK  status: ('A' for Active; 'I' for Inactive)
REMARK    1  A    between atoms: C3_3  and  C6_6 
ROOT
HETATM    1  C1  UNL     1     -34.527  16.822  -2.733  1.00 20.00    -0.030 C 
HETATM    2  C2  UNL     1     -35.599  16.699  -1.943  1.00 20.00    -0.030 C 
HETATM    3  C4  UNL     1     -33.252  17.474  -2.291  1.00 20.00     0.038 C 
HETATM    4  C5  UNL     1     -35.649  17.225  -0.541  1.00 20.00     0.031 C 
HETATM    5  C6  UNL     1     -33.174  17.713  -0.774  1.00 20.00     0.054 C 
HETATM    6  C7  UNL     1     -34.517  18.221  -0.215  1.00 20.00    -0.004 C 
HETATM    7  C8  UNL     1     -34.465  18.459   1.298  1.00 20.00     0.011 C 
ENDROOT
BRANCH   5   8
HETATM    8  C3  UNL     1     -32.069  18.696  -0.520  1.00 20.00     0.236 C 
HETATM    9  O9  UNL     1     -30.975  18.380  -0.067  1.00 20.00    -0.306 OA
ENDBRANCH   5   8
TORSDOF 1
ENDMDL
