MODEL 1
REMARK VINA RESULT:      -4.1      0.000      0.000
REMARK  2 active torsions:
REMARK  status: ('A' for Active; 'I' for Inactive)
REMARK    1  A    between atoms: C1_1  and  S6_6 
REMARK    2  A    between atoms: N4_4  and  O5_5 
ROOT
HETATM    1  C1  UNL     1     -34.174   6.163   5.098  1.00 20.00     0.093 C 
HETATM    2  C2  UNL     1     -33.694   7.375   5.858  1.00 20.00     0.081 C 
HETATM    3  N4  UNL     1     -34.717   5.120   5.641  1.00 20.00    -0.134 NA
ENDROOT
BRANCH   1   4
HETATM    4  S6  UNL     1     -33.953   6.256   3.353  1.00 20.00    -0.117 SA
HETATM    5  C3  UNL     1     -32.571   7.410   3.215  1.00 20.00     0.097 C 
ENDBRANCH   1   4
BRANCH   3   6
HETATM    6  O5  UNL     1     -35.053   4.171   4.673  1.00 20.00    -0.266 OA
HETATM    7  H13 UNL     1     -35.859   4.558   4.292  1.00 20.00     0.247 HD
ENDBRANCH   3   6
TORSDOF 2
ENDMDL
MODEL 2
REMARK VINA RESULT:      -3.7      2.535      2.874
REMARK  2 active torsions:
REMARK  status: ('A' for Active; 'I' for Inactive)
REMARK    1  A    between atoms: C1_1  and  S6_6 
REMARK    2  A    between atoms: N4_4  and  O5_5 
ROOT
HETATM    1  C1  UNL     1     -33.612   7.009   4.467  1.00 20.00     0.093 C 
HETATM    2  C2  UNL     1     -33.804   7.251   5.944  1.00 20.00     0.081 C 
HETATM    3  N4  UNL     1     -32.663   7.525   3.752  1.00 20.00    -0.134 NA
ENDROOT
BRANCH   1   4
HETATM    4  S6  UNL     1     -34.799   5.929   3.740  1.00 20.00    -0.117 SA
HETATM    5  C3  UNL     1     -34.441   4.369   4.575  1.00 20.00     0.097 C 
ENDBRANCH   1   4
BRANCH   3   6
HETATM    6  O5  UNL     1     -32.757   7.110   2.423  1.00 20.00    -0.266 OA
HETATM    7  H13 UNL     1     -32.341   6.233   2.462  1.00 20.00     0.247 HD
ENDBRANCH   3   6
TORSDOF 2
ENDMDL
MODEL 3
REMARK VINA RESULT:      -3.5      1.624      2.075
REMARK  2 active torsions:
REMARK  status: ('A' for Active; 'I' for Inactive)
REMARK    1  A    between atoms: C1_1  and  S6_6 
REMARK    2  A    between atoms: N4_4  and  O5_5 
ROOT
HETATM    1  C1  UNL     1     -33.879   5.085   3.750  1.00 20.00     0.093 C 
HETATM    2  C2  UNL     1     -33.084   4.800   2.499  1.00 20.00     0.081 C 
HETATM    3  N4  UNL     1     -34.481   4.185   4.462  1.00 20.00    -0.134 NA
ENDROOT
BRANCH   1   4
HETATM    4  S6  UNL     1     -33.938   6.783   4.212  1.00 20.00    -0.117 SA
HETATM    5  C3  UNL     1     -32.628   7.490   3.189  1.00 20.00     0.097 C 
ENDBRANCH   1   4
BRANCH   3   6
HETATM    6  O5  UNL     1     -35.129   4.764   5.554  1.00 20.00    -0.266 OA
HETATM    7  H13 UNL     1     -35.154   5.700   5.292  1.00 20.00     0.247 HD
ENDBRANCH   3   6
TORSDOF 2
ENDMDL
MODEL 4
REMARK VINA RESULT:      -3.5      2.188      2.855
REMARK  2 active torsions:
REMARK  status: ('A' for Active; 'I' for Inactive)
REMARK    1  A    between atoms: C1_1  and  S6_6 
REMARK    2  A    between atoms: N4_4  and  O5_5 
ROOT
HETATM    1  C1  UNL     1     -33.585   6.864   4.047  1.00 20.00     0.093 C 
HETATM    2  C2  UNL     1     -32.876   6.990   2.721  1.00 20.00     0.081 C 
HETATM    3  N4  UNL     1     -33.227   7.470   5.135  1.00 20.00    -0.134 NA
ENDROOT
BRANCH   1   4
HETATM    4  S6  UNL     1     -34.994   5.808   4.028  1.00 20.00    -0.117 SA
HETATM    5  C3  UNL     1     -34.252   4.196   4.362  1.00 20.00     0.097 C 
ENDBRANCH   1   4
BRANCH   3   6
HETATM    6  O5  UNL     1     -34.083   7.149   6.190  1.00 20.00    -0.266 OA
HETATM    7  H13 UNL     1     -33.572   7.456   6.957  1.00 20.00     0.247 HD
ENDBRANCH   3   6
TORSDOF 2
ENDMDL
MODEL 5
REMARK VINA RESULT:      -3.4     13.251     13.518
REMARK  2 active torsions:
REMARK  status: ('A' for Active; 'I' for Inactive)
REMARK    1  A    between atoms: C1_1  and  S6_6 
REMARK    2  A    between atoms: N4_4  and  O5_5 
ROOT
HETATM    1  C1  UNL     1     -34.785  13.811  -6.613  1.00 20.00     0.093 C 
HETATM    2  C2  UNL     1     -34.096  14.125  -7.918  1.00 20.00     0.081 C 
HETATM    3  N4  UNL     1     -35.319  12.668  -6.318  1.00 20.00    -0.134 NA
ENDROOT
BRANCH   1   4
HETATM    4  S6  UNL     1     -34.816  15.141  -5.460  1.00 20.00    -0.117 SA
HETATM    5  C3  UNL     1     -33.064  15.560  -5.331  1.00 20.00     0.097 C 
ENDBRANCH   1   4
BRANCH   3   6
HETATM    6  O5  UNL     1     -35.877  12.693  -5.039  1.00 20.00    -0.266 OA
HETATM    7  H13 UNL     1     -36.693  13.199  -5.191  1.00 20.00     0.247 HD
ENDBRANCH   3   6
TORSDOF 2
ENDMDL
MODEL 6
REMARK VINA RESULT:      -3.4      3.118      3.654
REMARK  2 active torsions:
REMARK  status: ('A' for Active; 'I' for Inactive)
REMARK    1  A    between atoms: C1_1  and  S6_6 
REMARK    2  A    between atoms: N4_4  and  O5_5 
ROOT
HETATM    1  C1  UNL     1     -33.219   6.936   3.711  1.00 20.00     0.093 C 
HETATM    2  C2  UNL     1     -34.029   6.019   2.828  1.00 20.00     0.081 C 
HETATM    3  N4  UNL     1     -32.181   7.607   3.323  1.00 20.00    -0.134 NA
ENDROOT
BRANCH   1   4
HETATM    4  S6  UNL     1     -33.796   7.054   5.371  1.00 20.00    -0.117 SA
HETATM    5  C3  UNL     1     -34.578   5.444   5.607  1.00 20.00     0.097 C 
ENDBRANCH   1   4
BRANCH   3   6
HETATM    6  O5  UNL     1     -31.653   8.361   4.372  1.00 20.00    -0.266 OA
HETATM    7  H13 UNL     1     -31.460   7.673   5.030  1.00 20.00     0.247 HD
ENDBRANCH   3   6
TORSDOF 2
ENDMDL
MODEL 7
REMARK VINA RESULT:      -3.3      2.393      2.590
REMARK  2 active torsions:
REMARK  status: ('A' for Active; 'I' for Inactive)
REMARK    1  A    between atoms: C1_1  and  S6_6 
REMARK    2  A    between atoms: N4_4  and  O5_5 
ROOT
HETATM    1  C1  UNL     1     -34.066   6.421   4.718  1.00 20.00     0.093 C 
HETATM    2  C2  UNL     1     -35.158   5.388   4.588  1.00 20.00     0.081 C 
HETATM    3  N4  UNL     1     -33.783   7.063   5.807  1.00 20.00    -0.134 NA
ENDROOT
BRANCH   1   4
HETATM    4  S6  UNL     1     -33.150   6.710   3.241  1.00 20.00    -0.117 SA
HETATM    5  C3  UNL     1     -33.005   5.042   2.564  1.00 20.00     0.097 C 
ENDBRANCH   1   4
BRANCH   3   6
HETATM    6  O5  UNL     1     -32.723   7.948   5.604  1.00 20.00    -0.266 OA
HETATM    7  H13 UNL     1     -31.955   7.361   5.709  1.00 20.00     0.247 HD
ENDBRANCH   3   6
TORSDOF 2
ENDMDL
MODEL 8
REMARK VINA RESULT:      -3.2     13.253     13.672
REMARK  2 active torsions:
REMARK  status: ('A' for Active; 'I' for Inactive)
REMARK    1  A    between atoms: C1_1  and  S6_6 
REMARK    2  A    between atoms: N4_4  and  O5_5 
ROOT
HETATM    1  C1  UNL     1     -34.723  13.754  -6.601  1.00 20.00     0.093 C 
HETATM    2  C2  UNL     1     -34.063  14.083  -7.918  1.00 20.00     0.081 C 
HETATM    3  N4  UNL     1     -35.374  12.661  -6.356  1.00 20.00    -0.134 NA
ENDROOT
BRANCH   1   4
HETATM    4  S6  UNL     1     -34.541  14.989  -5.359  1.00 20.00    -0.117 SA
HETATM    5  C3  UNL     1     -35.731  16.235  -5.900  1.00 20.00     0.097 C 
ENDBRANCH   1   4
BRANCH   3   6
HETATM    6  O5  UNL     1     -35.865  12.655  -5.049  1.00 20.00    -0.266 OA
HETATM    7  H13 UNL     1     -35.956  13.606  -4.870  1.00 20.00     0.247 HD
ENDBRANCH   3   6
TORSDOF 2
ENDMDL
MODEL 9
REMARK VINA RESULT:      -3.2      1.579      2.256
REMARK  2 active torsions:
REMARK  status: ('A' for Active; 'I' for Inactive)
REMARK    1  A    between atoms: C1_1  and  S6_6 
REMARK    2  A    between atoms: N4_4  and  O5_5 
ROOT
HETATM    1  C1  UNL     1     -33.807   5.760   3.805  1.00 20.00     0.093 C 
HETATM    2  C2  UNL     1     -33.302   6.996   3.102  1.00 20.00     0.081 C 
HETATM    3  N4  UNL     1     -33.754   4.561   3.318  1.00 20.00    -0.134 NA
ENDROOT
BRANCH   1   4
HETATM    4  S6  UNL     1     -34.494   6.052   5.401  1.00 20.00    -0.117 SA
HETATM    5  C3  UNL     1     -33.554   7.492   5.951  1.00 20.00     0.097 C 
ENDBRANCH   1   4
BRANCH   3   6
HETATM    6  O5  UNL     1     -34.301   3.635   4.208  1.00 20.00    -0.266 OA
HETATM    7  H13 UNL     1     -35.237   3.898   4.213  1.00 20.00     0.247 HD
ENDBRANCH   3   6
TORSDOF 2
ENDMDL
