MODEL 1
REMARK VINA RESULT:      -5.7      0.000      0.000
REMARK  2 active torsions:
REMARK  status: ('A' for Active; 'I' for Inactive)
REMARK    1  A    between atoms: C1_1  and  S11_11 
REMARK    2  A    between atoms: C8_8  and  S11_11 
ROOT
HETATM    1  C2  UNL     1     -33.786   5.351   5.427  1.00 20.00     0.005 C 
HETATM    2  C3  UNL     1     -34.006   6.870   5.443  1.00 20.00     0.006 C 
HETATM    3  C4  UNL     1     -35.418   5.930   3.794  1.00 20.00     0.010 C 
HETATM    4  C5  UNL     1     -33.230   5.410   2.987  1.00 20.00     0.020 C 
HETATM    5  C6  UNL     1     -34.272   4.946   4.025  1.00 20.00    -0.013 C 
HETATM    6  C7  UNL     1     -34.531   7.160   4.024  1.00 20.00     0.000 C 
HETATM    7  C8  UNL     1     -33.456   6.934   2.935  1.00 20.00     0.059 C 
ENDROOT
BRANCH   7   8
HETATM    8  S11 UNL     1     -31.927   7.891   3.134  1.00 20.00    -0.088 SA
BRANCH   8   9
HETATM    9  C1  UNL     1     -31.891   8.746   1.595  1.00 20.00     0.182 C 
HETATM   10  C9  UNL     1     -32.811   9.932   1.547  1.00 20.00     0.104 C 
HETATM   11  O10 UNL     1     -31.183   8.412   0.652  1.00 20.00    -0.286 OA
ENDBRANCH   8   9
ENDBRANCH   7   8
TORSDOF 2
ENDMDL
MODEL 2
REMARK VINA RESULT:      -4.5     11.278     12.071
REMARK  2 active torsions:
REMARK  status: ('A' for Active; 'I' for Inactive)
REMARK    1  A    between atoms: C1_1  and  S11_11 
REMARK    2  A    between atoms: C8_8  and  S11_11 
ROOT
HETATM    1  C2  UNL     1     -33.933  18.016  -3.540  1.00 20.00     0.005 C 
HETATM    2  C3  UNL     1     -35.457  18.009  -3.722  1.00 20.00     0.006 C 
HETATM    3  C4  UNL     1     -34.925  16.658  -1.855  1.00 20.00     0.010 C 
HETATM    4  C5  UNL     1     -33.860  15.517  -3.664  1.00 20.00     0.020 C 
HETATM    5  C6  UNL     1     -33.676  16.732  -2.733  1.00 20.00    -0.013 C 
HETATM    6  C7  UNL     1     -35.881  16.688  -3.054  1.00 20.00     0.000 C 
HETATM    7  C8  UNL     1     -35.390  15.443  -3.831  1.00 20.00     0.059 C 
ENDROOT
BRANCH   7   8
HETATM    8  S11 UNL     1     -35.916  15.346  -5.565  1.00 20.00    -0.088 SA
BRANCH   8   9
HETATM    9  C1  UNL     1     -35.521  13.666  -5.918  1.00 20.00     0.182 C 
HETATM   10  C9  UNL     1     -34.646  13.499  -7.128  1.00 20.00     0.104 C 
HETATM   11  O10 UNL     1     -35.917  12.723  -5.244  1.00 20.00    -0.286 OA
ENDBRANCH   8   9
ENDBRANCH   7   8
TORSDOF 2
ENDMDL
MODEL 3
REMARK VINA RESULT:      -4.3     10.884     11.941
REMARK  2 active torsions:
REMARK  status: ('A' for Active; 'I' for Inactive)
REMARK    1  A    between atoms: C1_1  and  S11_11 
REMARK    2  A    between atoms: C8_8  and  S11_11 
ROOT
HETATM    1  C2  UNL     1     -35.041  15.639  -5.821  1.00 20.00     0.005 C 
HETATM    2  C3  UNL     1     -33.536  15.796  -5.564  1.00 20.00     0.006 C 
HETATM    3  C4  UNL     1     -34.363  14.106  -4.131  1.00 20.00     0.010 C 
HETATM    4  C5  UNL     1     -35.545  16.051  -3.404  1.00 20.00     0.020 C 
HETATM    5  C6  UNL     1     -35.547  14.989  -4.522  1.00 20.00    -0.013 C 
HETATM    6  C7  UNL     1     -33.374  15.278  -4.123  1.00 20.00     0.000 C 
HETATM    7  C8  UNL     1     -34.046  16.201  -3.079  1.00 20.00     0.059 C 
ENDROOT
BRANCH   7   8
HETATM    8  S11 UNL     1     -33.482  17.926  -3.082  1.00 20.00    -0.088 SA
BRANCH   8   9
HETATM    9  C1  UNL     1     -33.036  18.112  -1.388  1.00 20.00     0.182 C 
HETATM   10  C9  UNL     1     -34.169  17.850  -0.438  1.00 20.00     0.104 C 
HETATM   11  O10 UNL     1     -31.910  18.422  -1.016  1.00 20.00    -0.286 OA
ENDBRANCH   8   9
ENDBRANCH   7   8
TORSDOF 2
ENDMDL
MODEL 4
REMARK VINA RESULT:      -4.2     11.106     11.910
REMARK  2 active torsions:
REMARK  status: ('A' for Active; 'I' for Inactive)
REMARK    1  A    between atoms: C1_1  and  S11_11 
REMARK    2  A    between atoms: C8_8  and  S11_11 
ROOT
HETATM    1  C2  UNL     1     -35.021  16.905  -1.438  1.00 20.00     0.005 C 
HETATM    2  C3  UNL     1     -33.699  16.915  -2.217  1.00 20.00     0.006 C 
HETATM    3  C4  UNL     1     -35.272  18.226  -3.402  1.00 20.00     0.010 C 
HETATM    4  C5  UNL     1     -36.251  16.046  -3.442  1.00 20.00     0.020 C 
HETATM    5  C6  UNL     1     -36.060  17.263  -2.514  1.00 20.00    -0.013 C 
HETATM    6  C7  UNL     1     -34.149  17.213  -3.660  1.00 20.00     0.000 C 
HETATM    7  C8  UNL     1     -34.959  16.052  -4.283  1.00 20.00     0.059 C 
ENDROOT
BRANCH   7   8
HETATM    8  S11 UNL     1     -34.121  14.443  -4.318  1.00 20.00    -0.088 SA
BRANCH   8   9
HETATM    9  C1  UNL     1     -35.104  13.604  -5.515  1.00 20.00     0.182 C 
HETATM   10  C9  UNL     1     -34.781  13.989  -6.930  1.00 20.00     0.104 C 
HETATM   11  O10 UNL     1     -35.967  12.783  -5.226  1.00 20.00    -0.286 OA
ENDBRANCH   8   9
ENDBRANCH   7   8
TORSDOF 2
ENDMDL
MODEL 5
REMARK VINA RESULT:      -4.2     11.338     12.176
REMARK  2 active torsions:
REMARK  status: ('A' for Active; 'I' for Inactive)
REMARK    1  A    between atoms: C1_1  and  S11_11 
REMARK    2  A    between atoms: C8_8  and  S11_11 
ROOT
HETATM    1  C2  UNL     1     -35.851  17.381  -3.993  1.00 20.00     0.005 C 
HETATM    2  C3  UNL     1     -34.394  17.736  -4.320  1.00 20.00     0.006 C 
HETATM    3  C4  UNL     1     -34.445  15.541  -3.440  1.00 20.00     0.010 C 
HETATM    4  C5  UNL     1     -35.243  16.868  -1.620  1.00 20.00     0.020 C 
HETATM    5  C6  UNL     1     -35.708  16.254  -2.956  1.00 20.00    -0.013 C 
HETATM    6  C7  UNL     1     -33.593  16.815  -3.381  1.00 20.00     0.000 C 
HETATM    7  C8  UNL     1     -33.761  17.192  -1.890  1.00 20.00     0.059 C 
ENDROOT
BRANCH   7   8
HETATM    8  S11 UNL     1     -33.312  18.897  -1.459  1.00 20.00    -0.088 SA
BRANCH   8   9
HETATM    9  C1  UNL     1     -32.183  18.599  -0.140  1.00 20.00     0.182 C 
HETATM   10  C9  UNL     1     -32.784  18.808   1.221  1.00 20.00     0.104 C 
HETATM   11  O10 UNL     1     -31.020  18.253  -0.311  1.00 20.00    -0.286 OA
ENDBRANCH   8   9
ENDBRANCH   7   8
TORSDOF 2
ENDMDL
MODEL 6
REMARK VINA RESULT:      -4.2     11.312     12.170
REMARK  2 active torsions:
REMARK  status: ('A' for Active; 'I' for Inactive)
REMARK    1  A    between atoms: C1_1  and  S11_11 
REMARK    2  A    between atoms: C8_8  and  S11_11 
ROOT
HETATM    1  C2  UNL     1     -34.093  18.463  -2.906  1.00 20.00     0.005 C 
HETATM    2  C3  UNL     1     -35.628  18.479  -2.874  1.00 20.00     0.006 C 
HETATM    3  C4  UNL     1     -34.866  16.956  -1.232  1.00 20.00     0.010 C 
HETATM    4  C5  UNL     1     -34.081  15.987  -3.270  1.00 20.00     0.020 C 
HETATM    5  C6  UNL     1     -33.749  17.108  -2.265  1.00 20.00    -0.013 C 
HETATM    6  C7  UNL     1     -35.978  17.103  -2.278  1.00 20.00     0.000 C 
HETATM    7  C8  UNL     1     -35.621  15.935  -3.228  1.00 20.00     0.059 C 
ENDROOT
BRANCH   7   8
HETATM    8  S11 UNL     1     -36.384  16.004  -4.874  1.00 20.00    -0.088 SA
BRANCH   8   9
HETATM    9  C1  UNL     1     -36.981  14.352  -5.010  1.00 20.00     0.182 C 
HETATM   10  C9  UNL     1     -35.906  13.351  -5.324  1.00 20.00     0.104 C 
HETATM   11  O10 UNL     1     -38.158  14.045  -4.862  1.00 20.00    -0.286 OA
ENDBRANCH   8   9
ENDBRANCH   7   8
TORSDOF 2
ENDMDL
MODEL 7
REMARK VINA RESULT:      -4.2     11.090     12.285
REMARK  2 active torsions:
REMARK  status: ('A' for Active; 'I' for Inactive)
REMARK    1  A    between atoms: C1_1  and  S11_11 
REMARK    2  A    between atoms: C8_8  and  S11_11 
ROOT
HETATM    1  C2  UNL     1     -33.442  16.752  -4.982  1.00 20.00     0.005 C 
HETATM    2  C3  UNL     1     -34.965  16.881  -5.118  1.00 20.00     0.006 C 
HETATM    3  C4  UNL     1     -34.473  16.166  -2.918  1.00 20.00     0.010 C 
HETATM    4  C5  UNL     1     -33.662  14.365  -4.262  1.00 20.00     0.020 C 
HETATM    5  C6  UNL     1     -33.282  15.785  -3.796  1.00 20.00    -0.013 C 
HETATM    6  C7  UNL     1     -35.493  15.921  -4.036  1.00 20.00     0.000 C 
HETATM    7  C8  UNL     1     -35.198  14.438  -4.361  1.00 20.00     0.059 C 
ENDROOT
BRANCH   7   8
HETATM    8  S11 UNL     1     -35.841  13.842  -5.950  1.00 20.00    -0.088 SA
BRANCH   8   9
HETATM    9  C1  UNL     1     -37.520  14.361  -5.823  1.00 20.00     0.182 C 
HETATM   10  C9  UNL     1     -37.913  15.374  -6.860  1.00 20.00     0.104 C 
HETATM   11  O10 UNL     1     -38.295  13.938  -4.974  1.00 20.00    -0.286 OA
ENDBRANCH   8   9
ENDBRANCH   7   8
TORSDOF 2
ENDMDL
MODEL 8
REMARK VINA RESULT:      -4.1     10.902     12.132
REMARK  2 active torsions:
REMARK  status: ('A' for Active; 'I' for Inactive)
REMARK    1  A    between atoms: C1_1  and  S11_11 
REMARK    2  A    between atoms: C8_8  and  S11_11 
ROOT
HETATM    1  C2  UNL     1     -35.162  19.000  -1.577  1.00 20.00     0.005 C 
HETATM    2  C3  UNL     1     -35.133  17.560  -1.045  1.00 20.00     0.006 C 
HETATM    3  C4  UNL     1     -32.926  18.185  -1.624  1.00 20.00     0.010 C 
HETATM    4  C5  UNL     1     -34.077  18.283  -3.715  1.00 20.00     0.020 C 
HETATM    5  C6  UNL     1     -33.875  19.086  -2.414  1.00 20.00    -0.013 C 
HETATM    6  C7  UNL     1     -33.866  16.975  -1.697  1.00 20.00     0.000 C 
HETATM    7  C8  UNL     1     -34.002  16.822  -3.231  1.00 20.00     0.059 C 
ENDROOT
BRANCH   7   8
HETATM    8  S11 UNL     1     -35.397  15.809  -3.795  1.00 20.00    -0.088 SA
BRANCH   8   9
HETATM    9  C1  UNL     1     -34.541  14.361  -4.318  1.00 20.00     0.182 C 
HETATM   10  C9  UNL     1     -33.054  14.547  -4.415  1.00 20.00     0.104 C 
HETATM   11  O10 UNL     1     -35.100  13.301  -4.577  1.00 20.00    -0.286 OA
ENDBRANCH   8   9
ENDBRANCH   7   8
TORSDOF 2
ENDMDL
MODEL 9
REMARK VINA RESULT:      -4.1     10.906     11.873
REMARK  2 active torsions:
REMARK  status: ('A' for Active; 'I' for Inactive)
REMARK    1  A    between atoms: C1_1  and  S11_11 
REMARK    2  A    between atoms: C8_8  and  S11_11 
ROOT
HETATM    1  C2  UNL     1     -35.535  18.928  -2.311  1.00 20.00     0.005 C 
HETATM    2  C3  UNL     1     -36.111  17.563  -2.714  1.00 20.00     0.006 C 
HETATM    3  C4  UNL     1     -34.899  17.293  -0.701  1.00 20.00     0.010 C 
HETATM    4  C5  UNL     1     -33.217  17.985  -2.252  1.00 20.00     0.020 C 
HETATM    5  C6  UNL     1     -34.364  18.549  -1.389  1.00 20.00    -0.013 C 
HETATM    6  C7  UNL     1     -35.158  16.567  -2.027  1.00 20.00     0.000 C 
HETATM    7  C8  UNL     1     -33.737  16.585  -2.637  1.00 20.00     0.059 C 
ENDROOT
BRANCH   7   8
HETATM    8  S11 UNL     1     -33.645  16.253  -4.418  1.00 20.00    -0.088 SA
BRANCH   8   9
HETATM    9  C1  UNL     1     -33.798  14.498  -4.418  1.00 20.00     0.182 C 
HETATM   10  C9  UNL     1     -35.199  14.019  -4.671  1.00 20.00     0.104 C 
HETATM   11  O10 UNL     1     -32.855  13.738  -4.232  1.00 20.00    -0.286 OA
ENDBRANCH   8   9
ENDBRANCH   7   8
TORSDOF 2
ENDMDL
