MODEL 1
REMARK VINA RESULT:      -5.4      0.000      0.000
REMARK  0 active torsions:
REMARK  status: ('A' for Active; 'I' for Inactive)
ROOT
HETATM    1  C1  UNL     1     -34.676   4.841   4.988  1.00 20.00     0.000 C 
HETATM    2  C2  UNL     1     -34.158   6.085   5.714  1.00 20.00     0.003 C 
HETATM    3  C3  UNL     1     -33.885   4.566   3.706  1.00 20.00     0.003 C 
HETATM    4  C4  UNL     1     -34.155   7.308   4.798  1.00 20.00     0.040 C 
HETATM    5  C5  UNL     1     -33.880   5.783   2.781  1.00 20.00     0.040 C 
HETATM    6  C6  UNL     1     -32.024   7.545   3.305  1.00 20.00     0.207 A 
HETATM    7  C7  UNL     1     -33.414   6.997   3.530  1.00 20.00     0.082 A 
HETATM    8  O8  UNL     1     -33.180   8.140   2.697  1.00 20.00    -0.375 OA
ENDROOT
TORSDOF 0
ENDMDL
MODEL 2
REMARK VINA RESULT:      -5.3      1.366      2.241
REMARK  0 active torsions:
REMARK  status: ('A' for Active; 'I' for Inactive)
ROOT
HETATM    1  C1  UNL     1     -34.004   7.198   6.024  1.00 20.00     0.000 C 
HETATM    2  C2  UNL     1     -32.933   7.615   5.014  1.00 20.00     0.003 C 
HETATM    3  C3  UNL     1     -34.461   5.755   5.799  1.00 20.00     0.003 C 
HETATM    4  C4  UNL     1     -33.408   7.407   3.576  1.00 20.00     0.040 C 
HETATM    5  C5  UNL     1     -34.943   5.539   4.364  1.00 20.00     0.040 C 
HETATM    6  C6  UNL     1     -33.052   4.991   2.649  1.00 20.00     0.207 A 
HETATM    7  C7  UNL     1     -33.894   5.999   3.395  1.00 20.00     0.082 A 
HETATM    8  O8  UNL     1     -34.168   5.648   2.032  1.00 20.00    -0.375 OA
ENDROOT
TORSDOF 0
ENDMDL
MODEL 3
REMARK VINA RESULT:      -5.1      1.131      2.105
REMARK  0 active torsions:
REMARK  status: ('A' for Active; 'I' for Inactive)
ROOT
HETATM    1  C1  UNL     1     -34.526   5.830   5.243  1.00 20.00     0.000 C 
HETATM    2  C2  UNL     1     -34.716   5.578   3.745  1.00 20.00     0.003 C 
HETATM    3  C3  UNL     1     -34.009   7.244   5.516  1.00 20.00     0.003 C 
HETATM    4  C4  UNL     1     -33.431   5.854   2.965  1.00 20.00     0.040 C 
HETATM    5  C5  UNL     1     -32.721   7.528   4.743  1.00 20.00     0.040 C 
HETATM    6  C6  UNL     1     -33.080   8.353   2.291  1.00 20.00     0.207 A 
HETATM    7  C7  UNL     1     -32.920   7.227   3.286  1.00 20.00     0.082 A 
HETATM    8  O8  UNL     1     -31.836   7.656   2.451  1.00 20.00    -0.375 OA
ENDROOT
TORSDOF 0
ENDMDL
MODEL 4
REMARK VINA RESULT:      -4.7      1.864      3.377
REMARK  0 active torsions:
REMARK  status: ('A' for Active; 'I' for Inactive)
ROOT
HETATM    1  C1  UNL     1     -33.045   7.937   4.207  1.00 20.00     0.000 C 
HETATM    2  C2  UNL     1     -32.884   6.903   3.090  1.00 20.00     0.003 C 
HETATM    3  C3  UNL     1     -33.288   7.270   5.563  1.00 20.00     0.003 C 
HETATM    4  C4  UNL     1     -34.081   5.955   3.029  1.00 20.00     0.040 C 
HETATM    5  C5  UNL     1     -34.486   6.322   5.513  1.00 20.00     0.040 C 
HETATM    6  C6  UNL     1     -33.940   3.916   4.657  1.00 20.00     0.207 A 
HETATM    7  C7  UNL     1     -34.326   5.351   4.381  1.00 20.00     0.082 A 
HETATM    8  O8  UNL     1     -35.296   4.295   4.380  1.00 20.00    -0.375 OA
ENDROOT
TORSDOF 0
ENDMDL
MODEL 5
REMARK VINA RESULT:      -4.4      1.807      2.953
REMARK  0 active torsions:
REMARK  status: ('A' for Active; 'I' for Inactive)
ROOT
HETATM    1  C1  UNL     1     -32.071   8.003   4.011  1.00 20.00     0.000 C 
HETATM    2  C2  UNL     1     -33.114   7.972   5.131  1.00 20.00     0.003 C 
HETATM    3  C3  UNL     1     -32.607   7.374   2.724  1.00 20.00     0.003 C 
HETATM    4  C4  UNL     1     -33.623   6.553   5.383  1.00 20.00     0.040 C 
HETATM    5  C5  UNL     1     -33.114   5.952   2.965  1.00 20.00     0.040 C 
HETATM    6  C6  UNL     1     -35.577   5.802   3.821  1.00 20.00     0.207 A 
HETATM    7  C7  UNL     1     -34.098   5.943   4.098  1.00 20.00     0.082 A 
HETATM    8  O8  UNL     1     -34.781   4.693   4.264  1.00 20.00    -0.375 OA
ENDROOT
TORSDOF 0
ENDMDL
MODEL 6
REMARK VINA RESULT:      -4.2     11.436     12.719
REMARK  0 active torsions:
REMARK  status: ('A' for Active; 'I' for Inactive)
ROOT
HETATM    1  C1  UNL     1     -32.993  15.779  -5.527  1.00 20.00     0.000 C 
HETATM    2  C2  UNL     1     -33.819  15.653  -4.245  1.00 20.00     0.003 C 
HETATM    3  C3  UNL     1     -33.813  15.409  -6.765  1.00 20.00     0.003 C 
HETATM    4  C4  UNL     1     -34.427  14.257  -4.105  1.00 20.00     0.040 C 
HETATM    5  C5  UNL     1     -34.421  14.012  -6.636  1.00 20.00     0.040 C 
HETATM    6  C6  UNL     1     -36.696  13.926  -5.356  1.00 20.00     0.207 A 
HETATM    7  C7  UNL     1     -35.185  13.901  -5.350  1.00 20.00     0.082 A 
HETATM    8  O8  UNL     1     -35.960  12.700  -5.236  1.00 20.00    -0.375 OA
ENDROOT
TORSDOF 0
ENDMDL
MODEL 7
REMARK VINA RESULT:      -3.9     11.255     12.272
REMARK  0 active torsions:
REMARK  status: ('A' for Active; 'I' for Inactive)
ROOT
HETATM    1  C1  UNL     1     -34.590  16.370  -3.357  1.00 20.00     0.000 C 
HETATM    2  C2  UNL     1     -35.879  16.389  -4.183  1.00 20.00     0.003 C 
HETATM    3  C3  UNL     1     -33.561  15.399  -3.942  1.00 20.00     0.003 C 
HETATM    4  C4  UNL     1     -36.469  14.988  -4.333  1.00 20.00     0.040 C 
HETATM    5  C5  UNL     1     -34.141  13.993  -4.091  1.00 20.00     0.040 C 
HETATM    6  C6  UNL     1     -35.472  13.591  -6.302  1.00 20.00     0.207 A 
HETATM    7  C7  UNL     1     -35.427  14.047  -4.862  1.00 20.00     0.082 A 
HETATM    8  O8  UNL     1     -35.939  12.759  -5.231  1.00 20.00    -0.375 OA
ENDROOT
TORSDOF 0
ENDMDL
MODEL 8
REMARK VINA RESULT:      -3.5      9.418     10.251
REMARK  0 active torsions:
REMARK  status: ('A' for Active; 'I' for Inactive)
ROOT
HETATM    1  C1  UNL     1     -41.372   7.990  -0.772  1.00 20.00     0.000 C 
HETATM    2  C2  UNL     1     -40.703   6.855   0.008  1.00 20.00     0.003 C 
HETATM    3  C3  UNL     1     -42.897   7.910  -0.685  1.00 20.00     0.003 C 
HETATM    4  C4  UNL     1     -41.208   5.487  -0.450  1.00 20.00     0.040 C 
HETATM    5  C5  UNL     1     -43.413   6.547  -1.146  1.00 20.00     0.040 C 
HETATM    6  C6  UNL     1     -43.417   4.701   0.701  1.00 20.00     0.207 A 
HETATM    7  C7  UNL     1     -42.708   5.452  -0.401  1.00 20.00     0.082 A 
HETATM    8  O8  UNL     1     -43.267   4.149  -0.615  1.00 20.00    -0.375 OA
ENDROOT
TORSDOF 0
ENDMDL
MODEL 9
REMARK VINA RESULT:      -3.3     11.824     13.082
REMARK  0 active torsions:
REMARK  status: ('A' for Active; 'I' for Inactive)
ROOT
HETATM    1  C1  UNL     1     -33.353  15.538  -4.500  1.00 20.00     0.000 C 
HETATM    2  C2  UNL     1     -33.191  15.712  -6.013  1.00 20.00     0.003 C 
HETATM    3  C3  UNL     1     -34.016  14.203  -4.155  1.00 20.00     0.003 C 
HETATM    4  C4  UNL     1     -34.526  15.557  -6.740  1.00 20.00     0.040 C 
HETATM    5  C5  UNL     1     -35.355  14.040  -4.875  1.00 20.00     0.040 C 
HETATM    6  C6  UNL     1     -35.180  13.091  -7.301  1.00 20.00     0.207 A 
HETATM    7  C7  UNL     1     -35.176  14.263  -6.348  1.00 20.00     0.082 A 
HETATM    8  O8  UNL     1     -36.331  13.931  -7.130  1.00 20.00    -0.375 OA
ENDROOT
TORSDOF 0
ENDMDL
