MODEL 1
REMARK VINA RESULT:      -7.1      0.000      0.000
REMARK  3 active torsions:
REMARK  status: ('A' for Active; 'I' for Inactive)
REMARK    1  A    between atoms: C3_3  and  C8_8 
REMARK    2  A    between atoms: C4_4  and  C10_10 
REMARK    3  A    between atoms: C10_10  and  O11_11 
ROOT
HETATM    1  C1  UNL     1     -34.491   5.278   5.576  1.00 20.00    -0.031 C 
HETATM    2  C2  UNL     1     -34.124   6.518   5.929  1.00 20.00    -0.030 C 
HETATM    3  C5  UNL     1     -34.455   4.784   4.160  1.00 20.00     0.027 C 
HETATM    4  C6  UNL     1     -33.604   7.532   4.951  1.00 20.00     0.035 C 
HETATM    5  C7  UNL     1     -34.286   5.911   3.137  1.00 20.00     0.012 C 
HETATM    6  C8  UNL     1     -33.237   6.915   3.600  1.00 20.00     0.011 C 
ENDROOT
BRANCH   6   7
HETATM    7  C3  UNL     1     -33.181   8.033   2.576  1.00 20.00    -0.023 C 
HETATM    8  C4  UNL     1     -32.102   8.308   1.827  1.00 20.00     0.000 C 
BRANCH   8   9
HETATM    9  C10 UNL     1     -32.051   9.413   0.815  1.00 20.00     0.136 C 
HETATM   10  C9  UNL     1     -32.927   9.099  -0.390  1.00 20.00     0.043 C 
BRANCH   9  11
HETATM   11  O11 UNL     1     -32.524  10.603   1.439  1.00 20.00    -0.392 OA
HETATM   12  H27 UNL     1     -32.938  10.333   2.273  1.00 20.00     0.210 HD
ENDBRANCH   9  11
ENDBRANCH   8   9
ENDBRANCH   6   7
TORSDOF 3
ENDMDL
MODEL 2
REMARK VINA RESULT:      -5.3     10.509     11.200
REMARK  3 active torsions:
REMARK  status: ('A' for Active; 'I' for Inactive)
REMARK    1  A    between atoms: C3_3  and  C8_8 
REMARK    2  A    between atoms: C4_4  and  C10_10 
REMARK    3  A    between atoms: C10_10  and  O11_11 
ROOT
HETATM    1  C1  UNL     1     -33.663  18.307  -0.455  1.00 20.00    -0.031 C 
HETATM    2  C2  UNL     1     -32.944  18.139  -1.574  1.00 20.00    -0.030 C 
HETATM    3  C5  UNL     1     -34.973  17.618  -0.211  1.00 20.00     0.027 C 
HETATM    4  C6  UNL     1     -33.356  17.219  -2.685  1.00 20.00     0.035 C 
HETATM    5  C7  UNL     1     -35.562  16.986  -1.475  1.00 20.00     0.012 C 
HETATM    6  C8  UNL     1     -34.483  16.268  -2.279  1.00 20.00     0.011 C 
ENDROOT
BRANCH   6   7
HETATM    7  C3  UNL     1     -35.126  15.736  -3.546  1.00 20.00    -0.023 C 
HETATM    8  C4  UNL     1     -34.836  14.543  -4.086  1.00 20.00     0.000 C 
BRANCH   8   9
HETATM    9  C10 UNL     1     -35.474  14.019  -5.338  1.00 20.00     0.136 C 
HETATM   10  C9  UNL     1     -34.483  13.999  -6.495  1.00 20.00     0.043 C 
BRANCH   9  11
HETATM   11  O11 UNL     1     -35.921  12.691  -5.082  1.00 20.00    -0.392 OA
HETATM   12  H27 UNL     1     -36.495  12.444  -5.823  1.00 20.00     0.210 HD
ENDBRANCH   9  11
ENDBRANCH   8   9
ENDBRANCH   6   7
TORSDOF 3
ENDMDL
MODEL 3
REMARK VINA RESULT:      -5.1     10.521     11.133
REMARK  3 active torsions:
REMARK  status: ('A' for Active; 'I' for Inactive)
REMARK    1  A    between atoms: C3_3  and  C8_8 
REMARK    2  A    between atoms: C4_4  and  C10_10 
REMARK    3  A    between atoms: C10_10  and  O11_11 
ROOT
HETATM    1  C1  UNL     1     -33.985  18.569   0.458  1.00 20.00    -0.031 C 
HETATM    2  C2  UNL     1     -35.099  17.828   0.374  1.00 20.00    -0.030 C 
HETATM    3  C5  UNL     1     -32.954  18.626  -0.631  1.00 20.00     0.027 C 
HETATM    4  C6  UNL     1     -35.451  17.006  -0.832  1.00 20.00     0.035 C 
HETATM    5  C7  UNL     1     -33.126  17.521  -1.677  1.00 20.00     0.012 C 
HETATM    6  C8  UNL     1     -34.593  17.348  -2.052  1.00 20.00     0.011 C 
ENDROOT
BRANCH   6   7
HETATM    7  C3  UNL     1     -34.690  16.192  -3.030  1.00 20.00    -0.023 C 
HETATM    8  C4  UNL     1     -33.629  15.627  -3.625  1.00 20.00     0.000 C 
BRANCH   8   9
HETATM    9  C10 UNL     1     -33.727  14.484  -4.591  1.00 20.00     0.136 C 
HETATM   10  C9  UNL     1     -33.848  14.981  -6.025  1.00 20.00     0.043 C 
BRANCH   9  11
HETATM   11  O11 UNL     1     -32.544  13.700  -4.466  1.00 20.00    -0.392 OA
HETATM   12  H27 UNL     1     -32.639  13.184  -3.651  1.00 20.00     0.210 HD
ENDBRANCH   9  11
ENDBRANCH   8   9
ENDBRANCH   6   7
TORSDOF 3
ENDMDL
MODEL 4
REMARK VINA RESULT:      -5.0     10.872     11.322
REMARK  3 active torsions:
REMARK  status: ('A' for Active; 'I' for Inactive)
REMARK    1  A    between atoms: C3_3  and  C8_8 
REMARK    2  A    between atoms: C4_4  and  C10_10 
REMARK    3  A    between atoms: C10_10  and  O11_11 
ROOT
HETATM    1  C1  UNL     1     -34.275  17.682  -0.569  1.00 20.00    -0.031 C 
HETATM    2  C2  UNL     1     -35.493  17.215  -0.876  1.00 20.00    -0.030 C 
HETATM    3  C5  UNL     1     -33.133  17.696  -1.542  1.00 20.00     0.027 C 
HETATM    4  C6  UNL     1     -35.853  16.688  -2.235  1.00 20.00     0.035 C 
HETATM    5  C7  UNL     1     -33.391  16.834  -2.781  1.00 20.00     0.012 C 
HETATM    6  C8  UNL     1     -34.810  17.035  -3.299  1.00 20.00     0.011 C 
ENDROOT
BRANCH   6   7
HETATM    7  C3  UNL     1     -35.012  16.097  -4.474  1.00 20.00    -0.023 C 
HETATM    8  C4  UNL     1     -35.547  14.871  -4.369  1.00 20.00     0.000 C 
BRANCH   8   9
HETATM    9  C10 UNL     1     -35.747  13.947  -5.532  1.00 20.00     0.136 C 
HETATM   10  C9  UNL     1     -34.545  13.970  -6.468  1.00 20.00     0.043 C 
BRANCH   9  11
HETATM   11  O11 UNL     1     -35.917  12.627  -5.022  1.00 20.00    -0.392 OA
HETATM   12  H27 UNL     1     -35.519  12.027  -5.671  1.00 20.00     0.210 HD
ENDBRANCH   9  11
ENDBRANCH   8   9
ENDBRANCH   6   7
TORSDOF 3
ENDMDL
MODEL 5
REMARK VINA RESULT:      -5.0     10.698     11.252
REMARK  3 active torsions:
REMARK  status: ('A' for Active; 'I' for Inactive)
REMARK    1  A    between atoms: C3_3  and  C8_8 
REMARK    2  A    between atoms: C4_4  and  C10_10 
REMARK    3  A    between atoms: C10_10  and  O11_11 
ROOT
HETATM    1  C1  UNL     1     -34.426  18.322   0.393  1.00 20.00    -0.031 C 
HETATM    2  C2  UNL     1     -33.306  18.540  -0.310  1.00 20.00    -0.030 C 
HETATM    3  C5  UNL     1     -35.526  17.416  -0.077  1.00 20.00     0.027 C 
HETATM    4  C6  UNL     1     -33.018  17.874  -1.624  1.00 20.00     0.035 C 
HETATM    5  C7  UNL     1     -35.402  17.040  -1.555  1.00 20.00     0.012 C 
HETATM    6  C8  UNL     1     -33.959  16.703  -1.913  1.00 20.00     0.011 C 
ENDROOT
BRANCH   6   7
HETATM    7  C3  UNL     1     -33.904  16.416  -3.402  1.00 20.00    -0.023 C 
HETATM    8  C4  UNL     1     -34.257  15.243  -3.950  1.00 20.00     0.000 C 
BRANCH   8   9
HETATM    9  C10 UNL     1     -34.203  14.963  -5.422  1.00 20.00     0.136 C 
HETATM   10  C9  UNL     1     -33.378  16.013  -6.154  1.00 20.00     0.043 C 
BRANCH   9  11
HETATM   11  O11 UNL     1     -33.601  13.685  -5.604  1.00 20.00    -0.392 OA
HETATM   12  H27 UNL     1     -33.201  13.444  -4.755  1.00 20.00     0.210 HD
ENDBRANCH   9  11
ENDBRANCH   8   9
ENDBRANCH   6   7
TORSDOF 3
ENDMDL
MODEL 6
REMARK VINA RESULT:      -4.9      2.196      5.403
REMARK  3 active torsions:
REMARK  status: ('A' for Active; 'I' for Inactive)
REMARK    1  A    between atoms: C3_3  and  C8_8 
REMARK    2  A    between atoms: C4_4  and  C10_10 
REMARK    3  A    between atoms: C10_10  and  O11_11 
ROOT
HETATM    1  C1  UNL     1     -32.660  10.081  -0.199  1.00 20.00    -0.031 C 
HETATM    2  C2  UNL     1     -32.973   8.784  -0.329  1.00 20.00    -0.030 C 
HETATM    3  C5  UNL     1     -32.261  10.702   1.107  1.00 20.00     0.027 C 
HETATM    4  C6  UNL     1     -32.922   7.808   0.811  1.00 20.00     0.035 C 
HETATM    5  C7  UNL     1     -32.565   9.809   2.312  1.00 20.00     0.012 C 
HETATM    6  C8  UNL     1     -32.181   8.361   2.030  1.00 20.00     0.011 C 
ENDROOT
BRANCH   6   7
HETATM    7  C3  UNL     1     -32.580   7.531   3.236  1.00 20.00    -0.023 C 
HETATM    8  C4  UNL     1     -33.711   6.813   3.307  1.00 20.00     0.000 C 
BRANCH   8   9
HETATM    9  C10 UNL     1     -34.102   5.993   4.500  1.00 20.00     0.136 C 
HETATM   10  C9  UNL     1     -34.029   6.813   5.781  1.00 20.00     0.043 C 
BRANCH   9  11
HETATM   11  O11 UNL     1     -35.442   5.546   4.307  1.00 20.00    -0.392 OA
HETATM   12  H27 UNL     1     -35.747   5.939   3.475  1.00 20.00     0.210 HD
ENDBRANCH   9  11
ENDBRANCH   8   9
ENDBRANCH   6   7
TORSDOF 3
ENDMDL
MODEL 7
REMARK VINA RESULT:      -4.7      2.209      5.215
REMARK  3 active torsions:
REMARK  status: ('A' for Active; 'I' for Inactive)
REMARK    1  A    between atoms: C3_3  and  C8_8 
REMARK    2  A    between atoms: C4_4  and  C10_10 
REMARK    3  A    between atoms: C10_10  and  O11_11 
ROOT
HETATM    1  C1  UNL     1     -31.944   9.624   0.386  1.00 20.00    -0.031 C 
HETATM    2  C2  UNL     1     -31.446   8.411   0.663  1.00 20.00    -0.030 C 
HETATM    3  C5  UNL     1     -32.915  10.336   1.280  1.00 20.00     0.027 C 
HETATM    4  C6  UNL     1     -31.780   7.652   1.915  1.00 20.00     0.035 C 
HETATM    5  C7  UNL     1     -33.530   9.423   2.344  1.00 20.00     0.012 C 
HETATM    6  C8  UNL     1     -32.470   8.521   2.967  1.00 20.00     0.011 C 
ENDROOT
BRANCH   6   7
HETATM    7  C3  UNL     1     -33.166   7.599   3.951  1.00 20.00    -0.023 C 
HETATM    8  C4  UNL     1     -34.021   6.631   3.592  1.00 20.00     0.000 C 
BRANCH   8   9
HETATM    9  C10 UNL     1     -34.706   5.720   4.567  1.00 20.00     0.136 C 
HETATM   10  C9  UNL     1     -34.320   4.266   4.330  1.00 20.00     0.043 C 
BRANCH   9  11
HETATM   11  O11 UNL     1     -34.306   6.102   5.880  1.00 20.00    -0.392 OA
HETATM   12  H27 UNL     1     -33.701   5.414   6.196  1.00 20.00     0.210 HD
ENDBRANCH   9  11
ENDBRANCH   8   9
ENDBRANCH   6   7
TORSDOF 3
ENDMDL
MODEL 8
REMARK VINA RESULT:      -4.6     10.565     11.355
REMARK  3 active torsions:
REMARK  status: ('A' for Active; 'I' for Inactive)
REMARK    1  A    between atoms: C3_3  and  C8_8 
REMARK    2  A    between atoms: C4_4  and  C10_10 
REMARK    3  A    between atoms: C10_10  and  O11_11 
ROOT
HETATM    1  C1  UNL     1     -33.943  18.340   0.263  1.00 20.00    -0.031 C 
HETATM    2  C2  UNL     1     -35.120  17.703   0.192  1.00 20.00    -0.030 C 
HETATM    3  C5  UNL     1     -32.967  18.390  -0.876  1.00 20.00     0.027 C 
HETATM    4  C6  UNL     1     -35.602  17.002  -1.045  1.00 20.00     0.035 C 
HETATM    5  C7  UNL     1     -33.287  17.383  -1.983  1.00 20.00     0.012 C 
HETATM    6  C8  UNL     1     -34.781  17.360  -2.286  1.00 20.00     0.011 C 
ENDROOT
BRANCH   6   7
HETATM    7  C3  UNL     1     -35.027  16.291  -3.333  1.00 20.00    -0.023 C 
HETATM    8  C4  UNL     1     -36.247  15.876  -3.705  1.00 20.00     0.000 C 
BRANCH   8   9
HETATM    9  C10 UNL     1     -36.486  14.819  -4.742  1.00 20.00     0.136 C 
HETATM   10  C9  UNL     1     -35.390  13.762  -4.716  1.00 20.00     0.043 C 
BRANCH   9  11
HETATM   11  O11 UNL     1     -37.738  14.201  -4.460  1.00 20.00    -0.392 OA
HETATM   12  H27 UNL     1     -38.207  14.128  -5.305  1.00 20.00     0.210 HD
ENDBRANCH   9  11
ENDBRANCH   8   9
ENDBRANCH   6   7
TORSDOF 3
ENDMDL
MODEL 9
REMARK VINA RESULT:      -4.6     10.560     11.448
REMARK  3 active torsions:
REMARK  status: ('A' for Active; 'I' for Inactive)
REMARK    1  A    between atoms: C3_3  and  C8_8 
REMARK    2  A    between atoms: C4_4  and  C10_10 
REMARK    3  A    between atoms: C10_10  and  O11_11 
ROOT
HETATM    1  C1  UNL     1     -36.110  14.773  -4.570  1.00 20.00    -0.031 C 
HETATM    2  C2  UNL     1     -36.595  15.920  -4.071  1.00 20.00    -0.030 C 
HETATM    3  C5  UNL     1     -34.703  14.307  -4.337  1.00 20.00     0.027 C 
HETATM    4  C6  UNL     1     -35.792  16.840  -3.198  1.00 20.00     0.035 C 
HETATM    5  C7  UNL     1     -33.795  15.403  -3.773  1.00 20.00     0.012 C 
HETATM    6  C8  UNL     1     -34.506  16.193  -2.680  1.00 20.00     0.011 C 
ENDROOT
BRANCH   6   7
HETATM    7  C3  UNL     1     -33.575  17.301  -2.227  1.00 20.00    -0.023 C 
HETATM    8  C4  UNL     1     -33.435  17.683  -0.949  1.00 20.00     0.000 C 
BRANCH   8   9
HETATM    9  C10 UNL     1     -32.512  18.779  -0.504  1.00 20.00     0.136 C 
HETATM   10  C9  UNL     1     -32.865  19.263   0.896  1.00 20.00     0.043 C 
BRANCH   9  11
HETATM   11  O11 UNL     1     -31.185  18.261  -0.499  1.00 20.00    -0.392 OA
HETATM   12  H27 UNL     1     -30.604  18.991  -0.236  1.00 20.00     0.210 HD
ENDBRANCH   9  11
ENDBRANCH   8   9
ENDBRANCH   6   7
TORSDOF 3
ENDMDL
