MODEL 1
REMARK VINA RESULT:      -4.7      0.000      0.000
REMARK  1 active torsions:
REMARK  status: ('A' for Active; 'I' for Inactive)
REMARK    1  A    between atoms: C2_2  and  C3_3 
ROOT
HETATM    1  C1  UNL     1     -35.475  15.623  -5.436  1.00 20.00    -0.061 C 
HETATM    2  C2  UNL     1     -36.713  15.501  -5.930  1.00 20.00     0.088 C 
HETATM    3  C4  UNL     1     -34.237  14.084  -3.956  1.00 20.00     0.009 C 
HETATM    4  C5  UNL     1     -32.906  14.529  -4.590  1.00 20.00     0.006 C 
HETATM    5  C6  UNL     1     -34.021  16.448  -3.798  1.00 20.00     0.014 C 
HETATM    6  C7  UNL     1     -35.082  15.368  -3.994  1.00 20.00     0.016 C 
HETATM    7  C8  UNL     1     -33.191  15.990  -5.009  1.00 20.00    -0.002 C 
HETATM    8  C9  UNL     1     -34.225  16.078  -6.181  1.00 20.00    -0.020 C 
HETATM    9  C10 UNL     1     -34.354  17.525  -6.691  1.00 20.00     0.020 C 
HETATM   10  C11 UNL     1     -33.878  15.170  -7.370  1.00 20.00     0.020 C 
ENDROOT
BRANCH   2  11
HETATM   11  C3  UNL     1     -37.896  15.075  -5.051  1.00 20.00     0.198 C 
HETATM   12  O12 UNL     1     -38.078  13.823  -5.004  1.00 20.00    -0.644 OA
HETATM   13  O13 UNL     1     -38.549  15.996  -4.482  1.00 20.00    -0.644 OA
ENDBRANCH   2  11
TORSDOF 1
ENDMDL
MODEL 2
REMARK VINA RESULT:      -4.7      1.240      2.407
REMARK  1 active torsions:
REMARK  status: ('A' for Active; 'I' for Inactive)
REMARK    1  A    between atoms: C2_2  and  C3_3 
ROOT
HETATM    1  C1  UNL     1     -35.760  15.635  -4.570  1.00 20.00    -0.061 C 
HETATM    2  C2  UNL     1     -37.061  15.877  -4.762  1.00 20.00     0.088 C 
HETATM    3  C4  UNL     1     -34.048  14.965  -6.218  1.00 20.00     0.009 C 
HETATM    4  C5  UNL     1     -32.965  15.697  -5.406  1.00 20.00     0.006 C 
HETATM    5  C6  UNL     1     -34.040  14.161  -3.978  1.00 20.00     0.014 C 
HETATM    6  C7  UNL     1     -35.002  14.446  -5.129  1.00 20.00     0.016 C 
HETATM    7  C8  UNL     1     -33.489  15.596  -3.955  1.00 20.00    -0.002 C 
HETATM    8  C9  UNL     1     -34.781  16.451  -3.732  1.00 20.00    -0.020 C 
HETATM    9  C10 UNL     1     -35.176  16.471  -2.244  1.00 20.00     0.020 C 
HETATM   10  C11 UNL     1     -34.646  17.900  -4.221  1.00 20.00     0.020 C 
ENDROOT
BRANCH   2  11
HETATM   11  C3  UNL     1     -37.945  14.941  -5.596  1.00 20.00     0.198 C 
HETATM   12  O12 UNL     1     -38.061  15.287  -6.808  1.00 20.00    -0.644 OA
HETATM   13  O13 UNL     1     -38.452  13.948  -5.000  1.00 20.00    -0.644 OA
ENDBRANCH   2  11
TORSDOF 1
ENDMDL
MODEL 3
REMARK VINA RESULT:      -4.7      0.541      1.041
REMARK  1 active torsions:
REMARK  status: ('A' for Active; 'I' for Inactive)
REMARK    1  A    between atoms: C2_2  and  C3_3 
ROOT
HETATM    1  C1  UNL     1     -35.618  15.864  -5.112  1.00 20.00    -0.061 C 
HETATM    2  C2  UNL     1     -36.851  15.781  -5.625  1.00 20.00     0.088 C 
HETATM    3  C4  UNL     1     -34.248  14.091  -4.075  1.00 20.00     0.009 C 
HETATM    4  C5  UNL     1     -32.963  14.783  -4.566  1.00 20.00     0.006 C 
HETATM    5  C6  UNL     1     -34.203  16.344  -3.309  1.00 20.00     0.014 C 
HETATM    6  C7  UNL     1     -35.185  15.275  -3.782  1.00 20.00     0.016 C 
HETATM    7  C8  UNL     1     -33.360  16.277  -4.594  1.00 20.00    -0.002 C 
HETATM    8  C9  UNL     1     -34.415  16.587  -5.708  1.00 20.00    -0.020 C 
HETATM    9  C10 UNL     1     -34.657  18.104  -5.827  1.00 20.00     0.020 C 
HETATM   10  C11 UNL     1     -34.021  16.046  -7.089  1.00 20.00     0.020 C 
ENDROOT
BRANCH   2  11
HETATM   11  C3  UNL     1     -37.986  15.056  -4.892  1.00 20.00     0.198 C 
HETATM   12  O12 UNL     1     -38.746  15.824  -4.234  1.00 20.00    -0.644 OA
HETATM   13  O13 UNL     1     -38.041  13.800  -5.019  1.00 20.00    -0.644 OA
ENDBRANCH   2  11
TORSDOF 1
ENDMDL
MODEL 4
REMARK VINA RESULT:      -4.7      1.594      2.085
REMARK  1 active torsions:
REMARK  status: ('A' for Active; 'I' for Inactive)
REMARK    1  A    between atoms: C2_2  and  C3_3 
ROOT
HETATM    1  C1  UNL     1     -35.751  16.071  -5.059  1.00 20.00    -0.061 C 
HETATM    2  C2  UNL     1     -36.206  15.101  -5.861  1.00 20.00     0.088 C 
HETATM    3  C4  UNL     1     -34.265  15.891  -3.096  1.00 20.00     0.009 C 
HETATM    4  C5  UNL     1     -33.699  17.294  -3.383  1.00 20.00     0.006 C 
HETATM    5  C6  UNL     1     -36.042  17.469  -3.204  1.00 20.00     0.014 C 
HETATM    6  C7  UNL     1     -35.731  16.014  -3.544  1.00 20.00     0.016 C 
HETATM    7  C8  UNL     1     -34.887  18.018  -4.058  1.00 20.00    -0.002 C 
HETATM    8  C9  UNL     1     -35.206  17.434  -5.476  1.00 20.00    -0.020 C 
HETATM    9  C10 UNL     1     -36.272  18.285  -6.192  1.00 20.00     0.020 C 
HETATM   10  C11 UNL     1     -33.973  17.329  -6.384  1.00 20.00     0.020 C 
ENDROOT
BRANCH   2  11
HETATM   11  C3  UNL     1     -36.772  13.790  -5.303  1.00 20.00     0.198 C 
HETATM   12  O12 UNL     1     -35.922  12.856  -5.221  1.00 20.00    -0.644 OA
HETATM   13  O13 UNL     1     -37.997  13.780  -4.992  1.00 20.00    -0.644 OA
ENDBRANCH   2  11
TORSDOF 1
ENDMDL
MODEL 5
REMARK VINA RESULT:      -4.6      1.384      2.975
REMARK  1 active torsions:
REMARK  status: ('A' for Active; 'I' for Inactive)
REMARK    1  A    between atoms: C2_2  and  C3_3 
ROOT
HETATM    1  C1  UNL     1     -35.201  15.746  -4.738  1.00 20.00    -0.061 C 
HETATM    2  C2  UNL     1     -36.205  14.986  -4.286  1.00 20.00     0.088 C 
HETATM    3  C4  UNL     1     -34.862  16.684  -6.996  1.00 20.00     0.009 C 
HETATM    4  C5  UNL     1     -34.124  17.894  -6.394  1.00 20.00     0.006 C 
HETATM    5  C6  UNL     1     -33.052  15.933  -5.646  1.00 20.00     0.014 C 
HETATM    6  C7  UNL     1     -34.470  15.537  -6.050  1.00 20.00     0.016 C 
HETATM    7  C8  UNL     1     -33.483  17.309  -5.114  1.00 20.00    -0.002 C 
HETATM    8  C9  UNL     1     -34.553  16.935  -4.034  1.00 20.00    -0.020 C 
HETATM    9  C10 UNL     1     -33.879  16.523  -2.713  1.00 20.00     0.020 C 
HETATM   10  C11 UNL     1     -35.548  18.067  -3.743  1.00 20.00     0.020 C 
ENDROOT
BRANCH   2  11
HETATM   11  C3  UNL     1     -36.731  13.784  -5.081  1.00 20.00     0.198 C 
HETATM   12  O12 UNL     1     -37.901  13.943  -5.537  1.00 20.00    -0.644 OA
HETATM   13  O13 UNL     1     -35.962  12.788  -5.192  1.00 20.00    -0.644 OA
ENDBRANCH   2  11
TORSDOF 1
ENDMDL
MODEL 6
REMARK VINA RESULT:      -4.6      1.221      1.973
REMARK  1 active torsions:
REMARK  status: ('A' for Active; 'I' for Inactive)
REMARK    1  A    between atoms: C2_2  and  C3_3 
ROOT
HETATM    1  C1  UNL     1     -35.355  15.501  -4.998  1.00 20.00    -0.061 C 
HETATM    2  C2  UNL     1     -36.073  14.596  -5.674  1.00 20.00     0.088 C 
HETATM    3  C4  UNL     1     -35.707  16.369  -2.714  1.00 20.00     0.009 C 
HETATM    4  C5  UNL     1     -34.191  16.577  -2.549  1.00 20.00     0.006 C 
HETATM    5  C6  UNL     1     -34.884  17.735  -4.480  1.00 20.00     0.014 C 
HETATM    6  C7  UNL     1     -35.933  16.659  -4.207  1.00 20.00     0.016 C 
HETATM    7  C8  UNL     1     -33.717  16.860  -3.993  1.00 20.00    -0.002 C 
HETATM    8  C9  UNL     1     -33.835  15.597  -4.911  1.00 20.00    -0.020 C 
HETATM    9  C10 UNL     1     -33.196  15.859  -6.288  1.00 20.00     0.020 C 
HETATM   10  C11 UNL     1     -33.194  14.341  -4.306  1.00 20.00     0.020 C 
ENDROOT
BRANCH   2  11
HETATM   11  C3  UNL     1     -37.605  14.645  -5.714  1.00 20.00     0.198 C 
HETATM   12  O12 UNL     1     -38.165  13.960  -4.808  1.00 20.00    -0.644 OA
HETATM   13  O13 UNL     1     -38.133  15.344  -6.624  1.00 20.00    -0.644 OA
ENDBRANCH   2  11
TORSDOF 1
ENDMDL
MODEL 7
REMARK VINA RESULT:      -4.5      0.775      2.826
REMARK  1 active torsions:
REMARK  status: ('A' for Active; 'I' for Inactive)
REMARK    1  A    between atoms: C2_2  and  C3_3 
ROOT
HETATM    1  C1  UNL     1     -35.329  15.452  -5.197  1.00 20.00    -0.061 C 
HETATM    2  C2  UNL     1     -36.268  15.212  -4.274  1.00 20.00     0.088 C 
HETATM    3  C4  UNL     1     -35.418  16.971  -7.141  1.00 20.00     0.009 C 
HETATM    4  C5  UNL     1     -33.900  17.205  -7.040  1.00 20.00     0.006 C 
HETATM    5  C6  UNL     1     -34.276  14.885  -7.209  1.00 20.00     0.014 C 
HETATM    6  C7  UNL     1     -35.571  15.508  -6.693  1.00 20.00     0.016 C 
HETATM    7  C8  UNL     1     -33.381  15.876  -6.446  1.00 20.00    -0.002 C 
HETATM    8  C9  UNL     1     -33.838  15.673  -4.963  1.00 20.00    -0.020 C 
HETATM    9  C10 UNL     1     -33.164  14.433  -4.346  1.00 20.00     0.020 C 
HETATM   10  C11 UNL     1     -33.551  16.884  -4.064  1.00 20.00     0.020 C 
ENDROOT
BRANCH   2  11
HETATM   11  C3  UNL     1     -37.732  14.961  -4.655  1.00 20.00     0.198 C 
HETATM   12  O12 UNL     1     -38.461  15.994  -4.605  1.00 20.00    -0.644 OA
HETATM   13  O13 UNL     1     -38.048  13.778  -4.970  1.00 20.00    -0.644 OA
ENDBRANCH   2  11
TORSDOF 1
ENDMDL
MODEL 8
REMARK VINA RESULT:      -4.5      2.138      3.817
REMARK  1 active torsions:
REMARK  status: ('A' for Active; 'I' for Inactive)
REMARK    1  A    between atoms: C2_2  and  C3_3 
ROOT
HETATM    1  C1  UNL     1     -35.198  15.909  -4.056  1.00 20.00    -0.061 C 
HETATM    2  C2  UNL     1     -34.697  14.668  -4.048  1.00 20.00     0.088 C 
HETATM    3  C4  UNL     1     -37.505  16.646  -4.532  1.00 20.00     0.009 C 
HETATM    4  C5  UNL     1     -37.330  17.842  -3.578  1.00 20.00     0.006 C 
HETATM    5  C6  UNL     1     -35.603  17.922  -5.179  1.00 20.00     0.014 C 
HETATM    6  C7  UNL     1     -36.100  16.479  -5.134  1.00 20.00     0.016 C 
HETATM    7  C8  UNL     1     -35.817  18.146  -3.673  1.00 20.00    -0.002 C 
HETATM    8  C9  UNL     1     -34.946  17.013  -3.035  1.00 20.00    -0.020 C 
HETATM    9  C10 UNL     1     -33.462  17.424  -2.986  1.00 20.00     0.020 C 
HETATM   10  C11 UNL     1     -35.391  16.625  -1.618  1.00 20.00     0.020 C 
ENDROOT
BRANCH   2  11
HETATM   11  C3  UNL     1     -34.998  13.666  -5.170  1.00 20.00     0.198 C 
HETATM   12  O12 UNL     1     -34.175  13.709  -6.132  1.00 20.00    -0.644 OA
HETATM   13  O13 UNL     1     -36.010  12.925  -5.021  1.00 20.00    -0.644 OA
ENDBRANCH   2  11
TORSDOF 1
ENDMDL
MODEL 9
REMARK VINA RESULT:      -4.5      2.909      4.180
REMARK  1 active torsions:
REMARK  status: ('A' for Active; 'I' for Inactive)
REMARK    1  A    between atoms: C2_2  and  C3_3 
ROOT
HETATM    1  C1  UNL     1     -34.999  16.728  -3.361  1.00 20.00    -0.061 C 
HETATM    2  C2  UNL     1     -34.872  15.899  -4.403  1.00 20.00     0.088 C 
HETATM    3  C4  UNL     1     -33.237  17.705  -1.934  1.00 20.00     0.009 C 
HETATM    4  C5  UNL     1     -34.104  18.956  -1.702  1.00 20.00     0.006 C 
HETATM    5  C6  UNL     1     -35.361  17.065  -1.073  1.00 20.00     0.014 C 
HETATM    6  C7  UNL     1     -34.279  16.579  -2.034  1.00 20.00     0.016 C 
HETATM    7  C8  UNL     1     -35.545  18.405  -1.804  1.00 20.00    -0.002 C 
HETATM    8  C9  UNL     1     -35.904  17.952  -3.259  1.00 20.00    -0.020 C 
HETATM    9  C10 UNL     1     -37.393  17.575  -3.364  1.00 20.00     0.020 C 
HETATM   10  C11 UNL     1     -35.591  19.013  -4.323  1.00 20.00     0.020 C 
ENDROOT
BRANCH   2  11
HETATM   11  C3  UNL     1     -33.953  14.671  -4.354  1.00 20.00     0.198 C 
HETATM   12  O12 UNL     1     -32.749  14.919  -4.653  1.00 20.00    -0.644 OA
HETATM   13  O13 UNL     1     -34.484  13.571  -4.030  1.00 20.00    -0.644 OA
ENDBRANCH   2  11
TORSDOF 1
ENDMDL
