MODEL 1
REMARK VINA RESULT:      -6.3      0.000      0.000
REMARK  1 active torsions:
REMARK  status: ('A' for Active; 'I' for Inactive)
REMARK    1  A    between atoms: C8_8  and  C9_9 
ROOT
HETATM    1  C1  UNL     1     -32.151   8.409   2.193  1.00 20.00     0.059 C 
HETATM    2  C9  UNL     1     -32.121   7.350   3.196  1.00 20.00     0.129 C 
HETATM    3  N10 UNL     1     -32.149   9.259   1.403  1.00 20.00    -0.197 NA
ENDROOT
BRANCH   2   4
HETATM    4  C8  UNL     1     -33.450   6.629   3.025  1.00 20.00     0.003 C 
HETATM    5  C5  UNL     1     -33.344   5.098   3.177  1.00 20.00     0.010 C 
HETATM    6  C6  UNL     1     -34.446   4.777   4.205  1.00 20.00    -0.014 C 
HETATM    7  C2  UNL     1     -33.976   5.243   5.593  1.00 20.00     0.005 C 
HETATM    8  C4  UNL     1     -35.513   5.818   3.868  1.00 20.00     0.009 C 
HETATM    9  C3  UNL     1     -34.080   6.772   5.496  1.00 20.00     0.005 C 
HETATM   10  C7  UNL     1     -34.550   6.996   4.049  1.00 20.00    -0.009 C 
ENDBRANCH   2   4
TORSDOF 1
ENDMDL
MODEL 2
REMARK VINA RESULT:      -4.6      0.943      1.982
REMARK  1 active torsions:
REMARK  status: ('A' for Active; 'I' for Inactive)
REMARK    1  A    between atoms: C8_8  and  C9_9 
ROOT
HETATM    1  C1  UNL     1     -32.051   8.518   1.821  1.00 20.00     0.059 C 
HETATM    2  C9  UNL     1     -32.966   8.546   2.957  1.00 20.00     0.129 C 
HETATM    3  N10 UNL     1     -31.331   8.522   0.911  1.00 20.00    -0.197 NA
ENDROOT
BRANCH   2   4
HETATM    4  C8  UNL     1     -32.811   7.176   3.602  1.00 20.00     0.003 C 
HETATM    5  C5  UNL     1     -33.587   7.028   4.927  1.00 20.00     0.010 C 
HETATM    6  C6  UNL     1     -34.385   5.728   4.715  1.00 20.00    -0.014 C 
HETATM    7  C2  UNL     1     -35.534   6.009   3.732  1.00 20.00     0.005 C 
HETATM    8  C4  UNL     1     -33.430   4.901   3.854  1.00 20.00     0.009 C 
HETATM    9  C3  UNL     1     -34.808   6.149   2.386  1.00 20.00     0.005 C 
HETATM   10  C7  UNL     1     -33.329   5.979   2.771  1.00 20.00    -0.009 C 
ENDBRANCH   2   4
TORSDOF 1
ENDMDL
MODEL 3
REMARK VINA RESULT:      -4.4     11.260     12.247
REMARK  1 active torsions:
REMARK  status: ('A' for Active; 'I' for Inactive)
REMARK    1  A    between atoms: C8_8  and  C9_9 
ROOT
HETATM    1  C1  UNL     1     -35.217  13.680  -4.744  1.00 20.00     0.059 C 
HETATM    2  C9  UNL     1     -34.288  14.583  -4.073  1.00 20.00     0.129 C 
HETATM    3  N10 UNL     1     -35.939  12.941  -5.273  1.00 20.00    -0.197 NA
ENDROOT
BRANCH   2   4
HETATM    4  C8  UNL     1     -34.950  15.949  -4.172  1.00 20.00     0.003 C 
HETATM    5  C5  UNL     1     -36.300  16.035  -3.431  1.00 20.00     0.010 C 
HETATM    6  C6  UNL     1     -36.133  17.291  -2.555  1.00 20.00    -0.014 C 
HETATM    7  C2  UNL     1     -35.182  16.960  -1.394  1.00 20.00     0.005 C 
HETATM    8  C4  UNL     1     -35.256  18.182  -3.435  1.00 20.00     0.009 C 
HETATM    9  C3  UNL     1     -33.812  16.879  -2.083  1.00 20.00     0.005 C 
HETATM   10  C7  UNL     1     -34.154  17.127  -3.562  1.00 20.00    -0.009 C 
ENDBRANCH   2   4
TORSDOF 1
ENDMDL
MODEL 4
REMARK VINA RESULT:      -4.4     11.588     12.444
REMARK  1 active torsions:
REMARK  status: ('A' for Active; 'I' for Inactive)
REMARK    1  A    between atoms: C8_8  and  C9_9 
ROOT
HETATM    1  C1  UNL     1     -35.818  13.971  -5.037  1.00 20.00     0.059 C 
HETATM    2  C9  UNL     1     -35.796  15.414  -4.823  1.00 20.00     0.129 C 
HETATM    3  N10 UNL     1     -35.847  12.828  -5.233  1.00 20.00    -0.197 NA
ENDROOT
BRANCH   2   4
HETATM    4  C8  UNL     1     -35.176  15.582  -3.444  1.00 20.00     0.003 C 
HETATM    5  C5  UNL     1     -33.677  15.945  -3.484  1.00 20.00     0.010 C 
HETATM    6  C6  UNL     1     -33.597  17.181  -2.568  1.00 20.00    -0.014 C 
HETATM    7  C2  UNL     1     -34.209  18.382  -3.308  1.00 20.00     0.005 C 
HETATM    8  C4  UNL     1     -34.670  16.877  -1.522  1.00 20.00     0.009 C 
HETATM    9  C3  UNL     1     -35.713  18.074  -3.281  1.00 20.00     0.005 C 
HETATM   10  C7  UNL     1     -35.774  16.711  -2.571  1.00 20.00    -0.009 C 
ENDBRANCH   2   4
TORSDOF 1
ENDMDL
MODEL 5
REMARK VINA RESULT:      -4.4     11.686     12.582
REMARK  1 active torsions:
REMARK  status: ('A' for Active; 'I' for Inactive)
REMARK    1  A    between atoms: C8_8  and  C9_9 
ROOT
HETATM    1  C1  UNL     1     -32.148  18.369  -0.630  1.00 20.00     0.059 C 
HETATM    2  C9  UNL     1     -33.508  18.545  -1.128  1.00 20.00     0.129 C 
HETATM    3  N10 UNL     1     -31.065  18.256  -0.228  1.00 20.00    -0.197 NA
ENDROOT
BRANCH   2   4
HETATM    4  C8  UNL     1     -33.910  17.165  -1.626  1.00 20.00     0.003 C 
HETATM    5  C5  UNL     1     -35.417  16.870  -1.471  1.00 20.00     0.010 C 
HETATM    6  C6  UNL     1     -35.821  16.395  -2.879  1.00 20.00    -0.014 C 
HETATM    7  C2  UNL     1     -35.856  17.612  -3.818  1.00 20.00     0.005 C 
HETATM    8  C4  UNL     1     -34.559  15.671  -3.349  1.00 20.00     0.009 C 
HETATM    9  C3  UNL     1     -34.369  17.936  -4.017  1.00 20.00     0.005 C 
HETATM   10  C7  UNL     1     -33.666  16.895  -3.129  1.00 20.00    -0.009 C 
ENDBRANCH   2   4
TORSDOF 1
ENDMDL
MODEL 6
REMARK VINA RESULT:      -4.2     11.491     12.499
REMARK  1 active torsions:
REMARK  status: ('A' for Active; 'I' for Inactive)
REMARK    1  A    between atoms: C8_8  and  C9_9 
ROOT
HETATM    1  C1  UNL     1     -37.276  14.026  -5.249  1.00 20.00     0.059 C 
HETATM    2  C9  UNL     1     -35.849  13.918  -5.529  1.00 20.00     0.129 C 
HETATM    3  N10 UNL     1     -38.417  14.102  -5.051  1.00 20.00    -0.197 NA
ENDROOT
BRANCH   2   4
HETATM    4  C8  UNL     1     -35.175  14.439  -4.269  1.00 20.00     0.003 C 
HETATM    5  C5  UNL     1     -33.634  14.403  -4.334  1.00 20.00     0.010 C 
HETATM    6  C6  UNL     1     -33.238  15.836  -3.932  1.00 20.00    -0.014 C 
HETATM    7  C2  UNL     1     -33.559  16.782  -5.102  1.00 20.00     0.005 C 
HETATM    8  C4  UNL     1     -34.329  16.201  -2.925  1.00 20.00     0.009 C 
HETATM    9  C3  UNL     1     -35.092  16.864  -5.067  1.00 20.00     0.005 C 
HETATM   10  C7  UNL     1     -35.463  15.917  -3.914  1.00 20.00    -0.009 C 
ENDBRANCH   2   4
TORSDOF 1
ENDMDL
MODEL 7
REMARK VINA RESULT:      -4.2     11.442     12.654
REMARK  1 active torsions:
REMARK  status: ('A' for Active; 'I' for Inactive)
REMARK    1  A    between atoms: C8_8  and  C9_9 
ROOT
HETATM    1  C1  UNL     1     -37.430  14.621  -5.478  1.00 20.00     0.059 C 
HETATM    2  C9  UNL     1     -36.423  15.532  -6.010  1.00 20.00     0.129 C 
HETATM    3  N10 UNL     1     -38.251  13.915  -5.061  1.00 20.00    -0.197 NA
ENDROOT
BRANCH   2   4
HETATM    4  C8  UNL     1     -35.101  14.826  -5.755  1.00 20.00     0.003 C 
HETATM    5  C5  UNL     1     -33.873  15.625  -6.238  1.00 20.00     0.010 C 
HETATM    6  C6  UNL     1     -32.958  15.634  -4.999  1.00 20.00    -0.014 C 
HETATM    7  C2  UNL     1     -33.547  16.601  -3.959  1.00 20.00     0.005 C 
HETATM    8  C4  UNL     1     -33.258  14.274  -4.368  1.00 20.00     0.009 C 
HETATM    9  C3  UNL     1     -34.772  15.838  -3.434  1.00 20.00     0.005 C 
HETATM   10  C7  UNL     1     -34.761  14.549  -4.272  1.00 20.00    -0.009 C 
ENDBRANCH   2   4
TORSDOF 1
ENDMDL
MODEL 8
REMARK VINA RESULT:      -4.1     11.492     12.824
REMARK  1 active torsions:
REMARK  status: ('A' for Active; 'I' for Inactive)
REMARK    1  A    between atoms: C8_8  and  C9_9 
ROOT
HETATM    1  C1  UNL     1     -33.257  17.627  -1.896  1.00 20.00     0.059 C 
HETATM    2  C9  UNL     1     -34.277  16.692  -2.356  1.00 20.00     0.129 C 
HETATM    3  N10 UNL     1     -32.463  18.380  -1.511  1.00 20.00    -0.197 NA
ENDROOT
BRANCH   2   4
HETATM    4  C8  UNL     1     -33.629  15.970  -3.528  1.00 20.00     0.003 C 
HETATM    5  C5  UNL     1     -34.426  14.741  -4.011  1.00 20.00     0.010 C 
HETATM    6  C6  UNL     1     -34.550  14.984  -5.527  1.00 20.00    -0.014 C 
HETATM    7  C2  UNL     1     -35.574  16.107  -5.763  1.00 20.00     0.005 C 
HETATM    8  C4  UNL     1     -33.232  15.688  -5.849  1.00 20.00     0.009 C 
HETATM    9  C3  UNL     1     -34.816  17.364  -5.309  1.00 20.00     0.005 C 
HETATM   10  C7  UNL     1     -33.470  16.800  -4.824  1.00 20.00    -0.009 C 
ENDBRANCH   2   4
TORSDOF 1
ENDMDL
MODEL 9
REMARK VINA RESULT:      -4.0      8.968     10.449
REMARK  1 active torsions:
REMARK  status: ('A' for Active; 'I' for Inactive)
REMARK    1  A    between atoms: C8_8  and  C9_9 
ROOT
HETATM    1  C1  UNL     1     -42.785   3.765  -2.623  1.00 20.00     0.059 C 
HETATM    2  C9  UNL     1     -43.417   4.944  -2.043  1.00 20.00     0.129 C 
HETATM    3  N10 UNL     1     -42.298   2.829  -3.107  1.00 20.00    -0.197 NA
ENDROOT
BRANCH   2   4
HETATM    4  C8  UNL     1     -42.707   5.139  -0.712  1.00 20.00     0.003 C 
HETATM    5  C5  UNL     1     -41.192   5.393  -0.854  1.00 20.00     0.010 C 
HETATM    6  C6  UNL     1     -40.975   6.666  -0.014  1.00 20.00    -0.014 C 
HETATM    7  C2  UNL     1     -41.548   7.868  -0.784  1.00 20.00     0.005 C 
HETATM    8  C4  UNL     1     -42.003   6.492   1.105  1.00 20.00     0.009 C 
HETATM    9  C3  UNL     1     -43.065   7.667  -0.656  1.00 20.00     0.005 C 
HETATM   10  C7  UNL     1     -43.175   6.350   0.129  1.00 20.00    -0.009 C 
ENDBRANCH   2   4
TORSDOF 1
ENDMDL
