MODEL 1
REMARK VINA RESULT:      -4.6      0.000      0.000
REMARK  0 active torsions:
REMARK  status: ('A' for Active; 'I' for Inactive)
ROOT
HETATM    1  C1  UNL     1     -32.900   8.164   1.950  1.00 20.00     0.086 C 
HETATM    2  C2  UNL     1     -33.912   5.311   5.036  1.00 20.00     0.005 C 
HETATM    3  C3  UNL     1     -34.123   6.799   5.349  1.00 20.00     0.008 C 
HETATM    4  C4  UNL     1     -35.015   6.361   3.207  1.00 20.00     0.012 C 
HETATM    5  C5  UNL     1     -32.689   5.872   2.918  1.00 20.00     0.046 C 
HETATM    6  C6  UNL     1     -33.987   5.269   3.500  1.00 20.00    -0.011 C 
HETATM    7  C7  UNL     1     -34.211   7.441   3.950  1.00 20.00     0.024 C 
HETATM    8  C8  UNL     1     -32.853   7.384   3.199  1.00 20.00     0.129 C 
HETATM    9  N9  UNL     1     -32.936   8.779   0.967  1.00 20.00    -0.195 NA
HETATM   10 CL10 UNL     1     -31.491   8.042   4.138  1.00 20.00    -0.102 Cl
ENDROOT
TORSDOF 0
ENDMDL
MODEL 2
REMARK VINA RESULT:      -4.6     11.245     12.224
REMARK  0 active torsions:
REMARK  status: ('A' for Active; 'I' for Inactive)
ROOT
HETATM    1  C1  UNL     1     -35.662  13.832  -5.018  1.00 20.00     0.086 C 
HETATM    2  C2  UNL     1     -33.525  17.519  -4.289  1.00 20.00     0.005 C 
HETATM    3  C3  UNL     1     -33.874  16.649  -3.073  1.00 20.00     0.008 C 
HETATM    4  C4  UNL     1     -32.974  15.250  -4.748  1.00 20.00     0.012 C 
HETATM    5  C5  UNL     1     -34.957  16.102  -5.784  1.00 20.00     0.046 C 
HETATM    6  C6  UNL     1     -33.504  16.502  -5.443  1.00 20.00    -0.011 C 
HETATM    7  C7  UNL     1     -34.092  15.254  -3.693  1.00 20.00     0.024 C 
HETATM    8  C8  UNL     1     -35.359  15.209  -4.589  1.00 20.00     0.129 C 
HETATM    9  N9  UNL     1     -35.899  12.748  -5.356  1.00 20.00    -0.195 NA
HETATM   10 CL10 UNL     1     -36.829  15.802  -3.775  1.00 20.00    -0.102 Cl
ENDROOT
TORSDOF 0
ENDMDL
MODEL 3
REMARK VINA RESULT:      -4.5     11.055     12.328
REMARK  0 active torsions:
REMARK  status: ('A' for Active; 'I' for Inactive)
ROOT
HETATM    1  C1  UNL     1     -37.009  14.160  -5.208  1.00 20.00     0.086 C 
HETATM    2  C2  UNL     1     -32.914  15.545  -5.122  1.00 20.00     0.005 C 
HETATM    3  C3  UNL     1     -33.755  15.894  -6.358  1.00 20.00     0.008 C 
HETATM    4  C4  UNL     1     -35.042  16.359  -4.434  1.00 20.00     0.012 C 
HETATM    5  C5  UNL     1     -34.697  13.995  -4.277  1.00 20.00     0.046 C 
HETATM    6  C6  UNL     1     -33.978  15.340  -4.030  1.00 20.00    -0.011 C 
HETATM    7  C7  UNL     1     -35.203  15.766  -5.843  1.00 20.00     0.024 C 
HETATM    8  C8  UNL     1     -35.574  14.294  -5.515  1.00 20.00     0.129 C 
HETATM    9  N9  UNL     1     -38.138  14.055  -4.967  1.00 20.00    -0.195 NA
HETATM   10 CL10 UNL     1     -35.250  13.163  -6.853  1.00 20.00    -0.102 Cl
ENDROOT
TORSDOF 0
ENDMDL
MODEL 4
REMARK VINA RESULT:      -4.4     11.244     12.123
REMARK  0 active torsions:
REMARK  status: ('A' for Active; 'I' for Inactive)
ROOT
HETATM    1  C1  UNL     1     -35.208  13.445  -6.229  1.00 20.00     0.086 C 
HETATM    2  C2  UNL     1     -33.706  16.795  -3.946  1.00 20.00     0.005 C 
HETATM    3  C3  UNL     1     -34.651  15.818  -3.233  1.00 20.00     0.008 C 
HETATM    4  C4  UNL     1     -33.033  14.559  -4.403  1.00 20.00     0.012 C 
HETATM    5  C5  UNL     1     -34.171  15.716  -6.163  1.00 20.00     0.046 C 
HETATM    6  C6  UNL     1     -33.103  15.932  -5.068  1.00 20.00    -0.011 C 
HETATM    7  C7  UNL     1     -34.536  14.537  -4.085  1.00 20.00     0.024 C 
HETATM    8  C8  UNL     1     -35.152  14.723  -5.498  1.00 20.00     0.129 C 
HETATM    9  N9  UNL     1     -35.252  12.439  -6.805  1.00 20.00    -0.195 NA
HETATM   10 CL10 UNL     1     -36.820  15.347  -5.472  1.00 20.00    -0.102 Cl
ENDROOT
TORSDOF 0
ENDMDL
MODEL 5
REMARK VINA RESULT:      -4.4     11.288     12.265
REMARK  0 active torsions:
REMARK  status: ('A' for Active; 'I' for Inactive)
ROOT
HETATM    1  C1  UNL     1     -37.123  14.585  -4.815  1.00 20.00     0.086 C 
HETATM    2  C2  UNL     1     -33.020  15.786  -5.460  1.00 20.00     0.005 C 
HETATM    3  C3  UNL     1     -33.306  14.836  -4.288  1.00 20.00     0.008 C 
HETATM    4  C4  UNL     1     -34.455  14.032  -6.187  1.00 20.00     0.012 C 
HETATM    5  C5  UNL     1     -35.474  16.168  -5.821  1.00 20.00     0.046 C 
HETATM    6  C6  UNL     1     -34.200  15.522  -6.411  1.00 20.00    -0.011 C 
HETATM    7  C7  UNL     1     -34.658  14.203  -4.673  1.00 20.00     0.024 C 
HETATM    8  C8  UNL     1     -35.815  15.238  -4.634  1.00 20.00     0.129 C 
HETATM    9  N9  UNL     1     -38.153  14.071  -4.958  1.00 20.00    -0.195 NA
HETATM   10 CL10 UNL     1     -35.921  16.130  -3.095  1.00 20.00    -0.102 Cl
ENDROOT
TORSDOF 0
ENDMDL
MODEL 6
REMARK VINA RESULT:      -4.3     11.508     12.305
REMARK  0 active torsions:
REMARK  status: ('A' for Active; 'I' for Inactive)
ROOT
HETATM    1  C1  UNL     1     -35.299  13.852  -5.243  1.00 20.00     0.086 C 
HETATM    2  C2  UNL     1     -33.582  17.578  -3.878  1.00 20.00     0.005 C 
HETATM    3  C3  UNL     1     -34.720  17.655  -4.906  1.00 20.00     0.008 C 
HETATM    4  C4  UNL     1     -35.353  16.132  -3.217  1.00 20.00     0.012 C 
HETATM    5  C5  UNL     1     -33.417  15.091  -4.165  1.00 20.00     0.046 C 
HETATM    6  C6  UNL     1     -33.828  16.221  -3.195  1.00 20.00    -0.011 C 
HETATM    7  C7  UNL     1     -35.430  16.297  -4.743  1.00 20.00     0.024 C 
HETATM    8  C8  UNL     1     -34.543  15.117  -5.224  1.00 20.00     0.129 C 
HETATM    9  N9  UNL     1     -35.894  12.857  -5.257  1.00 20.00    -0.195 NA
HETATM   10 CL10 UNL     1     -33.905  15.331  -6.874  1.00 20.00    -0.102 Cl
ENDROOT
TORSDOF 0
ENDMDL
MODEL 7
REMARK VINA RESULT:      -4.0     11.933     13.027
REMARK  0 active torsions:
REMARK  status: ('A' for Active; 'I' for Inactive)
ROOT
HETATM    1  C1  UNL     1     -37.262  14.440  -5.019  1.00 20.00     0.086 C 
HETATM    2  C2  UNL     1     -33.991  15.048  -7.780  1.00 20.00     0.005 C 
HETATM    3  C3  UNL     1     -34.294  13.607  -7.345  1.00 20.00     0.008 C 
HETATM    4  C4  UNL     1     -36.333  14.651  -7.917  1.00 20.00     0.012 C 
HETATM    5  C5  UNL     1     -35.576  15.959  -6.061  1.00 20.00     0.046 C 
HETATM    6  C6  UNL     1     -35.340  15.759  -7.575  1.00 20.00    -0.011 C 
HETATM    7  C7  UNL     1     -35.757  13.687  -6.867  1.00 20.00     0.024 C 
HETATM    8  C8  UNL     1     -35.898  14.529  -5.569  1.00 20.00     0.129 C 
HETATM    9  N9  UNL     1     -38.335  14.370  -4.586  1.00 20.00    -0.195 NA
HETATM   10 CL10 UNL     1     -34.806  14.010  -4.261  1.00 20.00    -0.102 Cl
ENDROOT
TORSDOF 0
ENDMDL
MODEL 8
REMARK VINA RESULT:      -4.0     11.380     12.240
REMARK  0 active torsions:
REMARK  status: ('A' for Active; 'I' for Inactive)
ROOT
HETATM    1  C1  UNL     1     -33.656  17.013  -2.798  1.00 20.00     0.086 C 
HETATM    2  C2  UNL     1     -34.657  14.411  -6.103  1.00 20.00     0.005 C 
HETATM    3  C3  UNL     1     -33.619  15.515  -6.357  1.00 20.00     0.008 C 
HETATM    4  C4  UNL     1     -33.072  14.440  -4.328  1.00 20.00     0.012 C 
HETATM    5  C5  UNL     1     -35.222  15.383  -3.859  1.00 20.00     0.046 C 
HETATM    6  C6  UNL     1     -34.557  14.191  -4.583  1.00 20.00    -0.011 C 
HETATM    7  C7  UNL     1     -33.110  15.849  -4.940  1.00 20.00     0.024 C 
HETATM    8  C8  UNL     1     -34.207  16.529  -4.076  1.00 20.00     0.129 C 
HETATM    9  N9  UNL     1     -33.222  17.395  -1.792  1.00 20.00    -0.195 NA
HETATM   10 CL10 UNL     1     -34.954  17.945  -4.857  1.00 20.00    -0.102 Cl
ENDROOT
TORSDOF 0
ENDMDL
MODEL 9
REMARK VINA RESULT:      -3.9     11.155     11.956
REMARK  0 active torsions:
REMARK  status: ('A' for Active; 'I' for Inactive)
ROOT
HETATM    1  C1  UNL     1     -34.055  14.606  -6.322  1.00 20.00     0.086 C 
HETATM    2  C2  UNL     1     -34.859  16.399  -2.471  1.00 20.00     0.005 C 
HETATM    3  C3  UNL     1     -33.579  16.831  -3.201  1.00 20.00     0.008 C 
HETATM    4  C4  UNL     1     -35.362  16.870  -4.749  1.00 20.00     0.012 C 
HETATM    5  C5  UNL     1     -35.253  14.559  -4.131  1.00 20.00     0.046 C 
HETATM    6  C6  UNL     1     -35.766  15.924  -3.619  1.00 20.00    -0.011 C 
HETATM    7  C7  UNL     1     -33.879  16.473  -4.671  1.00 20.00     0.024 C 
HETATM    8  C8  UNL     1     -33.960  14.938  -4.890  1.00 20.00     0.129 C 
HETATM    9  N9  UNL     1     -34.130  14.345  -7.449  1.00 20.00    -0.195 NA
HETATM   10 CL10 UNL     1     -32.540  14.055  -4.275  1.00 20.00    -0.102 Cl
ENDROOT
TORSDOF 0
ENDMDL
