MODEL 1
REMARK VINA RESULT:      -5.8      0.000      0.000
REMARK  1 active torsions:
REMARK  status: ('A' for Active; 'I' for Inactive)
REMARK    1  A    between atoms: C8_8  and  C9_9 
ROOT
HETATM    1  C1  UNL     1     -32.283   8.364   2.156  1.00 20.00     0.059 C 
HETATM    2  C9  UNL     1     -33.220   8.344   3.272  1.00 20.00     0.129 C 
HETATM    3  N10 UNL     1     -31.543   8.410   1.262  1.00 20.00    -0.197 NA
ENDROOT
BRANCH   2   4
HETATM    4  C8  UNL     1     -33.160   6.910   3.787  1.00 20.00     0.003 C 
HETATM    5  C5  UNL     1     -33.771   6.768   5.198  1.00 20.00     0.010 C 
HETATM    6  C6  UNL     1     -34.846   5.682   5.005  1.00 20.00    -0.014 C 
HETATM    7  C2  UNL     1     -34.158   4.333   4.743  1.00 20.00     0.005 C 
HETATM    8  C4  UNL     1     -35.394   6.031   3.622  1.00 20.00     0.009 C 
HETATM    9  C3  UNL     1     -33.612   4.494   3.315  1.00 20.00     0.005 C 
HETATM   10  C7  UNL     1     -34.022   5.933   2.951  1.00 20.00    -0.009 C 
ENDBRANCH   2   4
TORSDOF 1
ENDMDL
MODEL 2
REMARK VINA RESULT:      -4.5     11.588     12.355
REMARK  1 active torsions:
REMARK  status: ('A' for Active; 'I' for Inactive)
REMARK    1  A    between atoms: C8_8  and  C9_9 
ROOT
HETATM    1  C1  UNL     1     -36.030  13.951  -4.979  1.00 20.00     0.059 C 
HETATM    2  C9  UNL     1     -36.340  15.339  -4.660  1.00 20.00     0.129 C 
HETATM    3  N10 UNL     1     -35.801  12.848  -5.258  1.00 20.00    -0.197 NA
ENDROOT
BRANCH   2   4
HETATM    4  C8  UNL     1     -35.530  15.625  -3.400  1.00 20.00     0.003 C 
HETATM    5  C5  UNL     1     -34.036  15.863  -3.706  1.00 20.00     0.010 C 
HETATM    6  C6  UNL     1     -33.769  17.248  -3.086  1.00 20.00    -0.014 C 
HETATM    7  C2  UNL     1     -33.839  17.137  -1.554  1.00 20.00     0.005 C 
HETATM    8  C4  UNL     1     -35.066  17.986  -3.409  1.00 20.00     0.009 C 
HETATM    9  C3  UNL     1     -35.342  16.957  -1.289  1.00 20.00     0.005 C 
HETATM   10  C7  UNL     1     -35.943  16.947  -2.707  1.00 20.00    -0.009 C 
ENDBRANCH   2   4
TORSDOF 1
ENDMDL
MODEL 3
REMARK VINA RESULT:      -4.5      1.156      2.234
REMARK  1 active torsions:
REMARK  status: ('A' for Active; 'I' for Inactive)
REMARK    1  A    between atoms: C8_8  and  C9_9 
ROOT
HETATM    1  C1  UNL     1     -32.260   9.407   1.369  1.00 20.00     0.059 C 
HETATM    2  C9  UNL     1     -31.826   8.304   2.216  1.00 20.00     0.129 C 
HETATM    3  N10 UNL     1     -32.576  10.291   0.685  1.00 20.00    -0.197 NA
ENDROOT
BRANCH   2   4
HETATM    4  C8  UNL     1     -33.108   7.812   2.879  1.00 20.00     0.003 C 
HETATM    5  C5  UNL     1     -33.997   7.005   1.909  1.00 20.00     0.010 C 
HETATM    6  C6  UNL     1     -34.189   5.666   2.645  1.00 20.00    -0.014 C 
HETATM    7  C2  UNL     1     -35.072   5.893   3.883  1.00 20.00     0.005 C 
HETATM    8  C4  UNL     1     -32.813   5.457   3.273  1.00 20.00     0.009 C 
HETATM    9  C3  UNL     1     -34.137   6.647   4.841  1.00 20.00     0.005 C 
HETATM   10  C7  UNL     1     -32.845   6.794   4.015  1.00 20.00    -0.009 C 
ENDBRANCH   2   4
TORSDOF 1
ENDMDL
MODEL 4
REMARK VINA RESULT:      -4.4     11.725     12.451
REMARK  1 active torsions:
REMARK  status: ('A' for Active; 'I' for Inactive)
REMARK    1  A    between atoms: C8_8  and  C9_9 
ROOT
HETATM    1  C1  UNL     1     -36.894  14.282  -5.029  1.00 20.00     0.059 C 
HETATM    2  C9  UNL     1     -35.483  14.594  -5.218  1.00 20.00     0.129 C 
HETATM    3  N10 UNL     1     -38.020  14.024  -4.909  1.00 20.00    -0.197 NA
ENDROOT
BRANCH   2   4
HETATM    4  C8  UNL     1     -35.026  15.107  -3.856  1.00 20.00     0.003 C 
HETATM    5  C5  UNL     1     -33.538  15.516  -3.854  1.00 20.00     0.010 C 
HETATM    6  C6  UNL     1     -33.579  16.977  -3.367  1.00 20.00    -0.014 C 
HETATM    7  C2  UNL     1     -33.992  17.003  -1.886  1.00 20.00     0.005 C 
HETATM    8  C4  UNL     1     -34.840  17.497  -4.054  1.00 20.00     0.009 C 
HETATM    9  C3  UNL     1     -35.485  16.645  -1.936  1.00 20.00     0.005 C 
HETATM   10  C7  UNL     1     -35.734  16.419  -3.439  1.00 20.00    -0.009 C 
ENDBRANCH   2   4
TORSDOF 1
ENDMDL
MODEL 5
REMARK VINA RESULT:      -4.3     11.329     12.249
REMARK  1 active torsions:
REMARK  status: ('A' for Active; 'I' for Inactive)
REMARK    1  A    between atoms: C8_8  and  C9_9 
ROOT
HETATM    1  C1  UNL     1     -34.578  14.741  -3.998  1.00 20.00     0.059 C 
HETATM    2  C9  UNL     1     -35.424  15.874  -3.646  1.00 20.00     0.129 C 
HETATM    3  N10 UNL     1     -33.918  13.837  -4.306  1.00 20.00    -0.197 NA
ENDROOT
BRANCH   2   4
HETATM    4  C8  UNL     1     -34.929  16.300  -2.268  1.00 20.00     0.003 C 
HETATM    5  C5  UNL     1     -33.554  17.000  -2.331  1.00 20.00     0.010 C 
HETATM    6  C6  UNL     1     -33.820  18.352  -1.643  1.00 20.00    -0.014 C 
HETATM    7  C2  UNL     1     -34.067  18.115  -0.144  1.00 20.00     0.005 C 
HETATM    8  C4  UNL     1     -35.224  18.685  -2.145  1.00 20.00     0.009 C 
HETATM    9  C3  UNL     1     -35.461  17.470  -0.121  1.00 20.00     0.005 C 
HETATM   10  C7  UNL     1     -35.824  17.381  -1.615  1.00 20.00    -0.009 C 
ENDBRANCH   2   4
TORSDOF 1
ENDMDL
MODEL 6
REMARK VINA RESULT:      -4.2     11.185     12.496
REMARK  1 active torsions:
REMARK  status: ('A' for Active; 'I' for Inactive)
REMARK    1  A    between atoms: C8_8  and  C9_9 
ROOT
HETATM    1  C1  UNL     1     -35.172  13.652  -4.715  1.00 20.00     0.059 C 
HETATM    2  C9  UNL     1     -34.132  14.437  -4.062  1.00 20.00     0.129 C 
HETATM    3  N10 UNL     1     -35.983  13.002  -5.231  1.00 20.00    -0.197 NA
ENDROOT
BRANCH   2   4
HETATM    4  C8  UNL     1     -34.672  15.863  -4.075  1.00 20.00     0.003 C 
HETATM    5  C5  UNL     1     -35.935  16.019  -3.202  1.00 20.00     0.010 C 
HETATM    6  C6  UNL     1     -35.550  17.150  -2.230  1.00 20.00    -0.014 C 
HETATM    7  C2  UNL     1     -35.451  18.472  -3.010  1.00 20.00     0.005 C 
HETATM    8  C4  UNL     1     -34.081  16.836  -1.955  1.00 20.00     0.009 C 
HETATM    9  C3  UNL     1     -34.158  18.299  -3.821  1.00 20.00     0.005 C 
HETATM   10  C7  UNL     1     -33.697  16.881  -3.435  1.00 20.00    -0.009 C 
ENDBRANCH   2   4
TORSDOF 1
ENDMDL
MODEL 7
REMARK VINA RESULT:      -4.2     11.448     12.382
REMARK  1 active torsions:
REMARK  status: ('A' for Active; 'I' for Inactive)
REMARK    1  A    between atoms: C8_8  and  C9_9 
ROOT
HETATM    1  C1  UNL     1     -34.692  17.046  -1.395  1.00 20.00     0.059 C 
HETATM    2  C9  UNL     1     -33.598  16.949  -2.352  1.00 20.00     0.129 C 
HETATM    3  N10 UNL     1     -35.544  17.133  -0.610  1.00 20.00    -0.197 NA
ENDROOT
BRANCH   2   4
HETATM    4  C8  UNL     1     -34.267  16.485  -3.642  1.00 20.00     0.003 C 
HETATM    5  C5  UNL     1     -33.449  16.865  -4.895  1.00 20.00     0.010 C 
HETATM    6  C6  UNL     1     -33.239  15.510  -5.597  1.00 20.00    -0.014 C 
HETATM    7  C2  UNL     1     -34.585  15.013  -6.148  1.00 20.00     0.005 C 
HETATM    8  C4  UNL     1     -33.020  14.576  -4.409  1.00 20.00     0.009 C 
HETATM    9  C3  UNL     1     -35.345  14.596  -4.879  1.00 20.00     0.005 C 
HETATM   10  C7  UNL     1     -34.353  14.944  -3.754  1.00 20.00    -0.009 C 
ENDBRANCH   2   4
TORSDOF 1
ENDMDL
MODEL 8
REMARK VINA RESULT:      -4.0     11.830     12.738
REMARK  1 active torsions:
REMARK  status: ('A' for Active; 'I' for Inactive)
REMARK    1  A    between atoms: C8_8  and  C9_9 
ROOT
HETATM    1  C1  UNL     1     -37.377  14.017  -5.195  1.00 20.00     0.059 C 
HETATM    2  C9  UNL     1     -35.951  13.826  -5.421  1.00 20.00     0.129 C 
HETATM    3  N10 UNL     1     -38.519  14.139  -5.021  1.00 20.00    -0.197 NA
ENDROOT
BRANCH   2   4
HETATM    4  C8  UNL     1     -35.347  15.209  -5.203  1.00 20.00     0.003 C 
HETATM    5  C5  UNL     1     -35.320  15.608  -3.712  1.00 20.00     0.010 C 
HETATM    6  C6  UNL     1     -33.833  15.927  -3.464  1.00 20.00    -0.014 C 
HETATM    7  C2  UNL     1     -33.461  17.214  -4.217  1.00 20.00     0.005 C 
HETATM    8  C4  UNL     1     -33.142  14.857  -4.307  1.00 20.00     0.009 C 
HETATM    9  C3  UNL     1     -33.446  16.764  -5.686  1.00 20.00     0.005 C 
HETATM   10  C7  UNL     1     -33.851  15.281  -5.595  1.00 20.00    -0.009 C 
ENDBRANCH   2   4
TORSDOF 1
ENDMDL
MODEL 9
REMARK VINA RESULT:      -4.0     11.318     12.632
REMARK  1 active torsions:
REMARK  status: ('A' for Active; 'I' for Inactive)
REMARK    1  A    between atoms: C8_8  and  C9_9 
ROOT
HETATM    1  C1  UNL     1     -34.740  13.305  -7.164  1.00 20.00     0.059 C 
HETATM    2  C9  UNL     1     -34.111  14.600  -7.390  1.00 20.00     0.129 C 
HETATM    3  N10 UNL     1     -35.231  12.264  -7.012  1.00 20.00    -0.197 NA
ENDROOT
BRANCH   2   4
HETATM    4  C8  UNL     1     -34.429  15.398  -6.130  1.00 20.00     0.003 C 
HETATM    5  C5  UNL     1     -35.198  14.561  -5.085  1.00 20.00     0.010 C 
HETATM    6  C6  UNL     1     -34.315  14.674  -3.829  1.00 20.00    -0.014 C 
HETATM    7  C2  UNL     1     -34.379  16.115  -3.295  1.00 20.00     0.005 C 
HETATM    8  C4  UNL     1     -32.912  14.623  -4.430  1.00 20.00     0.009 C 
HETATM    9  C3  UNL     1     -33.560  16.903  -4.329  1.00 20.00     0.005 C 
HETATM   10  C7  UNL     1     -33.161  15.821  -5.349  1.00 20.00    -0.009 C 
ENDBRANCH   2   4
TORSDOF 1
ENDMDL
