MODEL 1
REMARK VINA RESULT:      -3.8      0.000      0.000
REMARK  1 active torsions:
REMARK  status: ('A' for Active; 'I' for Inactive)
REMARK    1  A    between atoms: C2_2  and  C3_3 
ROOT
HETATM    1  C3  UNL     1     -34.213   5.847   4.179  1.00 20.00     0.216 C 
HETATM    2 CL5  UNL     1     -34.120   4.087   4.537  1.00 20.00    -0.081 Cl
HETATM    3 CL6  UNL     1     -34.064   6.742   5.732  1.00 20.00    -0.081 Cl
HETATM    4 CL7  UNL     1     -35.838   6.191   3.491  1.00 20.00    -0.081 Cl
ENDROOT
BRANCH   1   5
HETATM    5  C2  UNL     1     -33.141   6.250   3.232  1.00 20.00     0.199 A 
HETATM    6  C1  UNL     1     -33.166   7.591   2.553  1.00 20.00     0.204 A 
HETATM    7  O4  UNL     1     -32.321   7.332   3.686  1.00 20.00    -0.377 OA
ENDBRANCH   1   5
TORSDOF 1
ENDMDL
MODEL 2
REMARK VINA RESULT:      -3.8      0.003      1.906
REMARK  1 active torsions:
REMARK  status: ('A' for Active; 'I' for Inactive)
REMARK    1  A    between atoms: C2_2  and  C3_3 
ROOT
HETATM    1  C3  UNL     1     -34.214   5.846   4.178  1.00 20.00     0.216 C 
HETATM    2 CL5  UNL     1     -35.840   6.190   3.491  1.00 20.00    -0.081 Cl
HETATM    3 CL6  UNL     1     -34.120   4.087   4.536  1.00 20.00    -0.081 Cl
HETATM    4 CL7  UNL     1     -34.064   6.741   5.730  1.00 20.00    -0.081 Cl
ENDROOT
BRANCH   1   5
HETATM    5  C2  UNL     1     -33.144   6.250   3.229  1.00 20.00     0.199 A 
HETATM    6  C1  UNL     1     -33.167   7.593   2.554  1.00 20.00     0.204 A 
HETATM    7  O4  UNL     1     -32.320   7.329   3.685  1.00 20.00    -0.377 OA
ENDBRANCH   1   5
TORSDOF 1
ENDMDL
MODEL 3
REMARK VINA RESULT:      -3.8      0.004      1.906
REMARK  1 active torsions:
REMARK  status: ('A' for Active; 'I' for Inactive)
REMARK    1  A    between atoms: C2_2  and  C3_3 
ROOT
HETATM    1  C3  UNL     1     -34.214   5.847   4.177  1.00 20.00     0.216 C 
HETATM    2 CL5  UNL     1     -34.064   6.741   5.730  1.00 20.00    -0.081 Cl
HETATM    3 CL6  UNL     1     -35.840   6.189   3.491  1.00 20.00    -0.081 Cl
HETATM    4 CL7  UNL     1     -34.119   4.087   4.536  1.00 20.00    -0.081 Cl
ENDROOT
BRANCH   1   5
HETATM    5  C2  UNL     1     -33.144   6.252   3.229  1.00 20.00     0.199 A 
HETATM    6  C1  UNL     1     -33.168   7.596   2.557  1.00 20.00     0.204 A 
HETATM    7  O4  UNL     1     -32.320   7.330   3.686  1.00 20.00    -0.377 OA
ENDBRANCH   1   5
TORSDOF 1
ENDMDL
MODEL 4
REMARK VINA RESULT:      -3.4      2.189      2.880
REMARK  1 active torsions:
REMARK  status: ('A' for Active; 'I' for Inactive)
REMARK    1  A    between atoms: C2_2  and  C3_3 
ROOT
HETATM    1  C3  UNL     1     -33.788   6.196   3.596  1.00 20.00     0.216 C 
HETATM    2 CL5  UNL     1     -33.180   7.681   2.784  1.00 20.00    -0.081 Cl
HETATM    3 CL6  UNL     1     -33.090   4.771   2.749  1.00 20.00    -0.081 Cl
HETATM    4 CL7  UNL     1     -35.575   6.143   3.396  1.00 20.00    -0.081 Cl
ENDROOT
BRANCH   1   5
HETATM    5  C2  UNL     1     -33.417   6.190   5.034  1.00 20.00     0.199 A 
HETATM    6  C1  UNL     1     -33.798   7.326   5.942  1.00 20.00     0.204 A 
HETATM    7  O4  UNL     1     -34.524   6.086   5.935  1.00 20.00    -0.377 OA
ENDBRANCH   1   5
TORSDOF 1
ENDMDL
MODEL 5
REMARK VINA RESULT:      -3.4      2.194      2.821
REMARK  1 active torsions:
REMARK  status: ('A' for Active; 'I' for Inactive)
REMARK    1  A    between atoms: C2_2  and  C3_3 
ROOT
HETATM    1  C3  UNL     1     -33.773   6.201   3.584  1.00 20.00     0.216 C 
HETATM    2 CL5  UNL     1     -35.558   6.159   3.368  1.00 20.00    -0.081 Cl
HETATM    3 CL6  UNL     1     -33.148   7.685   2.783  1.00 20.00    -0.081 Cl
HETATM    4 CL7  UNL     1     -33.075   4.776   2.739  1.00 20.00    -0.081 Cl
ENDROOT
BRANCH   1   5
HETATM    5  C2  UNL     1     -33.415   6.189   5.026  1.00 20.00     0.199 A 
HETATM    6  C1  UNL     1     -33.815   7.315   5.937  1.00 20.00     0.204 A 
HETATM    7  O4  UNL     1     -34.530   6.069   5.915  1.00 20.00    -0.377 OA
ENDBRANCH   1   5
TORSDOF 1
ENDMDL
MODEL 6
REMARK VINA RESULT:      -3.4      2.193      2.676
REMARK  1 active torsions:
REMARK  status: ('A' for Active; 'I' for Inactive)
REMARK    1  A    between atoms: C2_2  and  C3_3 
ROOT
HETATM    1  C3  UNL     1     -33.780   6.206   3.589  1.00 20.00     0.216 C 
HETATM    2 CL5  UNL     1     -33.075   4.786   2.740  1.00 20.00    -0.081 Cl
HETATM    3 CL6  UNL     1     -35.565   6.149   3.385  1.00 20.00    -0.081 Cl
HETATM    4 CL7  UNL     1     -33.174   7.694   2.781  1.00 20.00    -0.081 Cl
ENDROOT
BRANCH   1   5
HETATM    5  C2  UNL     1     -33.411   6.198   5.028  1.00 20.00     0.199 A 
HETATM    6  C1  UNL     1     -33.806   7.326   5.939  1.00 20.00     0.204 A 
HETATM    7  O4  UNL     1     -34.520   6.079   5.926  1.00 20.00    -0.377 OA
ENDBRANCH   1   5
TORSDOF 1
ENDMDL
MODEL 7
REMARK VINA RESULT:      -3.3     11.944     12.718
REMARK  1 active torsions:
REMARK  status: ('A' for Active; 'I' for Inactive)
REMARK    1  A    between atoms: C2_2  and  C3_3 
ROOT
HETATM    1  C3  UNL     1     -34.359  14.641  -5.438  1.00 20.00     0.216 C 
HETATM    2 CL5  UNL     1     -32.832  14.511  -4.496  1.00 20.00    -0.081 Cl
HETATM    3 CL6  UNL     1     -34.106  13.836  -7.025  1.00 20.00    -0.081 Cl
HETATM    4 CL7  UNL     1     -34.680  16.384  -5.741  1.00 20.00    -0.081 Cl
ENDROOT
BRANCH   1   5
HETATM    5  C2  UNL     1     -35.488  14.015  -4.702  1.00 20.00     0.199 A 
HETATM    6  C1  UNL     1     -36.851  13.896  -5.323  1.00 20.00     0.204 A 
HETATM    7  O4  UNL     1     -35.949  12.780  -5.258  1.00 20.00    -0.377 OA
ENDBRANCH   1   5
TORSDOF 1
ENDMDL
MODEL 8
REMARK VINA RESULT:      -3.3     11.922     12.706
REMARK  1 active torsions:
REMARK  status: ('A' for Active; 'I' for Inactive)
REMARK    1  A    between atoms: C2_2  and  C3_3 
ROOT
HETATM    1  C3  UNL     1     -34.361  14.623  -5.428  1.00 20.00     0.216 C 
HETATM    2 CL5  UNL     1     -34.109  13.804  -7.010  1.00 20.00    -0.081 Cl
HETATM    3 CL6  UNL     1     -34.639  16.371  -5.742  1.00 20.00    -0.081 Cl
HETATM    4 CL7  UNL     1     -32.848  14.462  -4.471  1.00 20.00    -0.081 Cl
ENDROOT
BRANCH   1   5
HETATM    5  C2  UNL     1     -35.512  14.026  -4.702  1.00 20.00     0.199 A 
HETATM    6  C1  UNL     1     -36.862  13.902  -5.352  1.00 20.00     0.204 A 
HETATM    7  O4  UNL     1     -35.971  12.780  -5.236  1.00 20.00    -0.377 OA
ENDBRANCH   1   5
TORSDOF 1
ENDMDL
MODEL 9
REMARK VINA RESULT:      -3.3     11.954     12.727
REMARK  1 active torsions:
REMARK  status: ('A' for Active; 'I' for Inactive)
REMARK    1  A    between atoms: C2_2  and  C3_3 
ROOT
HETATM    1  C3  UNL     1     -34.372  14.628  -5.460  1.00 20.00     0.216 C 
HETATM    2 CL5  UNL     1     -34.673  16.365  -5.814  1.00 20.00    -0.081 Cl
HETATM    3 CL6  UNL     1     -32.855  14.507  -4.504  1.00 20.00    -0.081 Cl
HETATM    4 CL7  UNL     1     -34.115  13.777  -7.023  1.00 20.00    -0.081 Cl
ENDROOT
BRANCH   1   5
HETATM    5  C2  UNL     1     -35.514  14.036  -4.717  1.00 20.00     0.199 A 
HETATM    6  C1  UNL     1     -36.870  13.900  -5.351  1.00 20.00     0.204 A 
HETATM    7  O4  UNL     1     -35.975  12.783  -5.233  1.00 20.00    -0.377 OA
ENDBRANCH   1   5
TORSDOF 1
ENDMDL
