MODEL 1
REMARK VINA RESULT:      -4.3      0.000      0.000
REMARK  0 active torsions:
REMARK  status: ('A' for Active; 'I' for Inactive)
ROOT
HETATM    1  C1  UNL     1     -36.767  16.162  -3.857  1.00 20.00     0.018 C 
HETATM    2  C2  UNL     1     -33.272  15.156  -4.401  1.00 20.00     0.018 C 
HETATM    3  C3  UNL     1     -35.762  16.487  -2.747  1.00 20.00     0.022 C 
HETATM    4  C4  UNL     1     -34.303  14.059  -4.126  1.00 20.00     0.022 C 
HETATM    5  C5  UNL     1     -36.205  15.539  -5.143  1.00 20.00     0.066 C 
HETATM    6  C6  UNL     1     -33.803  16.597  -4.480  1.00 20.00     0.066 C 
HETATM    7  C7  UNL     1     -34.477  17.175  -3.223  1.00 20.00     0.096 C 
HETATM    8  C8  UNL     1     -35.594  14.136  -4.954  1.00 20.00     0.096 C 
HETATM    9  S9  UNL     1     -34.991  16.694  -5.851  1.00 20.00    -0.156 SA
HETATM   10 CL10 UNL     1     -33.310  17.240  -1.859  1.00 20.00    -0.124 Cl
HETATM   11 CL11 UNL     1     -35.297  13.381  -6.568  1.00 20.00    -0.124 Cl
ENDROOT
TORSDOF 0
ENDMDL
MODEL 2
REMARK VINA RESULT:      -4.3      1.090      1.203
REMARK  0 active torsions:
REMARK  status: ('A' for Active; 'I' for Inactive)
ROOT
HETATM    1  C1  UNL     1     -36.036  16.813  -5.564  1.00 20.00     0.018 C 
HETATM    2  C2  UNL     1     -33.558  14.383  -4.346  1.00 20.00     0.018 C 
HETATM    3  C3  UNL     1     -35.514  16.999  -4.136  1.00 20.00     0.022 C 
HETATM    4  C4  UNL     1     -35.005  13.913  -4.517  1.00 20.00     0.022 C 
HETATM    5  C5  UNL     1     -35.400  15.689  -6.396  1.00 20.00     0.066 C 
HETATM    6  C6  UNL     1     -33.252  15.833  -4.755  1.00 20.00     0.066 C 
HETATM    7  C7  UNL     1     -33.987  16.954  -3.998  1.00 20.00     0.096 C 
HETATM    8  C8  UNL     1     -35.667  14.270  -5.855  1.00 20.00     0.096 C 
HETATM    9  S9  UNL     1     -33.616  16.018  -6.525  1.00 20.00    -0.156 SA
HETATM   10 CL10 UNL     1     -33.559  16.918  -2.254  1.00 20.00    -0.124 Cl
HETATM   11 CL11 UNL     1     -35.178  13.047  -7.092  1.00 20.00    -0.124 Cl
ENDROOT
TORSDOF 0
ENDMDL
MODEL 3
REMARK VINA RESULT:      -4.2      1.368      3.855
REMARK  0 active torsions:
REMARK  status: ('A' for Active; 'I' for Inactive)
ROOT
HETATM    1  C1  UNL     1     -34.950  16.954  -6.246  1.00 20.00     0.018 C 
HETATM    2  C2  UNL     1     -34.392  13.978  -4.159  1.00 20.00     0.018 C 
HETATM    3  C3  UNL     1     -34.771  15.615  -6.967  1.00 20.00     0.022 C 
HETATM    4  C4  UNL     1     -33.260  15.002  -4.272  1.00 20.00     0.022 C 
HETATM    5  C5  UNL     1     -34.985  16.918  -4.710  1.00 20.00     0.066 C 
HETATM    6  C6  UNL     1     -35.700  14.313  -4.893  1.00 20.00     0.066 C 
HETATM    7  C7  UNL     1     -35.635  14.470  -6.424  1.00 20.00     0.096 C 
HETATM    8  C8  UNL     1     -33.663  16.467  -4.057  1.00 20.00     0.096 C 
HETATM    9  S9  UNL     1     -36.368  15.853  -4.198  1.00 20.00    -0.156 SA
HETATM   10 CL10 UNL     1     -35.115  12.932  -7.190  1.00 20.00    -0.124 Cl
HETATM   11 CL11 UNL     1     -33.720  16.802  -2.282  1.00 20.00    -0.124 Cl
ENDROOT
TORSDOF 0
ENDMDL
MODEL 4
REMARK VINA RESULT:      -4.1      1.257      3.875
REMARK  0 active torsions:
REMARK  status: ('A' for Active; 'I' for Inactive)
ROOT
HETATM    1  C1  UNL     1     -33.640  14.510  -4.441  1.00 20.00     0.018 C 
HETATM    2  C2  UNL     1     -36.202  16.999  -3.563  1.00 20.00     0.018 C 
HETATM    3  C3  UNL     1     -35.101  14.050  -4.459  1.00 20.00     0.022 C 
HETATM    4  C4  UNL     1     -35.304  16.465  -2.446  1.00 20.00     0.022 C 
HETATM    5  C5  UNL     1     -33.384  15.999  -4.159  1.00 20.00     0.066 C 
HETATM    6  C6  UNL     1     -35.917  16.482  -4.983  1.00 20.00     0.066 C 
HETATM    7  C7  UNL     1     -36.057  14.969  -5.229  1.00 20.00     0.096 C 
HETATM    8  C8  UNL     1     -33.799  16.458  -2.747  1.00 20.00     0.096 C 
HETATM    9  S9  UNL     1     -34.230  16.973  -5.442  1.00 20.00    -0.156 SA
HETATM   10 CL10 UNL     1     -37.746  14.439  -4.930  1.00 20.00    -0.124 Cl
HETATM   11 CL11 UNL     1     -33.132  18.106  -2.425  1.00 20.00    -0.124 Cl
ENDROOT
TORSDOF 0
ENDMDL
MODEL 5
REMARK VINA RESULT:      -3.9      1.340      3.872
REMARK  0 active torsions:
REMARK  status: ('A' for Active; 'I' for Inactive)
ROOT
HETATM    1  C1  UNL     1     -34.426  14.019  -4.188  1.00 20.00     0.018 C 
HETATM    2  C2  UNL     1     -35.912  17.355  -4.627  1.00 20.00     0.018 C 
HETATM    3  C3  UNL     1     -35.788  14.095  -4.884  1.00 20.00     0.022 C 
HETATM    4  C4  UNL     1     -35.868  16.766  -3.216  1.00 20.00     0.022 C 
HETATM    5  C5  UNL     1     -33.754  15.354  -3.829  1.00 20.00     0.066 C 
HETATM    6  C6  UNL     1     -35.274  16.514  -5.745  1.00 20.00     0.066 C 
HETATM    7  C7  UNL     1     -35.876  15.123  -6.019  1.00 20.00     0.096 C 
HETATM    8  C8  UNL     1     -34.516  16.185  -2.778  1.00 20.00     0.096 C 
HETATM    9  S9  UNL     1     -33.511  16.299  -5.364  1.00 20.00    -0.156 SA
HETATM   10 CL10 UNL     1     -37.588  15.272  -6.540  1.00 20.00    -0.124 Cl
HETATM   11 CL11 UNL     1     -33.464  17.533  -2.193  1.00 20.00    -0.124 Cl
ENDROOT
TORSDOF 0
ENDMDL
MODEL 6
REMARK VINA RESULT:      -3.9      1.649      3.652
REMARK  0 active torsions:
REMARK  status: ('A' for Active; 'I' for Inactive)
ROOT
HETATM    1  C1  UNL     1     -35.545  17.758  -5.406  1.00 20.00     0.018 C 
HETATM    2  C2  UNL     1     -34.393  14.551  -4.023  1.00 20.00     0.018 C 
HETATM    3  C3  UNL     1     -34.781  16.822  -6.347  1.00 20.00     0.022 C 
HETATM    4  C4  UNL     1     -33.686  15.829  -3.565  1.00 20.00     0.022 C 
HETATM    5  C5  UNL     1     -35.853  17.228  -3.998  1.00 20.00     0.066 C 
HETATM    6  C6  UNL     1     -35.573  14.726  -4.992  1.00 20.00     0.066 C 
HETATM    7  C7  UNL     1     -35.280  15.372  -6.359  1.00 20.00     0.096 C 
HETATM    8  C8  UNL     1     -34.605  16.978  -3.127  1.00 20.00     0.096 C 
HETATM    9  S9  UNL     1     -36.851  15.717  -4.165  1.00 20.00    -0.156 SA
HETATM   10 CL10 UNL     1     -34.124  14.364  -7.294  1.00 20.00    -0.124 Cl
HETATM   11 CL11 UNL     1     -35.107  16.702  -1.413  1.00 20.00    -0.124 Cl
ENDROOT
TORSDOF 0
ENDMDL
MODEL 7
REMARK VINA RESULT:      -3.9      1.808      2.404
REMARK  0 active torsions:
REMARK  status: ('A' for Active; 'I' for Inactive)
ROOT
HETATM    1  C1  UNL     1     -34.332  14.264  -4.061  1.00 20.00     0.018 C 
HETATM    2  C2  UNL     1     -34.640  16.541  -6.933  1.00 20.00     0.018 C 
HETATM    3  C3  UNL     1     -33.580  15.596  -3.985  1.00 20.00     0.022 C 
HETATM    4  C4  UNL     1     -33.811  15.267  -7.109  1.00 20.00     0.022 C 
HETATM    5  C5  UNL     1     -35.233  14.044  -5.286  1.00 20.00     0.066 C 
HETATM    6  C6  UNL     1     -35.326  16.734  -5.571  1.00 20.00     0.066 C 
HETATM    7  C7  UNL     1     -34.421  16.832  -4.329  1.00 20.00     0.096 C 
HETATM    8  C8  UNL     1     -34.474  13.969  -6.626  1.00 20.00     0.096 C 
HETATM    9  S9  UNL     1     -36.487  15.361  -5.314  1.00 20.00    -0.156 SA
HETATM   10 CL10 UNL     1     -33.339  18.259  -4.452  1.00 20.00    -0.124 Cl
HETATM   11 CL11 UNL     1     -35.582  13.364  -7.918  1.00 20.00    -0.124 Cl
ENDROOT
TORSDOF 0
ENDMDL
MODEL 8
REMARK VINA RESULT:      -3.8      2.091      2.988
REMARK  0 active torsions:
REMARK  status: ('A' for Active; 'I' for Inactive)
ROOT
HETATM    1  C1  UNL     1     -33.966  14.987  -3.806  1.00 20.00     0.018 C 
HETATM    2  C2  UNL     1     -36.376  16.167  -6.321  1.00 20.00     0.018 C 
HETATM    3  C3  UNL     1     -34.908  16.123  -3.397  1.00 20.00     0.022 C 
HETATM    4  C4  UNL     1     -34.898  16.507  -6.524  1.00 20.00     0.022 C 
HETATM    5  C5  UNL     1     -34.183  14.370  -5.196  1.00 20.00     0.066 C 
HETATM    6  C6  UNL     1     -36.722  15.304  -5.097  1.00 20.00     0.066 C 
HETATM    7  C7  UNL     1     -36.389  15.876  -3.707  1.00 20.00     0.096 C 
HETATM    8  C8  UNL     1     -33.917  15.337  -6.367  1.00 20.00     0.096 C 
HETATM    9  S9  UNL     1     -35.875  13.706  -5.265  1.00 20.00    -0.156 SA
HETATM   10 CL10 UNL     1     -37.307  17.392  -3.417  1.00 20.00    -0.124 Cl
HETATM   11 CL11 UNL     1     -33.862  14.411  -7.918  1.00 20.00    -0.124 Cl
ENDROOT
TORSDOF 0
ENDMDL
MODEL 9
REMARK VINA RESULT:      -3.8      1.748      2.515
REMARK  0 active torsions:
REMARK  status: ('A' for Active; 'I' for Inactive)
ROOT
HETATM    1  C1  UNL     1     -33.637  17.298  -5.647  1.00 20.00     0.018 C 
HETATM    2  C2  UNL     1     -35.606  14.387  -4.563  1.00 20.00     0.018 C 
HETATM    3  C3  UNL     1     -34.643  17.514  -4.513  1.00 20.00     0.022 C 
HETATM    4  C4  UNL     1     -35.927  15.007  -5.925  1.00 20.00     0.022 C 
HETATM    5  C5  UNL     1     -33.465  15.859  -6.159  1.00 20.00     0.066 C 
HETATM    6  C6  UNL     1     -34.438  15.009  -3.781  1.00 20.00     0.066 C 
HETATM    7  C7  UNL     1     -34.563  16.489  -3.376  1.00 20.00     0.096 C 
HETATM    8  C8  UNL     1     -34.721  15.273  -6.836  1.00 20.00     0.096 C 
HETATM    9  S9  UNL     1     -32.924  14.821  -4.767  1.00 20.00    -0.156 SA
HETATM   10 CL10 UNL     1     -35.965  16.723  -2.278  1.00 20.00    -0.124 Cl
HETATM   11 CL11 UNL     1     -34.289  13.743  -7.693  1.00 20.00    -0.124 Cl
ENDROOT
TORSDOF 0
ENDMDL
