MODEL 1
REMARK VINA RESULT:      -4.4      0.000      0.000
REMARK  1 active torsions:
REMARK  status: ('A' for Active; 'I' for Inactive)
REMARK    1  A    between atoms: C8_8  and  O10_10 
ROOT
HETATM    1  C1  UNL     1     -33.703  16.781  -5.109  1.00 20.00     0.005 C 
HETATM    2  C2  UNL     1     -34.847  15.869  -3.077  1.00 20.00     0.005 C 
HETATM    3  C3  UNL     1     -34.993  16.574  -5.913  1.00 20.00     0.008 C 
HETATM    4  C4  UNL     1     -36.123  15.658  -3.902  1.00 20.00     0.008 C 
HETATM    5  C5  UNL     1     -33.576  14.334  -4.595  1.00 20.00     0.042 C 
HETATM    6  C6  UNL     1     -33.605  15.745  -3.975  1.00 20.00    -0.012 C 
HETATM    7  C7  UNL     1     -35.759  15.353  -5.372  1.00 20.00     0.019 C 
HETATM    8  C8  UNL     1     -34.861  14.086  -5.422  1.00 20.00     0.058 C 
HETATM    9  C9  UNL     1     -34.522  13.654  -6.851  1.00 20.00     0.046 C 
ENDROOT
BRANCH   8  10
HETATM   10  O10 UNL     1     -35.566  12.992  -4.822  1.00 20.00    -0.390 OA
HETATM   11  H26 UNL     1     -35.755  13.261  -3.912  1.00 20.00     0.210 HD
ENDBRANCH   8  10
TORSDOF 1
ENDMDL
MODEL 2
REMARK VINA RESULT:      -4.4      1.407      3.151
REMARK  1 active torsions:
REMARK  status: ('A' for Active; 'I' for Inactive)
REMARK    1  A    between atoms: C8_8  and  O10_10 
ROOT
HETATM    1  C1  UNL     1     -35.014  16.218  -7.146  1.00 20.00     0.005 C 
HETATM    2  C2  UNL     1     -36.580  14.422  -7.917  1.00 20.00     0.005 C 
HETATM    3  C3  UNL     1     -33.893  15.175  -7.035  1.00 20.00     0.008 C 
HETATM    4  C4  UNL     1     -35.449  13.393  -7.787  1.00 20.00     0.008 C 
HETATM    5  C5  UNL     1     -36.403  14.969  -5.479  1.00 20.00     0.042 C 
HETATM    6  C6  UNL     1     -36.384  15.561  -6.902  1.00 20.00    -0.012 C 
HETATM    7  C7  UNL     1     -34.486  13.807  -6.652  1.00 20.00     0.019 C 
HETATM    8  C8  UNL     1     -35.281  13.914  -5.322  1.00 20.00     0.058 C 
HETATM    9  C9  UNL     1     -34.388  14.234  -4.120  1.00 20.00     0.046 C 
ENDROOT
BRANCH   8  10
HETATM   10  O10 UNL     1     -35.900  12.652  -5.046  1.00 20.00    -0.390 OA
HETATM   11  H26 UNL     1     -36.491  12.474  -5.792  1.00 20.00     0.210 HD
ENDBRANCH   8  10
TORSDOF 1
ENDMDL
MODEL 3
REMARK VINA RESULT:      -4.4      1.124      1.801
REMARK  1 active torsions:
REMARK  status: ('A' for Active; 'I' for Inactive)
REMARK    1  A    between atoms: C8_8  and  O10_10 
ROOT
HETATM    1  C1  UNL     1     -34.288  16.545  -6.117  1.00 20.00     0.005 C 
HETATM    2  C2  UNL     1     -33.118  14.835  -4.711  1.00 20.00     0.005 C 
HETATM    3  C3  UNL     1     -35.459  16.542  -5.125  1.00 20.00     0.008 C 
HETATM    4  C4  UNL     1     -34.305  14.837  -3.738  1.00 20.00     0.008 C 
HETATM    5  C5  UNL     1     -34.616  14.106  -6.582  1.00 20.00     0.042 C 
HETATM    6  C6  UNL     1     -33.595  15.171  -6.134  1.00 20.00    -0.012 C 
HETATM    7  C7  UNL     1     -35.613  15.143  -4.500  1.00 20.00     0.019 C 
HETATM    8  C8  UNL     1     -35.819  14.075  -5.609  1.00 20.00     0.058 C 
HETATM    9  C9  UNL     1     -37.141  14.246  -6.361  1.00 20.00     0.046 C 
ENDROOT
BRANCH   8  10
HETATM   10  O10 UNL     1     -35.860  12.777  -5.003  1.00 20.00    -0.390 OA
HETATM   11  H26 UNL     1     -36.751  12.679  -4.639  1.00 20.00     0.210 HD
ENDBRANCH   8  10
TORSDOF 1
ENDMDL
MODEL 4
REMARK VINA RESULT:      -4.3      1.453      3.131
REMARK  1 active torsions:
REMARK  status: ('A' for Active; 'I' for Inactive)
REMARK    1  A    between atoms: C8_8  and  O10_10 
ROOT
HETATM    1  C1  UNL     1     -36.455  15.270  -6.239  1.00 20.00     0.005 C 
HETATM    2  C2  UNL     1     -35.327  13.175  -7.018  1.00 20.00     0.005 C 
HETATM    3  C3  UNL     1     -35.182  16.062  -6.565  1.00 20.00     0.008 C 
HETATM    4  C4  UNL     1     -34.059  13.982  -7.326  1.00 20.00     0.008 C 
HETATM    5  C5  UNL     1     -35.204  13.841  -4.607  1.00 20.00     0.042 C 
HETATM    6  C6  UNL     1     -36.103  13.821  -5.859  1.00 20.00    -0.012 C 
HETATM    7  C7  UNL     1     -33.942  15.174  -6.349  1.00 20.00     0.019 C 
HETATM    8  C8  UNL     1     -33.908  14.637  -4.892  1.00 20.00     0.058 C 
HETATM    9  C9  UNL     1     -33.702  15.745  -3.855  1.00 20.00     0.046 C 
ENDROOT
BRANCH   8  10
HETATM   10  O10 UNL     1     -32.801  13.739  -4.753  1.00 20.00    -0.390 OA
HETATM   11  H26 UNL     1     -32.824  13.162  -5.529  1.00 20.00     0.210 HD
ENDBRANCH   8  10
TORSDOF 1
ENDMDL
MODEL 5
REMARK VINA RESULT:      -4.1      1.429      3.032
REMARK  1 active torsions:
REMARK  status: ('A' for Active; 'I' for Inactive)
REMARK    1  A    between atoms: C8_8  and  O10_10 
ROOT
HETATM    1  C1  UNL     1     -33.113  15.648  -5.528  1.00 20.00     0.005 C 
HETATM    2  C2  UNL     1     -35.329  14.896  -6.418  1.00 20.00     0.005 C 
HETATM    3  C3  UNL     1     -33.263  14.664  -4.360  1.00 20.00     0.008 C 
HETATM    4  C4  UNL     1     -35.466  13.928  -5.235  1.00 20.00     0.008 C 
HETATM    5  C5  UNL     1     -35.206  16.844  -4.849  1.00 20.00     0.042 C 
HETATM    6  C6  UNL     1     -34.495  16.122  -6.011  1.00 20.00    -0.012 C 
HETATM    7  C7  UNL     1     -34.750  14.506  -3.994  1.00 20.00     0.019 C 
HETATM    8  C8  UNL     1     -35.371  15.886  -3.645  1.00 20.00     0.058 C 
HETATM    9  C9  UNL     1     -34.783  16.497  -2.369  1.00 20.00     0.046 C 
ENDROOT
BRANCH   8  10
HETATM   10  O10 UNL     1     -36.774  15.718  -3.406  1.00 20.00    -0.390 OA
HETATM   11  H26 UNL     1     -37.226  16.253  -4.074  1.00 20.00     0.210 HD
ENDBRANCH   8  10
TORSDOF 1
ENDMDL
MODEL 6
REMARK VINA RESULT:      -4.1      1.182      1.666
REMARK  1 active torsions:
REMARK  status: ('A' for Active; 'I' for Inactive)
REMARK    1  A    between atoms: C8_8  and  O10_10 
ROOT
HETATM    1  C1  UNL     1     -35.219  17.253  -5.643  1.00 20.00     0.005 C 
HETATM    2  C2  UNL     1     -33.642  16.918  -3.727  1.00 20.00     0.005 C 
HETATM    3  C3  UNL     1     -36.028  16.036  -5.175  1.00 20.00     0.008 C 
HETATM    4  C4  UNL     1     -34.457  15.696  -3.282  1.00 20.00     0.008 C 
HETATM    5  C5  UNL     1     -33.174  15.839  -5.939  1.00 20.00     0.042 C 
HETATM    6  C6  UNL     1     -33.739  17.098  -5.252  1.00 20.00    -0.012 C 
HETATM    7  C7  UNL     1     -35.093  15.008  -4.512  1.00 20.00     0.019 C 
HETATM    8  C8  UNL     1     -33.968  14.586  -5.496  1.00 20.00     0.058 C 
HETATM    9  C9  UNL     1     -34.499  13.813  -6.707  1.00 20.00     0.046 C 
ENDROOT
BRANCH   8  10
HETATM   10  O10 UNL     1     -33.061  13.708  -4.818  1.00 20.00    -0.390 OA
HETATM   11  H26 UNL     1     -32.172  14.021  -5.034  1.00 20.00     0.210 HD
ENDBRANCH   8  10
TORSDOF 1
ENDMDL
MODEL 7
REMARK VINA RESULT:      -4.1     11.868     12.841
REMARK  1 active torsions:
REMARK  status: ('A' for Active; 'I' for Inactive)
REMARK    1  A    between atoms: C8_8  and  O10_10 
ROOT
HETATM    1  C1  UNL     1     -43.417   7.549   0.697  1.00 20.00     0.005 C 
HETATM    2  C2  UNL     1     -41.455   7.857  -0.828  1.00 20.00     0.005 C 
HETATM    3  C3  UNL     1     -42.627   6.492   1.480  1.00 20.00     0.008 C 
HETATM    4  C4  UNL     1     -40.687   6.788  -0.040  1.00 20.00     0.008 C 
HETATM    5  C5  UNL     1     -43.239   6.195  -1.402  1.00 20.00     0.042 C 
HETATM    6  C6  UNL     1     -42.966   7.576  -0.774  1.00 20.00    -0.012 C 
HETATM    7  C7  UNL     1     -41.671   5.744   0.533  1.00 20.00     0.019 C 
HETATM    8  C8  UNL     1     -42.464   5.096  -0.636  1.00 20.00     0.058 C 
HETATM    9  C9  UNL     1     -43.404   3.981  -0.170  1.00 20.00     0.046 C 
ENDROOT
BRANCH   8  10
HETATM   10  O10 UNL     1     -41.538   4.494  -1.548  1.00 20.00    -0.390 OA
HETATM   11  H26 UNL     1     -42.058   4.221  -2.318  1.00 20.00     0.210 HD
ENDBRANCH   8  10
TORSDOF 1
ENDMDL
MODEL 8
REMARK VINA RESULT:      -3.9      2.065      3.040
REMARK  1 active torsions:
REMARK  status: ('A' for Active; 'I' for Inactive)
REMARK    1  A    between atoms: C8_8  and  O10_10 
ROOT
HETATM    1  C1  UNL     1     -35.661  14.575  -4.242  1.00 20.00     0.005 C 
HETATM    2  C2  UNL     1     -35.254  16.572  -2.787  1.00 20.00     0.005 C 
HETATM    3  C3  UNL     1     -34.148  14.334  -4.314  1.00 20.00     0.008 C 
HETATM    4  C4  UNL     1     -33.743  16.322  -2.882  1.00 20.00     0.008 C 
HETATM    5  C5  UNL     1     -35.396  16.841  -5.274  1.00 20.00     0.042 C 
HETATM    6  C6  UNL     1     -35.958  16.074  -4.060  1.00 20.00    -0.012 C 
HETATM    7  C7  UNL     1     -33.399  15.678  -4.244  1.00 20.00     0.019 C 
HETATM    8  C8  UNL     1     -33.869  16.619  -5.386  1.00 20.00     0.058 C 
HETATM    9  C9  UNL     1     -33.488  16.103  -6.776  1.00 20.00     0.046 C 
ENDROOT
BRANCH   8  10
HETATM   10  O10 UNL     1     -33.227  17.892  -5.234  1.00 20.00    -0.390 OA
HETATM   11  H26 UNL     1     -33.492  18.419  -6.001  1.00 20.00     0.210 HD
ENDBRANCH   8  10
TORSDOF 1
ENDMDL
MODEL 9
REMARK VINA RESULT:      -3.9      1.484      2.066
REMARK  1 active torsions:
REMARK  status: ('A' for Active; 'I' for Inactive)
REMARK    1  A    between atoms: C8_8  and  O10_10 
ROOT
HETATM    1  C1  UNL     1     -33.299  14.486  -4.354  1.00 20.00     0.005 C 
HETATM    2  C2  UNL     1     -35.549  15.507  -3.946  1.00 20.00     0.005 C 
HETATM    3  C3  UNL     1     -32.994  15.595  -5.369  1.00 20.00     0.008 C 
HETATM    4  C4  UNL     1     -35.229  16.600  -4.974  1.00 20.00     0.008 C 
HETATM    5  C5  UNL     1     -35.275  13.737  -5.698  1.00 20.00     0.042 C 
HETATM    6  C6  UNL     1     -34.812  14.205  -4.304  1.00 20.00    -0.012 C 
HETATM    7  C7  UNL     1     -34.292  16.040  -6.067  1.00 20.00     0.019 C 
HETATM    8  C8  UNL     1     -34.979  14.829  -6.755  1.00 20.00     0.058 C 
HETATM    9  C9  UNL     1     -34.159  14.262  -7.917  1.00 20.00     0.046 C 
ENDROOT
BRANCH   8  10
HETATM   10  O10 UNL     1     -36.229  15.255  -7.309  1.00 20.00    -0.390 OA
HETATM   11  H26 UNL     1     -36.823  14.493  -7.250  1.00 20.00     0.210 HD
ENDBRANCH   8  10
TORSDOF 1
ENDMDL
