MODEL 1
REMARK VINA RESULT:      -4.5      0.000      0.000
REMARK  0 active torsions:
REMARK  status: ('A' for Active; 'I' for Inactive)
ROOT
HETATM    1  C1  UNL     1     -33.689   7.351   4.045  1.00 20.00     0.066 C 
HETATM    2  C2  UNL     1     -34.972   5.201   4.383  1.00 20.00     0.066 C 
HETATM    3  C3  UNL     1     -33.374   7.308   5.537  1.00 20.00     0.170 C 
HETATM    4  C4  UNL     1     -34.579   5.290   5.854  1.00 20.00     0.170 C 
HETATM    5  C5  UNL     1     -32.988   5.233   2.679  1.00 20.00     0.207 A 
HETATM    6  C6  UNL     1     -33.971   5.959   3.564  1.00 20.00     0.086 A 
HETATM    7  O7  UNL     1     -34.433   6.658   6.253  1.00 20.00    -0.391 OA
HETATM    8  O8  UNL     1     -34.168   5.854   2.149  1.00 20.00    -0.375 OA
ENDROOT
TORSDOF 0
ENDMDL
MODEL 2
REMARK VINA RESULT:      -4.3      1.467      1.865
REMARK  0 active torsions:
REMARK  status: ('A' for Active; 'I' for Inactive)
ROOT
HETATM    1  C1  UNL     1     -34.082   7.391   4.899  1.00 20.00     0.066 C 
HETATM    2  C2  UNL     1     -34.046   5.787   2.947  1.00 20.00     0.066 C 
HETATM    3  C3  UNL     1     -34.156   6.166   5.805  1.00 20.00     0.170 C 
HETATM    4  C4  UNL     1     -34.123   4.660   3.973  1.00 20.00     0.170 C 
HETATM    5  C5  UNL     1     -32.054   7.455   3.247  1.00 20.00     0.207 A 
HETATM    6  C6  UNL     1     -33.449   6.999   3.597  1.00 20.00     0.086 A 
HETATM    7  O7  UNL     1     -34.833   5.091   5.140  1.00 20.00    -0.391 OA
HETATM    8  O8  UNL     1     -33.218   8.093   2.702  1.00 20.00    -0.375 OA
ENDROOT
TORSDOF 0
ENDMDL
MODEL 3
REMARK VINA RESULT:      -4.1      1.655      2.257
REMARK  0 active torsions:
REMARK  status: ('A' for Active; 'I' for Inactive)
ROOT
HETATM    1  C1  UNL     1     -34.138   5.968   3.076  1.00 20.00     0.066 C 
HETATM    2  C2  UNL     1     -34.461   6.250   5.566  1.00 20.00     0.066 C 
HETATM    3  C3  UNL     1     -33.024   7.006   3.181  1.00 20.00     0.170 C 
HETATM    4  C4  UNL     1     -33.329   7.270   5.519  1.00 20.00     0.170 C 
HETATM    5  C5  UNL     1     -33.885   3.877   4.628  1.00 20.00     0.207 A 
HETATM    6  C6  UNL     1     -34.317   5.306   4.410  1.00 20.00     0.086 A 
HETATM    7  O7  UNL     1     -33.297   7.927   4.246  1.00 20.00    -0.391 OA
HETATM    8  O8  UNL     1     -35.260   4.228   4.409  1.00 20.00    -0.375 OA
ENDROOT
TORSDOF 0
ENDMDL
MODEL 4
REMARK VINA RESULT:      -4.1     11.859     13.056
REMARK  0 active torsions:
REMARK  status: ('A' for Active; 'I' for Inactive)
ROOT
HETATM    1  C1  UNL     1     -34.331  14.261  -4.100  1.00 20.00     0.066 C 
HETATM    2  C2  UNL     1     -34.384  14.077  -6.619  1.00 20.00     0.066 C 
HETATM    3  C3  UNL     1     -33.651  15.613  -4.290  1.00 20.00     0.170 C 
HETATM    4  C4  UNL     1     -33.700  15.440  -6.655  1.00 20.00     0.170 C 
HETATM    5  C5  UNL     1     -36.640  13.979  -5.298  1.00 20.00     0.207 A 
HETATM    6  C6  UNL     1     -35.132  13.940  -5.327  1.00 20.00     0.086 A 
HETATM    7  O7  UNL     1     -32.877  15.619  -5.497  1.00 20.00    -0.391 OA
HETATM    8  O8  UNL     1     -35.912  12.743  -5.223  1.00 20.00    -0.375 OA
ENDROOT
TORSDOF 0
ENDMDL
MODEL 5
REMARK VINA RESULT:      -4.1      1.599      2.518
REMARK  0 active torsions:
REMARK  status: ('A' for Active; 'I' for Inactive)
ROOT
HETATM    1  C1  UNL     1     -33.361   5.907   2.925  1.00 20.00     0.066 C 
HETATM    2  C2  UNL     1     -32.729   7.591   4.698  1.00 20.00     0.066 C 
HETATM    3  C3  UNL     1     -34.628   5.646   3.734  1.00 20.00     0.170 C 
HETATM    4  C4  UNL     1     -34.033   7.226   5.399  1.00 20.00     0.170 C 
HETATM    5  C5  UNL     1     -32.962   8.395   2.220  1.00 20.00     0.207 A 
HETATM    6  C6  UNL     1     -32.857   7.284   3.237  1.00 20.00     0.086 A 
HETATM    7  O7  UNL     1     -34.384   5.864   5.130  1.00 20.00    -0.391 OA
HETATM    8  O8  UNL     1     -31.732   7.691   2.449  1.00 20.00    -0.375 OA
ENDROOT
TORSDOF 0
ENDMDL
MODEL 6
REMARK VINA RESULT:      -3.9      1.713      2.567
REMARK  0 active torsions:
REMARK  status: ('A' for Active; 'I' for Inactive)
ROOT
HETATM    1  C1  UNL     1     -33.681   6.577   5.425  1.00 20.00     0.066 C 
HETATM    2  C2  UNL     1     -33.091   6.045   3.027  1.00 20.00     0.066 C 
HETATM    3  C3  UNL     1     -33.116   7.972   5.174  1.00 20.00     0.170 C 
HETATM    4  C4  UNL     1     -32.561   7.471   2.923  1.00 20.00     0.170 C 
HETATM    5  C5  UNL     1     -35.581   5.816   3.794  1.00 20.00     0.207 A 
HETATM    6  C6  UNL     1     -34.116   5.983   4.118  1.00 20.00     0.086 A 
HETATM    7  O7  UNL     1     -32.072   7.919   4.193  1.00 20.00    -0.391 OA
HETATM    8  O8  UNL     1     -34.773   4.716   4.238  1.00 20.00    -0.375 OA
ENDROOT
TORSDOF 0
ENDMDL
MODEL 7
REMARK VINA RESULT:      -3.6     11.795     12.604
REMARK  0 active torsions:
REMARK  status: ('A' for Active; 'I' for Inactive)
ROOT
HETATM    1  C1  UNL     1     -36.702  14.891  -4.518  1.00 20.00     0.066 C 
HETATM    2  C2  UNL     1     -34.321  14.159  -4.095  1.00 20.00     0.066 C 
HETATM    3  C3  UNL     1     -36.213  16.324  -4.331  1.00 20.00     0.170 C 
HETATM    4  C4  UNL     1     -33.979  15.636  -3.933  1.00 20.00     0.170 C 
HETATM    5  C5  UNL     1     -35.461  13.504  -6.357  1.00 20.00     0.207 A 
HETATM    6  C6  UNL     1     -35.549  14.033  -4.946  1.00 20.00     0.086 A 
HETATM    7  O7  UNL     1     -35.104  16.360  -3.422  1.00 20.00    -0.391 OA
HETATM    8  O8  UNL     1     -35.907  12.684  -5.267  1.00 20.00    -0.375 OA
ENDROOT
TORSDOF 0
ENDMDL
MODEL 8
REMARK VINA RESULT:      -3.6     12.387     13.571
REMARK  0 active torsions:
REMARK  status: ('A' for Active; 'I' for Inactive)
ROOT
HETATM    1  C1  UNL     1     -34.047  14.070  -7.227  1.00 20.00     0.066 C 
HETATM    2  C2  UNL     1     -34.508  14.423  -4.768  1.00 20.00     0.066 C 
HETATM    3  C3  UNL     1     -35.324  13.237  -7.268  1.00 20.00     0.170 C 
HETATM    4  C4  UNL     1     -35.756  13.567  -4.959  1.00 20.00     0.170 C 
HETATM    5  C5  UNL     1     -34.319  16.513  -6.329  1.00 20.00     0.207 A 
HETATM    6  C6  UNL     1     -34.129  15.036  -6.082  1.00 20.00     0.086 A 
HETATM    7  O7  UNL     1     -35.550  12.606  -6.001  1.00 20.00    -0.391 OA
HETATM    8  O8  UNL     1     -33.035  15.956  -6.009  1.00 20.00    -0.375 OA
ENDROOT
TORSDOF 0
ENDMDL
MODEL 9
REMARK VINA RESULT:      -3.5      1.163      3.134
REMARK  0 active torsions:
REMARK  status: ('A' for Active; 'I' for Inactive)
ROOT
HETATM    1  C1  UNL     1     -34.848   5.420   4.998  1.00 20.00     0.066 C 
HETATM    2  C2  UNL     1     -33.506   6.564   3.189  1.00 20.00     0.066 C 
HETATM    3  C3  UNL     1     -34.188   4.118   4.558  1.00 20.00     0.170 C 
HETATM    4  C4  UNL     1     -32.929   5.191   2.858  1.00 20.00     0.170 C 
HETATM    5  C5  UNL     1     -33.211   7.349   5.666  1.00 20.00     0.207 A 
HETATM    6  C6  UNL     1     -33.965   6.570   4.616  1.00 20.00     0.086 A 
HETATM    7  O7  UNL     1     -33.879   4.161   3.159  1.00 20.00    -0.391 OA
HETATM    8  O8  UNL     1     -34.424   7.845   5.080  1.00 20.00    -0.375 OA
ENDROOT
TORSDOF 0
ENDMDL
