MODEL 1
REMARK VINA RESULT:      -5.7      0.000      0.000
REMARK  2 active torsions:
REMARK  status: ('A' for Active; 'I' for Inactive)
REMARK    1  A    between atoms: C1_1  and  C2_2 
REMARK    2  A    between atoms: C2_2  and  C3_3 
ROOT
HETATM    1  C2  UNL     1     -34.659   5.987   4.117  1.00 20.00     0.428 C 
HETATM    2  F6  UNL     1     -34.466   6.998   5.003  1.00 20.00    -0.184 F 
HETATM    3  F7  UNL     1     -35.944   6.087   3.689  1.00 20.00    -0.184 F 
ENDROOT
BRANCH   1   4
HETATM    4  C1  UNL     1     -34.408   4.661   4.767  1.00 20.00     0.379 C 
HETATM    5  O4  UNL     1     -34.383   3.587   4.187  1.00 20.00    -0.253 OA
HETATM    6  F5  UNL     1     -34.159   4.654   6.084  1.00 20.00    -0.157 F 
ENDBRANCH   1   4
BRANCH   1   7
HETATM    7  C3  UNL     1     -33.735   6.188   2.943  1.00 20.00     0.465 C 
HETATM    8  F8  UNL     1     -33.330   7.475   2.872  1.00 20.00    -0.165 F 
HETATM    9  F9  UNL     1     -34.347   5.885   1.779  1.00 20.00    -0.165 F 
HETATM   10  F10 UNL     1     -32.632   5.415   3.047  1.00 20.00    -0.165 F 
ENDBRANCH   1   7
TORSDOF 2
ENDMDL
MODEL 2
REMARK VINA RESULT:      -5.7      1.797      3.200
REMARK  2 active torsions:
REMARK  status: ('A' for Active; 'I' for Inactive)
REMARK    1  A    between atoms: C1_1  and  C2_2 
REMARK    2  A    between atoms: C2_2  and  C3_3 
ROOT
HETATM    1  C2  UNL     1     -33.693   5.793   3.031  1.00 20.00     0.428 C 
HETATM    2  F6  UNL     1     -32.679   4.922   2.787  1.00 20.00    -0.184 F 
HETATM    3  F7  UNL     1     -34.449   5.835   1.902  1.00 20.00    -0.184 F 
ENDROOT
BRANCH   1   4
HETATM    4  C1  UNL     1     -33.154   7.149   3.369  1.00 20.00     0.379 C 
HETATM    5  O4  UNL     1     -31.987   7.491   3.253  1.00 20.00    -0.253 OA
HETATM    6  F5  UNL     1     -34.025   8.071   3.801  1.00 20.00    -0.157 F 
ENDBRANCH   1   4
BRANCH   1   7
HETATM    7  C3  UNL     1     -34.532   5.255   4.161  1.00 20.00     0.465 C 
HETATM    8  F8  UNL     1     -35.817   5.650   4.030  1.00 20.00    -0.165 F 
HETATM    9  F9  UNL     1     -34.087   5.698   5.357  1.00 20.00    -0.165 F 
HETATM   10  F10 UNL     1     -34.518   3.905   4.185  1.00 20.00    -0.165 F 
ENDBRANCH   1   7
TORSDOF 2
ENDMDL
MODEL 3
REMARK VINA RESULT:      -5.7      0.009      1.196
REMARK  2 active torsions:
REMARK  status: ('A' for Active; 'I' for Inactive)
REMARK    1  A    between atoms: C1_1  and  C2_2 
REMARK    2  A    between atoms: C2_2  and  C3_3 
ROOT
HETATM    1  C2  UNL     1     -34.659   5.989   4.122  1.00 20.00     0.428 C 
HETATM    2  F6  UNL     1     -34.472   6.997   5.013  1.00 20.00    -0.184 F 
HETATM    3  F7  UNL     1     -35.942   6.087   3.689  1.00 20.00    -0.184 F 
ENDROOT
BRANCH   1   4
HETATM    4  C1  UNL     1     -34.408   4.661   4.769  1.00 20.00     0.379 C 
HETATM    5  O4  UNL     1     -34.383   3.588   4.185  1.00 20.00    -0.253 OA
HETATM    6  F5  UNL     1     -34.158   4.650   6.085  1.00 20.00    -0.157 F 
ENDBRANCH   1   4
BRANCH   1   7
HETATM    7  C3  UNL     1     -33.730   6.196   2.953  1.00 20.00     0.465 C 
HETATM    8  F8  UNL     1     -34.349   5.885   1.794  1.00 20.00    -0.165 F 
HETATM    9  F9  UNL     1     -32.632   5.418   3.055  1.00 20.00    -0.165 F 
HETATM   10  F10 UNL     1     -33.324   7.481   2.871  1.00 20.00    -0.165 F 
ENDBRANCH   1   7
TORSDOF 2
ENDMDL
MODEL 4
REMARK VINA RESULT:      -5.7      1.579      1.974
REMARK  2 active torsions:
REMARK  status: ('A' for Active; 'I' for Inactive)
REMARK    1  A    between atoms: C1_1  and  C2_2 
REMARK    2  A    between atoms: C2_2  and  C3_3 
ROOT
HETATM    1  C2  UNL     1     -34.678   5.439   4.079  1.00 20.00     0.428 C 
HETATM    2  F6  UNL     1     -35.862   5.957   3.660  1.00 20.00    -0.184 F 
HETATM    3  F7  UNL     1     -34.867   4.100   4.213  1.00 20.00    -0.184 F 
ENDROOT
BRANCH   1   4
HETATM    4  C1  UNL     1     -34.263   6.057   5.379  1.00 20.00     0.379 C 
HETATM    5  O4  UNL     1     -34.150   7.256   5.583  1.00 20.00    -0.253 OA
HETATM    6  F5  UNL     1     -34.030   5.233   6.410  1.00 20.00    -0.157 F 
ENDBRANCH   1   4
BRANCH   1   7
HETATM    7  C3  UNL     1     -33.638   5.683   3.016  1.00 20.00     0.465 C 
HETATM    8  F8  UNL     1     -34.218   6.104   1.871  1.00 20.00    -0.165 F 
HETATM    9  F9  UNL     1     -32.948   4.557   2.737  1.00 20.00    -0.165 F 
HETATM   10  F10 UNL     1     -32.754   6.628   3.401  1.00 20.00    -0.165 F 
ENDBRANCH   1   7
TORSDOF 2
ENDMDL
MODEL 5
REMARK VINA RESULT:      -5.6      1.058      2.255
REMARK  2 active torsions:
REMARK  status: ('A' for Active; 'I' for Inactive)
REMARK    1  A    between atoms: C1_1  and  C2_2 
REMARK    2  A    between atoms: C2_2  and  C3_3 
ROOT
HETATM    1  C2  UNL     1     -33.646   5.747   3.079  1.00 20.00     0.428 C 
HETATM    2  F6  UNL     1     -34.361   6.004   1.953  1.00 20.00    -0.184 F 
HETATM    3  F7  UNL     1     -32.577   4.999   2.698  1.00 20.00    -0.184 F 
ENDROOT
BRANCH   1   4
HETATM    4  C1  UNL     1     -34.485   5.016   4.081  1.00 20.00     0.379 C 
HETATM    5  O4  UNL     1     -34.304   3.864   4.444  1.00 20.00    -0.253 OA
HETATM    6  F5  UNL     1     -35.495   5.688   4.651  1.00 20.00    -0.157 F 
ENDBRANCH   1   4
BRANCH   1   7
HETATM    7  C3  UNL     1     -33.152   7.052   3.648  1.00 20.00     0.465 C 
HETATM    8  F8  UNL     1     -33.960   8.069   3.276  1.00 20.00    -0.165 F 
HETATM    9  F9  UNL     1     -31.907   7.338   3.211  1.00 20.00    -0.165 F 
HETATM   10  F10 UNL     1     -33.123   7.021   4.997  1.00 20.00    -0.165 F 
ENDBRANCH   1   7
TORSDOF 2
ENDMDL
MODEL 6
REMARK VINA RESULT:      -5.6      1.058      2.400
REMARK  2 active torsions:
REMARK  status: ('A' for Active; 'I' for Inactive)
REMARK    1  A    between atoms: C1_1  and  C2_2 
REMARK    2  A    between atoms: C2_2  and  C3_3 
ROOT
HETATM    1  C2  UNL     1     -33.647   5.751   3.070  1.00 20.00     0.428 C 
HETATM    2  F6  UNL     1     -34.358   6.006   1.940  1.00 20.00    -0.184 F 
HETATM    3  F7  UNL     1     -32.577   5.001   2.694  1.00 20.00    -0.184 F 
ENDROOT
BRANCH   1   4
HETATM    4  C1  UNL     1     -34.490   5.023   4.071  1.00 20.00     0.379 C 
HETATM    5  O4  UNL     1     -34.303   3.875   4.445  1.00 20.00    -0.253 OA
HETATM    6  F5  UNL     1     -35.508   5.693   4.626  1.00 20.00    -0.157 F 
ENDBRANCH   1   4
BRANCH   1   7
HETATM    7  C3  UNL     1     -33.153   7.057   3.637  1.00 20.00     0.465 C 
HETATM    8  F8  UNL     1     -31.896   7.315   3.214  1.00 20.00    -0.165 F 
HETATM    9  F9  UNL     1     -33.135   7.030   4.987  1.00 20.00    -0.165 F 
HETATM   10  F10 UNL     1     -33.936   8.087   3.251  1.00 20.00    -0.165 F 
ENDBRANCH   1   7
TORSDOF 2
ENDMDL
MODEL 7
REMARK VINA RESULT:      -5.5      1.599      1.843
REMARK  2 active torsions:
REMARK  status: ('A' for Active; 'I' for Inactive)
REMARK    1  A    between atoms: C1_1  and  C2_2 
REMARK    2  A    between atoms: C2_2  and  C3_3 
ROOT
HETATM    1  C2  UNL     1     -34.565   6.443   3.973  1.00 20.00     0.428 C 
HETATM    2  F6  UNL     1     -34.518   7.759   3.641  1.00 20.00    -0.184 F 
HETATM    3  F7  UNL     1     -35.839   6.030   3.745  1.00 20.00    -0.184 F 
ENDROOT
BRANCH   1   4
HETATM    4  C1  UNL     1     -34.184   6.247   5.408  1.00 20.00     0.379 C 
HETATM    5  O4  UNL     1     -33.593   7.065   6.097  1.00 20.00    -0.253 OA
HETATM    6  F5  UNL     1     -34.549   5.099   5.995  1.00 20.00    -0.157 F 
ENDBRANCH   1   4
BRANCH   1   7
HETATM    7  C3  UNL     1     -33.634   5.680   3.066  1.00 20.00     0.465 C 
HETATM    8  F8  UNL     1     -34.090   5.698   1.794  1.00 20.00    -0.165 F 
HETATM    9  F9  UNL     1     -33.526   4.389   3.445  1.00 20.00    -0.165 F 
HETATM   10  F10 UNL     1     -32.396   6.219   3.066  1.00 20.00    -0.165 F 
ENDBRANCH   1   7
TORSDOF 2
ENDMDL
MODEL 8
REMARK VINA RESULT:      -5.4      1.146      2.196
REMARK  2 active torsions:
REMARK  status: ('A' for Active; 'I' for Inactive)
REMARK    1  A    between atoms: C1_1  and  C2_2 
REMARK    2  A    between atoms: C2_2  and  C3_3 
ROOT
HETATM    1  C2  UNL     1     -34.692   5.802   4.386  1.00 20.00     0.428 C 
HETATM    2  F6  UNL     1     -35.051   5.599   5.681  1.00 20.00    -0.184 F 
HETATM    3  F7  UNL     1     -35.834   6.087   3.707  1.00 20.00    -0.184 F 
ENDROOT
BRANCH   1   4
HETATM    4  C1  UNL     1     -34.022   4.584   3.828  1.00 20.00     0.379 C 
HETATM    5  O4  UNL     1     -34.002   3.486   4.362  1.00 20.00    -0.253 OA
HETATM    6  F5  UNL     1     -33.428   4.698   2.632  1.00 20.00    -0.157 F 
ENDBRANCH   1   4
BRANCH   1   7
HETATM    7  C3  UNL     1     -33.773   6.995   4.319  1.00 20.00     0.465 C 
HETATM    8  F8  UNL     1     -32.586   6.650   3.774  1.00 20.00    -0.165 F 
HETATM    9  F9  UNL     1     -33.530   7.497   5.548  1.00 20.00    -0.165 F 
HETATM   10  F10 UNL     1     -34.302   7.980   3.563  1.00 20.00    -0.165 F 
ENDBRANCH   1   7
TORSDOF 2
ENDMDL
MODEL 9
REMARK VINA RESULT:      -5.3      1.894      2.537
REMARK  2 active torsions:
REMARK  status: ('A' for Active; 'I' for Inactive)
REMARK    1  A    between atoms: C1_1  and  C2_2 
REMARK    2  A    between atoms: C2_2  and  C3_3 
ROOT
HETATM    1  C2  UNL     1     -33.730   6.925   3.999  1.00 20.00     0.428 C 
HETATM    2  F6  UNL     1     -32.423   6.848   3.637  1.00 20.00    -0.184 F 
HETATM    3  F7  UNL     1     -34.197   8.106   3.515  1.00 20.00    -0.184 F 
ENDROOT
BRANCH   1   4
HETATM    4  C1  UNL     1     -33.869   6.861   5.489  1.00 20.00     0.379 C 
HETATM    5  O4  UNL     1     -33.402   7.671   6.275  1.00 20.00    -0.253 OA
HETATM    6  F5  UNL     1     -34.592   5.855   6.001  1.00 20.00    -0.157 F 
ENDBRANCH   1   4
BRANCH   1   7
HETATM    7  C3  UNL     1     -34.483   5.796   3.344  1.00 20.00     0.465 C 
HETATM    8  F8  UNL     1     -35.800   5.870   3.635  1.00 20.00    -0.165 F 
HETATM    9  F9  UNL     1     -34.035   4.596   3.769  1.00 20.00    -0.165 F 
HETATM   10  F10 UNL     1     -34.356   5.836   2.000  1.00 20.00    -0.165 F 
ENDBRANCH   1   7
TORSDOF 2
ENDMDL
