MODEL 1
REMARK VINA RESULT:      -5.6      0.000      0.000
REMARK  0 active torsions:
REMARK  status: ('A' for Active; 'I' for Inactive)
ROOT
HETATM    1  C1  UNL     1     -33.650   5.712   2.774  1.00 20.00     0.374 C 
HETATM    2  C2  UNL     1     -34.521   5.582   4.027  1.00 20.00     0.398 C 
HETATM    3  C3  UNL     1     -33.205   7.034   3.405  1.00 20.00     0.398 C 
HETATM    4  O4  UNL     1     -33.799   6.660   4.673  1.00 20.00    -0.252 OA
HETATM    5  F5  UNL     1     -32.686   4.776   2.628  1.00 20.00    -0.231 F 
HETATM    6  F6  UNL     1     -34.430   4.417   4.701  1.00 20.00    -0.172 F 
HETATM    7  F7  UNL     1     -35.834   5.859   3.873  1.00 20.00    -0.172 F 
HETATM    8  F8  UNL     1     -33.752   8.156   2.888  1.00 20.00    -0.172 F 
HETATM    9  F9  UNL     1     -31.874   7.238   3.492  1.00 20.00    -0.172 F 
ENDROOT
TORSDOF 0
ENDMDL
MODEL 2
REMARK VINA RESULT:      -5.6      1.339      3.162
REMARK  0 active torsions:
REMARK  status: ('A' for Active; 'I' for Inactive)
ROOT
HETATM    1  C1  UNL     1     -34.005   7.154   5.008  1.00 20.00     0.374 C 
HETATM    2  C2  UNL     1     -33.208   7.225   3.702  1.00 20.00     0.398 C 
HETATM    3  C3  UNL     1     -34.504   5.816   4.455  1.00 20.00     0.398 C 
HETATM    4  O4  UNL     1     -33.477   5.826   3.431  1.00 20.00    -0.252 OA
HETATM    5  F5  UNL     1     -33.272   7.085   6.141  1.00 20.00    -0.231 F 
HETATM    6  F6  UNL     1     -31.889   7.489   3.819  1.00 20.00    -0.172 F 
HETATM    7  F7  UNL     1     -33.700   8.041   2.745  1.00 20.00    -0.172 F 
HETATM    8  F8  UNL     1     -35.751   5.814   3.936  1.00 20.00    -0.172 F 
HETATM    9  F9  UNL     1     -34.408   4.754   5.280  1.00 20.00    -0.172 F 
ENDROOT
TORSDOF 0
ENDMDL
MODEL 3
REMARK VINA RESULT:      -5.2      1.086      2.999
REMARK  0 active torsions:
REMARK  status: ('A' for Active; 'I' for Inactive)
ROOT
HETATM    1  C1  UNL     1     -33.203   5.786   3.332  1.00 20.00     0.374 C 
HETATM    2  C2  UNL     1     -32.895   7.280   3.190  1.00 20.00     0.398 C 
HETATM    3  C3  UNL     1     -34.306   6.258   4.282  1.00 20.00     0.398 C 
HETATM    4  O4  UNL     1     -34.150   7.626   3.828  1.00 20.00    -0.252 OA
HETATM    5  F5  UNL     1     -33.622   5.162   2.208  1.00 20.00    -0.231 F 
HETATM    6  F6  UNL     1     -32.803   7.755   1.930  1.00 20.00    -0.172 F 
HETATM    7  F7  UNL     1     -31.824   7.737   3.873  1.00 20.00    -0.172 F 
HETATM    8  F8  UNL     1     -34.055   6.120   5.603  1.00 20.00    -0.172 F 
HETATM    9  F9  UNL     1     -35.543   5.770   4.054  1.00 20.00    -0.172 F 
ENDROOT
TORSDOF 0
ENDMDL
MODEL 4
REMARK VINA RESULT:      -5.2      1.557      2.332
REMARK  0 active torsions:
REMARK  status: ('A' for Active; 'I' for Inactive)
ROOT
HETATM    1  C1  UNL     1     -34.567   5.527   4.291  1.00 20.00     0.374 C 
HETATM    2  C2  UNL     1     -33.878   6.836   4.688  1.00 20.00     0.398 C 
HETATM    3  C3  UNL     1     -33.674   5.609   3.050  1.00 20.00     0.398 C 
HETATM    4  O4  UNL     1     -32.868   6.645   3.666  1.00 20.00    -0.252 OA
HETATM    5  F5  UNL     1     -34.343   4.472   5.107  1.00 20.00    -0.231 F 
HETATM    6  F6  UNL     1     -33.357   6.884   5.932  1.00 20.00    -0.172 F 
HETATM    7  F7  UNL     1     -34.593   7.966   4.505  1.00 20.00    -0.172 F 
HETATM    8  F8  UNL     1     -34.272   6.027   1.912  1.00 20.00    -0.172 F 
HETATM    9  F9  UNL     1     -32.963   4.503   2.749  1.00 20.00    -0.172 F 
ENDROOT
TORSDOF 0
ENDMDL
MODEL 5
REMARK VINA RESULT:      -5.2      1.698      2.486
REMARK  0 active torsions:
REMARK  status: ('A' for Active; 'I' for Inactive)
ROOT
HETATM    1  C1  UNL     1     -34.041   5.723   5.055  1.00 20.00     0.374 C 
HETATM    2  C2  UNL     1     -34.727   6.119   3.744  1.00 20.00     0.398 C 
HETATM    3  C3  UNL     1     -33.640   7.199   5.116  1.00 20.00     0.398 C 
HETATM    4  O4  UNL     1     -34.582   7.526   4.063  1.00 20.00    -0.252 OA
HETATM    5  F5  UNL     1     -34.859   5.294   6.042  1.00 20.00    -0.231 F 
HETATM    6  F6  UNL     1     -36.017   5.746   3.608  1.00 20.00    -0.172 F 
HETATM    7  F7  UNL     1     -34.084   5.777   2.607  1.00 20.00    -0.172 F 
HETATM    8  F8  UNL     1     -32.364   7.486   4.776  1.00 20.00    -0.172 F 
HETATM    9  F9  UNL     1     -33.905   7.844   6.271  1.00 20.00    -0.172 F 
ENDROOT
TORSDOF 0
ENDMDL
MODEL 6
REMARK VINA RESULT:      -5.2      1.284      2.227
REMARK  0 active torsions:
REMARK  status: ('A' for Active; 'I' for Inactive)
ROOT
HETATM    1  C1  UNL     1     -33.614   6.615   4.544  1.00 20.00     0.374 C 
HETATM    2  C2  UNL     1     -34.515   5.570   3.879  1.00 20.00     0.398 C 
HETATM    3  C3  UNL     1     -33.144   6.900   3.114  1.00 20.00     0.398 C 
HETATM    4  O4  UNL     1     -34.251   6.137   2.571  1.00 20.00    -0.252 OA
HETATM    5  F5  UNL     1     -34.251   7.631   5.167  1.00 20.00    -0.231 F 
HETATM    6  F6  UNL     1     -35.822   5.610   4.210  1.00 20.00    -0.172 F 
HETATM    7  F7  UNL     1     -34.112   4.285   3.976  1.00 20.00    -0.172 F 
HETATM    8  F8  UNL     1     -31.943   6.387   2.767  1.00 20.00    -0.172 F 
HETATM    9  F9  UNL     1     -33.160   8.192   2.725  1.00 20.00    -0.172 F 
ENDROOT
TORSDOF 0
ENDMDL
MODEL 7
REMARK VINA RESULT:      -5.1      1.319      3.073
REMARK  0 active torsions:
REMARK  status: ('A' for Active; 'I' for Inactive)
ROOT
HETATM    1  C1  UNL     1     -35.094   5.372   3.992  1.00 20.00     0.374 C 
HETATM    2  C2  UNL     1     -33.775   5.637   3.261  1.00 20.00     0.398 C 
HETATM    3  C3  UNL     1     -34.303   5.757   5.246  1.00 20.00     0.398 C 
HETATM    4  O4  UNL     1     -33.226   6.290   4.434  1.00 20.00    -0.252 OA
HETATM    5  F5  UNL     1     -36.121   6.191   3.671  1.00 20.00    -0.231 F 
HETATM    6  F6  UNL     1     -33.839   6.457   2.191  1.00 20.00    -0.172 F 
HETATM    7  F7  UNL     1     -33.066   4.548   2.895  1.00 20.00    -0.172 F 
HETATM    8  F8  UNL     1     -33.901   4.736   6.034  1.00 20.00    -0.172 F 
HETATM    9  F9  UNL     1     -34.863   6.688   6.045  1.00 20.00    -0.172 F 
ENDROOT
TORSDOF 0
ENDMDL
MODEL 8
REMARK VINA RESULT:      -4.9      1.580      2.762
REMARK  0 active torsions:
REMARK  status: ('A' for Active; 'I' for Inactive)
ROOT
HETATM    1  C1  UNL     1     -33.636   5.040   4.202  1.00 20.00     0.374 C 
HETATM    2  C2  UNL     1     -33.805   6.140   3.150  1.00 20.00     0.398 C 
HETATM    3  C3  UNL     1     -34.239   6.072   5.159  1.00 20.00     0.398 C 
HETATM    4  O4  UNL     1     -34.654   6.902   4.045  1.00 20.00    -0.252 OA
HETATM    5  F5  UNL     1     -34.368   3.921   4.007  1.00 20.00    -0.231 F 
HETATM    6  F6  UNL     1     -34.436   5.786   2.011  1.00 20.00    -0.172 F 
HETATM    7  F7  UNL     1     -32.686   6.810   2.802  1.00 20.00    -0.172 F 
HETATM    8  F8  UNL     1     -33.371   6.703   5.980  1.00 20.00    -0.172 F 
HETATM    9  F9  UNL     1     -35.277   5.654   5.913  1.00 20.00    -0.172 F 
ENDROOT
TORSDOF 0
ENDMDL
MODEL 9
REMARK VINA RESULT:      -4.8      2.147      3.187
REMARK  0 active torsions:
REMARK  status: ('A' for Active; 'I' for Inactive)
ROOT
HETATM    1  C1  UNL     1     -31.547   7.968   3.323  1.00 20.00     0.374 C 
HETATM    2  C2  UNL     1     -32.777   7.088   3.079  1.00 20.00     0.398 C 
HETATM    3  C3  UNL     1     -31.947   8.632   2.002  1.00 20.00     0.398 C 
HETATM    4  O4  UNL     1     -33.244   7.984   2.039  1.00 20.00    -0.252 OA
HETATM    5  F5  UNL     1     -31.596   8.759   4.417  1.00 20.00    -0.231 F 
HETATM    6  F6  UNL     1     -33.648   6.981   4.104  1.00 20.00    -0.172 F 
HETATM    7  F7  UNL     1     -32.538   5.841   2.618  1.00 20.00    -0.172 F 
HETATM    8  F8  UNL     1     -31.225   8.283   0.915  1.00 20.00    -0.172 F 
HETATM    9  F9  UNL     1     -32.036   9.978   2.012  1.00 20.00    -0.172 F 
ENDROOT
TORSDOF 0
ENDMDL
