MODEL 1
REMARK VINA RESULT:      -5.0      0.000      0.000
REMARK  2 active torsions:
REMARK  status: ('A' for Active; 'I' for Inactive)
REMARK    1  A    between atoms: C2_2  and  C6_6 
REMARK    2  A    between atoms: C6_6  and  O7_7 
ROOT
HETATM    1  C4  UNL     1     -34.159   4.122   4.368  1.00 20.00     0.050 C 
HETATM    2  C5  UNL     1     -34.293   6.282   5.652  1.00 20.00     0.050 C 
HETATM    3  C6  UNL     1     -34.476   5.616   4.286  1.00 20.00     0.068 C 
ENDROOT
BRANCH   3   4
HETATM    4  C2  UNL     1     -33.569   6.278   3.270  1.00 20.00     0.005 C 
HETATM    5  C1  UNL     1     -32.903   7.431   3.429  1.00 20.00    -0.032 C 
HETATM    6  C3  UNL     1     -32.022   8.030   2.381  1.00 20.00     0.036 C 
ENDBRANCH   3   4
BRANCH   3   7
HETATM    7  O7  UNL     1     -35.847   5.757   3.906  1.00 20.00    -0.387 OA
HETATM    8  H19 UNL     1     -35.845   6.104   3.002  1.00 20.00     0.211 HD
ENDBRANCH   3   7
TORSDOF 2
ENDMDL
MODEL 2
REMARK VINA RESULT:      -4.3      1.084      1.598
REMARK  2 active torsions:
REMARK  status: ('A' for Active; 'I' for Inactive)
REMARK    1  A    between atoms: C2_2  and  C6_6 
REMARK    2  A    between atoms: C6_6  and  O7_7 
ROOT
HETATM    1  C4  UNL     1     -34.142   6.285   5.606  1.00 20.00     0.050 C 
HETATM    2  C5  UNL     1     -35.661   6.035   3.615  1.00 20.00     0.050 C 
HETATM    3  C6  UNL     1     -34.275   5.726   4.188  1.00 20.00     0.068 C 
ENDROOT
BRANCH   3   4
HETATM    4  C2  UNL     1     -33.208   6.326   3.297  1.00 20.00     0.005 C 
HETATM    5  C1  UNL     1     -32.988   7.632   3.088  1.00 20.00    -0.032 C 
HETATM    6  C3  UNL     1     -31.914   8.157   2.192  1.00 20.00     0.036 C 
ENDBRANCH   3   4
BRANCH   3   7
HETATM    7  O7  UNL     1     -34.135   4.305   4.259  1.00 20.00    -0.387 OA
HETATM    8  H19 UNL     1     -34.389   3.962   3.389  1.00 20.00     0.211 HD
ENDBRANCH   3   7
TORSDOF 2
ENDMDL
MODEL 3
REMARK VINA RESULT:      -3.8      3.148      5.034
REMARK  2 active torsions:
REMARK  status: ('A' for Active; 'I' for Inactive)
REMARK    1  A    between atoms: C2_2  and  C6_6 
REMARK    2  A    between atoms: C6_6  and  O7_7 
ROOT
HETATM    1  C4  UNL     1     -33.164   9.202  -0.533  1.00 20.00     0.050 C 
HETATM    2  C5  UNL     1     -32.382  10.703   1.329  1.00 20.00     0.050 C 
HETATM    3  C6  UNL     1     -32.439   9.263   0.812  1.00 20.00     0.068 C 
ENDROOT
BRANCH   3   4
HETATM    4  C2  UNL     1     -33.152   8.386   1.820  1.00 20.00     0.005 C 
HETATM    5  C1  UNL     1     -32.585   7.717   2.836  1.00 20.00    -0.032 C 
HETATM    6  C3  UNL     1     -33.351   6.866   3.795  1.00 20.00     0.036 C 
ENDBRANCH   3   4
BRANCH   3   7
HETATM    7  O7  UNL     1     -31.097   8.813   0.611  1.00 20.00    -0.387 OA
HETATM    8  H19 UNL     1     -30.607   9.570   0.255  1.00 20.00     0.211 HD
ENDBRANCH   3   7
TORSDOF 2
ENDMDL
MODEL 4
REMARK VINA RESULT:      -3.7      2.242      3.194
REMARK  2 active torsions:
REMARK  status: ('A' for Active; 'I' for Inactive)
REMARK    1  A    between atoms: C2_2  and  C6_6 
REMARK    2  A    between atoms: C6_6  and  O7_7 
ROOT
HETATM    1  C4  UNL     1     -31.471   8.068   3.729  1.00 20.00     0.050 C 
HETATM    2  C5  UNL     1     -33.866   7.401   4.117  1.00 20.00     0.050 C 
HETATM    3  C6  UNL     1     -32.713   7.422   3.111  1.00 20.00     0.068 C 
ENDROOT
BRANCH   3   4
HETATM    4  C2  UNL     1     -33.128   8.189   1.873  1.00 20.00     0.005 C 
HETATM    5  C1  UNL     1     -32.390   9.094   1.212  1.00 20.00    -0.032 C 
HETATM    6  C3  UNL     1     -32.863   9.817  -0.006  1.00 20.00     0.036 C 
ENDBRANCH   3   4
BRANCH   3   7
HETATM    7  O7  UNL     1     -32.389   6.070   2.782  1.00 20.00    -0.387 OA
HETATM    8  H19 UNL     1     -31.750   5.773   3.447  1.00 20.00     0.211 HD
ENDBRANCH   3   7
TORSDOF 2
ENDMDL
MODEL 5
REMARK VINA RESULT:      -3.6     11.781     12.332
REMARK  2 active torsions:
REMARK  status: ('A' for Active; 'I' for Inactive)
REMARK    1  A    between atoms: C2_2  and  C6_6 
REMARK    2  A    between atoms: C6_6  and  O7_7 
ROOT
HETATM    1  C4  UNL     1     -35.043  14.066  -4.582  1.00 20.00     0.050 C 
HETATM    2  C5  UNL     1     -33.457  15.525  -5.881  1.00 20.00     0.050 C 
HETATM    3  C6  UNL     1     -33.685  14.771  -4.569  1.00 20.00     0.068 C 
ENDROOT
BRANCH   3   4
HETATM    4  C2  UNL     1     -33.621  15.738  -3.405  1.00 20.00     0.005 C 
HETATM    5  C1  UNL     1     -34.665  16.236  -2.725  1.00 20.00    -0.032 C 
HETATM    6  C3  UNL     1     -34.530  17.190  -1.584  1.00 20.00     0.036 C 
ENDBRANCH   3   4
BRANCH   3   7
HETATM    7  O7  UNL     1     -32.670  13.772  -4.452  1.00 20.00    -0.387 OA
HETATM    8  H19 UNL     1     -31.885  14.129  -4.895  1.00 20.00     0.211 HD
ENDBRANCH   3   7
TORSDOF 2
ENDMDL
MODEL 6
REMARK VINA RESULT:      -3.6     11.723     12.324
REMARK  2 active torsions:
REMARK  status: ('A' for Active; 'I' for Inactive)
REMARK    1  A    between atoms: C2_2  and  C6_6 
REMARK    2  A    between atoms: C6_6  and  O7_7 
ROOT
HETATM    1  C4  UNL     1     -37.094  14.609  -5.273  1.00 20.00     0.050 C 
HETATM    2  C5  UNL     1     -35.033  14.073  -6.614  1.00 20.00     0.050 C 
HETATM    3  C6  UNL     1     -35.713  13.951  -5.247  1.00 20.00     0.068 C 
ENDROOT
BRANCH   3   4
HETATM    4  C2  UNL     1     -34.852  14.605  -4.188  1.00 20.00     0.005 C 
HETATM    5  C1  UNL     1     -34.994  15.848  -3.702  1.00 20.00    -0.032 C 
HETATM    6  C3  UNL     1     -34.105  16.433  -2.653  1.00 20.00     0.036 C 
ENDBRANCH   3   4
BRANCH   3   7
HETATM    7  O7  UNL     1     -35.892  12.561  -4.967  1.00 20.00    -0.387 OA
HETATM    8  H19 UNL     1     -35.073  12.120  -5.241  1.00 20.00     0.211 HD
ENDBRANCH   3   7
TORSDOF 2
ENDMDL
MODEL 7
REMARK VINA RESULT:      -3.6      2.872      5.010
REMARK  2 active torsions:
REMARK  status: ('A' for Active; 'I' for Inactive)
REMARK    1  A    between atoms: C2_2  and  C6_6 
REMARK    2  A    between atoms: C6_6  and  O7_7 
ROOT
HETATM    1  C4  UNL     1     -32.552  10.697   1.277  1.00 20.00     0.050 C 
HETATM    2  C5  UNL     1     -31.117   8.745   0.597  1.00 20.00     0.050 C 
HETATM    3  C6  UNL     1     -32.549   9.238   0.814  1.00 20.00     0.068 C 
ENDROOT
BRANCH   3   4
HETATM    4  C2  UNL     1     -33.238   8.371   1.846  1.00 20.00     0.005 C 
HETATM    5  C1  UNL     1     -32.643   7.681   2.831  1.00 20.00    -0.032 C 
HETATM    6  C3  UNL     1     -33.385   6.841   3.819  1.00 20.00     0.036 C 
ENDBRANCH   3   4
BRANCH   3   7
HETATM    7  O7  UNL     1     -33.233   9.172  -0.439  1.00 20.00    -0.387 OA
HETATM    8  H19 UNL     1     -33.049   8.293  -0.804  1.00 20.00     0.211 HD
ENDBRANCH   3   7
TORSDOF 2
ENDMDL
MODEL 8
REMARK VINA RESULT:      -3.4      1.443      2.316
REMARK  2 active torsions:
REMARK  status: ('A' for Active; 'I' for Inactive)
REMARK    1  A    between atoms: C2_2  and  C6_6 
REMARK    2  A    between atoms: C6_6  and  O7_7 
ROOT
HETATM    1  C4  UNL     1     -33.306   5.128   2.623  1.00 20.00     0.050 C 
HETATM    2  C5  UNL     1     -34.519   4.376   4.695  1.00 20.00     0.050 C 
HETATM    3  C6  UNL     1     -34.256   5.548   3.746  1.00 20.00     0.068 C 
ENDROOT
BRANCH   3   4
HETATM    4  C2  UNL     1     -33.659   6.707   4.516  1.00 20.00     0.005 C 
HETATM    5  C1  UNL     1     -33.905   7.022   5.797  1.00 20.00    -0.032 C 
HETATM    6  C3  UNL     1     -33.280   8.183   6.498  1.00 20.00     0.036 C 
ENDBRANCH   3   4
BRANCH   3   7
HETATM    7  O7  UNL     1     -35.501   5.923   3.153  1.00 20.00    -0.387 OA
HETATM    8  H19 UNL     1     -36.133   5.224   3.380  1.00 20.00     0.211 HD
ENDBRANCH   3   7
TORSDOF 2
ENDMDL
MODEL 9
REMARK VINA RESULT:      -3.3      2.572      4.352
REMARK  2 active torsions:
REMARK  status: ('A' for Active; 'I' for Inactive)
REMARK    1  A    between atoms: C2_2  and  C6_6 
REMARK    2  A    between atoms: C6_6  and  O7_7 
ROOT
HETATM    1  C4  UNL     1     -32.802   9.869   1.757  1.00 20.00     0.050 C 
HETATM    2  C5  UNL     1     -31.247   8.628   3.298  1.00 20.00     0.050 C 
HETATM    3  C6  UNL     1     -32.129   8.527   2.051  1.00 20.00     0.068 C 
ENDROOT
BRANCH   3   4
HETATM    4  C2  UNL     1     -33.183   7.459   2.256  1.00 20.00     0.005 C 
HETATM    5  C1  UNL     1     -33.578   6.945   3.431  1.00 20.00    -0.032 C 
HETATM    6  C3  UNL     1     -34.626   5.889   3.562  1.00 20.00     0.036 C 
ENDBRANCH   3   4
BRANCH   3   7
HETATM    7  O7  UNL     1     -31.290   8.202   0.941  1.00 20.00    -0.387 OA
HETATM    8  H19 UNL     1     -31.843   7.711   0.315  1.00 20.00     0.211 HD
ENDBRANCH   3   7
TORSDOF 2
ENDMDL
