MODEL 1
REMARK VINA RESULT:      -4.8      0.000      0.000
REMARK  0 active torsions:
REMARK  status: ('A' for Active; 'I' for Inactive)
ROOT
HETATM    1  C1  UNL     1     -34.453   5.836   5.827  1.00 20.00     0.029 C 
HETATM    2  C2  UNL     1     -34.926   5.575   4.399  1.00 20.00     0.044 C 
HETATM    3  C3  UNL     1     -33.924   7.262   5.964  1.00 20.00     0.167 C 
HETATM    4  C4  UNL     1     -33.301   7.376   3.674  1.00 20.00     0.207 C 
HETATM    5  C5  UNL     1     -33.073   4.984   2.655  1.00 20.00     0.209 A 
HETATM    6  C6  UNL     1     -33.857   6.007   3.441  1.00 20.00     0.103 A 
HETATM    7  O7  UNL     1     -32.865   7.499   5.032  1.00 20.00    -0.388 OA
HETATM    8  O8  UNL     1     -34.155   5.723   2.068  1.00 20.00    -0.373 OA
ENDROOT
TORSDOF 0
ENDMDL
MODEL 2
REMARK VINA RESULT:      -4.5      1.400      2.014
REMARK  0 active torsions:
REMARK  status: ('A' for Active; 'I' for Inactive)
ROOT
HETATM    1  C1  UNL     1     -34.217   4.653   4.143  1.00 20.00     0.029 C 
HETATM    2  C2  UNL     1     -34.205   5.791   3.124  1.00 20.00     0.044 C 
HETATM    3  C3  UNL     1     -34.703   5.156   5.501  1.00 20.00     0.167 C 
HETATM    4  C4  UNL     1     -33.938   7.367   5.087  1.00 20.00     0.207 C 
HETATM    5  C5  UNL     1     -32.139   7.388   3.195  1.00 20.00     0.209 A 
HETATM    6  C6  UNL     1     -33.495   6.971   3.714  1.00 20.00     0.103 A 
HETATM    7  O7  UNL     1     -33.883   6.235   5.961  1.00 20.00    -0.388 OA
HETATM    8  O8  UNL     1     -33.340   8.072   2.808  1.00 20.00    -0.373 OA
ENDROOT
TORSDOF 0
ENDMDL
MODEL 3
REMARK VINA RESULT:      -4.2      1.423      2.492
REMARK  0 active torsions:
REMARK  status: ('A' for Active; 'I' for Inactive)
ROOT
HETATM    1  C1  UNL     1     -34.142   7.132   5.391  1.00 20.00     0.029 C 
HETATM    2  C2  UNL     1     -32.816   7.522   4.743  1.00 20.00     0.044 C 
HETATM    3  C3  UNL     1     -34.549   5.721   4.974  1.00 20.00     0.167 C 
HETATM    4  C4  UNL     1     -33.380   5.869   2.910  1.00 20.00     0.207 C 
HETATM    5  C5  UNL     1     -32.936   8.360   2.272  1.00 20.00     0.209 A 
HETATM    6  C6  UNL     1     -32.884   7.232   3.274  1.00 20.00     0.103 A 
HETATM    7  O7  UNL     1     -34.637   5.622   3.549  1.00 20.00    -0.388 OA
HETATM    8  O8  UNL     1     -31.721   7.646   2.544  1.00 20.00    -0.373 OA
ENDROOT
TORSDOF 0
ENDMDL
MODEL 4
REMARK VINA RESULT:      -4.1      1.502      2.377
REMARK  0 active torsions:
REMARK  status: ('A' for Active; 'I' for Inactive)
ROOT
HETATM    1  C1  UNL     1     -32.728   7.705   4.777  1.00 20.00     0.029 C 
HETATM    2  C2  UNL     1     -34.149   7.167   4.933  1.00 20.00     0.044 C 
HETATM    3  C3  UNL     1     -32.334   7.756   3.302  1.00 20.00     0.167 C 
HETATM    4  C4  UNL     1     -33.794   5.971   2.729  1.00 20.00     0.207 C 
HETATM    5  C5  UNL     1     -34.420   4.570   4.841  1.00 20.00     0.209 A 
HETATM    6  C6  UNL     1     -34.284   5.902   4.141  1.00 20.00     0.103 A 
HETATM    7  O7  UNL     1     -32.450   6.461   2.705  1.00 20.00    -0.388 OA
HETATM    8  O8  UNL     1     -35.554   5.254   4.288  1.00 20.00    -0.373 OA
ENDROOT
TORSDOF 0
ENDMDL
MODEL 5
REMARK VINA RESULT:      -3.9     11.700     12.815
REMARK  0 active torsions:
REMARK  status: ('A' for Active; 'I' for Inactive)
ROOT
HETATM    1  C1  UNL     1     -33.761  15.409  -6.719  1.00 20.00     0.029 C 
HETATM    2  C2  UNL     1     -34.430  14.038  -6.654  1.00 20.00     0.044 C 
HETATM    3  C3  UNL     1     -32.994  15.693  -5.429  1.00 20.00     0.167 C 
HETATM    4  C4  UNL     1     -34.425  14.303  -4.137  1.00 20.00     0.207 C 
HETATM    5  C5  UNL     1     -36.697  13.916  -5.362  1.00 20.00     0.209 A 
HETATM    6  C6  UNL     1     -35.186  13.922  -5.366  1.00 20.00     0.103 A 
HETATM    7  O7  UNL     1     -33.866  15.611  -4.297  1.00 20.00    -0.388 OA
HETATM    8  O8  UNL     1     -35.935  12.705  -5.237  1.00 20.00    -0.373 OA
ENDROOT
TORSDOF 0
ENDMDL
MODEL 6
REMARK VINA RESULT:      -3.8     11.558     12.354
REMARK  0 active torsions:
REMARK  status: ('A' for Active; 'I' for Inactive)
ROOT
HETATM    1  C1  UNL     1     -34.118  15.641  -3.782  1.00 20.00     0.029 C 
HETATM    2  C2  UNL     1     -34.411  14.163  -4.032  1.00 20.00     0.044 C 
HETATM    3  C3  UNL     1     -35.385  16.373  -3.347  1.00 20.00     0.167 C 
HETATM    4  C4  UNL     1     -36.800  14.855  -4.507  1.00 20.00     0.207 C 
HETATM    5  C5  UNL     1     -35.468  13.567  -6.346  1.00 20.00     0.209 A 
HETATM    6  C6  UNL     1     -35.613  14.045  -4.920  1.00 20.00     0.103 A 
HETATM    7  O7  UNL     1     -36.416  16.223  -4.329  1.00 20.00    -0.388 OA
HETATM    8  O8  UNL     1     -35.927  12.698  -5.299  1.00 20.00    -0.373 OA
ENDROOT
TORSDOF 0
ENDMDL
MODEL 7
REMARK VINA RESULT:      -3.7      1.279      2.454
REMARK  0 active torsions:
REMARK  status: ('A' for Active; 'I' for Inactive)
ROOT
HETATM    1  C1  UNL     1     -32.538   7.419   2.657  1.00 20.00     0.029 C 
HETATM    2  C2  UNL     1     -33.101   6.014   2.861  1.00 20.00     0.044 C 
HETATM    3  C3  UNL     1     -32.006   7.980   3.973  1.00 20.00     0.167 C 
HETATM    4  C4  UNL     1     -33.508   6.673   5.272  1.00 20.00     0.207 C 
HETATM    5  C5  UNL     1     -35.524   5.866   3.824  1.00 20.00     0.209 A 
HETATM    6  C6  UNL     1     -34.037   6.026   4.031  1.00 20.00     0.103 A 
HETATM    7  O7  UNL     1     -33.035   7.990   4.969  1.00 20.00    -0.388 OA
HETATM    8  O8  UNL     1     -34.699   4.775   4.261  1.00 20.00    -0.373 OA
ENDROOT
TORSDOF 0
ENDMDL
MODEL 8
REMARK VINA RESULT:      -3.6     12.029     13.099
REMARK  0 active torsions:
REMARK  status: ('A' for Active; 'I' for Inactive)
ROOT
HETATM    1  C1  UNL     1     -34.267  13.760  -7.561  1.00 20.00     0.029 C 
HETATM    2  C2  UNL     1     -34.051  15.025  -6.733  1.00 20.00     0.044 C 
HETATM    3  C3  UNL     1     -35.542  13.044  -7.122  1.00 20.00     0.167 C 
HETATM    4  C4  UNL     1     -35.403  13.903  -4.911  1.00 20.00     0.207 C 
HETATM    5  C5  UNL     1     -32.976  14.698  -4.375  1.00 20.00     0.209 A 
HETATM    6  C6  UNL     1     -34.186  14.690  -5.279  1.00 20.00     0.103 A 
HETATM    7  O7  UNL     1     -35.490  12.730  -5.727  1.00 20.00    -0.388 OA
HETATM    8  O8  UNL     1     -33.910  15.788  -4.399  1.00 20.00    -0.373 OA
ENDROOT
TORSDOF 0
ENDMDL
MODEL 9
REMARK VINA RESULT:      -3.5     12.203     13.374
REMARK  0 active torsions:
REMARK  status: ('A' for Active; 'I' for Inactive)
ROOT
HETATM    1  C1  UNL     1     -35.547  14.940  -7.511  1.00 20.00     0.029 C 
HETATM    2  C2  UNL     1     -36.942  14.575  -7.009  1.00 20.00     0.044 C 
HETATM    3  C3  UNL     1     -34.534  13.871  -7.105  1.00 20.00     0.167 C 
HETATM    4  C4  UNL     1     -35.792  13.241  -5.190  1.00 20.00     0.207 C 
HETATM    5  C5  UNL     1     -37.456  15.134  -4.509  1.00 20.00     0.209 A 
HETATM    6  C6  UNL     1     -36.863  14.220  -5.555  1.00 20.00     0.103 A 
HETATM    7  O7  UNL     1     -34.528  13.696  -5.685  1.00 20.00    -0.388 OA
HETATM    8  O8  UNL     1     -38.134  13.948  -4.951  1.00 20.00    -0.373 OA
ENDROOT
TORSDOF 0
ENDMDL
