MODEL 1
REMARK VINA RESULT:      -3.1      0.000      0.000
REMARK  0 active torsions:
REMARK  status: ('A' for Active; 'I' for Inactive)
ROOT
HETATM    1  C1  UNL     1     -34.623   5.232   5.404  1.00 20.00     0.178 C 
HETATM    2  C2  UNL     1     -34.845   5.692   3.973  1.00 20.00     0.102 C 
HETATM    3  C3  UNL     1     -33.580   7.286   5.585  1.00 20.00     0.241 C 
HETATM    4  O4  UNL     1     -34.500   6.397   6.228  1.00 20.00    -0.381 OA
HETATM    5  S5  UNL     1     -33.669   7.044   3.801  1.00 20.00    -0.141 SA
ENDROOT
TORSDOF 0
ENDMDL
MODEL 2
REMARK VINA RESULT:      -3.1      1.761      1.989
REMARK  0 active torsions:
REMARK  status: ('A' for Active; 'I' for Inactive)
ROOT
HETATM    1  C1  UNL     1     -34.966   5.457   4.155  1.00 20.00     0.178 C 
HETATM    2  C2  UNL     1     -34.548   5.545   5.613  1.00 20.00     0.102 C 
HETATM    3  C3  UNL     1     -33.446   7.183   3.928  1.00 20.00     0.241 C 
HETATM    4  O4  UNL     1     -33.883   5.946   3.356  1.00 20.00    -0.381 OA
HETATM    5  S5  UNL     1     -33.750   7.156   5.705  1.00 20.00    -0.141 SA
ENDROOT
TORSDOF 0
ENDMDL
MODEL 3
REMARK VINA RESULT:      -3.0      1.630      2.076
REMARK  0 active torsions:
REMARK  status: ('A' for Active; 'I' for Inactive)
ROOT
HETATM    1  C1  UNL     1     -33.992   5.790   3.388  1.00 20.00     0.178 C 
HETATM    2  C2  UNL     1     -33.776   7.224   3.840  1.00 20.00     0.102 C 
HETATM    3  C3  UNL     1     -34.644   5.512   5.589  1.00 20.00     0.241 C 
HETATM    4  O4  UNL     1     -34.991   5.207   4.234  1.00 20.00    -0.381 OA
HETATM    5  S5  UNL     1     -33.755   7.080   5.635  1.00 20.00    -0.141 SA
ENDROOT
TORSDOF 0
ENDMDL
MODEL 4
REMARK VINA RESULT:      -3.0      1.881      2.148
REMARK  0 active torsions:
REMARK  status: ('A' for Active; 'I' for Inactive)
ROOT
HETATM    1  C1  UNL     1     -33.210   7.309   3.308  1.00 20.00     0.178 C 
HETATM    2  C2  UNL     1     -33.670   5.874   3.120  1.00 20.00     0.102 C 
HETATM    3  C3  UNL     1     -33.949   6.947   5.467  1.00 20.00     0.241 C 
HETATM    4  O4  UNL     1     -32.877   7.488   4.690  1.00 20.00    -0.381 OA
HETATM    5  S5  UNL     1     -34.725   5.601   4.552  1.00 20.00    -0.141 SA
ENDROOT
TORSDOF 0
ENDMDL
MODEL 5
REMARK VINA RESULT:      -2.9      0.941      1.890
REMARK  0 active torsions:
REMARK  status: ('A' for Active; 'I' for Inactive)
ROOT
HETATM    1  C1  UNL     1     -33.973   7.090   5.674  1.00 20.00     0.178 C 
HETATM    2  C2  UNL     1     -33.208   7.188   4.366  1.00 20.00     0.102 C 
HETATM    3  C3  UNL     1     -34.800   5.165   4.697  1.00 20.00     0.241 C 
HETATM    4  O4  UNL     1     -34.267   5.707   5.909  1.00 20.00    -0.381 OA
HETATM    5  S5  UNL     1     -34.101   6.053   3.292  1.00 20.00    -0.141 SA
ENDROOT
TORSDOF 0
ENDMDL
MODEL 6
REMARK VINA RESULT:      -2.7     16.087     16.389
REMARK  0 active torsions:
REMARK  status: ('A' for Active; 'I' for Inactive)
ROOT
HETATM    1  C1  UNL     1     -24.599  19.263  10.834  1.00 20.00     0.178 C 
HETATM    2  C2  UNL     1     -25.383  18.151  11.509  1.00 20.00     0.102 C 
HETATM    3  C3  UNL     1     -23.777  17.508   9.574  1.00 20.00     0.241 C 
HETATM    4  O4  UNL     1     -24.295  18.840   9.499  1.00 20.00    -0.381 OA
HETATM    5  S5  UNL     1     -24.500  16.669  10.997  1.00 20.00    -0.141 SA
ENDROOT
TORSDOF 0
ENDMDL
MODEL 7
REMARK VINA RESULT:      -2.6     15.802     15.996
REMARK  0 active torsions:
REMARK  status: ('A' for Active; 'I' for Inactive)
ROOT
HETATM    1  C1  UNL     1     -24.138  16.655  10.813  1.00 20.00     0.178 C 
HETATM    2  C2  UNL     1     -23.949  17.651   9.682  1.00 20.00     0.102 C 
HETATM    3  C3  UNL     1     -25.543  18.301  11.625  1.00 20.00     0.241 C 
HETATM    4  O4  UNL     1     -25.423  16.893  11.400  1.00 20.00    -0.381 OA
HETATM    5  S5  UNL     1     -24.571  19.185  10.390  1.00 20.00    -0.141 SA
ENDROOT
TORSDOF 0
ENDMDL
MODEL 8
REMARK VINA RESULT:      -2.6     12.932     13.289
REMARK  0 active torsions:
REMARK  status: ('A' for Active; 'I' for Inactive)
ROOT
HETATM    1  C1  UNL     1     -35.990  13.372  -5.264  1.00 20.00     0.178 C 
HETATM    2  C2  UNL     1     -34.966  14.277  -4.602  1.00 20.00     0.102 C 
HETATM    3  C3  UNL     1     -34.536  13.538  -7.054  1.00 20.00     0.241 C 
HETATM    4  O4  UNL     1     -35.321  12.621  -6.284  1.00 20.00    -0.381 OA
HETATM    5  S5  UNL     1     -34.027  14.911  -6.002  1.00 20.00    -0.141 SA
ENDROOT
TORSDOF 0
ENDMDL
MODEL 9
REMARK VINA RESULT:      -2.5     12.837     13.247
REMARK  0 active torsions:
REMARK  status: ('A' for Active; 'I' for Inactive)
ROOT
HETATM    1  C1  UNL     1     -35.167  13.985  -4.561  1.00 20.00     0.178 C 
HETATM    2  C2  UNL     1     -33.901  14.529  -5.200  1.00 20.00     0.102 C 
HETATM    3  C3  UNL     1     -35.566  13.228  -6.708  1.00 20.00     0.241 C 
HETATM    4  O4  UNL     1     -35.596  12.853  -5.327  1.00 20.00    -0.381 OA
HETATM    5  S5  UNL     1     -34.282  14.468  -6.959  1.00 20.00    -0.141 SA
ENDROOT
TORSDOF 0
ENDMDL
