MODEL 1
REMARK VINA RESULT:      -5.9      0.000      0.000
REMARK  0 active torsions:
REMARK  status: ('A' for Active; 'I' for Inactive)
ROOT
HETATM    1  C1  UNL     1     -32.477   7.975   2.385  1.00 20.00     0.064 C 
HETATM    2  C2  UNL     1     -32.999   7.484   4.751  1.00 20.00     0.022 C 
HETATM    3  C3  UNL     1     -34.045   6.918   5.712  1.00 20.00     0.036 C 
HETATM    4  C4  UNL     1     -33.491   5.794   2.943  1.00 20.00     0.053 C 
HETATM    5  C5  UNL     1     -33.420   7.290   3.287  1.00 20.00     0.095 C 
HETATM    6  C6  UNL     1     -34.468   5.533   5.344  1.00 20.00     0.151 A 
HETATM    7  C7  UNL     1     -34.230   4.987   3.961  1.00 20.00     0.152 A 
HETATM    8  N8  UNL     1     -31.735   8.513   1.676  1.00 20.00    -0.197 NA
HETATM    9  O9  UNL     1     -35.508   5.497   4.347  1.00 20.00    -0.375 OA
ENDROOT
TORSDOF 0
ENDMDL
MODEL 2
REMARK VINA RESULT:      -4.1     11.692     12.176
REMARK  0 active torsions:
REMARK  status: ('A' for Active; 'I' for Inactive)
ROOT
HETATM    1  C1  UNL     1     -34.016  16.079  -3.246  1.00 20.00     0.064 C 
HETATM    2  C2  UNL     1     -33.913  15.218  -5.560  1.00 20.00     0.022 C 
HETATM    3  C3  UNL     1     -34.223  14.028  -6.470  1.00 20.00     0.036 C 
HETATM    4  C4  UNL     1     -35.991  14.915  -4.162  1.00 20.00     0.053 C 
HETATM    5  C5  UNL     1     -34.457  14.995  -4.142  1.00 20.00     0.095 C 
HETATM    6  C6  UNL     1     -35.655  13.607  -6.390  1.00 20.00     0.151 A 
HETATM    7  C7  UNL     1     -36.523  14.012  -5.228  1.00 20.00     0.152 A 
HETATM    8  N8  UNL     1     -33.670  16.932  -2.541  1.00 20.00    -0.197 NA
HETATM    9  O9  UNL     1     -35.930  12.714  -5.292  1.00 20.00    -0.375 OA
ENDROOT
TORSDOF 0
ENDMDL
MODEL 3
REMARK VINA RESULT:      -4.0     11.861     12.992
REMARK  0 active torsions:
REMARK  status: ('A' for Active; 'I' for Inactive)
ROOT
HETATM    1  C1  UNL     1     -37.056  14.235  -5.199  1.00 20.00     0.064 C 
HETATM    2  C2  UNL     1     -34.796  14.263  -4.196  1.00 20.00     0.022 C 
HETATM    3  C3  UNL     1     -33.304  14.446  -4.475  1.00 20.00     0.036 C 
HETATM    4  C4  UNL     1     -35.501  16.043  -5.840  1.00 20.00     0.053 C 
HETATM    5  C5  UNL     1     -35.640  14.564  -5.443  1.00 20.00     0.095 C 
HETATM    6  C6  UNL     1     -33.005  15.744  -5.153  1.00 20.00     0.151 A 
HETATM    7  C7  UNL     1     -34.084  16.518  -5.864  1.00 20.00     0.152 A 
HETATM    8  N8  UNL     1     -38.169  13.976  -5.006  1.00 20.00    -0.197 NA
HETATM    9  O9  UNL     1     -33.166  15.694  -6.585  1.00 20.00    -0.375 OA
ENDROOT
TORSDOF 0
ENDMDL
MODEL 4
REMARK VINA RESULT:      -3.9     12.278     12.941
REMARK  0 active torsions:
REMARK  status: ('A' for Active; 'I' for Inactive)
ROOT
HETATM    1  C1  UNL     1     -36.986  14.336  -4.956  1.00 20.00     0.064 C 
HETATM    2  C2  UNL     1     -35.454  15.722  -3.600  1.00 20.00     0.022 C 
HETATM    3  C3  UNL     1     -33.995  16.122  -3.372  1.00 20.00     0.036 C 
HETATM    4  C4  UNL     1     -35.216  15.613  -6.110  1.00 20.00     0.053 C 
HETATM    5  C5  UNL     1     -35.604  14.834  -4.843  1.00 20.00     0.095 C 
HETATM    6  C6  UNL     1     -33.345  16.641  -4.615  1.00 20.00     0.151 A 
HETATM    7  C7  UNL     1     -33.926  16.357  -5.975  1.00 20.00     0.152 A 
HETATM    8  N8  UNL     1     -38.075  13.946  -5.045  1.00 20.00    -0.197 NA
HETATM    9  O9  UNL     1     -32.825  15.600  -5.467  1.00 20.00    -0.375 OA
ENDROOT
TORSDOF 0
ENDMDL
MODEL 5
REMARK VINA RESULT:      -3.9     11.586     12.280
REMARK  0 active torsions:
REMARK  status: ('A' for Active; 'I' for Inactive)
ROOT
HETATM    1  C1  UNL     1     -35.491  13.731  -4.763  1.00 20.00     0.064 C 
HETATM    2  C2  UNL     1     -36.242  15.798  -3.634  1.00 20.00     0.022 C 
HETATM    3  C3  UNL     1     -35.872  16.870  -2.608  1.00 20.00     0.036 C 
HETATM    4  C4  UNL     1     -33.892  15.596  -4.531  1.00 20.00     0.053 C 
HETATM    5  C5  UNL     1     -35.068  14.842  -3.892  1.00 20.00     0.095 C 
HETATM    6  C6  UNL     1     -34.565  17.527  -2.915  1.00 20.00     0.151 A 
HETATM    7  C7  UNL     1     -33.565  16.880  -3.836  1.00 20.00     0.152 A 
HETATM    8  N8  UNL     1     -35.825  12.857  -5.449  1.00 20.00    -0.197 NA
HETATM    9  O9  UNL     1     -33.425  16.797  -2.417  1.00 20.00    -0.375 OA
ENDROOT
TORSDOF 0
ENDMDL
MODEL 6
REMARK VINA RESULT:      -3.8     11.773     12.712
REMARK  0 active torsions:
REMARK  status: ('A' for Active; 'I' for Inactive)
ROOT
HETATM    1  C1  UNL     1     -34.283  14.896  -3.880  1.00 20.00     0.064 C 
HETATM    2  C2  UNL     1     -34.997  16.477  -2.119  1.00 20.00     0.022 C 
HETATM    3  C3  UNL     1     -34.555  17.629  -1.215  1.00 20.00     0.036 C 
HETATM    4  C4  UNL     1     -33.632  17.268  -4.089  1.00 20.00     0.053 C 
HETATM    5  C5  UNL     1     -33.899  16.101  -3.125  1.00 20.00     0.095 C 
HETATM    6  C6  UNL     1     -33.974  18.770  -1.987  1.00 20.00     0.151 A 
HETATM    7  C7  UNL     1     -33.479  18.585  -3.397  1.00 20.00     0.152 A 
HETATM    8  N8  UNL     1     -34.587  13.948  -4.474  1.00 20.00    -0.197 NA
HETATM    9  O9  UNL     1     -32.574  18.602  -2.291  1.00 20.00    -0.375 OA
ENDROOT
TORSDOF 0
ENDMDL
MODEL 7
REMARK VINA RESULT:      -3.8     11.650     12.506
REMARK  0 active torsions:
REMARK  status: ('A' for Active; 'I' for Inactive)
ROOT
HETATM    1  C1  UNL     1     -33.604  16.908  -2.363  1.00 20.00     0.064 C 
HETATM    2  C2  UNL     1     -33.485  16.863  -4.832  1.00 20.00     0.022 C 
HETATM    3  C3  UNL     1     -33.339  15.968  -6.063  1.00 20.00     0.036 C 
HETATM    4  C4  UNL     1     -34.914  15.203  -3.578  1.00 20.00     0.053 C 
HETATM    5  C5  UNL     1     -33.619  16.032  -3.548  1.00 20.00     0.095 C 
HETATM    6  C6  UNL     1     -34.367  14.884  -6.106  1.00 20.00     0.151 A 
HETATM    7  C7  UNL     1     -35.121  14.476  -4.868  1.00 20.00     0.152 A 
HETATM    8  N8  UNL     1     -33.593  17.598  -1.431  1.00 20.00    -0.197 NA
HETATM    9  O9  UNL     1     -34.004  13.719  -5.338  1.00 20.00    -0.375 OA
ENDROOT
TORSDOF 0
ENDMDL
MODEL 8
REMARK VINA RESULT:      -3.8     11.861     12.501
REMARK  0 active torsions:
REMARK  status: ('A' for Active; 'I' for Inactive)
ROOT
HETATM    1  C1  UNL     1     -35.648  13.868  -4.975  1.00 20.00     0.064 C 
HETATM    2  C2  UNL     1     -34.146  15.247  -3.578  1.00 20.00     0.022 C 
HETATM    3  C3  UNL     1     -33.740  16.673  -3.205  1.00 20.00     0.036 C 
HETATM    4  C4  UNL     1     -36.598  15.809  -3.780  1.00 20.00     0.053 C 
HETATM    5  C5  UNL     1     -35.369  15.236  -4.506  1.00 20.00     0.095 C 
HETATM    6  C6  UNL     1     -34.902  17.494  -2.744  1.00 20.00     0.151 A 
HETATM    7  C7  UNL     1     -36.317  17.089  -3.061  1.00 20.00     0.152 A 
HETATM    8  N8  UNL     1     -35.868  12.790  -5.343  1.00 20.00    -0.197 NA
HETATM    9  O9  UNL     1     -35.645  18.093  -3.825  1.00 20.00    -0.375 OA
ENDROOT
TORSDOF 0
ENDMDL
MODEL 9
REMARK VINA RESULT:      -3.8     11.701     12.072
REMARK  0 active torsions:
REMARK  status: ('A' for Active; 'I' for Inactive)
ROOT
HETATM    1  C1  UNL     1     -35.438  16.964  -2.032  1.00 20.00     0.064 C 
HETATM    2  C2  UNL     1     -33.679  16.157  -3.570  1.00 20.00     0.022 C 
HETATM    3  C3  UNL     1     -33.165  14.956  -4.365  1.00 20.00     0.036 C 
HETATM    4  C4  UNL     1     -36.109  15.615  -3.988  1.00 20.00     0.053 C 
HETATM    5  C5  UNL     1     -35.035  15.855  -2.914  1.00 20.00     0.095 C 
HETATM    6  C6  UNL     1     -34.205  14.386  -5.275  1.00 20.00     0.151 A 
HETATM    7  C7  UNL     1     -35.667  14.679  -5.067  1.00 20.00     0.152 A 
HETATM    8  N8  UNL     1     -35.755  17.837  -1.337  1.00 20.00    -0.197 NA
HETATM    9  O9  UNL     1     -35.088  13.451  -4.623  1.00 20.00    -0.375 OA
ENDROOT
TORSDOF 0
ENDMDL
