MODEL 1
REMARK VINA RESULT:      -4.6      0.000      0.000
REMARK  3 active torsions:
REMARK  status: ('A' for Active; 'I' for Inactive)
REMARK    1  A    between atoms: C1_1  and  C7_7 
REMARK    2  A    between atoms: C8_8  and  C10_10 
REMARK    3  A    between atoms: C9_9  and  C11_11 
ROOT
HETATM    1  C2  UNL     1     -35.043  13.626  -7.690  1.00 20.00     0.012 C 
HETATM    2  C3  UNL     1     -33.693  14.389  -7.918  1.00 20.00     0.006 C 
HETATM    3  C7  UNL     1     -35.889  14.497  -6.695  1.00 20.00     0.052 C 
HETATM    4  C10 UNL     1     -34.098  15.761  -7.458  1.00 20.00    -0.005 C 
HETATM    5  C11 UNL     1     -34.814  15.406  -6.150  1.00 20.00     0.004 C 
ENDROOT
BRANCH   3   6
HETATM    6  C1  UNL     1     -36.508  13.650  -5.632  1.00 20.00     0.236 C 
HETATM    7  O12 UNL     1     -35.925  12.721  -5.083  1.00 20.00    -0.306 OA
ENDBRANCH   3   6
BRANCH   5   8
HETATM    8  C9  UNL     1     -34.892  16.775  -5.453  1.00 20.00    -0.009 C 
HETATM    9  C5  UNL     1     -35.524  16.470  -4.070  1.00 20.00     0.005 C 
HETATM   10  C4  UNL     1     -34.464  15.544  -3.418  1.00 20.00     0.005 C 
HETATM   11  C8  UNL     1     -33.257  15.644  -4.373  1.00 20.00    -0.010 C 
HETATM   12  C6  UNL     1     -33.462  17.064  -4.960  1.00 20.00     0.010 C 
ENDBRANCH   5   8
TORSDOF 3
ENDMDL
MODEL 2
REMARK VINA RESULT:      -4.5      1.458      2.801
REMARK  3 active torsions:
REMARK  status: ('A' for Active; 'I' for Inactive)
REMARK    1  A    between atoms: C1_1  and  C7_7 
REMARK    2  A    between atoms: C8_8  and  C10_10 
REMARK    3  A    between atoms: C9_9  and  C11_11 
ROOT
HETATM    1  C2  UNL     1     -37.541  14.613  -5.893  1.00 20.00     0.012 C 
HETATM    2  C3  UNL     1     -37.631  15.925  -5.041  1.00 20.00     0.006 C 
HETATM    3  C7  UNL     1     -36.227  13.878  -5.446  1.00 20.00     0.052 C 
HETATM    4  C10 UNL     1     -36.692  15.567  -3.924  1.00 20.00    -0.005 C 
HETATM    5  C11 UNL     1     -35.518  15.002  -4.731  1.00 20.00     0.004 C 
ENDROOT
BRANCH   3   6
HETATM    6  C1  UNL     1     -35.459  13.383  -6.628  1.00 20.00     0.236 C 
HETATM    7  O12 UNL     1     -35.078  12.224  -6.749  1.00 20.00    -0.306 OA
ENDBRANCH   3   6
BRANCH   5   8
HETATM    8  C9  UNL     1     -34.392  14.994  -3.683  1.00 20.00    -0.009 C 
HETATM    9  C5  UNL     1     -33.134  14.543  -4.469  1.00 20.00     0.005 C 
HETATM   10  C4  UNL     1     -32.960  15.688  -5.502  1.00 20.00     0.005 C 
HETATM   11  C8  UNL     1     -33.954  16.765  -5.021  1.00 20.00    -0.010 C 
HETATM   12  C6  UNL     1     -33.995  16.471  -3.499  1.00 20.00     0.010 C 
ENDBRANCH   5   8
TORSDOF 3
ENDMDL
MODEL 3
REMARK VINA RESULT:      -4.3      1.253      3.453
REMARK  3 active torsions:
REMARK  status: ('A' for Active; 'I' for Inactive)
REMARK    1  A    between atoms: C1_1  and  C7_7 
REMARK    2  A    between atoms: C8_8  and  C10_10 
REMARK    3  A    between atoms: C9_9  and  C11_11 
ROOT
HETATM    1  C2  UNL     1     -35.020  15.902  -3.373  1.00 20.00     0.012 C 
HETATM    2  C3  UNL     1     -33.648  16.319  -4.007  1.00 20.00     0.006 C 
HETATM    3  C7  UNL     1     -35.594  14.747  -4.268  1.00 20.00     0.052 C 
HETATM    4  C10 UNL     1     -33.372  15.098  -4.838  1.00 20.00    -0.005 C 
HETATM    5  C11 UNL     1     -34.741  14.911  -5.502  1.00 20.00     0.004 C 
ENDROOT
BRANCH   3   6
HETATM    6  C1  UNL     1     -37.046  14.957  -4.550  1.00 20.00     0.236 C 
HETATM    7  O12 UNL     1     -37.852  14.039  -4.665  1.00 20.00    -0.306 OA
ENDBRANCH   3   6
BRANCH   5   8
HETATM    8  C9  UNL     1     -34.405  13.938  -6.645  1.00 20.00    -0.009 C 
HETATM    9  C5  UNL     1     -35.747  13.745  -7.397  1.00 20.00     0.005 C 
HETATM   10  C4  UNL     1     -36.045  15.176  -7.918  1.00 20.00     0.005 C 
HETATM   11  C8  UNL     1     -34.736  15.944  -7.640  1.00 20.00    -0.010 C 
HETATM   12  C6  UNL     1     -33.698  14.794  -7.714  1.00 20.00     0.010 C 
ENDBRANCH   5   8
TORSDOF 3
ENDMDL
MODEL 4
REMARK VINA RESULT:      -4.2      2.105      3.225
REMARK  3 active torsions:
REMARK  status: ('A' for Active; 'I' for Inactive)
REMARK    1  A    between atoms: C1_1  and  C7_7 
REMARK    2  A    between atoms: C8_8  and  C10_10 
REMARK    3  A    between atoms: C9_9  and  C11_11 
ROOT
HETATM    1  C2  UNL     1     -35.460  14.128  -5.463  1.00 20.00     0.012 C 
HETATM    2  C3  UNL     1     -36.676  15.115  -5.434  1.00 20.00     0.006 C 
HETATM    3  C7  UNL     1     -34.636  14.393  -4.153  1.00 20.00     0.052 C 
HETATM    4  C10 UNL     1     -36.691  15.456  -3.971  1.00 20.00    -0.005 C 
HETATM    5  C11 UNL     1     -35.200  15.732  -3.745  1.00 20.00     0.004 C 
ENDROOT
BRANCH   3   6
HETATM    6  C1  UNL     1     -33.172  14.458  -4.443  1.00 20.00     0.236 C 
HETATM    7  O12 UNL     1     -32.378  13.584  -4.112  1.00 20.00    -0.306 OA
ENDBRANCH   3   6
BRANCH   5   8
HETATM    8  C9  UNL     1     -35.217  16.460  -2.390  1.00 20.00    -0.009 C 
HETATM    9  C5  UNL     1     -33.752  16.922  -2.180  1.00 20.00     0.005 C 
HETATM   10  C4  UNL     1     -33.539  17.900  -3.366  1.00 20.00     0.005 C 
HETATM   11  C8  UNL     1     -34.957  18.085  -3.944  1.00 20.00    -0.010 C 
HETATM   12  C6  UNL     1     -35.824  17.846  -2.681  1.00 20.00     0.010 C 
ENDBRANCH   5   8
TORSDOF 3
ENDMDL
MODEL 5
REMARK VINA RESULT:      -4.2      1.167      3.304
REMARK  3 active torsions:
REMARK  status: ('A' for Active; 'I' for Inactive)
REMARK    1  A    between atoms: C1_1  and  C7_7 
REMARK    2  A    between atoms: C8_8  and  C10_10 
REMARK    3  A    between atoms: C9_9  and  C11_11 
ROOT
HETATM    1  C2  UNL     1     -34.650  15.567  -3.339  1.00 20.00     0.012 C 
HETATM    2  C3  UNL     1     -34.071  16.969  -3.735  1.00 20.00     0.006 C 
HETATM    3  C7  UNL     1     -34.559  14.666  -4.622  1.00 20.00     0.052 C 
HETATM    4  C10 UNL     1     -33.302  16.586  -4.968  1.00 20.00    -0.005 C 
HETATM    5  C11 UNL     1     -34.348  15.721  -5.680  1.00 20.00     0.004 C 
ENDROOT
BRANCH   3   6
HETATM    6  C1  UNL     1     -35.824  13.899  -4.830  1.00 20.00     0.236 C 
HETATM    7  O12 UNL     1     -35.857  12.763  -5.292  1.00 20.00    -0.306 OA
ENDBRANCH   3   6
BRANCH   5   8
HETATM    8  C9  UNL     1     -33.770  15.637  -7.102  1.00 20.00    -0.009 C 
HETATM    9  C5  UNL     1     -34.844  14.864  -7.912  1.00 20.00     0.005 C 
HETATM   10  C4  UNL     1     -36.066  15.816  -7.835  1.00 20.00     0.005 C 
HETATM   11  C8  UNL     1     -35.482  17.111  -7.235  1.00 20.00    -0.010 C 
HETATM   12  C6  UNL     1     -34.013  17.026  -7.724  1.00 20.00     0.010 C 
ENDBRANCH   5   8
TORSDOF 3
ENDMDL
MODEL 6
REMARK VINA RESULT:      -4.1      1.234      3.814
REMARK  3 active torsions:
REMARK  status: ('A' for Active; 'I' for Inactive)
REMARK    1  A    between atoms: C1_1  and  C7_7 
REMARK    2  A    between atoms: C8_8  and  C10_10 
REMARK    3  A    between atoms: C9_9  and  C11_11 
ROOT
HETATM    1  C2  UNL     1     -34.734  15.837  -3.221  1.00 20.00     0.012 C 
HETATM    2  C3  UNL     1     -36.226  15.994  -3.675  1.00 20.00     0.006 C 
HETATM    3  C7  UNL     1     -33.864  15.850  -4.528  1.00 20.00     0.052 C 
HETATM    4  C10 UNL     1     -36.013  16.549  -5.055  1.00 20.00    -0.005 C 
HETATM    5  C11 UNL     1     -34.930  15.593  -5.565  1.00 20.00     0.004 C 
ENDROOT
BRANCH   3   6
HETATM    6  C1  UNL     1     -32.831  14.772  -4.496  1.00 20.00     0.236 C 
HETATM    7  O12 UNL     1     -33.084  13.601  -4.234  1.00 20.00    -0.306 OA
ENDBRANCH   3   6
BRANCH   5   8
HETATM    8  C9  UNL     1     -34.964  15.859  -7.080  1.00 20.00    -0.009 C 
HETATM    9  C5  UNL     1     -33.977  14.823  -7.678  1.00 20.00     0.005 C 
HETATM   10  C4  UNL     1     -34.647  13.474  -7.308  1.00 20.00     0.005 C 
HETATM   11  C8  UNL     1     -36.040  13.889  -6.791  1.00 20.00    -0.010 C 
HETATM   12  C6  UNL     1     -36.267  15.205  -7.579  1.00 20.00     0.010 C 
ENDBRANCH   5   8
TORSDOF 3
ENDMDL
MODEL 7
REMARK VINA RESULT:      -4.1      2.148      2.732
REMARK  3 active torsions:
REMARK  status: ('A' for Active; 'I' for Inactive)
REMARK    1  A    between atoms: C1_1  and  C7_7 
REMARK    2  A    between atoms: C8_8  and  C10_10 
REMARK    3  A    between atoms: C9_9  and  C11_11 
ROOT
HETATM    1  C2  UNL     1     -35.209  13.912  -4.727  1.00 20.00     0.012 C 
HETATM    2  C3  UNL     1     -33.785  14.157  -4.119  1.00 20.00     0.006 C 
HETATM    3  C7  UNL     1     -35.912  15.314  -4.801  1.00 20.00     0.052 C 
HETATM    4  C10 UNL     1     -33.654  15.633  -4.368  1.00 20.00    -0.005 C 
HETATM    5  C11 UNL     1     -35.025  16.111  -3.876  1.00 20.00     0.004 C 
ENDROOT
BRANCH   3   6
HETATM    6  C1  UNL     1     -37.320  15.235  -4.310  1.00 20.00     0.236 C 
HETATM    7  O12 UNL     1     -38.064  14.287  -4.539  1.00 20.00    -0.306 OA
ENDBRANCH   3   6
BRANCH   5   8
HETATM    8  C9  UNL     1     -34.798  17.625  -3.736  1.00 20.00    -0.009 C 
HETATM    9  C5  UNL     1     -36.084  18.148  -3.045  1.00 20.00     0.005 C 
HETATM   10  C4  UNL     1     -36.043  17.423  -1.674  1.00 20.00     0.005 C 
HETATM   11  C8  UNL     1     -34.634  16.796  -1.636  1.00 20.00    -0.010 C 
HETATM   12  C6  UNL     1     -33.847  17.785  -2.534  1.00 20.00     0.010 C 
ENDBRANCH   5   8
TORSDOF 3
ENDMDL
MODEL 8
REMARK VINA RESULT:      -4.0      2.005      3.965
REMARK  3 active torsions:
REMARK  status: ('A' for Active; 'I' for Inactive)
REMARK    1  A    between atoms: C1_1  and  C7_7 
REMARK    2  A    between atoms: C8_8  and  C10_10 
REMARK    3  A    between atoms: C9_9  and  C11_11 
ROOT
HETATM    1  C2  UNL     1     -34.242  16.350  -3.122  1.00 20.00     0.012 C 
HETATM    2  C3  UNL     1     -33.270  15.489  -4.000  1.00 20.00     0.006 C 
HETATM    3  C7  UNL     1     -35.676  15.738  -3.311  1.00 20.00     0.052 C 
HETATM    4  C10 UNL     1     -34.113  14.259  -4.180  1.00 20.00    -0.005 C 
HETATM    5  C11 UNL     1     -35.454  14.904  -4.549  1.00 20.00     0.004 C 
ENDROOT
BRANCH   3   6
HETATM    6  C1  UNL     1     -36.694  16.811  -3.524  1.00 20.00     0.236 C 
HETATM    7  O12 UNL     1     -36.536  17.747  -4.301  1.00 20.00    -0.306 OA
ENDBRANCH   3   6
BRANCH   5   8
HETATM    8  C9  UNL     1     -36.230  13.708  -5.125  1.00 20.00    -0.009 C 
HETATM    9  C5  UNL     1     -37.556  14.320  -5.646  1.00 20.00     0.005 C 
HETATM   10  C4  UNL     1     -37.062  15.284  -6.757  1.00 20.00     0.005 C 
HETATM   11  C8  UNL     1     -35.573  14.918  -6.920  1.00 20.00    -0.010 C 
HETATM   12  C6  UNL     1     -35.587  13.427  -6.497  1.00 20.00     0.010 C 
ENDBRANCH   5   8
TORSDOF 3
ENDMDL
MODEL 9
REMARK VINA RESULT:      -4.0      1.621      2.188
REMARK  3 active torsions:
REMARK  status: ('A' for Active; 'I' for Inactive)
REMARK    1  A    between atoms: C1_1  and  C7_7 
REMARK    2  A    between atoms: C8_8  and  C10_10 
REMARK    3  A    between atoms: C9_9  and  C11_11 
ROOT
HETATM    1  C2  UNL     1     -36.210  14.729  -7.828  1.00 20.00     0.012 C 
HETATM    2  C3  UNL     1     -35.392  13.438  -7.482  1.00 20.00     0.006 C 
HETATM    3  C7  UNL     1     -35.452  15.931  -7.159  1.00 20.00     0.052 C 
HETATM    4  C10 UNL     1     -34.078  14.062  -7.109  1.00 20.00    -0.005 C 
HETATM    5  C11 UNL     1     -34.566  15.187  -6.190  1.00 20.00     0.004 C 
ENDROOT
BRANCH   3   6
HETATM    6  C1  UNL     1     -36.406  16.848  -6.466  1.00 20.00     0.236 C 
HETATM    7  O12 UNL     1     -37.304  16.457  -5.727  1.00 20.00    -0.306 OA
ENDBRANCH   3   6
BRANCH   5   8
HETATM    8  C9  UNL     1     -33.266  15.596  -5.477  1.00 20.00    -0.009 C 
HETATM    9  C5  UNL     1     -33.718  16.625  -4.408  1.00 20.00     0.005 C 
HETATM   10  C4  UNL     1     -34.640  15.774  -3.496  1.00 20.00     0.005 C 
HETATM   11  C8  UNL     1     -34.400  14.330  -3.982  1.00 20.00    -0.010 C 
HETATM   12  C6  UNL     1     -32.947  14.436  -4.514  1.00 20.00     0.010 C 
ENDBRANCH   5   8
TORSDOF 3
ENDMDL
