MODEL 1
REMARK VINA RESULT:      -4.7      0.000      0.000
REMARK  0 active torsions:
REMARK  status: ('A' for Active; 'I' for Inactive)
ROOT
HETATM    1  C1  UNL     1     -34.365   5.951   5.808  1.00 20.00    -0.025 A 
HETATM    2  C2  UNL     1     -33.821   7.101   5.380  1.00 20.00     0.003 A 
HETATM    3  C3  UNL     1     -34.753   5.098   4.622  1.00 20.00     0.061 A 
HETATM    4  C4  UNL     1     -33.739   7.192   3.914  1.00 20.00     0.173 A 
HETATM    5  C5  UNL     1     -34.434   5.942   3.410  1.00 20.00     0.158 A 
HETATM    6  O6  UNL     1     -33.061   6.201   3.124  1.00 20.00    -0.371 OA
ENDROOT
TORSDOF 0
ENDMDL
MODEL 2
REMARK VINA RESULT:      -4.6      1.049      1.910
REMARK  0 active torsions:
REMARK  status: ('A' for Active; 'I' for Inactive)
ROOT
HETATM    1  C1  UNL     1     -33.703   7.181   5.602  1.00 20.00    -0.025 A 
HETATM    2  C2  UNL     1     -34.403   6.069   5.875  1.00 20.00     0.003 A 
HETATM    3  C3  UNL     1     -33.470   7.284   4.112  1.00 20.00     0.061 A 
HETATM    4  C4  UNL     1     -34.755   5.297   4.673  1.00 20.00     0.173 A 
HETATM    5  C5  UNL     1     -34.067   6.023   3.533  1.00 20.00     0.158 A 
HETATM    6  O6  UNL     1     -35.486   5.879   3.580  1.00 20.00    -0.371 OA
ENDROOT
TORSDOF 0
ENDMDL
MODEL 3
REMARK VINA RESULT:      -4.5      0.734      1.191
REMARK  0 active torsions:
REMARK  status: ('A' for Active; 'I' for Inactive)
ROOT
HETATM    1  C1  UNL     1     -33.880   6.906   5.681  1.00 20.00    -0.025 A 
HETATM    2  C2  UNL     1     -33.621   7.249   4.409  1.00 20.00     0.003 A 
HETATM    3  C3  UNL     1     -34.617   5.586   5.712  1.00 20.00     0.061 A 
HETATM    4  C4  UNL     1     -34.097   6.257   3.432  1.00 20.00     0.173 A 
HETATM    5  C5  UNL     1     -34.835   5.224   4.261  1.00 20.00     0.158 A 
HETATM    6  O6  UNL     1     -33.690   4.880   3.484  1.00 20.00    -0.371 OA
ENDROOT
TORSDOF 0
ENDMDL
MODEL 4
REMARK VINA RESULT:      -4.4      0.986      1.776
REMARK  0 active torsions:
REMARK  status: ('A' for Active; 'I' for Inactive)
ROOT
HETATM    1  C1  UNL     1     -34.491   4.766   4.471  1.00 20.00    -0.025 A 
HETATM    2  C2  UNL     1     -34.525   5.383   5.663  1.00 20.00     0.003 A 
HETATM    3  C3  UNL     1     -34.133   5.762   3.392  1.00 20.00     0.061 A 
HETATM    4  C4  UNL     1     -34.191   6.813   5.584  1.00 20.00     0.173 A 
HETATM    5  C5  UNL     1     -34.034   7.092   4.102  1.00 20.00     0.158 A 
HETATM    6  O6  UNL     1     -32.955   7.278   5.016  1.00 20.00    -0.371 OA
ENDROOT
TORSDOF 0
ENDMDL
MODEL 5
REMARK VINA RESULT:      -4.3      1.293      2.418
REMARK  0 active torsions:
REMARK  status: ('A' for Active; 'I' for Inactive)
ROOT
HETATM    1  C1  UNL     1     -33.523   7.198   4.195  1.00 20.00    -0.025 A 
HETATM    2  C2  UNL     1     -34.165   6.244   3.502  1.00 20.00     0.003 A 
HETATM    3  C3  UNL     1     -33.784   7.017   5.672  1.00 20.00     0.061 A 
HETATM    4  C4  UNL     1     -34.904   5.303   4.358  1.00 20.00     0.173 A 
HETATM    5  C5  UNL     1     -34.747   5.856   5.762  1.00 20.00     0.158 A 
HETATM    6  O6  UNL     1     -34.261   4.562   5.409  1.00 20.00    -0.371 OA
ENDROOT
TORSDOF 0
ENDMDL
MODEL 6
REMARK VINA RESULT:      -4.3      0.890      1.808
REMARK  0 active torsions:
REMARK  status: ('A' for Active; 'I' for Inactive)
ROOT
HETATM    1  C1  UNL     1     -34.515   5.633   5.912  1.00 20.00    -0.025 A 
HETATM    2  C2  UNL     1     -34.541   4.649   4.999  1.00 20.00     0.003 A 
HETATM    3  C3  UNL     1     -34.007   6.906   5.275  1.00 20.00     0.061 A 
HETATM    4  C4  UNL     1     -34.098   5.085   3.665  1.00 20.00     0.173 A 
HETATM    5  C5  UNL     1     -33.652   6.522   3.857  1.00 20.00     0.158 A 
HETATM    6  O6  UNL     1     -34.720   6.181   2.975  1.00 20.00    -0.371 OA
ENDROOT
TORSDOF 0
ENDMDL
MODEL 7
REMARK VINA RESULT:      -3.8      1.575      2.284
REMARK  0 active torsions:
REMARK  status: ('A' for Active; 'I' for Inactive)
ROOT
HETATM    1  C1  UNL     1     -33.121   4.724   2.897  1.00 20.00    -0.025 A 
HETATM    2  C2  UNL     1     -33.316   6.052   2.856  1.00 20.00     0.003 A 
HETATM    3  C3  UNL     1     -33.993   4.114   3.970  1.00 20.00     0.061 A 
HETATM    4  C4  UNL     1     -34.315   6.521   3.829  1.00 20.00     0.173 A 
HETATM    5  C5  UNL     1     -34.687   5.285   4.626  1.00 20.00     0.158 A 
HETATM    6  O6  UNL     1     -35.654   5.998   3.858  1.00 20.00    -0.371 OA
ENDROOT
TORSDOF 0
ENDMDL
MODEL 8
REMARK VINA RESULT:      -3.8      1.195      2.062
REMARK  0 active torsions:
REMARK  status: ('A' for Active; 'I' for Inactive)
ROOT
HETATM    1  C1  UNL     1     -34.364   6.557   4.967  1.00 20.00    -0.025 A 
HETATM    2  C2  UNL     1     -34.218   5.967   3.770  1.00 20.00     0.003 A 
HETATM    3  C3  UNL     1     -33.323   7.640   5.131  1.00 20.00     0.061 A 
HETATM    4  C4  UNL     1     -33.128   6.544   2.969  1.00 20.00     0.173 A 
HETATM    5  C5  UNL     1     -32.475   7.563   3.883  1.00 20.00     0.158 A 
HETATM    6  O6  UNL     1     -33.075   7.944   2.647  1.00 20.00    -0.371 OA
ENDROOT
TORSDOF 0
ENDMDL
MODEL 9
REMARK VINA RESULT:      -3.4     15.660     16.473
REMARK  0 active torsions:
REMARK  status: ('A' for Active; 'I' for Inactive)
ROOT
HETATM    1  C1  UNL     1     -25.273  18.664  11.527  1.00 20.00    -0.025 A 
HETATM    2  C2  UNL     1     -25.531  17.351  11.425  1.00 20.00     0.003 A 
HETATM    3  C3  UNL     1     -23.831  18.930  11.162  1.00 20.00     0.061 A 
HETATM    4  C4  UNL     1     -24.371  16.565  10.977  1.00 20.00     0.173 A 
HETATM    5  C5  UNL     1     -23.234  17.567  10.901  1.00 20.00     0.158 A 
HETATM    6  O6  UNL     1     -23.682  16.855   9.749  1.00 20.00    -0.371 OA
ENDROOT
TORSDOF 0
ENDMDL
