MODEL 1
REMARK VINA RESULT:      -3.5      0.000      0.000
REMARK  1 active torsions:
REMARK  status: ('A' for Active; 'I' for Inactive)
REMARK    1  A    between atoms: N5_5  and  N6_6 
ROOT
HETATM    1  C1  UNL     1     -32.330   7.586   3.191  1.00 20.00     0.101 C 
HETATM    2  C2  UNL     1     -31.917   8.476   2.062  1.00 20.00     0.058 C 
HETATM    3  N5  UNL     1     -33.580   7.340   3.410  1.00 20.00    -0.217 NA
ENDROOT
BRANCH   3   4
HETATM    4  N6  UNL     1     -33.771   6.520   4.476  1.00 20.00    -0.217 NA
HETATM    5  C3  UNL     1     -34.953   5.662   4.349  1.00 20.00     0.138 C 
HETATM    6  C4  UNL     1     -33.813   7.194   5.780  1.00 20.00     0.138 C 
ENDBRANCH   3   4
TORSDOF 1
ENDMDL
MODEL 2
REMARK VINA RESULT:      -3.5      0.975      1.637
REMARK  1 active torsions:
REMARK  status: ('A' for Active; 'I' for Inactive)
REMARK    1  A    between atoms: N5_5  and  N6_6 
ROOT
HETATM    1  C1  UNL     1     -33.075   7.329   3.600  1.00 20.00     0.101 C 
HETATM    2  C2  UNL     1     -32.230   7.942   2.527  1.00 20.00     0.058 C 
HETATM    3  N5  UNL     1     -33.839   6.320   3.339  1.00 20.00    -0.217 NA
ENDROOT
BRANCH   3   4
HETATM    4  N6  UNL     1     -34.537   5.899   4.425  1.00 20.00    -0.217 NA
HETATM    5  C3  UNL     1     -34.134   6.557   5.671  1.00 20.00     0.138 C 
HETATM    6  C4  UNL     1     -34.540   4.445   4.637  1.00 20.00     0.138 C 
ENDBRANCH   3   4
TORSDOF 1
ENDMDL
MODEL 3
REMARK VINA RESULT:      -3.2      1.332      3.469
REMARK  1 active torsions:
REMARK  status: ('A' for Active; 'I' for Inactive)
REMARK    1  A    between atoms: N5_5  and  N6_6 
ROOT
HETATM    1  C1  UNL     1     -33.584   6.872   3.876  1.00 20.00     0.101 C 
HETATM    2  C2  UNL     1     -34.728   6.016   4.322  1.00 20.00     0.058 C 
HETATM    3  N5  UNL     1     -33.222   6.892   2.635  1.00 20.00    -0.217 NA
ENDROOT
BRANCH   3   4
HETATM    4  N6  UNL     1     -32.166   7.716   2.413  1.00 20.00    -0.217 NA
HETATM    5  C3  UNL     1     -31.545   8.216   3.642  1.00 20.00     0.138 C 
HETATM    6  C4  UNL     1     -32.442   8.854   1.525  1.00 20.00     0.138 C 
ENDBRANCH   3   4
TORSDOF 1
ENDMDL
MODEL 4
REMARK VINA RESULT:      -3.2      1.191      1.519
REMARK  1 active torsions:
REMARK  status: ('A' for Active; 'I' for Inactive)
REMARK    1  A    between atoms: N5_5  and  N6_6 
ROOT
HETATM    1  C1  UNL     1     -32.550   7.405   2.565  1.00 20.00     0.101 C 
HETATM    2  C2  UNL     1     -32.039   8.736   2.111  1.00 20.00     0.058 C 
HETATM    3  N5  UNL     1     -33.414   7.324   3.523  1.00 20.00    -0.217 NA
ENDROOT
BRANCH   3   4
HETATM    4  N6  UNL     1     -33.760   6.042   3.807  1.00 20.00    -0.217 NA
HETATM    5  C3  UNL     1     -33.248   5.070   2.839  1.00 20.00     0.138 C 
HETATM    6  C4  UNL     1     -35.200   5.814   3.992  1.00 20.00     0.138 C 
ENDBRANCH   3   4
TORSDOF 1
ENDMDL
MODEL 5
REMARK VINA RESULT:      -3.1      1.145      3.214
REMARK  1 active torsions:
REMARK  status: ('A' for Active; 'I' for Inactive)
REMARK    1  A    between atoms: N5_5  and  N6_6 
ROOT
HETATM    1  C1  UNL     1     -34.110   6.011   4.578  1.00 20.00     0.101 C 
HETATM    2  C2  UNL     1     -34.698   5.353   5.786  1.00 20.00     0.058 C 
HETATM    3  N5  UNL     1     -33.485   7.138   4.682  1.00 20.00    -0.217 NA
ENDROOT
BRANCH   3   4
HETATM    4  N6  UNL     1     -33.024   7.591   3.488  1.00 20.00    -0.217 NA
HETATM    5  C3  UNL     1     -33.092   6.592   2.418  1.00 20.00     0.138 C 
HETATM    6  C4  UNL     1     -31.670   8.160   3.519  1.00 20.00     0.138 C 
ENDBRANCH   3   4
TORSDOF 1
ENDMDL
MODEL 6
REMARK VINA RESULT:      -3.1      1.310      1.544
REMARK  1 active torsions:
REMARK  status: ('A' for Active; 'I' for Inactive)
REMARK    1  A    between atoms: N5_5  and  N6_6 
ROOT
HETATM    1  C1  UNL     1     -32.053   8.342   1.908  1.00 20.00     0.101 C 
HETATM    2  C2  UNL     1     -32.062   9.443   0.893  1.00 20.00     0.058 C 
HETATM    3  N5  UNL     1     -33.143   7.993   2.508  1.00 20.00    -0.217 NA
ENDROOT
BRANCH   3   4
HETATM    4  N6  UNL     1     -32.949   6.986   3.398  1.00 20.00    -0.217 NA
HETATM    5  C3  UNL     1     -33.284   5.662   2.866  1.00 20.00     0.138 C 
HETATM    6  C4  UNL     1     -33.621   7.161   4.692  1.00 20.00     0.138 C 
ENDBRANCH   3   4
TORSDOF 1
ENDMDL
MODEL 7
REMARK VINA RESULT:      -3.1      1.232      3.345
REMARK  1 active torsions:
REMARK  status: ('A' for Active; 'I' for Inactive)
REMARK    1  A    between atoms: N5_5  and  N6_6 
ROOT
HETATM    1  C1  UNL     1     -33.987   6.716   3.958  1.00 20.00     0.101 C 
HETATM    2  C2  UNL     1     -34.738   5.445   4.198  1.00 20.00     0.058 C 
HETATM    3  N5  UNL     1     -33.305   6.882   2.872  1.00 20.00    -0.217 NA
ENDROOT
BRANCH   3   4
HETATM    4  N6  UNL     1     -32.684   8.089   2.825  1.00 20.00    -0.217 NA
HETATM    5  C3  UNL     1     -32.406   8.551   1.463  1.00 20.00     0.138 C 
HETATM    6  C4  UNL     1     -31.452   8.185   3.619  1.00 20.00     0.138 C 
ENDBRANCH   3   4
TORSDOF 1
ENDMDL
MODEL 8
REMARK VINA RESULT:      -3.0      2.126      2.928
REMARK  1 active torsions:
REMARK  status: ('A' for Active; 'I' for Inactive)
REMARK    1  A    between atoms: N5_5  and  N6_6 
ROOT
HETATM    1  C1  UNL     1     -33.937   6.476   5.361  1.00 20.00     0.101 C 
HETATM    2  C2  UNL     1     -33.712   7.706   6.183  1.00 20.00     0.058 C 
HETATM    3  N5  UNL     1     -33.897   6.532   4.070  1.00 20.00    -0.217 NA
ENDROOT
BRANCH   3   4
HETATM    4  N6  UNL     1     -34.129   5.327   3.488  1.00 20.00    -0.217 NA
HETATM    5  C3  UNL     1     -34.447   4.266   4.447  1.00 20.00     0.138 C 
HETATM    6  C4  UNL     1     -33.065   4.854   2.592  1.00 20.00     0.138 C 
ENDBRANCH   3   4
TORSDOF 1
ENDMDL
MODEL 9
REMARK VINA RESULT:      -3.0      2.715      4.548
REMARK  1 active torsions:
REMARK  status: ('A' for Active; 'I' for Inactive)
REMARK    1  A    between atoms: N5_5  and  N6_6 
ROOT
HETATM    1  C1  UNL     1     -32.768   8.113   2.170  1.00 20.00     0.101 C 
HETATM    2  C2  UNL     1     -32.602   6.978   3.131  1.00 20.00     0.058 C 
HETATM    3  N5  UNL     1     -31.772   8.516   1.450  1.00 20.00    -0.217 NA
ENDROOT
BRANCH   3   4
HETATM    4  N6  UNL     1     -32.101   9.556   0.641  1.00 20.00    -0.217 NA
HETATM    5  C3  UNL     1     -32.644  10.710   1.363  1.00 20.00     0.138 C 
HETATM    6  C4  UNL     1     -33.006   9.221  -0.467  1.00 20.00     0.138 C 
ENDBRANCH   3   4
TORSDOF 1
ENDMDL
