MODEL 1
REMARK VINA RESULT:      -5.4      0.000      0.000
REMARK  3 active torsions:
REMARK  status: ('A' for Active; 'I' for Inactive)
REMARK    1  A    between atoms: C2_2  and  C6_6 
REMARK    2  A    between atoms: C6_6  and  C7_7 
REMARK    3  A    between atoms: C6_6  and  O8_8 
ROOT
HETATM    1  C6  UNL     1     -33.955   6.023   3.431  1.00 20.00     0.144 C 
ENDROOT
BRANCH   1   2
HETATM    2  C2  UNL     1     -32.802   6.932   3.105  1.00 20.00     0.000 C 
HETATM    3  C1  UNL     1     -32.856   7.900   2.180  1.00 20.00    -0.033 C 
HETATM    4  C3  UNL     1     -31.714   8.806   1.856  1.00 20.00     0.036 C 
ENDBRANCH   1   2
BRANCH   1   5
HETATM    5  C7  UNL     1     -34.511   6.171   4.867  1.00 20.00     0.010 C 
HETATM    6  C4  UNL     1     -33.747   7.194   5.714  1.00 20.00     0.012 C 
HETATM    7  C5  UNL     1     -34.576   4.826   5.594  1.00 20.00     0.012 C 
ENDBRANCH   1   5
BRANCH   1   8
HETATM    8  O8  UNL     1     -33.508   4.680   3.232  1.00 20.00    -0.391 OA
HETATM    9  H22 UNL     1     -32.540   4.712   3.226  1.00 20.00     0.210 HD
ENDBRANCH   1   8
TORSDOF 3
ENDMDL
MODEL 2
REMARK VINA RESULT:      -5.3      1.686      1.999
REMARK  3 active torsions:
REMARK  status: ('A' for Active; 'I' for Inactive)
REMARK    1  A    between atoms: C2_2  and  C6_6 
REMARK    2  A    between atoms: C6_6  and  C7_7 
REMARK    3  A    between atoms: C6_6  and  O8_8 
ROOT
HETATM    1  C6  UNL     1     -32.610   7.336   3.567  1.00 20.00     0.144 C 
ENDROOT
BRANCH   1   2
HETATM    2  C2  UNL     1     -32.801   7.962   2.213  1.00 20.00     0.000 C 
HETATM    3  C1  UNL     1     -32.159   9.066   1.807  1.00 20.00    -0.033 C 
HETATM    4  C3  UNL     1     -32.344   9.688   0.462  1.00 20.00     0.036 C 
ENDBRANCH   1   2
BRANCH   1   5
HETATM    5  C7  UNL     1     -33.914   7.113   4.369  1.00 20.00     0.010 C 
HETATM    6  C4  UNL     1     -33.728   7.251   5.884  1.00 20.00     0.012 C 
HETATM    7  C5  UNL     1     -34.564   5.768   4.036  1.00 20.00     0.012 C 
ENDBRANCH   1   5
BRANCH   1   8
HETATM    8  O8  UNL     1     -31.737   8.189   4.311  1.00 20.00    -0.391 OA
HETATM    9  H22 UNL     1     -31.847   9.079   3.945  1.00 20.00     0.210 HD
ENDBRANCH   1   8
TORSDOF 3
ENDMDL
MODEL 3
REMARK VINA RESULT:      -4.9      1.604      2.216
REMARK  3 active torsions:
REMARK  status: ('A' for Active; 'I' for Inactive)
REMARK    1  A    between atoms: C2_2  and  C6_6 
REMARK    2  A    between atoms: C6_6  and  C7_7 
REMARK    3  A    between atoms: C6_6  and  O8_8 
ROOT
HETATM    1  C6  UNL     1     -32.860   7.063   3.492  1.00 20.00     0.144 C 
ENDROOT
BRANCH   1   2
HETATM    2  C2  UNL     1     -32.918   8.272   2.600  1.00 20.00     0.000 C 
HETATM    3  C1  UNL     1     -32.057   8.500   1.598  1.00 20.00    -0.033 C 
HETATM    4  C3  UNL     1     -32.114   9.698   0.709  1.00 20.00     0.036 C 
ENDBRANCH   1   2
BRANCH   1   5
HETATM    5  C7  UNL     1     -33.835   5.925   3.108  1.00 20.00     0.010 C 
HETATM    6  C4  UNL     1     -34.810   5.554   4.230  1.00 20.00     0.012 C 
HETATM    7  C5  UNL     1     -33.092   4.679   2.619  1.00 20.00     0.012 C 
ENDBRANCH   1   5
BRANCH   1   8
HETATM    8  O8  UNL     1     -33.144   7.501   4.822  1.00 20.00    -0.391 OA
HETATM    9  H22 UNL     1     -32.297   7.768   5.208  1.00 20.00     0.210 HD
ENDBRANCH   1   8
TORSDOF 3
ENDMDL
MODEL 4
REMARK VINA RESULT:      -4.6      1.867      4.597
REMARK  3 active torsions:
REMARK  status: ('A' for Active; 'I' for Inactive)
REMARK    1  A    between atoms: C2_2  and  C6_6 
REMARK    2  A    between atoms: C6_6  and  C7_7 
REMARK    3  A    between atoms: C6_6  and  O8_8 
ROOT
HETATM    1  C6  UNL     1     -32.568   8.358   2.765  1.00 20.00     0.144 C 
ENDROOT
BRANCH   1   2
HETATM    2  C2  UNL     1     -33.207   7.007   2.933  1.00 20.00     0.000 C 
HETATM    3  C1  UNL     1     -34.013   6.687   3.955  1.00 20.00    -0.033 C 
HETATM    4  C3  UNL     1     -34.651   5.348   4.123  1.00 20.00     0.036 C 
ENDBRANCH   1   2
BRANCH   1   5
HETATM    5  C7  UNL     1     -32.541   8.887   1.312  1.00 20.00     0.010 C 
HETATM    6  C4  UNL     1     -31.231   8.583   0.578  1.00 20.00     0.012 C 
HETATM    7  C5  UNL     1     -32.849  10.385   1.245  1.00 20.00     0.012 C 
ENDBRANCH   1   5
BRANCH   1   8
HETATM    8  O8  UNL     1     -31.230   8.261   3.259  1.00 20.00    -0.391 OA
HETATM    9  H22 UNL     1     -30.905   7.388   2.995  1.00 20.00     0.210 HD
ENDBRANCH   1   8
TORSDOF 3
ENDMDL
MODEL 5
REMARK VINA RESULT:      -4.0      1.730      4.082
REMARK  3 active torsions:
REMARK  status: ('A' for Active; 'I' for Inactive)
REMARK    1  A    between atoms: C2_2  and  C6_6 
REMARK    2  A    between atoms: C6_6  and  C7_7 
REMARK    3  A    between atoms: C6_6  and  O8_8 
ROOT
HETATM    1  C6  UNL     1     -33.498   7.302   2.735  1.00 20.00     0.144 C 
ENDROOT
BRANCH   1   2
HETATM    2  C2  UNL     1     -33.559   5.833   3.051  1.00 20.00     0.000 C 
HETATM    3  C1  UNL     1     -34.199   5.327   4.115  1.00 20.00    -0.033 C 
HETATM    4  C3  UNL     1     -34.264   3.869   4.429  1.00 20.00     0.036 C 
ENDBRANCH   1   2
BRANCH   1   5
HETATM    5  C7  UNL     1     -32.090   7.829   2.368  1.00 20.00     0.010 C 
HETATM    6  C4  UNL     1     -31.295   8.332   3.577  1.00 20.00     0.012 C 
HETATM    7  C5  UNL     1     -32.151   8.911   1.288  1.00 20.00     0.012 C 
ENDBRANCH   1   5
BRANCH   1   8
HETATM    8  O8  UNL     1     -33.983   8.004   3.881  1.00 20.00    -0.391 OA
HETATM    9  H22 UNL     1     -34.806   7.566   4.142  1.00 20.00     0.210 HD
ENDBRANCH   1   8
TORSDOF 3
ENDMDL
MODEL 6
REMARK VINA RESULT:      -3.9      2.332      4.812
REMARK  3 active torsions:
REMARK  status: ('A' for Active; 'I' for Inactive)
REMARK    1  A    between atoms: C2_2  and  C6_6 
REMARK    2  A    between atoms: C6_6  and  C7_7 
REMARK    3  A    between atoms: C6_6  and  O8_8 
ROOT
HETATM    1  C6  UNL     1     -31.721   8.773   1.494  1.00 20.00     0.144 C 
ENDROOT
BRANCH   1   2
HETATM    2  C2  UNL     1     -32.728   7.837   2.102  1.00 20.00     0.000 C 
HETATM    3  C1  UNL     1     -32.760   7.522   3.404  1.00 20.00    -0.033 C 
HETATM    4  C3  UNL     1     -33.760   6.594   4.011  1.00 20.00     0.036 C 
ENDBRANCH   1   2
BRANCH   1   5
HETATM    5  C7  UNL     1     -32.328   9.997   0.768  1.00 20.00     0.010 C 
HETATM    6  C4  UNL     1     -33.056  10.963   1.707  1.00 20.00     0.012 C 
HETATM    7  C5  UNL     1     -33.251   9.578  -0.379  1.00 20.00     0.012 C 
ENDBRANCH   1   5
BRANCH   1   8
HETATM    8  O8  UNL     1     -30.937   8.015   0.571  1.00 20.00    -0.391 OA
HETATM    9  H22 UNL     1     -30.018   8.295   0.699  1.00 20.00     0.210 HD
ENDBRANCH   1   8
TORSDOF 3
ENDMDL
MODEL 7
REMARK VINA RESULT:      -3.8     11.572     12.183
REMARK  3 active torsions:
REMARK  status: ('A' for Active; 'I' for Inactive)
REMARK    1  A    between atoms: C2_2  and  C6_6 
REMARK    2  A    between atoms: C6_6  and  C7_7 
REMARK    3  A    between atoms: C6_6  and  O8_8 
ROOT
HETATM    1  C6  UNL     1     -33.830  14.793  -4.987  1.00 20.00     0.144 C 
ENDROOT
BRANCH   1   2
HETATM    2  C2  UNL     1     -34.311  15.327  -3.667  1.00 20.00     0.000 C 
HETATM    3  C1  UNL     1     -33.808  16.422  -3.080  1.00 20.00    -0.033 C 
HETATM    4  C3  UNL     1     -34.285  16.957  -1.771  1.00 20.00     0.036 C 
ENDBRANCH   1   2
BRANCH   1   5
HETATM    5  C7  UNL     1     -34.950  14.322  -5.944  1.00 20.00     0.010 C 
HETATM    6  C4  UNL     1     -35.991  13.423  -5.268  1.00 20.00     0.012 C 
HETATM    7  C5  UNL     1     -34.385  13.632  -7.188  1.00 20.00     0.012 C 
ENDBRANCH   1   5
BRANCH   1   8
HETATM    8  O8  UNL     1     -32.953  13.698  -4.710  1.00 20.00    -0.391 OA
HETATM    9  H22 UNL     1     -32.173  14.077  -4.278  1.00 20.00     0.210 HD
ENDBRANCH   1   8
TORSDOF 3
ENDMDL
MODEL 8
REMARK VINA RESULT:      -3.8      1.277      3.941
REMARK  3 active torsions:
REMARK  status: ('A' for Active; 'I' for Inactive)
REMARK    1  A    between atoms: C2_2  and  C6_6 
REMARK    2  A    between atoms: C6_6  and  C7_7 
REMARK    3  A    between atoms: C6_6  and  O8_8 
ROOT
HETATM    1  C6  UNL     1     -33.035   6.582   2.598  1.00 20.00     0.144 C 
ENDROOT
BRANCH   1   2
HETATM    2  C2  UNL     1     -33.307   6.020   3.965  1.00 20.00     0.000 C 
HETATM    3  C1  UNL     1     -34.492   5.518   4.341  1.00 20.00    -0.033 C 
HETATM    4  C3  UNL     1     -34.765   4.956   5.697  1.00 20.00     0.036 C 
ENDBRANCH   1   2
BRANCH   1   5
HETATM    5  C7  UNL     1     -32.623   8.073   2.579  1.00 20.00     0.010 C 
HETATM    6  C4  UNL     1     -32.239   8.580   1.185  1.00 20.00     0.012 C 
HETATM    7  C5  UNL     1     -31.500   8.366   3.576  1.00 20.00     0.012 C 
ENDBRANCH   1   5
BRANCH   1   8
HETATM    8  O8  UNL     1     -34.223   6.409   1.822  1.00 20.00    -0.391 OA
HETATM    9  H22 UNL     1     -34.106   6.942   1.022  1.00 20.00     0.210 HD
ENDBRANCH   1   8
TORSDOF 3
ENDMDL
MODEL 9
REMARK VINA RESULT:      -3.7     11.625     12.587
REMARK  3 active torsions:
REMARK  status: ('A' for Active; 'I' for Inactive)
REMARK    1  A    between atoms: C2_2  and  C6_6 
REMARK    2  A    between atoms: C6_6  and  C7_7 
REMARK    3  A    between atoms: C6_6  and  O8_8 
ROOT
HETATM    1  C6  UNL     1     -35.129  13.927  -5.221  1.00 20.00     0.144 C 
ENDROOT
BRANCH   1   2
HETATM    2  C2  UNL     1     -35.485  14.893  -4.126  1.00 20.00     0.000 C 
HETATM    3  C1  UNL     1     -34.579  15.581  -3.416  1.00 20.00    -0.033 C 
HETATM    4  C3  UNL     1     -34.930  16.544  -2.330  1.00 20.00     0.036 C 
ENDBRANCH   1   2
BRANCH   1   5
HETATM    5  C7  UNL     1     -35.310  14.476  -6.656  1.00 20.00     0.010 C 
HETATM    6  C4  UNL     1     -36.756  14.402  -7.157  1.00 20.00     0.012 C 
HETATM    7  C5  UNL     1     -34.370  13.791  -7.651  1.00 20.00     0.012 C 
ENDBRANCH   1   5
BRANCH   1   8
HETATM    8  O8  UNL     1     -35.948  12.768  -5.050  1.00 20.00    -0.391 OA
HETATM    9  H22 UNL     1     -35.455  12.027  -5.431  1.00 20.00     0.210 HD
ENDBRANCH   1   8
TORSDOF 3
ENDMDL
