MODEL 1
REMARK VINA RESULT:      -4.6      0.000      0.000
REMARK  3 active torsions:
REMARK  status: ('A' for Active; 'I' for Inactive)
REMARK    1  A    between atoms: C1_1  and  C2_2 
REMARK    2  A    between atoms: C1_1  and  C3_3 
REMARK    3  A    between atoms: C2_2  and  S8_8 
ROOT
HETATM    1  C1  UNL     1     -33.714   6.551   4.264  1.00 20.00     0.241 C 
HETATM    2  O4  UNL     1     -33.449   7.365   5.146  1.00 20.00    -0.287 OA
ENDROOT
BRANCH   1   3
HETATM    3  C2  UNL     1     -33.059   6.543   2.899  1.00 20.00     0.158 C 
BRANCH   3   4
HETATM    4  S8  UNL     1     -32.192   8.092   2.554  1.00 20.00    -0.174 SA
HETATM    5  H11 UNL     1     -33.269   8.780   2.151  1.00 20.00     0.102 HD
ENDBRANCH   3   4
ENDBRANCH   1   3
BRANCH   1   6
HETATM    6  C3  UNL     1     -34.741   5.479   4.500  1.00 20.00     0.451 C 
HETATM    7  F5  UNL     1     -35.919   5.767   3.892  1.00 20.00    -0.163 F 
HETATM    8  F6  UNL     1     -34.332   4.277   4.022  1.00 20.00    -0.163 F 
HETATM    9  F7  UNL     1     -35.010   5.308   5.819  1.00 20.00    -0.163 F 
ENDBRANCH   1   6
TORSDOF 3
ENDMDL
MODEL 2
REMARK VINA RESULT:      -4.6      0.013      1.333
REMARK  3 active torsions:
REMARK  status: ('A' for Active; 'I' for Inactive)
REMARK    1  A    between atoms: C1_1  and  C2_2 
REMARK    2  A    between atoms: C1_1  and  C3_3 
REMARK    3  A    between atoms: C2_2  and  S8_8 
ROOT
HETATM    1  C1  UNL     1     -33.722   6.558   4.266  1.00 20.00     0.241 C 
HETATM    2  O4  UNL     1     -33.457   7.370   5.150  1.00 20.00    -0.287 OA
ENDROOT
BRANCH   1   3
HETATM    3  C2  UNL     1     -33.070   6.554   2.900  1.00 20.00     0.158 C 
BRANCH   3   4
HETATM    4  S8  UNL     1     -32.180   8.093   2.571  1.00 20.00    -0.174 SA
HETATM    5  H11 UNL     1     -32.522   8.191   1.278  1.00 20.00     0.102 HD
ENDBRANCH   3   4
ENDBRANCH   1   3
BRANCH   1   6
HETATM    6  C3  UNL     1     -34.746   5.483   4.502  1.00 20.00     0.451 C 
HETATM    7  F5  UNL     1     -35.015   5.323   5.822  1.00 20.00    -0.163 F 
HETATM    8  F6  UNL     1     -35.924   5.767   3.890  1.00 20.00    -0.163 F 
HETATM    9  F7  UNL     1     -34.341   4.276   4.033  1.00 20.00    -0.163 F 
ENDBRANCH   1   6
TORSDOF 3
ENDMDL
MODEL 3
REMARK VINA RESULT:      -4.6      0.013      1.336
REMARK  3 active torsions:
REMARK  status: ('A' for Active; 'I' for Inactive)
REMARK    1  A    between atoms: C1_1  and  C2_2 
REMARK    2  A    between atoms: C1_1  and  C3_3 
REMARK    3  A    between atoms: C2_2  and  S8_8 
ROOT
HETATM    1  C1  UNL     1     -33.718   6.561   4.265  1.00 20.00     0.241 C 
HETATM    2  O4  UNL     1     -33.452   7.371   5.151  1.00 20.00    -0.287 OA
ENDROOT
BRANCH   1   3
HETATM    3  C2  UNL     1     -33.064   6.558   2.899  1.00 20.00     0.158 C 
BRANCH   3   4
HETATM    4  S8  UNL     1     -32.176   8.099   2.571  1.00 20.00    -0.174 SA
HETATM    5  H11 UNL     1     -31.074   7.788   3.270  1.00 20.00     0.102 HD
ENDBRANCH   3   4
ENDBRANCH   1   3
BRANCH   1   6
HETATM    6  C3  UNL     1     -34.744   5.487   4.497  1.00 20.00     0.451 C 
HETATM    7  F5  UNL     1     -34.332   4.285   4.024  1.00 20.00    -0.163 F 
HETATM    8  F6  UNL     1     -35.010   5.323   5.818  1.00 20.00    -0.163 F 
HETATM    9  F7  UNL     1     -35.925   5.767   3.890  1.00 20.00    -0.163 F 
ENDBRANCH   1   6
TORSDOF 3
ENDMDL
MODEL 4
REMARK VINA RESULT:      -4.6      1.333      1.344
REMARK  3 active torsions:
REMARK  status: ('A' for Active; 'I' for Inactive)
REMARK    1  A    between atoms: C1_1  and  C2_2 
REMARK    2  A    between atoms: C1_1  and  C3_3 
REMARK    3  A    between atoms: C2_2  and  S8_8 
ROOT
HETATM    1  C1  UNL     1     -33.605   5.925   3.511  1.00 20.00     0.241 C 
HETATM    2  O4  UNL     1     -33.097   5.180   2.676  1.00 20.00    -0.287 OA
ENDROOT
BRANCH   1   3
HETATM    3  C2  UNL     1     -33.133   7.339   3.779  1.00 20.00     0.158 C 
BRANCH   3   4
HETATM    4  S8  UNL     1     -32.318   8.065   2.338  1.00 20.00    -0.174 SA
HETATM    5  H11 UNL     1     -31.091   8.127   2.875  1.00 20.00     0.102 HD
ENDBRANCH   3   4
ENDBRANCH   1   3
BRANCH   1   6
HETATM    6  C3  UNL     1     -34.765   5.456   4.345  1.00 20.00     0.451 C 
HETATM    7  F5  UNL     1     -35.953   5.846   3.819  1.00 20.00    -0.163 F 
HETATM    8  F6  UNL     1     -34.800   4.103   4.442  1.00 20.00    -0.163 F 
HETATM    9  F7  UNL     1     -34.715   5.941   5.611  1.00 20.00    -0.163 F 
ENDBRANCH   1   6
TORSDOF 3
ENDMDL
MODEL 5
REMARK VINA RESULT:      -4.3      2.732      3.160
REMARK  3 active torsions:
REMARK  status: ('A' for Active; 'I' for Inactive)
REMARK    1  A    between atoms: C1_1  and  C2_2 
REMARK    2  A    between atoms: C1_1  and  C3_3 
REMARK    3  A    between atoms: C2_2  and  S8_8 
ROOT
HETATM    1  C1  UNL     1     -34.194   4.952   4.008  1.00 20.00     0.241 C 
HETATM    2  O4  UNL     1     -34.188   3.778   4.372  1.00 20.00    -0.287 OA
ENDROOT
BRANCH   1   3
HETATM    3  C2  UNL     1     -34.932   6.057   4.734  1.00 20.00     0.158 C 
BRANCH   3   4
HETATM    4  S8  UNL     1     -33.826   7.039   5.775  1.00 20.00    -0.174 SA
HETATM    5  H11 UNL     1     -34.493   8.196   5.652  1.00 20.00     0.102 HD
ENDBRANCH   3   4
ENDBRANCH   1   3
BRANCH   1   6
HETATM    6  C3  UNL     1     -33.441   5.371   2.776  1.00 20.00     0.451 C 
HETATM    7  F5  UNL     1     -32.854   4.314   2.161  1.00 20.00    -0.163 F 
HETATM    8  F6  UNL     1     -34.256   5.958   1.864  1.00 20.00    -0.163 F 
HETATM    9  F7  UNL     1     -32.457   6.262   3.055  1.00 20.00    -0.163 F 
ENDBRANCH   1   6
TORSDOF 3
ENDMDL
MODEL 6
REMARK VINA RESULT:      -4.2      3.010      3.430
REMARK  3 active torsions:
REMARK  status: ('A' for Active; 'I' for Inactive)
REMARK    1  A    between atoms: C1_1  and  C2_2 
REMARK    2  A    between atoms: C1_1  and  C3_3 
REMARK    3  A    between atoms: C2_2  and  S8_8 
ROOT
HETATM    1  C1  UNL     1     -33.708   7.032   4.439  1.00 20.00     0.241 C 
HETATM    2  O4  UNL     1     -33.622   7.487   5.578  1.00 20.00    -0.287 OA
ENDROOT
BRANCH   1   3
HETATM    3  C2  UNL     1     -34.774   6.051   3.999  1.00 20.00     0.158 C 
BRANCH   3   4
HETATM    4  S8  UNL     1     -34.417   4.369   4.558  1.00 20.00    -0.174 SA
HETATM    5  H11 UNL     1     -35.254   3.750   3.714  1.00 20.00     0.102 HD
ENDBRANCH   3   4
ENDBRANCH   1   3
BRANCH   1   6
HETATM    6  C3  UNL     1     -32.723   7.442   3.380  1.00 20.00     0.451 C 
HETATM    7  F5  UNL     1     -31.616   8.014   3.916  1.00 20.00    -0.163 F 
HETATM    8  F6  UNL     1     -32.304   6.380   2.646  1.00 20.00    -0.163 F 
HETATM    9  F7  UNL     1     -33.248   8.339   2.509  1.00 20.00    -0.163 F 
ENDBRANCH   1   6
TORSDOF 3
ENDMDL
MODEL 7
REMARK VINA RESULT:      -4.1      1.471      2.148
REMARK  3 active torsions:
REMARK  status: ('A' for Active; 'I' for Inactive)
REMARK    1  A    between atoms: C1_1  and  C2_2 
REMARK    2  A    between atoms: C1_1  and  C3_3 
REMARK    3  A    between atoms: C2_2  and  S8_8 
ROOT
HETATM    1  C1  UNL     1     -33.320   6.947   3.774  1.00 20.00     0.241 C 
HETATM    2  O4  UNL     1     -34.000   7.343   4.718  1.00 20.00    -0.287 OA
ENDROOT
BRANCH   1   3
HETATM    3  C2  UNL     1     -32.067   7.643   3.285  1.00 20.00     0.158 C 
BRANCH   3   4
HETATM    4  S8  UNL     1     -32.383   8.656   1.821  1.00 20.00    -0.174 SA
HETATM    5  H11 UNL     1     -32.441   7.641   0.947  1.00 20.00     0.102 HD
ENDBRANCH   3   4
ENDBRANCH   1   3
BRANCH   1   6
HETATM    6  C3  UNL     1     -33.709   5.704   3.024  1.00 20.00     0.451 C 
HETATM    7  F5  UNL     1     -32.623   5.022   2.582  1.00 20.00    -0.163 F 
HETATM    8  F6  UNL     1     -34.423   4.851   3.801  1.00 20.00    -0.163 F 
HETATM    9  F7  UNL     1     -34.472   5.978   1.936  1.00 20.00    -0.163 F 
ENDBRANCH   1   6
TORSDOF 3
ENDMDL
MODEL 8
REMARK VINA RESULT:      -4.0      4.130      4.687
REMARK  3 active torsions:
REMARK  status: ('A' for Active; 'I' for Inactive)
REMARK    1  A    between atoms: C1_1  and  C2_2 
REMARK    2  A    between atoms: C1_1  and  C3_3 
REMARK    3  A    between atoms: C2_2  and  S8_8 
ROOT
HETATM    1  C1  UNL     1     -32.109   8.120   2.613  1.00 20.00     0.241 C 
HETATM    2  O4  UNL     1     -31.320   8.409   3.511  1.00 20.00    -0.287 OA
ENDROOT
BRANCH   1   3
HETATM    3  C2  UNL     1     -33.095   6.974   2.691  1.00 20.00     0.158 C 
BRANCH   3   4
HETATM    4  S8  UNL     1     -33.887   6.873   4.313  1.00 20.00    -0.174 SA
HETATM    5  H11 UNL     1     -32.762   6.682   5.017  1.00 20.00     0.102 HD
ENDBRANCH   3   4
ENDBRANCH   1   3
BRANCH   1   6
HETATM    6  C3  UNL     1     -32.138   8.918   1.339  1.00 20.00     0.451 C 
HETATM    7  F5  UNL     1     -32.195  10.252   1.581  1.00 20.00    -0.163 F 
HETATM    8  F6  UNL     1     -31.032   8.700   0.583  1.00 20.00    -0.163 F 
HETATM    9  F7  UNL     1     -33.209   8.612   0.565  1.00 20.00    -0.163 F 
ENDBRANCH   1   6
TORSDOF 3
ENDMDL
MODEL 9
REMARK VINA RESULT:      -3.9      3.206      3.600
REMARK  3 active torsions:
REMARK  status: ('A' for Active; 'I' for Inactive)
REMARK    1  A    between atoms: C1_1  and  C2_2 
REMARK    2  A    between atoms: C1_1  and  C3_3 
REMARK    3  A    between atoms: C2_2  and  S8_8 
ROOT
HETATM    1  C1  UNL     1     -33.486   5.961   3.217  1.00 20.00     0.241 C 
HETATM    2  O4  UNL     1     -32.923   5.071   2.582  1.00 20.00    -0.287 OA
ENDROOT
BRANCH   1   3
HETATM    3  C2  UNL     1     -34.822   5.790   3.908  1.00 20.00     0.158 C 
BRANCH   3   4
HETATM    4  S8  UNL     1     -34.647   5.030   5.540  1.00 20.00    -0.174 SA
HETATM    5  H11 UNL     1     -33.926   6.019   6.089  1.00 20.00     0.102 HD
ENDBRANCH   3   4
ENDBRANCH   1   3
BRANCH   1   6
HETATM    6  C3  UNL     1     -32.855   7.319   3.348  1.00 20.00     0.451 C 
HETATM    7  F5  UNL     1     -31.683   7.397   2.669  1.00 20.00    -0.163 F 
HETATM    8  F6  UNL     1     -33.660   8.297   2.861  1.00 20.00    -0.163 F 
HETATM    9  F7  UNL     1     -32.585   7.638   4.638  1.00 20.00    -0.163 F 
ENDBRANCH   1   6
TORSDOF 3
ENDMDL
