MODEL 1
REMARK VINA RESULT:      -5.2      0.000      0.000
REMARK  2 active torsions:
REMARK  status: ('A' for Active; 'I' for Inactive)
REMARK    1  A    between atoms: C8_8  and  C9_9 
REMARK    2  A    between atoms: C8_8  and  O10_10 
ROOT
HETATM    1  C1  UNL     1     -31.924   9.233   0.448  1.00 20.00     0.012 C 
HETATM    2  C2  UNL     1     -32.543   8.925   1.429  1.00 20.00    -0.115 C 
HETATM    3  C9  UNL     1     -33.310   8.559   2.622  1.00 20.00     0.130 C 
ENDROOT
BRANCH   3   4
HETATM    4  C8  UNL     1     -32.538   7.551   3.480  1.00 20.00     0.068 C 
HETATM    5  C6  UNL     1     -32.481   6.168   2.812  1.00 20.00     0.038 C 
HETATM    6  C4  UNL     1     -33.819   5.434   2.845  1.00 20.00     0.003 C 
HETATM    7  C3  UNL     1     -34.377   5.344   4.263  1.00 20.00     0.000 C 
HETATM    8  C5  UNL     1     -34.469   6.713   4.929  1.00 20.00     0.003 C 
HETATM    9  C7  UNL     1     -33.130   7.446   4.895  1.00 20.00     0.038 C 
BRANCH   4  10
HETATM   10  O10 UNL     1     -31.203   8.057   3.586  1.00 20.00    -0.389 OA
HETATM   11  H24 UNL     1     -30.615   7.315   3.383  1.00 20.00     0.210 HD
ENDBRANCH   4  10
ENDBRANCH   3   4
TORSDOF 2
ENDMDL
MODEL 2
REMARK VINA RESULT:      -4.9      1.751      2.736
REMARK  2 active torsions:
REMARK  status: ('A' for Active; 'I' for Inactive)
REMARK    1  A    between atoms: C8_8  and  C9_9 
REMARK    2  A    between atoms: C8_8  and  O10_10 
ROOT
HETATM    1  C1  UNL     1     -31.843   8.556   2.278  1.00 20.00     0.012 C 
HETATM    2  C2  UNL     1     -32.184   7.447   2.584  1.00 20.00    -0.115 C 
HETATM    3  C9  UNL     1     -32.585   6.088   2.955  1.00 20.00     0.130 C 
ENDROOT
BRANCH   3   4
HETATM    4  C8  UNL     1     -34.093   6.017   3.221  1.00 20.00     0.068 C 
HETATM    5  C6  UNL     1     -34.541   7.093   4.224  1.00 20.00     0.038 C 
HETATM    6  C4  UNL     1     -34.099   6.795   5.655  1.00 20.00     0.003 C 
HETATM    7  C3  UNL     1     -34.537   5.403   6.101  1.00 20.00     0.000 C 
HETATM    8  C5  UNL     1     -34.073   4.319   5.132  1.00 20.00     0.003 C 
HETATM    9  C7  UNL     1     -34.515   4.619   3.701  1.00 20.00     0.038 C 
BRANCH   4  10
HETATM   10  O10 UNL     1     -34.731   6.276   1.967  1.00 20.00    -0.389 OA
HETATM   11  H24 UNL     1     -35.026   5.416   1.631  1.00 20.00     0.210 HD
ENDBRANCH   4  10
ENDBRANCH   3   4
TORSDOF 2
ENDMDL
MODEL 3
REMARK VINA RESULT:      -4.4     10.390     12.001
REMARK  2 active torsions:
REMARK  status: ('A' for Active; 'I' for Inactive)
REMARK    1  A    between atoms: C8_8  and  C9_9 
REMARK    2  A    between atoms: C8_8  and  O10_10 
ROOT
HETATM    1  C1  UNL     1     -38.877  14.742  -5.308  1.00 20.00     0.012 C 
HETATM    2  C2  UNL     1     -37.774  14.852  -4.847  1.00 20.00    -0.115 C 
HETATM    3  C9  UNL     1     -36.434  14.998  -4.275  1.00 20.00     0.130 C 
ENDROOT
BRANCH   3   4
HETATM    4  C8  UNL     1     -35.429  14.099  -5.001  1.00 20.00     0.068 C 
HETATM    5  C6  UNL     1     -34.056  14.112  -4.309  1.00 20.00     0.038 C 
HETATM    6  C4  UNL     1     -33.297  15.421  -4.515  1.00 20.00     0.003 C 
HETATM    7  C3  UNL     1     -33.177  15.775  -5.994  1.00 20.00     0.000 C 
HETATM    8  C5  UNL     1     -34.534  15.797  -6.690  1.00 20.00     0.003 C 
HETATM    9  C7  UNL     1     -35.293  14.488  -6.482  1.00 20.00     0.038 C 
BRANCH   4  10
HETATM   10  O10 UNL     1     -35.958  12.771  -4.930  1.00 20.00    -0.389 OA
HETATM   11  H24 UNL     1     -36.356  12.591  -5.795  1.00 20.00     0.210 HD
ENDBRANCH   4  10
ENDBRANCH   3   4
TORSDOF 2
ENDMDL
MODEL 4
REMARK VINA RESULT:      -4.3     10.860     12.232
REMARK  2 active torsions:
REMARK  status: ('A' for Active; 'I' for Inactive)
REMARK    1  A    between atoms: C8_8  and  C9_9 
REMARK    2  A    between atoms: C8_8  and  O10_10 
ROOT
HETATM    1  C1  UNL     1     -34.048  16.643  -2.374  1.00 20.00     0.012 C 
HETATM    2  C2  UNL     1     -34.449  15.897  -3.224  1.00 20.00    -0.115 C 
HETATM    3  C9  UNL     1     -34.952  14.986  -4.255  1.00 20.00     0.130 C 
ENDROOT
BRANCH   3   4
HETATM    4  C8  UNL     1     -33.845  14.626  -5.253  1.00 20.00     0.068 C 
HETATM    5  C6  UNL     1     -33.081  15.874  -5.724  1.00 20.00     0.038 C 
HETATM    6  C4  UNL     1     -33.895  16.748  -6.675  1.00 20.00     0.003 C 
HETATM    7  C3  UNL     1     -34.429  15.945  -7.858  1.00 20.00     0.000 C 
HETATM    8  C5  UNL     1     -35.217  14.719  -7.408  1.00 20.00     0.003 C 
HETATM    9  C7  UNL     1     -34.403  13.846  -6.455  1.00 20.00     0.038 C 
BRANCH   4  10
HETATM   10  O10 UNL     1     -32.934  13.777  -4.548  1.00 20.00    -0.389 OA
HETATM   11  H24 UNL     1     -32.940  14.078  -3.627  1.00 20.00     0.210 HD
ENDBRANCH   4  10
ENDBRANCH   3   4
TORSDOF 2
ENDMDL
MODEL 5
REMARK VINA RESULT:      -4.2     10.586     11.429
REMARK  2 active torsions:
REMARK  status: ('A' for Active; 'I' for Inactive)
REMARK    1  A    between atoms: C8_8  and  C9_9 
REMARK    2  A    between atoms: C8_8  and  O10_10 
ROOT
HETATM    1  C1  UNL     1     -34.310  13.973  -7.917  1.00 20.00     0.012 C 
HETATM    2  C2  UNL     1     -33.966  14.681  -7.011  1.00 20.00    -0.115 C 
HETATM    3  C9  UNL     1     -33.542  15.556  -5.916  1.00 20.00     0.130 C 
ENDROOT
BRANCH   3   4
HETATM    4  C8  UNL     1     -33.721  14.862  -4.561  1.00 20.00     0.068 C 
HETATM    5  C6  UNL     1     -35.113  14.222  -4.434  1.00 20.00     0.038 C 
HETATM    6  C4  UNL     1     -36.228  15.250  -4.251  1.00 20.00     0.003 C 
HETATM    7  C3  UNL     1     -35.940  16.190  -3.084  1.00 20.00     0.000 C 
HETATM    8  C5  UNL     1     -34.574  16.858  -3.210  1.00 20.00     0.003 C 
HETATM    9  C7  UNL     1     -33.460  15.828  -3.395  1.00 20.00     0.038 C 
BRANCH   4  10
HETATM   10  O10 UNL     1     -32.740  13.821  -4.513  1.00 20.00    -0.389 OA
HETATM   11  H24 UNL     1     -31.883  14.261  -4.405  1.00 20.00     0.210 HD
ENDBRANCH   4  10
ENDBRANCH   3   4
TORSDOF 2
ENDMDL
MODEL 6
REMARK VINA RESULT:      -4.2     10.479     11.554
REMARK  2 active torsions:
REMARK  status: ('A' for Active; 'I' for Inactive)
REMARK    1  A    between atoms: C8_8  and  C9_9 
REMARK    2  A    between atoms: C8_8  and  O10_10 
ROOT
HETATM    1  C1  UNL     1     -33.667  16.734  -2.517  1.00 20.00     0.012 C 
HETATM    2  C2  UNL     1     -33.671  16.399  -3.669  1.00 20.00    -0.115 C 
HETATM    3  C9  UNL     1     -33.673  16.005  -5.080  1.00 20.00     0.130 C 
ENDROOT
BRANCH   3   4
HETATM    4  C8  UNL     1     -33.946  14.504  -5.228  1.00 20.00     0.068 C 
HETATM    5  C6  UNL     1     -34.154  14.110  -6.699  1.00 20.00     0.038 C 
HETATM    6  C4  UNL     1     -35.491  14.586  -7.261  1.00 20.00     0.003 C 
HETATM    7  C3  UNL     1     -36.660  14.129  -6.394  1.00 20.00     0.000 C 
HETATM    8  C5  UNL     1     -36.485  14.539  -4.935  1.00 20.00     0.003 C 
HETATM    9  C7  UNL     1     -35.147  14.064  -4.374  1.00 20.00     0.038 C 
BRANCH   4  10
HETATM   10  O10 UNL     1     -32.778  13.836  -4.742  1.00 20.00    -0.389 OA
HETATM   11  H24 UNL     1     -32.024  14.252  -5.185  1.00 20.00     0.210 HD
ENDBRANCH   4  10
ENDBRANCH   3   4
TORSDOF 2
ENDMDL
MODEL 7
REMARK VINA RESULT:      -4.2      1.322      4.267
REMARK  2 active torsions:
REMARK  status: ('A' for Active; 'I' for Inactive)
REMARK    1  A    between atoms: C8_8  and  C9_9 
REMARK    2  A    between atoms: C8_8  and  O10_10 
ROOT
HETATM    1  C1  UNL     1     -33.646   7.214   5.172  1.00 20.00     0.012 C 
HETATM    2  C2  UNL     1     -33.387   7.309   4.004  1.00 20.00    -0.115 C 
HETATM    3  C9  UNL     1     -33.080   7.413   2.576  1.00 20.00     0.130 C 
ENDROOT
BRANCH   3   4
HETATM    4  C8  UNL     1     -31.970   8.440   2.329  1.00 20.00     0.068 C 
HETATM    5  C6  UNL     1     -32.474   9.878   2.534  1.00 20.00     0.038 C 
HETATM    6  C4  UNL     1     -33.399  10.351   1.415  1.00 20.00     0.003 C 
HETATM    7  C3  UNL     1     -32.755  10.179   0.043  1.00 20.00     0.000 C 
HETATM    8  C5  UNL     1     -32.276   8.749  -0.190  1.00 20.00     0.003 C 
HETATM    9  C7  UNL     1     -31.352   8.277   0.931  1.00 20.00     0.038 C 
BRANCH   4  10
HETATM   10  O10 UNL     1     -30.956   8.174   3.304  1.00 20.00    -0.389 OA
HETATM   11  H24 UNL     1     -30.136   8.027   2.809  1.00 20.00     0.210 HD
ENDBRANCH   4  10
ENDBRANCH   3   4
TORSDOF 2
ENDMDL
MODEL 8
REMARK VINA RESULT:      -4.1     10.282     11.780
REMARK  2 active torsions:
REMARK  status: ('A' for Active; 'I' for Inactive)
REMARK    1  A    between atoms: C8_8  and  C9_9 
REMARK    2  A    between atoms: C8_8  and  O10_10 
ROOT
HETATM    1  C1  UNL     1     -37.495  15.148  -7.709  1.00 20.00     0.012 C 
HETATM    2  C2  UNL     1     -36.485  14.904  -7.108  1.00 20.00    -0.115 C 
HETATM    3  C9  UNL     1     -35.244  14.610  -6.388  1.00 20.00     0.130 C 
ENDROOT
BRANCH   3   4
HETATM    4  C8  UNL     1     -35.541  14.102  -4.973  1.00 20.00     0.068 C 
HETATM    5  C6  UNL     1     -36.658  14.918  -4.302  1.00 20.00     0.038 C 
HETATM    6  C4  UNL     1     -36.209  16.318  -3.892  1.00 20.00     0.003 C 
HETATM    7  C3  UNL     1     -34.955  16.275  -3.024  1.00 20.00     0.000 C 
HETATM    8  C5  UNL     1     -33.825  15.494  -3.689  1.00 20.00     0.003 C 
HETATM    9  C7  UNL     1     -34.276  14.094  -4.100  1.00 20.00     0.038 C 
BRANCH   4  10
HETATM   10  O10 UNL     1     -35.995  12.752  -5.121  1.00 20.00    -0.389 OA
HETATM   11  H24 UNL     1     -36.304  12.473  -4.247  1.00 20.00     0.210 HD
ENDBRANCH   4  10
ENDBRANCH   3   4
TORSDOF 2
ENDMDL
MODEL 9
REMARK VINA RESULT:      -4.1     10.753     11.791
REMARK  2 active torsions:
REMARK  status: ('A' for Active; 'I' for Inactive)
REMARK    1  A    between atoms: C8_8  and  C9_9 
REMARK    2  A    between atoms: C8_8  and  O10_10 
ROOT
HETATM    1  C1  UNL     1     -35.306  17.314  -0.384  1.00 20.00     0.012 C 
HETATM    2  C2  UNL     1     -34.601  17.120  -1.336  1.00 20.00    -0.115 C 
HETATM    3  C9  UNL     1     -33.730  16.882  -2.489  1.00 20.00     0.130 C 
ENDROOT
BRANCH   3   4
HETATM    4  C8  UNL     1     -34.533  16.898  -3.794  1.00 20.00     0.068 C 
HETATM    5  C6  UNL     1     -35.519  15.720  -3.864  1.00 20.00     0.038 C 
HETATM    6  C4  UNL     1     -34.830  14.379  -4.102  1.00 20.00     0.003 C 
HETATM    7  C3  UNL     1     -33.925  14.421  -5.331  1.00 20.00     0.000 C 
HETATM    8  C5  UNL     1     -32.920  15.566  -5.263  1.00 20.00     0.003 C 
HETATM    9  C7  UNL     1     -33.611  16.907  -5.024  1.00 20.00     0.038 C 
BRANCH   4  10
HETATM   10  O10 UNL     1     -35.285  18.116  -3.785  1.00 20.00    -0.389 OA
HETATM   11  H24 UNL     1     -35.857  18.087  -4.566  1.00 20.00     0.210 HD
ENDBRANCH   4  10
ENDBRANCH   3   4
TORSDOF 2
ENDMDL
