MODEL 1
REMARK VINA RESULT:      -4.3      0.000      0.000
REMARK  3 active torsions:
REMARK  status: ('A' for Active; 'I' for Inactive)
REMARK    1  A    between atoms: C2_2  and  O8_8 
REMARK    2  A    between atoms: C4_4  and  C6_6 
REMARK    3  A    between atoms: C6_6  and  O8_8 
ROOT
HETATM    1  C6  UNL     1     -33.207   6.120   2.919  1.00 20.00     0.208 C 
ENDROOT
BRANCH   1   2
HETATM    2  C4  UNL     1     -34.236   6.522   3.954  1.00 20.00     0.169 A 
HETATM    3  C3  UNL     1     -34.586   5.612   5.098  1.00 20.00     0.202 A 
HETATM    4  O7  UNL     1     -35.431   5.733   3.943  1.00 20.00    -0.379 OA
ENDBRANCH   1   2
BRANCH   1   5
HETATM    5  O8  UNL     1     -32.184   7.093   2.883  1.00 20.00    -0.361 OA
BRANCH   5   6
HETATM    6  C2  UNL     1     -32.607   8.298   2.398  1.00 20.00     0.130 C 
HETATM    7  C1  UNL     1     -32.089   8.866   1.306  1.00 20.00    -0.007 C 
HETATM    8  C5  UNL     1     -32.538  10.180   0.762  1.00 20.00     0.038 C 
ENDBRANCH   5   6
ENDBRANCH   1   5
TORSDOF 3
ENDMDL
MODEL 2
REMARK VINA RESULT:      -4.2      1.163      1.192
REMARK  3 active torsions:
REMARK  status: ('A' for Active; 'I' for Inactive)
REMARK    1  A    between atoms: C2_2  and  O8_8 
REMARK    2  A    between atoms: C4_4  and  C6_6 
REMARK    3  A    between atoms: C6_6  and  O8_8 
ROOT
HETATM    1  C6  UNL     1     -33.727   7.020   4.376  1.00 20.00     0.208 C 
ENDROOT
BRANCH   1   2
HETATM    2  C4  UNL     1     -34.515   5.841   3.847  1.00 20.00     0.169 A 
HETATM    3  C3  UNL     1     -34.577   4.543   4.602  1.00 20.00     0.202 A 
HETATM    4  O7  UNL     1     -33.716   4.715   3.466  1.00 20.00    -0.379 OA
ENDBRANCH   1   2
BRANCH   1   5
HETATM    5  O8  UNL     1     -32.588   7.215   3.565  1.00 20.00    -0.361 OA
BRANCH   5   6
HETATM    6  C2  UNL     1     -32.842   7.975   2.458  1.00 20.00     0.130 C 
HETATM    7  C1  UNL     1     -31.878   8.532   1.720  1.00 20.00    -0.007 C 
HETATM    8  C5  UNL     1     -32.138   9.364   0.509  1.00 20.00     0.038 C 
ENDBRANCH   5   6
ENDBRANCH   1   5
TORSDOF 3
ENDMDL
MODEL 3
REMARK VINA RESULT:      -4.1      1.390      4.828
REMARK  3 active torsions:
REMARK  status: ('A' for Active; 'I' for Inactive)
REMARK    1  A    between atoms: C2_2  and  O8_8 
REMARK    2  A    between atoms: C4_4  and  C6_6 
REMARK    3  A    between atoms: C6_6  and  O8_8 
ROOT
HETATM    1  C6  UNL     1     -32.596   7.783   2.224  1.00 20.00     0.208 C 
ENDROOT
BRANCH   1   2
HETATM    2  C4  UNL     1     -32.100   9.146   1.791  1.00 20.00     0.169 A 
HETATM    3  C3  UNL     1     -32.773   9.903   0.681  1.00 20.00     0.202 A 
HETATM    4  O7  UNL     1     -31.547   9.185   0.471  1.00 20.00    -0.379 OA
ENDBRANCH   1   2
BRANCH   1   5
HETATM    5  O8  UNL     1     -33.078   7.869   3.549  1.00 20.00    -0.361 OA
BRANCH   5   6
HETATM    6  C2  UNL     1     -33.644   6.705   3.989  1.00 20.00     0.130 C 
HETATM    7  C1  UNL     1     -34.061   6.528   5.246  1.00 20.00    -0.007 C 
HETATM    8  C5  UNL     1     -34.681   5.265   5.743  1.00 20.00     0.038 C 
ENDBRANCH   5   6
ENDBRANCH   1   5
TORSDOF 3
ENDMDL
MODEL 4
REMARK VINA RESULT:      -4.1      1.330      4.633
REMARK  3 active torsions:
REMARK  status: ('A' for Active; 'I' for Inactive)
REMARK    1  A    between atoms: C2_2  and  O8_8 
REMARK    2  A    between atoms: C4_4  and  C6_6 
REMARK    3  A    between atoms: C6_6  and  O8_8 
ROOT
HETATM    1  C6  UNL     1     -31.968   8.335   2.455  1.00 20.00     0.208 C 
ENDROOT
BRANCH   1   2
HETATM    2  C4  UNL     1     -31.825   9.028   1.118  1.00 20.00     0.169 A 
HETATM    3  C3  UNL     1     -32.556  10.307   0.821  1.00 20.00     0.202 A 
HETATM    4  O7  UNL     1     -33.016   9.041   0.324  1.00 20.00    -0.379 OA
ENDBRANCH   1   2
BRANCH   1   5
HETATM    5  O8  UNL     1     -32.992   7.367   2.365  1.00 20.00    -0.361 OA
BRANCH   5   6
HETATM    6  C2  UNL     1     -33.360   6.860   3.581  1.00 20.00     0.130 C 
HETATM    7  C1  UNL     1     -34.316   5.940   3.727  1.00 20.00    -0.007 C 
HETATM    8  C5  UNL     1     -34.730   5.377   5.045  1.00 20.00     0.038 C 
ENDBRANCH   5   6
ENDBRANCH   1   5
TORSDOF 3
ENDMDL
MODEL 5
REMARK VINA RESULT:      -4.1      1.687      4.590
REMARK  3 active torsions:
REMARK  status: ('A' for Active; 'I' for Inactive)
REMARK    1  A    between atoms: C2_2  and  O8_8 
REMARK    2  A    between atoms: C4_4  and  C6_6 
REMARK    3  A    between atoms: C6_6  and  O8_8 
ROOT
HETATM    1  C6  UNL     1     -31.709   8.437   1.938  1.00 20.00     0.208 C 
ENDROOT
BRANCH   1   2
HETATM    2  C4  UNL     1     -32.841   9.248   1.346  1.00 20.00     0.169 A 
HETATM    3  C3  UNL     1     -32.894   9.555  -0.124  1.00 20.00     0.202 A 
HETATM    4  O7  UNL     1     -32.453  10.528   0.836  1.00 20.00    -0.379 OA
ENDBRANCH   1   2
BRANCH   1   5
HETATM    5  O8  UNL     1     -32.094   7.970   3.214  1.00 20.00    -0.361 OA
BRANCH   5   6
HETATM    6  C2  UNL     1     -33.080   7.024   3.163  1.00 20.00     0.130 C 
HETATM    7  C1  UNL     1     -33.881   6.752   4.196  1.00 20.00    -0.007 C 
HETATM    8  C5  UNL     1     -34.961   5.723   4.158  1.00 20.00     0.038 C 
ENDBRANCH   5   6
ENDBRANCH   1   5
TORSDOF 3
ENDMDL
MODEL 6
REMARK VINA RESULT:      -3.7      1.671      1.982
REMARK  3 active torsions:
REMARK  status: ('A' for Active; 'I' for Inactive)
REMARK    1  A    between atoms: C2_2  and  O8_8 
REMARK    2  A    between atoms: C4_4  and  C6_6 
REMARK    3  A    between atoms: C6_6  and  O8_8 
ROOT
HETATM    1  C6  UNL     1     -34.045   4.839   3.699  1.00 20.00     0.208 C 
ENDROOT
BRANCH   1   2
HETATM    2  C4  UNL     1     -34.896   5.521   4.748  1.00 20.00     0.169 A 
HETATM    3  C3  UNL     1     -34.274   6.349   5.837  1.00 20.00     0.202 A 
HETATM    4  O7  UNL     1     -34.730   5.008   6.074  1.00 20.00    -0.379 OA
ENDBRANCH   1   2
BRANCH   1   5
HETATM    5  O8  UNL     1     -33.899   5.702   2.591  1.00 20.00    -0.361 OA
BRANCH   5   6
HETATM    6  C2  UNL     1     -32.752   6.445   2.637  1.00 20.00     0.130 C 
HETATM    7  C1  UNL     1     -32.752   7.778   2.719  1.00 20.00    -0.007 C 
HETATM    8  C5  UNL     1     -31.511   8.604   2.771  1.00 20.00     0.038 C 
ENDBRANCH   5   6
ENDBRANCH   1   5
TORSDOF 3
ENDMDL
MODEL 7
REMARK VINA RESULT:      -3.7      1.200      4.566
REMARK  3 active torsions:
REMARK  status: ('A' for Active; 'I' for Inactive)
REMARK    1  A    between atoms: C2_2  and  O8_8 
REMARK    2  A    between atoms: C4_4  and  C6_6 
REMARK    3  A    between atoms: C6_6  and  O8_8 
ROOT
HETATM    1  C6  UNL     1     -32.903   6.396   2.650  1.00 20.00     0.208 C 
ENDROOT
BRANCH   1   2
HETATM    2  C4  UNL     1     -32.737   7.900   2.664  1.00 20.00     0.169 A 
HETATM    3  C3  UNL     1     -31.829   8.592   1.687  1.00 20.00     0.202 A 
HETATM    4  O7  UNL     1     -31.433   8.351   3.047  1.00 20.00    -0.379 OA
ENDBRANCH   1   2
BRANCH   1   5
HETATM    5  O8  UNL     1     -34.276   6.084   2.550  1.00 20.00    -0.361 OA
BRANCH   5   6
HETATM    6  C2  UNL     1     -34.857   5.825   3.760  1.00 20.00     0.130 C 
HETATM    7  C1  UNL     1     -34.201   5.258   4.776  1.00 20.00    -0.007 C 
HETATM    8  C5  UNL     1     -34.819   4.968   6.102  1.00 20.00     0.038 C 
ENDBRANCH   5   6
ENDBRANCH   1   5
TORSDOF 3
ENDMDL
MODEL 8
REMARK VINA RESULT:      -3.6     10.560     10.937
REMARK  3 active torsions:
REMARK  status: ('A' for Active; 'I' for Inactive)
REMARK    1  A    between atoms: C2_2  and  O8_8 
REMARK    2  A    between atoms: C4_4  and  C6_6 
REMARK    3  A    between atoms: C6_6  and  O8_8 
ROOT
HETATM    1  C6  UNL     1     -34.312  14.327  -6.202  1.00 20.00     0.208 C 
ENDROOT
BRANCH   1   2
HETATM    2  C4  UNL     1     -35.582  13.514  -6.332  1.00 20.00     0.169 A 
HETATM    3  C3  UNL     1     -36.817  13.869  -5.552  1.00 20.00     0.202 A 
HETATM    4  O7  UNL     1     -35.952  12.796  -5.150  1.00 20.00    -0.379 OA
ENDBRANCH   1   2
BRANCH   1   5
HETATM    5  O8  UNL     1     -33.617  13.915  -5.044  1.00 20.00    -0.361 OA
BRANCH   5   6
HETATM    6  C2  UNL     1     -33.254  14.956  -4.236  1.00 20.00     0.130 C 
HETATM    7  C1  UNL     1     -34.126  15.632  -3.483  1.00 20.00    -0.007 C 
HETATM    8  C5  UNL     1     -33.747  16.770  -2.596  1.00 20.00     0.038 C 
ENDBRANCH   5   6
ENDBRANCH   1   5
TORSDOF 3
ENDMDL
MODEL 9
REMARK VINA RESULT:      -3.6     10.259     10.822
REMARK  3 active torsions:
REMARK  status: ('A' for Active; 'I' for Inactive)
REMARK    1  A    between atoms: C2_2  and  O8_8 
REMARK    2  A    between atoms: C4_4  and  C6_6 
REMARK    3  A    between atoms: C6_6  and  O8_8 
ROOT
HETATM    1  C6  UNL     1     -34.404  14.329  -4.120  1.00 20.00     0.208 C 
ENDROOT
BRANCH   1   2
HETATM    2  C4  UNL     1     -35.228  13.973  -5.338  1.00 20.00     0.169 A 
HETATM    3  C3  UNL     1     -36.729  13.920  -5.275  1.00 20.00     0.202 A 
HETATM    4  O7  UNL     1     -35.929  12.728  -5.239  1.00 20.00    -0.379 OA
ENDBRANCH   1   2
BRANCH   1   5
HETATM    5  O8  UNL     1     -33.915  15.646  -4.263  1.00 20.00    -0.361 OA
BRANCH   5   6
HETATM    6  C2  UNL     1     -33.879  16.336  -3.084  1.00 20.00     0.130 C 
HETATM    7  C1  UNL     1     -34.945  16.482  -2.293  1.00 20.00    -0.007 C 
HETATM    8  C5  UNL     1     -34.923  17.232  -1.004  1.00 20.00     0.038 C 
ENDBRANCH   5   6
ENDBRANCH   1   5
TORSDOF 3
ENDMDL
