MODEL 1
REMARK VINA RESULT:      -6.2      0.000      0.000
REMARK  1 active torsions:
REMARK  status: ('A' for Active; 'I' for Inactive)
REMARK    1  A    between atoms: C1_1  and  C6_6 
ROOT
HETATM    1  C2  UNL     1     -34.002   7.286   5.980  1.00 20.00     0.002 C 
HETATM    2  C3  UNL     1     -32.906   7.917   5.128  1.00 20.00     0.012 C 
HETATM    3  C4  UNL     1     -34.121   5.783   5.725  1.00 20.00     0.009 C 
HETATM    4  C5  UNL     1     -33.209   6.107   3.387  1.00 20.00     0.021 C 
HETATM    5  C6  UNL     1     -33.097   7.613   3.642  1.00 20.00     0.055 C 
HETATM    6  C7  UNL     1     -34.308   5.424   4.233  1.00 20.00    -0.047 C 
HETATM    7  C9  UNL     1     -34.192   3.897   4.069  1.00 20.00     0.015 C 
HETATM    8  C10 UNL     1     -35.708   5.846   3.747  1.00 20.00     0.015 C 
ENDROOT
BRANCH   5   9
HETATM    9  C1  UNL     1     -31.934   8.171   2.878  1.00 20.00     0.127 C 
HETATM   10  C8  UNL     1     -32.216   8.669   1.485  1.00 20.00     0.091 C 
HETATM   11  O11 UNL     1     -30.805   8.218   3.364  1.00 20.00    -0.298 OA
ENDBRANCH   5   9
TORSDOF 1
ENDMDL
MODEL 2
REMARK VINA RESULT:      -4.9     11.787     12.422
REMARK  1 active torsions:
REMARK  status: ('A' for Active; 'I' for Inactive)
REMARK    1  A    between atoms: C1_1  and  C6_6 
ROOT
HETATM    1  C2  UNL     1     -35.741  17.641  -0.748  1.00 20.00     0.002 C 
HETATM    2  C3  UNL     1     -34.513  17.975   0.092  1.00 20.00     0.012 C 
HETATM    3  C4  UNL     1     -35.416  16.631  -1.849  1.00 20.00     0.009 C 
HETATM    4  C5  UNL     1     -33.016  17.431  -1.873  1.00 20.00     0.021 C 
HETATM    5  C6  UNL     1     -33.345  18.446  -0.775  1.00 20.00     0.055 C 
HETATM    6  C7  UNL     1     -34.235  17.060  -2.749  1.00 20.00    -0.047 C 
HETATM    7  C9  UNL     1     -33.854  15.884  -3.667  1.00 20.00     0.015 C 
HETATM    8  C10 UNL     1     -34.640  18.246  -3.644  1.00 20.00     0.015 C 
ENDROOT
BRANCH   5   9
HETATM    9  C1  UNL     1     -32.145  18.655   0.098  1.00 20.00     0.127 C 
HETATM   10  C8  UNL     1     -32.391  19.263   1.454  1.00 20.00     0.091 C 
HETATM   11  O11 UNL     1     -31.014  18.345  -0.274  1.00 20.00    -0.298 OA
ENDBRANCH   5   9
TORSDOF 1
ENDMDL
MODEL 3
REMARK VINA RESULT:      -4.6     11.776     12.537
REMARK  1 active torsions:
REMARK  status: ('A' for Active; 'I' for Inactive)
REMARK    1  A    between atoms: C1_1  and  C6_6 
ROOT
HETATM    1  C2  UNL     1     -33.211  15.803  -4.439  1.00 20.00     0.002 C 
HETATM    2  C3  UNL     1     -34.155  14.692  -4.885  1.00 20.00     0.012 C 
HETATM    3  C4  UNL     1     -33.547  16.299  -3.032  1.00 20.00     0.009 C 
HETATM    4  C5  UNL     1     -35.957  15.603  -3.361  1.00 20.00     0.021 C 
HETATM    5  C6  UNL     1     -35.620  15.113  -4.773  1.00 20.00     0.055 C 
HETATM    6  C7  UNL     1     -35.022  16.730  -2.866  1.00 20.00    -0.047 C 
HETATM    7  C9  UNL     1     -35.301  16.994  -1.375  1.00 20.00     0.015 C 
HETATM    8  C10 UNL     1     -35.293  18.037  -3.636  1.00 20.00     0.015 C 
ENDROOT
BRANCH   5   9
HETATM    9  C1  UNL     1     -36.491  13.944  -5.124  1.00 20.00     0.127 C 
HETATM   10  C8  UNL     1     -37.960  14.223  -5.298  1.00 20.00     0.091 C 
HETATM   11  O11 UNL     1     -36.028  12.813  -5.263  1.00 20.00    -0.298 OA
ENDBRANCH   5   9
TORSDOF 1
ENDMDL
MODEL 4
REMARK VINA RESULT:      -4.6     11.420     12.553
REMARK  1 active torsions:
REMARK  status: ('A' for Active; 'I' for Inactive)
REMARK    1  A    between atoms: C1_1  and  C6_6 
ROOT
HETATM    1  C2  UNL     1     -36.146  17.746  -4.047  1.00 20.00     0.002 C 
HETATM    2  C3  UNL     1     -35.809  16.425  -4.731  1.00 20.00     0.012 C 
HETATM    3  C4  UNL     1     -34.952  18.302  -3.271  1.00 20.00     0.009 C 
HETATM    4  C5  UNL     1     -34.056  15.955  -2.968  1.00 20.00     0.021 C 
HETATM    5  C6  UNL     1     -35.256  15.399  -3.741  1.00 20.00     0.055 C 
HETATM    6  C7  UNL     1     -34.352  17.297  -2.261  1.00 20.00    -0.047 C 
HETATM    7  C9  UNL     1     -33.036  17.872  -1.705  1.00 20.00     0.015 C 
HETATM    8  C10 UNL     1     -35.313  17.085  -1.074  1.00 20.00     0.015 C 
ENDROOT
BRANCH   5   9
HETATM    9  C1  UNL     1     -34.849  14.168  -4.492  1.00 20.00     0.127 C 
HETATM   10  C8  UNL     1     -35.918  13.487  -5.305  1.00 20.00     0.091 C 
HETATM   11  O11 UNL     1     -33.698  13.736  -4.448  1.00 20.00    -0.298 OA
ENDBRANCH   5   9
TORSDOF 1
ENDMDL
MODEL 5
REMARK VINA RESULT:      -4.5     11.392     12.615
REMARK  1 active torsions:
REMARK  status: ('A' for Active; 'I' for Inactive)
REMARK    1  A    between atoms: C1_1  and  C6_6 
ROOT
HETATM    1  C2  UNL     1     -33.623  16.847  -5.422  1.00 20.00     0.002 C 
HETATM    2  C3  UNL     1     -33.314  17.593  -4.129  1.00 20.00     0.012 C 
HETATM    3  C4  UNL     1     -35.065  16.341  -5.452  1.00 20.00     0.009 C 
HETATM    4  C5  UNL     1     -35.085  16.248  -2.923  1.00 20.00     0.021 C 
HETATM    5  C6  UNL     1     -33.638  16.749  -2.896  1.00 20.00     0.055 C 
HETATM    6  C7  UNL     1     -35.444  15.487  -4.220  1.00 20.00    -0.047 C 
HETATM    7  C9  UNL     1     -36.961  15.222  -4.243  1.00 20.00     0.015 C 
HETATM    8  C10 UNL     1     -34.726  14.124  -4.266  1.00 20.00     0.015 C 
ENDROOT
BRANCH   5   9
HETATM    9  C1  UNL     1     -33.412  17.576  -1.666  1.00 20.00     0.127 C 
HETATM   10  C8  UNL     1     -34.513  17.578  -0.640  1.00 20.00     0.091 C 
HETATM   11  O11 UNL     1     -32.377  18.221  -1.503  1.00 20.00    -0.298 OA
ENDBRANCH   5   9
TORSDOF 1
ENDMDL
MODEL 6
REMARK VINA RESULT:      -4.4     11.427     12.415
REMARK  1 active torsions:
REMARK  status: ('A' for Active; 'I' for Inactive)
REMARK    1  A    between atoms: C1_1  and  C6_6 
ROOT
HETATM    1  C2  UNL     1     -32.941  18.088  -2.034  1.00 20.00     0.002 C 
HETATM    2  C3  UNL     1     -33.415  16.915  -2.885  1.00 20.00     0.012 C 
HETATM    3  C4  UNL     1     -33.532  18.039  -0.625  1.00 20.00     0.009 C 
HETATM    4  C5  UNL     1     -35.531  16.763  -1.506  1.00 20.00     0.021 C 
HETATM    5  C6  UNL     1     -34.941  16.819  -2.919  1.00 20.00     0.055 C 
HETATM    6  C7  UNL     1     -35.073  17.934  -0.606  1.00 20.00    -0.047 C 
HETATM    7  C9  UNL     1     -35.538  17.667   0.838  1.00 20.00     0.015 C 
HETATM    8  C10 UNL     1     -35.712  19.257  -1.071  1.00 20.00     0.015 C 
ENDROOT
BRANCH   5   9
HETATM    9  C1  UNL     1     -35.334  15.590  -3.681  1.00 20.00     0.127 C 
HETATM   10  C8  UNL     1     -34.232  14.621  -4.018  1.00 20.00     0.091 C 
HETATM   11  O11 UNL     1     -36.500  15.383  -4.015  1.00 20.00    -0.298 OA
ENDBRANCH   5   9
TORSDOF 1
ENDMDL
MODEL 7
REMARK VINA RESULT:      -4.3     11.718     12.339
REMARK  1 active torsions:
REMARK  status: ('A' for Active; 'I' for Inactive)
REMARK    1  A    between atoms: C1_1  and  C6_6 
ROOT
HETATM    1  C2  UNL     1     -36.282  16.309  -3.373  1.00 20.00     0.002 C 
HETATM    2  C3  UNL     1     -35.764  16.877  -2.056  1.00 20.00     0.012 C 
HETATM    3  C4  UNL     1     -35.325  15.269  -3.955  1.00 20.00     0.009 C 
HETATM    4  C5  UNL     1     -33.388  16.389  -2.774  1.00 20.00     0.021 C 
HETATM    5  C6  UNL     1     -34.348  17.434  -2.196  1.00 20.00     0.055 C 
HETATM    6  C7  UNL     1     -33.876  15.783  -4.110  1.00 20.00    -0.047 C 
HETATM    7  C9  UNL     1     -32.964  14.601  -4.488  1.00 20.00     0.015 C 
HETATM    8  C10 UNL     1     -33.790  16.826  -5.241  1.00 20.00     0.015 C 
ENDROOT
BRANCH   5   9
HETATM    9  C1  UNL     1     -33.863  17.876  -0.849  1.00 20.00     0.127 C 
HETATM   10  C8  UNL     1     -32.452  18.396  -0.774  1.00 20.00     0.091 C 
HETATM   11  O11 UNL     1     -34.582  17.818   0.148  1.00 20.00    -0.298 OA
ENDBRANCH   5   9
TORSDOF 1
ENDMDL
MODEL 8
REMARK VINA RESULT:      -4.2      1.972      4.431
REMARK  1 active torsions:
REMARK  status: ('A' for Active; 'I' for Inactive)
REMARK    1  A    between atoms: C1_1  and  C6_6 
ROOT
HETATM    1  C2  UNL     1     -31.527   8.878   3.580  1.00 20.00     0.002 C 
HETATM    2  C3  UNL     1     -32.383   7.657   3.901  1.00 20.00     0.012 C 
HETATM    3  C4  UNL     1     -32.126   9.704   2.442  1.00 20.00     0.009 C 
HETATM    4  C5  UNL     1     -33.244   7.629   1.523  1.00 20.00     0.021 C 
HETATM    5  C6  UNL     1     -32.638   6.801   2.661  1.00 20.00     0.055 C 
HETATM    6  C7  UNL     1     -32.409   8.881   1.165  1.00 20.00    -0.047 C 
HETATM    7  C9  UNL     1     -33.208   9.750   0.177  1.00 20.00     0.015 C 
HETATM    8  C10 UNL     1     -31.091   8.475   0.479  1.00 20.00     0.015 C 
ENDROOT
BRANCH   5   9
HETATM    9  C1  UNL     1     -33.567   5.683   3.024  1.00 20.00     0.127 C 
HETATM   10  C8  UNL     1     -34.864   6.068   3.684  1.00 20.00     0.091 C 
HETATM   11  O11 UNL     1     -33.285   4.508   2.793  1.00 20.00    -0.298 OA
ENDBRANCH   5   9
TORSDOF 1
ENDMDL
MODEL 9
REMARK VINA RESULT:      -4.2     11.460     12.692
REMARK  1 active torsions:
REMARK  status: ('A' for Active; 'I' for Inactive)
REMARK    1  A    between atoms: C1_1  and  C6_6 
ROOT
HETATM    1  C2  UNL     1     -33.458  18.018  -4.547  1.00 20.00     0.002 C 
HETATM    2  C3  UNL     1     -33.497  16.531  -4.882  1.00 20.00     0.012 C 
HETATM    3  C4  UNL     1     -33.411  18.257  -3.037  1.00 20.00     0.009 C 
HETATM    4  C5  UNL     1     -34.593  16.053  -2.652  1.00 20.00     0.021 C 
HETATM    5  C6  UNL     1     -34.644  15.818  -4.165  1.00 20.00     0.055 C 
HETATM    6  C7  UNL     1     -34.549  17.549  -2.266  1.00 20.00    -0.047 C 
HETATM    7  C9  UNL     1     -34.278  17.669  -0.755  1.00 20.00     0.015 C 
HETATM    8  C10 UNL     1     -35.902  18.225  -2.559  1.00 20.00     0.015 C 
ENDROOT
BRANCH   5   9
HETATM    9  C1  UNL     1     -34.561  14.350  -4.453  1.00 20.00     0.127 C 
HETATM   10  C8  UNL     1     -35.785  13.707  -5.049  1.00 20.00     0.091 C 
HETATM   11  O11 UNL     1     -33.542  13.702  -4.215  1.00 20.00    -0.298 OA
ENDBRANCH   5   9
TORSDOF 1
ENDMDL
