MODEL 1
REMARK VINA RESULT:      -4.9      0.000      0.000
REMARK  2 active torsions:
REMARK  status: ('A' for Active; 'I' for Inactive)
REMARK    1  A    between atoms: C2_2  and  C5_5 
REMARK    2  A    between atoms: C3_3  and  C5_5 
ROOT
HETATM    1  C5  UNL     1     -34.623   5.914   3.323  1.00 20.00     0.123 C 
ENDROOT
BRANCH   1   2
HETATM    2  C2  UNL     1     -33.711   7.085   3.520  1.00 20.00    -0.022 C 
HETATM    3  C1  UNL     1     -32.488   7.177   2.980  1.00 20.00    -0.034 C 
HETATM    4  C4  UNL     1     -31.577   8.343   3.179  1.00 20.00     0.036 C 
ENDBRANCH   1   2
BRANCH   1   5
HETATM    5  C3  UNL     1     -34.514   4.938   4.484  1.00 20.00     0.222 C 
HETATM    6  O6  UNL     1     -34.435   3.722   4.339  1.00 20.00    -0.280 OA
HETATM    7 CL7  UNL     1     -34.490   5.773   6.014  1.00 20.00    -0.043 Cl
ENDBRANCH   1   5
TORSDOF 2
ENDMDL
MODEL 2
REMARK VINA RESULT:      -4.6      1.918      2.386
REMARK  2 active torsions:
REMARK  status: ('A' for Active; 'I' for Inactive)
REMARK    1  A    between atoms: C2_2  and  C5_5 
REMARK    2  A    between atoms: C3_3  and  C5_5 
ROOT
HETATM    1  C5  UNL     1     -32.547   7.221   3.301  1.00 20.00     0.123 C 
ENDROOT
BRANCH   1   2
HETATM    2  C2  UNL     1     -32.907   8.116   2.155  1.00 20.00    -0.022 C 
HETATM    3  C1  UNL     1     -32.166   9.162   1.765  1.00 20.00    -0.034 C 
HETATM    4  C4  UNL     1     -32.527  10.057   0.625  1.00 20.00     0.036 C 
ENDBRANCH   1   2
BRANCH   1   5
HETATM    5  C3  UNL     1     -33.783   6.834   4.099  1.00 20.00     0.222 C 
HETATM    6  O6  UNL     1     -34.734   6.226   3.617  1.00 20.00    -0.280 OA
HETATM    7 CL7  UNL     1     -33.649   7.341   5.762  1.00 20.00    -0.043 Cl
ENDBRANCH   1   5
TORSDOF 2
ENDMDL
MODEL 3
REMARK VINA RESULT:      -4.6      3.308      4.311
REMARK  2 active torsions:
REMARK  status: ('A' for Active; 'I' for Inactive)
REMARK    1  A    between atoms: C2_2  and  C5_5 
REMARK    2  A    between atoms: C3_3  and  C5_5 
ROOT
HETATM    1  C5  UNL     1     -33.229   7.195   2.568  1.00 20.00     0.123 C 
ENDROOT
BRANCH   1   2
HETATM    2  C2  UNL     1     -33.588   6.730   3.945  1.00 20.00    -0.022 C 
HETATM    3  C1  UNL     1     -34.336   5.647   4.195  1.00 20.00    -0.034 C 
HETATM    4  C4  UNL     1     -34.698   5.185   5.569  1.00 20.00     0.036 C 
ENDBRANCH   1   2
BRANCH   1   5
HETATM    5  C3  UNL     1     -32.040   8.142   2.605  1.00 20.00     0.222 C 
HETATM    6  O6  UNL     1     -31.374   8.349   3.615  1.00 20.00    -0.280 OA
HETATM    7 CL7  UNL     1     -31.745   8.853   1.041  1.00 20.00    -0.043 Cl
ENDBRANCH   1   5
TORSDOF 2
ENDMDL
MODEL 4
REMARK VINA RESULT:      -4.5      4.342      5.221
REMARK  2 active torsions:
REMARK  status: ('A' for Active; 'I' for Inactive)
REMARK    1  A    between atoms: C2_2  and  C5_5 
REMARK    2  A    between atoms: C3_3  and  C5_5 
ROOT
HETATM    1  C5  UNL     1     -31.844   8.553   1.655  1.00 20.00     0.123 C 
ENDROOT
BRANCH   1   2
HETATM    2  C2  UNL     1     -32.716   7.963   2.720  1.00 20.00    -0.022 C 
HETATM    3  C1  UNL     1     -33.178   6.705   2.693  1.00 20.00    -0.034 C 
HETATM    4  C4  UNL     1     -34.051   6.118   3.753  1.00 20.00     0.036 C 
ENDBRANCH   1   2
BRANCH   1   5
HETATM    5  C3  UNL     1     -32.550   9.700   0.947  1.00 20.00     0.222 C 
HETATM    6  O6  UNL     1     -32.660  10.824   1.427  1.00 20.00    -0.280 OA
HETATM    7 CL7  UNL     1     -33.142   9.210  -0.618  1.00 20.00    -0.043 Cl
ENDBRANCH   1   5
TORSDOF 2
ENDMDL
MODEL 5
REMARK VINA RESULT:      -3.8      2.298      2.391
REMARK  2 active torsions:
REMARK  status: ('A' for Active; 'I' for Inactive)
REMARK    1  A    between atoms: C2_2  and  C5_5 
REMARK    2  A    between atoms: C3_3  and  C5_5 
ROOT
HETATM    1  C5  UNL     1     -35.114   5.703   3.788  1.00 20.00     0.123 C 
ENDROOT
BRANCH   1   2
HETATM    2  C2  UNL     1     -34.502   6.899   4.449  1.00 20.00    -0.022 C 
HETATM    3  C1  UNL     1     -33.864   6.854   5.626  1.00 20.00    -0.034 C 
HETATM    4  C4  UNL     1     -33.256   8.047   6.288  1.00 20.00     0.036 C 
ENDBRANCH   1   2
BRANCH   1   5
HETATM    5  C3  UNL     1     -34.136   4.539   3.754  1.00 20.00     0.222 C 
HETATM    6  O6  UNL     1     -34.237   3.550   4.473  1.00 20.00    -0.280 OA
HETATM    7 CL7  UNL     1     -32.894   4.789   2.555  1.00 20.00    -0.043 Cl
ENDBRANCH   1   5
TORSDOF 2
ENDMDL
MODEL 6
REMARK VINA RESULT:      -3.7      2.275      2.788
REMARK  2 active torsions:
REMARK  status: ('A' for Active; 'I' for Inactive)
REMARK    1  A    between atoms: C2_2  and  C5_5 
REMARK    2  A    between atoms: C3_3  and  C5_5 
ROOT
HETATM    1  C5  UNL     1     -34.046   7.191   3.918  1.00 20.00     0.123 C 
ENDROOT
BRANCH   1   2
HETATM    2  C2  UNL     1     -34.025   5.948   3.084  1.00 20.00    -0.022 C 
HETATM    3  C1  UNL     1     -32.913   5.252   2.810  1.00 20.00    -0.034 C 
HETATM    4  C4  UNL     1     -32.892   4.014   1.975  1.00 20.00     0.036 C 
ENDBRANCH   1   2
BRANCH   1   5
HETATM    5  C3  UNL     1     -33.948   6.856   5.398  1.00 20.00     0.222 C 
HETATM    6  O6  UNL     1     -33.409   7.588   6.222  1.00 20.00    -0.280 OA
HETATM    7 CL7  UNL     1     -34.716   5.332   5.755  1.00 20.00    -0.043 Cl
ENDBRANCH   1   5
TORSDOF 2
ENDMDL
MODEL 7
REMARK VINA RESULT:      -3.6     11.716     12.114
REMARK  2 active torsions:
REMARK  status: ('A' for Active; 'I' for Inactive)
REMARK    1  A    between atoms: C2_2  and  C5_5 
REMARK    2  A    between atoms: C3_3  and  C5_5 
ROOT
HETATM    1  C5  UNL     1     -35.014  15.562  -3.591  1.00 20.00     0.123 C 
ENDROOT
BRANCH   1   2
HETATM    2  C2  UNL     1     -33.915  16.430  -3.059  1.00 20.00    -0.022 C 
HETATM    3  C1  UNL     1     -33.964  17.053  -1.873  1.00 20.00    -0.034 C 
HETATM    4  C4  UNL     1     -32.871  17.921  -1.345  1.00 20.00     0.036 C 
ENDBRANCH   1   2
BRANCH   1   5
HETATM    5  C3  UNL     1     -34.453  14.284  -4.196  1.00 20.00     0.222 C 
HETATM    6  O6  UNL     1     -35.154  13.350  -4.570  1.00 20.00    -0.280 OA
HETATM    7 CL7  UNL     1     -32.713  14.345  -4.306  1.00 20.00    -0.043 Cl
ENDBRANCH   1   5
TORSDOF 2
ENDMDL
MODEL 8
REMARK VINA RESULT:      -3.6     12.014     12.135
REMARK  2 active torsions:
REMARK  status: ('A' for Active; 'I' for Inactive)
REMARK    1  A    between atoms: C2_2  and  C5_5 
REMARK    2  A    between atoms: C3_3  and  C5_5 
ROOT
HETATM    1  C5  UNL     1     -34.472  14.491  -4.451  1.00 20.00     0.123 C 
ENDROOT
BRANCH   1   2
HETATM    2  C2  UNL     1     -34.688  15.538  -3.402  1.00 20.00    -0.022 C 
HETATM    3  C1  UNL     1     -33.716  16.328  -2.925  1.00 20.00    -0.034 C 
HETATM    4  C4  UNL     1     -33.930  17.369  -1.877  1.00 20.00     0.036 C 
ENDBRANCH   1   2
BRANCH   1   5
HETATM    5  C3  UNL     1     -35.785  13.828  -4.837  1.00 20.00     0.222 C 
HETATM    6  O6  UNL     1     -35.859  12.690  -5.288  1.00 20.00    -0.280 OA
HETATM    7 CL7  UNL     1     -37.141  14.880  -4.528  1.00 20.00    -0.043 Cl
ENDBRANCH   1   5
TORSDOF 2
ENDMDL
MODEL 9
REMARK VINA RESULT:      -3.5      2.843      4.010
REMARK  2 active torsions:
REMARK  status: ('A' for Active; 'I' for Inactive)
REMARK    1  A    between atoms: C2_2  and  C5_5 
REMARK    2  A    between atoms: C3_3  and  C5_5 
ROOT
HETATM    1  C5  UNL     1     -33.504   8.006   4.318  1.00 20.00     0.123 C 
ENDROOT
BRANCH   1   2
HETATM    2  C2  UNL     1     -33.746   6.898   5.296  1.00 20.00    -0.022 C 
HETATM    3  C1  UNL     1     -34.543   5.849   5.051  1.00 20.00    -0.034 C 
HETATM    4  C4  UNL     1     -34.789   4.746   6.028  1.00 20.00     0.036 C 
ENDBRANCH   1   2
BRANCH   1   5
HETATM    5  C3  UNL     1     -32.364   7.658   3.374  1.00 20.00     0.222 C 
HETATM    6  O6  UNL     1     -31.322   8.303   3.306  1.00 20.00    -0.280 OA
HETATM    7 CL7  UNL     1     -32.726   6.230   2.442  1.00 20.00    -0.043 Cl
ENDBRANCH   1   5
TORSDOF 2
ENDMDL
