MODEL 1
REMARK VINA RESULT:      -5.2      0.000      0.000
REMARK  1 active torsions:
REMARK  status: ('A' for Active; 'I' for Inactive)
REMARK    1  A    between atoms: C2_2  and  C3_3 
ROOT
HETATM    1  C1  UNL     1     -33.306   7.411   4.915  1.00 20.00    -0.012 C 
HETATM    2  C2  UNL     1     -33.321   7.015   3.634  1.00 20.00    -0.001 C 
HETATM    3  C4  UNL     1     -34.136   6.700   5.942  1.00 20.00     0.054 C 
HETATM    4  C5  UNL     1     -34.173   5.882   3.152  1.00 20.00     0.209 C 
HETATM    5  C6  UNL     1     -34.644   5.359   5.418  1.00 20.00     0.171 C 
HETATM    6  O8  UNL     1     -35.183   5.524   4.106  1.00 20.00    -0.386 OA
ENDROOT
BRANCH   2   7
HETATM    7  C3  UNL     1     -32.486   7.737   2.673  1.00 20.00     0.267 C 
HETATM    8  O7  UNL     1     -31.472   8.342   3.002  1.00 20.00    -0.302 OA
ENDBRANCH   2   7
TORSDOF 1
ENDMDL
MODEL 2
REMARK VINA RESULT:      -4.8      1.037      1.784
REMARK  1 active torsions:
REMARK  status: ('A' for Active; 'I' for Inactive)
REMARK    1  A    between atoms: C2_2  and  C3_3 
ROOT
HETATM    1  C1  UNL     1     -33.553   5.484   3.135  1.00 20.00    -0.012 C 
HETATM    2  C2  UNL     1     -33.352   6.754   3.514  1.00 20.00    -0.001 C 
HETATM    3  C4  UNL     1     -34.195   4.502   4.069  1.00 20.00     0.054 C 
HETATM    4  C5  UNL     1     -33.718   7.254   4.877  1.00 20.00     0.209 C 
HETATM    5  C6  UNL     1     -34.859   5.208   5.250  1.00 20.00     0.171 C 
HETATM    6  O8  UNL     1     -33.967   6.182   5.796  1.00 20.00    -0.386 OA
ENDROOT
BRANCH   2   7
HETATM    7  C3  UNL     1     -32.730   7.674   2.561  1.00 20.00     0.267 C 
HETATM    8  O7  UNL     1     -31.668   8.243   2.788  1.00 20.00    -0.302 OA
ENDBRANCH   2   7
TORSDOF 1
ENDMDL
MODEL 3
REMARK VINA RESULT:      -4.3      1.233      3.642
REMARK  1 active torsions:
REMARK  status: ('A' for Active; 'I' for Inactive)
REMARK    1  A    between atoms: C2_2  and  C3_3 
ROOT
HETATM    1  C1  UNL     1     -33.576   6.442   2.863  1.00 20.00    -0.012 C 
HETATM    2  C2  UNL     1     -33.937   6.269   4.142  1.00 20.00    -0.001 C 
HETATM    3  C4  UNL     1     -32.547   7.470   2.495  1.00 20.00     0.054 C 
HETATM    4  C5  UNL     1     -33.373   7.092   5.257  1.00 20.00     0.209 C 
HETATM    5  C6  UNL     1     -31.784   7.960   3.724  1.00 20.00     0.171 C 
HETATM    6  O8  UNL     1     -32.703   8.265   4.775  1.00 20.00    -0.386 OA
ENDROOT
BRANCH   2   7
HETATM    7  C3  UNL     1     -34.939   5.246   4.448  1.00 20.00     0.267 C 
HETATM    8  O7  UNL     1     -34.680   4.048   4.455  1.00 20.00    -0.302 OA
ENDBRANCH   2   7
TORSDOF 1
ENDMDL
MODEL 4
REMARK VINA RESULT:      -4.1      1.156      3.337
REMARK  1 active torsions:
REMARK  status: ('A' for Active; 'I' for Inactive)
REMARK    1  A    between atoms: C2_2  and  C3_3 
ROOT
HETATM    1  C1  UNL     1     -33.549   7.145   4.962  1.00 20.00    -0.012 C 
HETATM    2  C2  UNL     1     -33.983   6.186   4.131  1.00 20.00    -0.001 C 
HETATM    3  C4  UNL     1     -32.506   8.125   4.515  1.00 20.00     0.054 C 
HETATM    4  C5  UNL     1     -33.443   6.018   2.745  1.00 20.00     0.209 C 
HETATM    5  C6  UNL     1     -32.324   8.094   2.999  1.00 20.00     0.171 C 
HETATM    6  O8  UNL     1     -32.220   6.742   2.551  1.00 20.00    -0.386 OA
ENDROOT
BRANCH   2   7
HETATM    7  C3  UNL     1     -35.008   5.260   4.614  1.00 20.00     0.267 C 
HETATM    8  O7  UNL     1     -34.841   4.046   4.645  1.00 20.00    -0.302 OA
ENDBRANCH   2   7
TORSDOF 1
ENDMDL
MODEL 5
REMARK VINA RESULT:      -3.8      1.701      2.560
REMARK  1 active torsions:
REMARK  status: ('A' for Active; 'I' for Inactive)
REMARK    1  A    between atoms: C2_2  and  C3_3 
ROOT
HETATM    1  C1  UNL     1     -34.362   5.341   4.562  1.00 20.00    -0.012 C 
HETATM    2  C2  UNL     1     -33.683   6.001   3.613  1.00 20.00    -0.001 C 
HETATM    3  C4  UNL     1     -34.484   5.907   5.945  1.00 20.00     0.054 C 
HETATM    4  C5  UNL     1     -32.990   7.301   3.877  1.00 20.00     0.209 C 
HETATM    5  C6  UNL     1     -34.079   7.379   5.983  1.00 20.00     0.171 C 
HETATM    6  O8  UNL     1     -32.849   7.562   5.281  1.00 20.00    -0.386 OA
ENDROOT
BRANCH   2   7
HETATM    7  C3  UNL     1     -33.602   5.409   2.277  1.00 20.00     0.267 C 
HETATM    8  O7  UNL     1     -32.935   4.410   2.036  1.00 20.00    -0.302 OA
ENDBRANCH   2   7
TORSDOF 1
ENDMDL
MODEL 6
REMARK VINA RESULT:      -3.8     11.512     12.135
REMARK  1 active torsions:
REMARK  status: ('A' for Active; 'I' for Inactive)
REMARK    1  A    between atoms: C2_2  and  C3_3 
ROOT
HETATM    1  C1  UNL     1     -35.487  15.917  -3.636  1.00 20.00    -0.012 C 
HETATM    2  C2  UNL     1     -36.078  14.928  -4.322  1.00 20.00    -0.001 C 
HETATM    3  C4  UNL     1     -34.005  15.904  -3.408  1.00 20.00     0.054 C 
HETATM    4  C5  UNL     1     -35.319  13.758  -4.864  1.00 20.00     0.209 C 
HETATM    5  C6  UNL     1     -33.309  14.893  -4.317  1.00 20.00     0.171 C 
HETATM    6  O8  UNL     1     -34.011  13.649  -4.285  1.00 20.00    -0.386 OA
ENDROOT
BRANCH   2   7
HETATM    7  C3  UNL     1     -37.527  14.993  -4.524  1.00 20.00     0.267 C 
HETATM    8  O7  UNL     1     -38.189  14.024  -4.876  1.00 20.00    -0.302 OA
ENDBRANCH   2   7
TORSDOF 1
ENDMDL
MODEL 7
REMARK VINA RESULT:      -3.7      1.799      2.776
REMARK  1 active torsions:
REMARK  status: ('A' for Active; 'I' for Inactive)
REMARK    1  A    between atoms: C2_2  and  C3_3 
ROOT
HETATM    1  C1  UNL     1     -34.365   5.101   5.191  1.00 20.00    -0.012 C 
HETATM    2  C2  UNL     1     -33.990   6.366   4.954  1.00 20.00    -0.001 C 
HETATM    3  C4  UNL     1     -34.316   4.074   4.098  1.00 20.00     0.054 C 
HETATM    4  C5  UNL     1     -33.537   6.832   3.606  1.00 20.00     0.209 C 
HETATM    5  C6  UNL     1     -33.492   4.565   2.909  1.00 20.00     0.171 C 
HETATM    6  O8  UNL     1     -33.876   5.898   2.571  1.00 20.00    -0.386 OA
ENDROOT
BRANCH   2   7
HETATM    7  C3  UNL     1     -34.050   7.326   6.057  1.00 20.00     0.267 C 
HETATM    8  O7  UNL     1     -33.093   8.020   6.382  1.00 20.00    -0.302 OA
ENDBRANCH   2   7
TORSDOF 1
ENDMDL
MODEL 8
REMARK VINA RESULT:      -3.7     11.683     12.738
REMARK  1 active torsions:
REMARK  status: ('A' for Active; 'I' for Inactive)
REMARK    1  A    between atoms: C2_2  and  C3_3 
ROOT
HETATM    1  C1  UNL     1     -34.904  15.245  -3.706  1.00 20.00    -0.012 C 
HETATM    2  C2  UNL     1     -35.079  14.846  -4.974  1.00 20.00    -0.001 C 
HETATM    3  C4  UNL     1     -33.872  16.279  -3.369  1.00 20.00     0.054 C 
HETATM    4  C5  UNL     1     -34.252  15.373  -6.105  1.00 20.00     0.209 C 
HETATM    5  C6  UNL     1     -33.377  17.002  -4.620  1.00 20.00     0.171 C 
HETATM    6  O8  UNL     1     -33.076  16.051  -5.642  1.00 20.00    -0.386 OA
ENDROOT
BRANCH   2   7
HETATM    7  C3  UNL     1     -36.106  13.841  -5.250  1.00 20.00     0.267 C 
HETATM    8  O7  UNL     1     -35.878  12.637  -5.223  1.00 20.00    -0.302 OA
ENDBRANCH   2   7
TORSDOF 1
ENDMDL
MODEL 9
REMARK VINA RESULT:      -3.7     11.927     12.229
REMARK  1 active torsions:
REMARK  status: ('A' for Active; 'I' for Inactive)
REMARK    1  A    between atoms: C2_2  and  C3_3 
ROOT
HETATM    1  C1  UNL     1     -33.355  17.371  -1.781  1.00 20.00    -0.012 C 
HETATM    2  C2  UNL     1     -33.406  18.073  -0.641  1.00 20.00    -0.001 C 
HETATM    3  C4  UNL     1     -34.576  16.672  -2.300  1.00 20.00     0.054 C 
HETATM    4  C5  UNL     1     -34.649  18.177   0.186  1.00 20.00     0.209 C 
HETATM    5  C6  UNL     1     -35.840  17.160  -1.596  1.00 20.00     0.171 C 
HETATM    6  O8  UNL     1     -35.626  17.194  -0.184  1.00 20.00    -0.386 OA
ENDROOT
BRANCH   2   7
HETATM    7  C3  UNL     1     -32.188  18.744  -0.184  1.00 20.00     0.267 C 
HETATM    8  O7  UNL     1     -31.070  18.269  -0.348  1.00 20.00    -0.302 OA
ENDBRANCH   2   7
TORSDOF 1
ENDMDL
