MODEL 1
REMARK VINA RESULT:      -3.8      0.000      0.000
REMARK  1 active torsions:
REMARK  status: ('A' for Active; 'I' for Inactive)
REMARK    1  A    between atoms: C1_1  and  C3_3 
ROOT
HETATM    1  C1  UNL     1     -33.932   6.970   3.667  1.00 20.00     0.181 A 
HETATM    2  C2  UNL     1     -32.836   7.508   2.788  1.00 20.00     0.247 A 
HETATM    3  O4  UNL     1     -33.023   6.099   2.981  1.00 20.00    -0.358 OA
HETATM    4 CL5  UNL     1     -31.420   8.275   3.447  1.00 20.00    -0.092 Cl
ENDROOT
BRANCH   1   5
HETATM    5  C3  UNL     1     -33.841   6.906   5.149  1.00 20.00     0.150 C 
HETATM    6 CL6  UNL     1     -34.581   5.407   5.782  1.00 20.00    -0.128 Cl
ENDBRANCH   1   5
TORSDOF 1
ENDMDL
MODEL 2
REMARK VINA RESULT:      -3.8      1.505      3.420
REMARK  1 active torsions:
REMARK  status: ('A' for Active; 'I' for Inactive)
REMARK    1  A    between atoms: C1_1  and  C3_3 
ROOT
HETATM    1  C1  UNL     1     -34.116   6.893   3.962  1.00 20.00     0.181 A 
HETATM    2  C2  UNL     1     -34.773   5.758   4.700  1.00 20.00     0.247 A 
HETATM    3  O4  UNL     1     -33.858   6.650   5.351  1.00 20.00    -0.358 OA
HETATM    4 CL5  UNL     1     -34.306   4.101   4.445  1.00 20.00    -0.092 Cl
ENDROOT
BRANCH   1   5
HETATM    5  C3  UNL     1     -32.931   6.724   3.080  1.00 20.00     0.150 C 
HETATM    6 CL6  UNL     1     -31.756   8.050   3.311  1.00 20.00    -0.128 Cl
ENDBRANCH   1   5
TORSDOF 1
ENDMDL
MODEL 3
REMARK VINA RESULT:      -3.7      1.500      3.386
REMARK  1 active torsions:
REMARK  status: ('A' for Active; 'I' for Inactive)
REMARK    1  A    between atoms: C1_1  and  C3_3 
ROOT
HETATM    1  C1  UNL     1     -33.859   5.956   3.271  1.00 20.00     0.181 A 
HETATM    2  C2  UNL     1     -34.586   5.050   4.227  1.00 20.00     0.247 A 
HETATM    3  O4  UNL     1     -35.288   5.972   3.383  1.00 20.00    -0.358 OA
HETATM    4 CL5  UNL     1     -34.567   5.318   5.946  1.00 20.00    -0.092 Cl
ENDROOT
BRANCH   1   5
HETATM    5  C3  UNL     1     -33.198   7.223   3.681  1.00 20.00     0.150 C 
HETATM    6 CL6  UNL     1     -32.200   7.893   2.358  1.00 20.00    -0.128 Cl
ENDBRANCH   1   5
TORSDOF 1
ENDMDL
MODEL 4
REMARK VINA RESULT:      -3.6      1.941      2.120
REMARK  1 active torsions:
REMARK  status: ('A' for Active; 'I' for Inactive)
REMARK    1  A    between atoms: C1_1  and  C3_3 
ROOT
HETATM    1  C1  UNL     1     -32.385   7.278   3.074  1.00 20.00     0.181 A 
HETATM    2  C2  UNL     1     -31.846   8.297   2.107  1.00 20.00     0.247 A 
HETATM    3  O4  UNL     1     -31.471   8.301   3.491  1.00 20.00    -0.358 OA
HETATM    4 CL5  UNL     1     -32.829   9.593   1.490  1.00 20.00    -0.092 Cl
ENDROOT
BRANCH   1   5
HETATM    5  C3  UNL     1     -33.731   7.370   3.698  1.00 20.00     0.150 C 
HETATM    6 CL6  UNL     1     -33.626   7.318   5.481  1.00 20.00    -0.128 Cl
ENDBRANCH   1   5
TORSDOF 1
ENDMDL
MODEL 5
REMARK VINA RESULT:      -3.6      1.853      1.936
REMARK  1 active torsions:
REMARK  status: ('A' for Active; 'I' for Inactive)
REMARK    1  A    between atoms: C1_1  and  C3_3 
ROOT
HETATM    1  C1  UNL     1     -34.832   5.511   4.385  1.00 20.00     0.181 A 
HETATM    2  C2  UNL     1     -34.134   5.878   3.104  1.00 20.00     0.247 A 
HETATM    3  O4  UNL     1     -34.153   4.530   3.591  1.00 20.00    -0.358 OA
HETATM    4 CL5  UNL     1     -32.632   6.756   3.091  1.00 20.00    -0.092 Cl
ENDROOT
BRANCH   1   5
HETATM    5  C3  UNL     1     -34.242   5.723   5.733  1.00 20.00     0.150 C 
HETATM    6 CL6  UNL     1     -33.926   7.455   6.038  1.00 20.00    -0.128 Cl
ENDBRANCH   1   5
TORSDOF 1
ENDMDL
MODEL 6
REMARK VINA RESULT:      -3.5      2.246      3.159
REMARK  1 active torsions:
REMARK  status: ('A' for Active; 'I' for Inactive)
REMARK    1  A    between atoms: C1_1  and  C3_3 
ROOT
HETATM    1  C1  UNL     1     -34.357   4.801   4.136  1.00 20.00     0.181 A 
HETATM    2  C2  UNL     1     -34.721   5.642   5.329  1.00 20.00     0.247 A 
HETATM    3  O4  UNL     1     -35.433   5.747   4.089  1.00 20.00    -0.358 OA
HETATM    4 CL5  UNL     1     -33.731   6.974   5.855  1.00 20.00    -0.092 Cl
ENDROOT
BRANCH   1   5
HETATM    5  C3  UNL     1     -33.226   5.115   3.224  1.00 20.00     0.150 C 
HETATM    6 CL6  UNL     1     -33.417   6.729   2.482  1.00 20.00    -0.128 Cl
ENDBRANCH   1   5
TORSDOF 1
ENDMDL
MODEL 7
REMARK VINA RESULT:      -3.5      1.762      2.045
REMARK  1 active torsions:
REMARK  status: ('A' for Active; 'I' for Inactive)
REMARK    1  A    between atoms: C1_1  and  C3_3 
ROOT
HETATM    1  C1  UNL     1     -33.658   6.262   2.917  1.00 20.00     0.181 A 
HETATM    2  C2  UNL     1     -33.677   7.436   3.857  1.00 20.00     0.247 A 
HETATM    3  O4  UNL     1     -32.549   7.165   3.014  1.00 20.00    -0.358 OA
HETATM    4 CL5  UNL     1     -33.517   7.241   5.579  1.00 20.00    -0.092 Cl
ENDROOT
BRANCH   1   5
HETATM    5  C3  UNL     1     -33.353   4.871   3.345  1.00 20.00     0.150 C 
HETATM    6 CL6  UNL     1     -34.602   4.246   4.459  1.00 20.00    -0.128 Cl
ENDBRANCH   1   5
TORSDOF 1
ENDMDL
MODEL 8
REMARK VINA RESULT:      -3.5      1.986      3.280
REMARK  1 active torsions:
REMARK  status: ('A' for Active; 'I' for Inactive)
REMARK    1  A    between atoms: C1_1  and  C3_3 
ROOT
HETATM    1  C1  UNL     1     -33.541   7.400   3.463  1.00 20.00     0.181 A 
HETATM    2  C2  UNL     1     -34.054   6.000   3.262  1.00 20.00     0.247 A 
HETATM    3  O4  UNL     1     -33.802   6.528   4.571  1.00 20.00    -0.358 OA
HETATM    4 CL5  UNL     1     -33.040   4.725   2.650  1.00 20.00    -0.092 Cl
ENDROOT
BRANCH   1   5
HETATM    5  C3  UNL     1     -32.112   7.782   3.308  1.00 20.00     0.150 C 
HETATM    6 CL6  UNL     1     -31.793   8.454   1.683  1.00 20.00    -0.128 Cl
ENDBRANCH   1   5
TORSDOF 1
ENDMDL
MODEL 9
REMARK VINA RESULT:      -3.4      1.811      2.636
REMARK  1 active torsions:
REMARK  status: ('A' for Active; 'I' for Inactive)
REMARK    1  A    between atoms: C1_1  and  C3_3 
ROOT
HETATM    1  C1  UNL     1     -33.283   6.511   3.289  1.00 20.00     0.181 A 
HETATM    2  C2  UNL     1     -33.347   5.011   3.205  1.00 20.00     0.247 A 
HETATM    3  O4  UNL     1     -34.018   5.846   2.253  1.00 20.00    -0.358 OA
HETATM    4 CL5  UNL     1     -34.291   4.065   4.320  1.00 20.00    -0.092 Cl
ENDROOT
BRANCH   1   5
HETATM    5  C3  UNL     1     -34.122   7.320   4.213  1.00 20.00     0.150 C 
HETATM    6 CL6  UNL     1     -33.466   7.294   5.875  1.00 20.00    -0.128 Cl
ENDBRANCH   1   5
TORSDOF 1
ENDMDL
