MODEL 1
REMARK VINA RESULT:      -5.9      0.000      0.000
REMARK  2 active torsions:
REMARK  status: ('A' for Active; 'I' for Inactive)
REMARK    1  A    between atoms: C3_3  and  C5_5 
REMARK    2  A    between atoms: C4_4  and  C10_10 
ROOT
HETATM    1  C1  UNL     1     -35.491   6.010   3.806  1.00 20.00    -0.026 C 
HETATM    2  C2  UNL     1     -34.841   5.977   2.632  1.00 20.00    -0.025 C 
HETATM    3  C6  UNL     1     -33.503   4.887   4.166  1.00 20.00     0.017 C 
HETATM    4  C7  UNL     1     -33.611   7.134   4.947  1.00 20.00     0.017 C 
HETATM    5  C8  UNL     1     -34.457   5.841   4.892  1.00 20.00     0.009 C 
HETATM    6  C9  UNL     1     -33.370   5.797   2.939  1.00 20.00     0.016 C 
HETATM    7  C10 UNL     1     -32.824   7.082   3.606  1.00 20.00     0.017 C 
ENDROOT
BRANCH   7   8
HETATM    8  C4  UNL     1     -32.941   8.319   2.777  1.00 20.00    -0.015 C 
HETATM    9  C3  UNL     1     -32.484   8.414   1.520  1.00 20.00     0.081 C 
BRANCH   9  10
HETATM   10  C5  UNL     1     -32.625   9.705   0.701  1.00 20.00     0.198 C 
HETATM   11  O11 UNL     1     -32.861   9.510  -0.528  1.00 20.00    -0.645 OA
HETATM   12  O12 UNL     1     -32.496  10.796   1.322  1.00 20.00    -0.645 OA
ENDBRANCH   9  10
ENDBRANCH   7   8
TORSDOF 2
ENDMDL
MODEL 2
REMARK VINA RESULT:      -5.2      1.073      1.920
REMARK  2 active torsions:
REMARK  status: ('A' for Active; 'I' for Inactive)
REMARK    1  A    between atoms: C3_3  and  C5_5 
REMARK    2  A    between atoms: C4_4  and  C10_10 
ROOT
HETATM    1  C1  UNL     1     -33.668   5.733   5.676  1.00 20.00    -0.026 C 
HETATM    2  C2  UNL     1     -34.166   6.866   5.158  1.00 20.00    -0.025 C 
HETATM    3  C6  UNL     1     -35.467   5.137   4.351  1.00 20.00     0.017 C 
HETATM    4  C7  UNL     1     -33.300   4.738   3.446  1.00 20.00     0.017 C 
HETATM    5  C8  UNL     1     -34.091   4.605   4.767  1.00 20.00     0.009 C 
HETATM    6  C9  UNL     1     -34.912   6.493   3.896  1.00 20.00     0.016 C 
HETATM    7  C10 UNL     1     -33.900   6.030   2.819  1.00 20.00     0.017 C 
ENDROOT
BRANCH   7   8
HETATM    8  C4  UNL     1     -32.883   7.053   2.431  1.00 20.00    -0.015 C 
HETATM    9  C3  UNL     1     -33.166   8.132   1.688  1.00 20.00     0.081 C 
BRANCH   9  10
HETATM   10  C5  UNL     1     -32.092   9.162   1.311  1.00 20.00     0.198 C 
HETATM   11  O11 UNL     1     -31.044   8.652   0.814  1.00 20.00    -0.645 OA
HETATM   12  O12 UNL     1     -32.359  10.376   1.528  1.00 20.00    -0.645 OA
ENDBRANCH   9  10
ENDBRANCH   7   8
TORSDOF 2
ENDMDL
MODEL 3
REMARK VINA RESULT:      -5.1     10.511     11.616
REMARK  2 active torsions:
REMARK  status: ('A' for Active; 'I' for Inactive)
REMARK    1  A    between atoms: C3_3  and  C5_5 
REMARK    2  A    between atoms: C4_4  and  C10_10 
ROOT
HETATM    1  C1  UNL     1     -35.627  18.124  -2.122  1.00 20.00    -0.026 C 
HETATM    2  C2  UNL     1     -35.166  16.999  -1.555  1.00 20.00    -0.025 C 
HETATM    3  C6  UNL     1     -33.321  18.183  -2.280  1.00 20.00     0.017 C 
HETATM    4  C7  UNL     1     -34.510  17.636  -4.270  1.00 20.00     0.017 C 
HETATM    5  C8  UNL     1     -34.561  18.612  -3.072  1.00 20.00     0.009 C 
HETATM    6  C9  UNL     1     -33.796  16.731  -2.138  1.00 20.00     0.016 C 
HETATM    7  C10 UNL     1     -33.939  16.339  -3.629  1.00 20.00     0.017 C 
ENDROOT
BRANCH   7   8
HETATM    8  C4  UNL     1     -34.759  15.117  -3.882  1.00 20.00    -0.015 C 
HETATM    9  C3  UNL     1     -35.739  15.059  -4.794  1.00 20.00     0.081 C 
BRANCH   9  10
HETATM   10  C5  UNL     1     -36.560  13.783  -5.023  1.00 20.00     0.198 C 
HETATM   11  O11 UNL     1     -35.857  12.753  -5.249  1.00 20.00    -0.645 OA
HETATM   12  O12 UNL     1     -37.817  13.889  -4.964  1.00 20.00    -0.645 OA
ENDBRANCH   9  10
ENDBRANCH   7   8
TORSDOF 2
ENDMDL
MODEL 4
REMARK VINA RESULT:      -4.8     10.149     11.338
REMARK  2 active torsions:
REMARK  status: ('A' for Active; 'I' for Inactive)
REMARK    1  A    between atoms: C3_3  and  C5_5 
REMARK    2  A    between atoms: C4_4  and  C10_10 
ROOT
HETATM    1  C1  UNL     1     -33.126  17.918  -0.508  1.00 20.00    -0.026 C 
HETATM    2  C2  UNL     1     -32.856  18.045  -1.816  1.00 20.00    -0.025 C 
HETATM    3  C6  UNL     1     -34.776  19.262  -1.411  1.00 20.00     0.017 C 
HETATM    4  C7  UNL     1     -35.380  17.006  -0.944  1.00 20.00     0.017 C 
HETATM    5  C8  UNL     1     -34.600  18.191  -0.329  1.00 20.00     0.009 C 
HETATM    6  C9  UNL     1     -34.154  18.392  -2.511  1.00 20.00     0.016 C 
HETATM    7  C10 UNL     1     -35.103  17.170  -2.466  1.00 20.00     0.017 C 
ENDROOT
BRANCH   7   8
HETATM    8  C4  UNL     1     -34.576  15.940  -3.130  1.00 20.00    -0.015 C 
HETATM    9  C3  UNL     1     -35.311  15.162  -3.936  1.00 20.00     0.081 C 
BRANCH   9  10
HETATM   10  C5  UNL     1     -34.731  13.905  -4.599  1.00 20.00     0.198 C 
HETATM   11  O11 UNL     1     -33.467  13.906  -4.686  1.00 20.00    -0.645 OA
HETATM   12  O12 UNL     1     -35.553  13.025  -4.979  1.00 20.00    -0.645 OA
ENDBRANCH   9  10
ENDBRANCH   7   8
TORSDOF 2
ENDMDL
MODEL 5
REMARK VINA RESULT:      -4.7     10.310     11.369
REMARK  2 active torsions:
REMARK  status: ('A' for Active; 'I' for Inactive)
REMARK    1  A    between atoms: C3_3  and  C5_5 
REMARK    2  A    between atoms: C4_4  and  C10_10 
ROOT
HETATM    1  C1  UNL     1     -33.359  15.428  -5.800  1.00 20.00    -0.026 C 
HETATM    2  C2  UNL     1     -32.953  14.832  -4.668  1.00 20.00    -0.025 C 
HETATM    3  C6  UNL     1     -35.186  14.307  -4.933  1.00 20.00     0.017 C 
HETATM    4  C7  UNL     1     -35.151  16.670  -4.639  1.00 20.00     0.017 C 
HETATM    5  C8  UNL     1     -34.857  15.589  -5.705  1.00 20.00     0.009 C 
HETATM    6  C9  UNL     1     -34.181  14.607  -3.814  1.00 20.00     0.016 C 
HETATM    7  C10 UNL     1     -34.719  15.971  -3.318  1.00 20.00     0.017 C 
ENDROOT
BRANCH   7   8
HETATM    8  C4  UNL     1     -33.760  16.762  -2.491  1.00 20.00    -0.015 C 
HETATM    9  C3  UNL     1     -34.110  17.417  -1.375  1.00 20.00     0.081 C 
BRANCH   9  10
HETATM   10  C5  UNL     1     -33.093  18.219  -0.552  1.00 20.00     0.198 C 
HETATM   11  O11 UNL     1     -32.023  18.487  -1.176  1.00 20.00    -0.645 OA
HETATM   12  O12 UNL     1     -33.420  18.521   0.630  1.00 20.00    -0.645 OA
ENDBRANCH   9  10
ENDBRANCH   7   8
TORSDOF 2
ENDMDL
MODEL 6
REMARK VINA RESULT:      -4.7      2.921      5.083
REMARK  2 active torsions:
REMARK  status: ('A' for Active; 'I' for Inactive)
REMARK    1  A    between atoms: C3_3  and  C5_5 
REMARK    2  A    between atoms: C4_4  and  C10_10 
ROOT
HETATM    1  C1  UNL     1     -33.026  10.336   1.179  1.00 20.00    -0.026 C 
HETATM    2  C2  UNL     1     -32.142  10.119   2.164  1.00 20.00    -0.025 C 
HETATM    3  C6  UNL     1     -31.427   8.889   0.346  1.00 20.00     0.017 C 
HETATM    4  C7  UNL     1     -33.524   7.928   0.940  1.00 20.00     0.017 C 
HETATM    5  C8  UNL     1     -32.930   9.166   0.230  1.00 20.00     0.009 C 
HETATM    6  C9  UNL     1     -31.464   8.797   1.877  1.00 20.00     0.016 C 
HETATM    7  C10 UNL     1     -32.483   7.646   2.061  1.00 20.00     0.017 C 
ENDROOT
BRANCH   7   8
HETATM    8  C4  UNL     1     -33.069   7.539   3.430  1.00 20.00    -0.015 C 
HETATM    9  C3  UNL     1     -33.629   6.420   3.909  1.00 20.00     0.081 C 
BRANCH   9  10
HETATM   10  C5  UNL     1     -34.221   6.350   5.324  1.00 20.00     0.198 C 
HETATM   11  O11 UNL     1     -33.976   7.370   6.034  1.00 20.00    -0.645 OA
HETATM   12  O12 UNL     1     -34.873   5.311   5.623  1.00 20.00    -0.645 OA
ENDBRANCH   9  10
ENDBRANCH   7   8
TORSDOF 2
ENDMDL
MODEL 7
REMARK VINA RESULT:      -4.5      2.889      5.140
REMARK  2 active torsions:
REMARK  status: ('A' for Active; 'I' for Inactive)
REMARK    1  A    between atoms: C3_3  and  C5_5 
REMARK    2  A    between atoms: C4_4  and  C10_10 
ROOT
HETATM    1  C1  UNL     1     -32.624   9.075  -0.636  1.00 20.00    -0.026 C 
HETATM    2  C2  UNL     1     -33.756   9.195   0.074  1.00 20.00    -0.025 C 
HETATM    3  C6  UNL     1     -32.220  10.634   1.022  1.00 20.00     0.017 C 
HETATM    4  C7  UNL     1     -31.301   8.463   1.357  1.00 20.00     0.017 C 
HETATM    5  C8  UNL     1     -31.491   9.527   0.253  1.00 20.00     0.009 C 
HETATM    6  C9  UNL     1     -33.374   9.716   1.442  1.00 20.00     0.016 C 
HETATM    7  C10 UNL     1     -32.594   8.622   2.209  1.00 20.00     0.017 C 
ENDROOT
BRANCH   7   8
HETATM    8  C4  UNL     1     -33.345   7.350   2.429  1.00 20.00    -0.015 C 
HETATM    9  C3  UNL     1     -33.519   6.793   3.635  1.00 20.00     0.081 C 
BRANCH   9  10
HETATM   10  C5  UNL     1     -34.299   5.484   3.818  1.00 20.00     0.198 C 
HETATM   11  O11 UNL     1     -35.504   5.648   4.173  1.00 20.00    -0.645 OA
HETATM   12  O12 UNL     1     -33.674   4.408   3.602  1.00 20.00    -0.645 OA
ENDBRANCH   9  10
ENDBRANCH   7   8
TORSDOF 2
ENDMDL
MODEL 8
REMARK VINA RESULT:      -4.4     10.537     11.525
REMARK  2 active torsions:
REMARK  status: ('A' for Active; 'I' for Inactive)
REMARK    1  A    between atoms: C3_3  and  C5_5 
REMARK    2  A    between atoms: C4_4  and  C10_10 
ROOT
HETATM    1  C1  UNL     1     -36.188  15.173  -7.067  1.00 20.00    -0.026 C 
HETATM    2  C2  UNL     1     -35.071  15.834  -6.730  1.00 20.00    -0.025 C 
HETATM    3  C6  UNL     1     -34.451  13.650  -7.147  1.00 20.00     0.017 C 
HETATM    4  C7  UNL     1     -35.893  13.519  -5.256  1.00 20.00     0.017 C 
HETATM    5  C8  UNL     1     -35.940  13.710  -6.790  1.00 20.00     0.009 C 
HETATM    6  C9  UNL     1     -34.081  14.812  -6.217  1.00 20.00     0.016 C 
HETATM    7  C10 UNL     1     -34.578  14.251  -4.862  1.00 20.00     0.017 C 
ENDROOT
BRANCH   7   8
HETATM    8  C4  UNL     1     -34.742  15.270  -3.782  1.00 20.00    -0.015 C 
HETATM    9  C3  UNL     1     -33.719  15.941  -3.237  1.00 20.00     0.081 C 
BRANCH   9  10
HETATM   10  C5  UNL     1     -33.930  16.981  -2.128  1.00 20.00     0.198 C 
HETATM   11  O11 UNL     1     -34.996  16.816  -1.464  1.00 20.00    -0.645 OA
HETATM   12  O12 UNL     1     -33.042  17.869  -1.997  1.00 20.00    -0.645 OA
ENDBRANCH   9  10
ENDBRANCH   7   8
TORSDOF 2
ENDMDL
MODEL 9
REMARK VINA RESULT:      -4.4     10.206     11.377
REMARK  2 active torsions:
REMARK  status: ('A' for Active; 'I' for Inactive)
REMARK    1  A    between atoms: C3_3  and  C5_5 
REMARK    2  A    between atoms: C4_4  and  C10_10 
ROOT
HETATM    1  C1  UNL     1     -36.716  14.988  -4.520  1.00 20.00    -0.026 C 
HETATM    2  C2  UNL     1     -36.321  16.124  -5.115  1.00 20.00    -0.025 C 
HETATM    3  C6  UNL     1     -35.348  14.387  -6.284  1.00 20.00     0.017 C 
HETATM    4  C7  UNL     1     -34.392  14.261  -4.106  1.00 20.00     0.017 C 
HETATM    5  C8  UNL     1     -35.698  13.928  -4.864  1.00 20.00     0.009 C 
HETATM    6  C9  UNL     1     -35.032  15.823  -5.847  1.00 20.00     0.016 C 
HETATM    7  C10 UNL     1     -33.907  15.557  -4.817  1.00 20.00     0.017 C 
ENDROOT
BRANCH   7   8
HETATM    8  C4  UNL     1     -33.620  16.694  -3.892  1.00 20.00    -0.015 C 
HETATM    9  C3  UNL     1     -33.680  16.594  -2.557  1.00 20.00     0.081 C 
BRANCH   9  10
HETATM   10  C5  UNL     1     -33.377  17.787  -1.640  1.00 20.00     0.198 C 
HETATM   11  O11 UNL     1     -34.033  17.782  -0.556  1.00 20.00    -0.645 OA
HETATM   12  O12 UNL     1     -32.529  18.627  -2.051  1.00 20.00    -0.645 OA
ENDBRANCH   9  10
ENDBRANCH   7   8
TORSDOF 2
ENDMDL
