MODEL 1
REMARK VINA RESULT:      -5.0      0.000      0.000
REMARK  2 active torsions:
REMARK  status: ('A' for Active; 'I' for Inactive)
REMARK    1  A    between atoms: C4_4  and  C7_7 
REMARK    2  A    between atoms: C8_8  and  O11_11 
ROOT
HETATM    1  C1  UNL     1     -31.889   7.840   3.781  1.00 20.00    -0.019 C 
HETATM    2  C2  UNL     1     -31.539   8.747   2.857  1.00 20.00     0.007 C 
HETATM    3  C5  UNL     1     -33.820   7.081   2.322  1.00 20.00     0.016 C 
HETATM    4  C6  UNL     1     -32.957   7.544   1.150  1.00 20.00     0.042 C 
HETATM    5  C7  UNL     1     -32.961   6.802   3.569  1.00 20.00     0.036 C 
HETATM    6  C8  UNL     1     -32.162   8.820   1.488  1.00 20.00     0.072 C 
HETATM    7  C10 UNL     1     -33.029  10.077   1.381  1.00 20.00     0.050 C 
ENDROOT
BRANCH   5   8
HETATM    8  C4  UNL     1     -33.833   6.669   4.780  1.00 20.00    -0.085 C 
HETATM    9  C3  UNL     1     -33.661   7.436   5.865  1.00 20.00     0.014 C 
HETATM   10  C9  UNL     1     -34.910   5.628   4.708  1.00 20.00     0.043 C 
ENDBRANCH   5   8
BRANCH   6  11
HETATM   11  O11 UNL     1     -31.101   8.940   0.534  1.00 20.00    -0.386 OA
HETATM   12  H27 UNL     1     -31.083   9.870   0.265  1.00 20.00     0.211 HD
ENDBRANCH   6  11
TORSDOF 2
ENDMDL
MODEL 2
REMARK VINA RESULT:      -4.9      2.330      4.432
REMARK  2 active torsions:
REMARK  status: ('A' for Active; 'I' for Inactive)
REMARK    1  A    between atoms: C4_4  and  C7_7 
REMARK    2  A    between atoms: C8_8  and  O11_11 
ROOT
HETATM    1  C1  UNL     1     -32.536   6.309   2.395  1.00 20.00    -0.019 C 
HETATM    2  C2  UNL     1     -33.429   5.468   2.937  1.00 20.00     0.007 C 
HETATM    3  C5  UNL     1     -33.373   8.178   3.892  1.00 20.00     0.016 C 
HETATM    4  C6  UNL     1     -33.755   7.065   4.864  1.00 20.00     0.042 C 
HETATM    5  C7  UNL     1     -32.291   7.707   2.903  1.00 20.00     0.036 C 
HETATM    6  C8  UNL     1     -34.278   5.813   4.132  1.00 20.00     0.072 C 
HETATM    7  C10 UNL     1     -35.738   5.973   3.701  1.00 20.00     0.050 C 
ENDROOT
BRANCH   5   8
HETATM    8  C4  UNL     1     -32.165   8.680   1.771  1.00 20.00    -0.085 C 
HETATM    9  C3  UNL     1     -31.355   8.452   0.727  1.00 20.00     0.014 C 
HETATM   10  C9  UNL     1     -32.996   9.924   1.872  1.00 20.00     0.043 C 
ENDBRANCH   5   8
BRANCH   6  11
HETATM   11  O11 UNL     1     -34.211   4.712   5.045  1.00 20.00    -0.386 OA
HETATM   12  H27 UNL     1     -33.376   4.809   5.524  1.00 20.00     0.211 HD
ENDBRANCH   6  11
TORSDOF 2
ENDMDL
MODEL 3
REMARK VINA RESULT:      -4.8      2.617      4.562
REMARK  2 active torsions:
REMARK  status: ('A' for Active; 'I' for Inactive)
REMARK    1  A    between atoms: C4_4  and  C7_7 
REMARK    2  A    between atoms: C8_8  and  O11_11 
ROOT
HETATM    1  C1  UNL     1     -33.209   7.448   4.931  1.00 20.00    -0.019 C 
HETATM    2  C2  UNL     1     -33.610   6.359   5.602  1.00 20.00     0.007 C 
HETATM    3  C5  UNL     1     -34.083   6.450   2.769  1.00 20.00     0.016 C 
HETATM    4  C6  UNL     1     -35.080   5.709   3.657  1.00 20.00     0.042 C 
HETATM    5  C7  UNL     1     -33.528   7.698   3.479  1.00 20.00     0.036 C 
HETATM    6  C8  UNL     1     -34.447   5.267   4.991  1.00 20.00     0.072 C 
HETATM    7  C10 UNL     1     -33.605   3.999   4.831  1.00 20.00     0.050 C 
ENDROOT
BRANCH   5   8
HETATM    8  C4  UNL     1     -32.332   8.223   2.744  1.00 20.00    -0.085 C 
HETATM    9  C3  UNL     1     -31.108   8.223   3.290  1.00 20.00     0.014 C 
HETATM   10  C9  UNL     1     -32.583   8.748   1.362  1.00 20.00     0.043 C 
ENDBRANCH   5   8
BRANCH   6  11
HETATM   11  O11 UNL     1     -35.510   4.972   5.904  1.00 20.00    -0.386 OA
HETATM   12  H27 UNL     1     -36.137   4.417   5.418  1.00 20.00     0.211 HD
ENDBRANCH   6  11
TORSDOF 2
ENDMDL
MODEL 4
REMARK VINA RESULT:      -4.7     10.100     11.192
REMARK  2 active torsions:
REMARK  status: ('A' for Active; 'I' for Inactive)
REMARK    1  A    between atoms: C4_4  and  C7_7 
REMARK    2  A    between atoms: C8_8  and  O11_11 
ROOT
HETATM    1  C1  UNL     1     -33.655  14.975  -3.668  1.00 20.00    -0.019 C 
HETATM    2  C2  UNL     1     -34.095  14.095  -4.579  1.00 20.00     0.007 C 
HETATM    3  C5  UNL     1     -35.809  16.296  -3.888  1.00 20.00     0.016 C 
HETATM    4  C6  UNL     1     -36.445  14.963  -4.272  1.00 20.00     0.042 C 
HETATM    5  C7  UNL     1     -34.504  16.083  -3.100  1.00 20.00     0.036 C 
HETATM    6  C8  UNL     1     -35.498  14.096  -5.125  1.00 20.00     0.072 C 
HETATM    7  C10 UNL     1     -35.483  14.541  -6.590  1.00 20.00     0.050 C 
ENDROOT
BRANCH   5   8
HETATM    8  C4  UNL     1     -33.734  17.366  -3.015  1.00 20.00    -0.085 C 
HETATM    9  C3  UNL     1     -33.568  18.165  -4.079  1.00 20.00     0.014 C 
HETATM   10  C9  UNL     1     -33.160  17.706  -1.671  1.00 20.00     0.043 C 
ENDBRANCH   5   8
BRANCH   6  11
HETATM   11  O11 UNL     1     -35.981  12.749  -5.084  1.00 20.00    -0.386 OA
HETATM   12  H27 UNL     1     -36.923  12.793  -5.303  1.00 20.00     0.211 HD
ENDBRANCH   6  11
TORSDOF 2
ENDMDL
MODEL 5
REMARK VINA RESULT:      -4.7     10.339     11.079
REMARK  2 active torsions:
REMARK  status: ('A' for Active; 'I' for Inactive)
REMARK    1  A    between atoms: C4_4  and  C7_7 
REMARK    2  A    between atoms: C8_8  and  O11_11 
ROOT
HETATM    1  C1  UNL     1     -33.298  15.540  -4.173  1.00 20.00    -0.019 C 
HETATM    2  C2  UNL     1     -33.264  15.165  -5.460  1.00 20.00     0.007 C 
HETATM    3  C5  UNL     1     -35.801  15.132  -4.110  1.00 20.00     0.016 C 
HETATM    4  C6  UNL     1     -35.538  14.100  -5.203  1.00 20.00     0.042 C 
HETATM    5  C7  UNL     1     -34.523  15.425  -3.302  1.00 20.00     0.036 C 
HETATM    6  C8  UNL     1     -34.440  14.563  -6.182  1.00 20.00     0.072 C 
HETATM    7  C10 UNL     1     -34.978  15.558  -7.213  1.00 20.00     0.050 C 
ENDROOT
BRANCH   5   8
HETATM    8  C4  UNL     1     -34.709  16.653  -2.464  1.00 20.00    -0.085 C 
HETATM    9  C3  UNL     1     -35.926  17.128  -2.163  1.00 20.00     0.014 C 
HETATM   10  C9  UNL     1     -33.456  17.321  -1.982  1.00 20.00     0.043 C 
ENDBRANCH   5   8
BRANCH   6  11
HETATM   11  O11 UNL     1     -33.971  13.411  -6.891  1.00 20.00    -0.386 OA
HETATM   12  H27 UNL     1     -33.967  12.684  -6.252  1.00 20.00     0.211 HD
ENDBRANCH   6  11
TORSDOF 2
ENDMDL
MODEL 6
REMARK VINA RESULT:      -4.7      1.439      2.385
REMARK  2 active torsions:
REMARK  status: ('A' for Active; 'I' for Inactive)
REMARK    1  A    between atoms: C4_4  and  C7_7 
REMARK    2  A    between atoms: C8_8  and  O11_11 
ROOT
HETATM    1  C1  UNL     1     -33.492   5.708   2.687  1.00 20.00    -0.019 C 
HETATM    2  C2  UNL     1     -32.659   6.623   2.171  1.00 20.00     0.007 C 
HETATM    3  C5  UNL     1     -34.071   7.290   4.584  1.00 20.00     0.016 C 
HETATM    4  C6  UNL     1     -33.745   8.404   3.592  1.00 20.00     0.042 C 
HETATM    5  C7  UNL     1     -34.408   5.977   3.854  1.00 20.00     0.036 C 
HETATM    6  C8  UNL     1     -32.557   8.037   2.680  1.00 20.00     0.072 C 
HETATM    7  C10 UNL     1     -31.214   8.235   3.387  1.00 20.00     0.050 C 
ENDROOT
BRANCH   5   8
HETATM    8  C4  UNL     1     -34.404   4.832   4.820  1.00 20.00    -0.085 C 
HETATM    9  C3  UNL     1     -34.749   4.988   6.106  1.00 20.00     0.014 C 
HETATM   10  C9  UNL     1     -33.993   3.500   4.266  1.00 20.00     0.043 C 
ENDBRANCH   5   8
BRANCH   6  11
HETATM   11  O11 UNL     1     -32.588   8.911   1.547  1.00 20.00    -0.386 OA
HETATM   12  H27 UNL     1     -32.126   8.445   0.835  1.00 20.00     0.211 HD
ENDBRANCH   6  11
TORSDOF 2
ENDMDL
MODEL 7
REMARK VINA RESULT:      -4.6     10.391     11.337
REMARK  2 active torsions:
REMARK  status: ('A' for Active; 'I' for Inactive)
REMARK    1  A    between atoms: C4_4  and  C7_7 
REMARK    2  A    between atoms: C8_8  and  O11_11 
ROOT
HETATM    1  C1  UNL     1     -33.270  16.606  -4.923  1.00 20.00    -0.019 C 
HETATM    2  C2  UNL     1     -33.566  16.255  -6.184  1.00 20.00     0.007 C 
HETATM    3  C5  UNL     1     -34.641  14.659  -4.049  1.00 20.00     0.016 C 
HETATM    4  C6  UNL     1     -34.295  13.979  -5.372  1.00 20.00     0.042 C 
HETATM    5  C7  UNL     1     -33.635  15.777  -3.719  1.00 20.00     0.036 C 
HETATM    6  C8  UNL     1     -34.277  14.978  -6.546  1.00 20.00     0.072 C 
HETATM    7  C10 UNL     1     -35.688  15.297  -7.046  1.00 20.00     0.050 C 
ENDROOT
BRANCH   5   8
HETATM    8  C4  UNL     1     -34.160  16.635  -2.609  1.00 20.00    -0.085 C 
HETATM    9  C3  UNL     1     -33.351  17.390  -1.853  1.00 20.00     0.014 C 
HETATM   10  C9  UNL     1     -35.644  16.602  -2.392  1.00 20.00     0.043 C 
ENDBRANCH   5   8
BRANCH   6  11
HETATM   11  O11 UNL     1     -33.558  14.372  -7.625  1.00 20.00    -0.386 OA
HETATM   12  H27 UNL     1     -33.219  13.531  -7.286  1.00 20.00     0.211 HD
ENDBRANCH   6  11
TORSDOF 2
ENDMDL
MODEL 8
REMARK VINA RESULT:      -4.3     10.391     11.283
REMARK  2 active torsions:
REMARK  status: ('A' for Active; 'I' for Inactive)
REMARK    1  A    between atoms: C4_4  and  C7_7 
REMARK    2  A    between atoms: C8_8  and  O11_11 
ROOT
HETATM    1  C1  UNL     1     -35.188  16.939  -4.458  1.00 20.00    -0.019 C 
HETATM    2  C2  UNL     1     -35.703  16.095  -5.364  1.00 20.00     0.007 C 
HETATM    3  C5  UNL     1     -33.541  15.157  -3.718  1.00 20.00     0.016 C 
HETATM    4  C6  UNL     1     -33.663  14.625  -5.144  1.00 20.00     0.042 C 
HETATM    5  C7  UNL     1     -33.959  16.637  -3.639  1.00 20.00     0.036 C 
HETATM    6  C8  UNL     1     -35.099  14.754  -5.688  1.00 20.00     0.072 C 
HETATM    7  C10 UNL     1     -36.009  13.638  -5.165  1.00 20.00     0.050 C 
ENDROOT
BRANCH   5   8
HETATM    8  C4  UNL     1     -34.146  17.047  -2.210  1.00 20.00    -0.085 C 
HETATM    9  C3  UNL     1     -35.276  16.785  -1.539  1.00 20.00     0.014 C 
HETATM   10  C9  UNL     1     -32.995  17.767  -1.573  1.00 20.00     0.043 C 
ENDBRANCH   5   8
BRANCH   6  11
HETATM   11  O11 UNL     1     -35.041  14.636  -7.113  1.00 20.00    -0.386 OA
HETATM   12  H27 UNL     1     -34.809  13.715  -7.299  1.00 20.00     0.211 HD
ENDBRANCH   6  11
TORSDOF 2
ENDMDL
MODEL 9
REMARK VINA RESULT:      -4.1     10.548     11.316
REMARK  2 active torsions:
REMARK  status: ('A' for Active; 'I' for Inactive)
REMARK    1  A    between atoms: C4_4  and  C7_7 
REMARK    2  A    between atoms: C8_8  and  O11_11 
ROOT
HETATM    1  C1  UNL     1     -35.148  16.707  -2.003  1.00 20.00    -0.019 C 
HETATM    2  C2  UNL     1     -35.116  15.858  -3.041  1.00 20.00     0.007 C 
HETATM    3  C5  UNL     1     -33.260  18.052  -3.032  1.00 20.00     0.016 C 
HETATM    4  C6  UNL     1     -33.790  17.543  -4.371  1.00 20.00     0.042 C 
HETATM    5  C7  UNL     1     -34.343  17.980  -1.941  1.00 20.00     0.036 C 
HETATM    6  C8  UNL     1     -34.290  16.089  -4.279  1.00 20.00     0.072 C 
HETATM    7  C10 UNL     1     -33.135  15.084  -4.324  1.00 20.00     0.050 C 
ENDROOT
BRANCH   5   8
HETATM    8  C4  UNL     1     -33.729  18.168  -0.588  1.00 20.00    -0.085 C 
HETATM    9  C3  UNL     1     -34.457  18.100   0.536  1.00 20.00     0.014 C 
HETATM   10  C9  UNL     1     -32.254  18.435  -0.562  1.00 20.00     0.043 C 
ENDBRANCH   5   8
BRANCH   6  11
HETATM   11  O11 UNL     1     -35.128  15.841  -5.413  1.00 20.00    -0.386 OA
HETATM   12  H27 UNL     1     -35.668  15.070  -5.186  1.00 20.00     0.211 HD
ENDBRANCH   6  11
TORSDOF 2
ENDMDL
