MODEL 1
REMARK VINA RESULT:      -4.5      0.000      0.000
REMARK  0 active torsions:
REMARK  status: ('A' for Active; 'I' for Inactive)
ROOT
HETATM    1  C1  UNL     1     -34.442   4.775   4.278  1.00 20.00     0.029 C 
HETATM    2  C2  UNL     1     -34.444   5.854   3.197  1.00 20.00     0.044 C 
HETATM    3  C3  UNL     1     -34.673   5.392   5.653  1.00 20.00     0.167 C 
HETATM    4  C4  UNL     1     -33.723   7.474   5.014  1.00 20.00     0.207 C 
HETATM    5  C5  UNL     1     -32.947   7.887   2.565  1.00 20.00     0.209 A 
HETATM    6  C6  UNL     1     -33.554   6.986   3.610  1.00 20.00     0.103 A 
HETATM    7  O7  UNL     1     -33.674   6.377   5.932  1.00 20.00    -0.388 OA
HETATM    8  O8  UNL     1     -32.188   6.844   3.195  1.00 20.00    -0.373 OA
ENDROOT
TORSDOF 0
ENDMDL
MODEL 2
REMARK VINA RESULT:      -4.3      1.175      1.756
REMARK  0 active torsions:
REMARK  status: ('A' for Active; 'I' for Inactive)
ROOT
HETATM    1  C1  UNL     1     -34.440   5.778   5.760  1.00 20.00     0.029 C 
HETATM    2  C2  UNL     1     -34.983   5.615   4.342  1.00 20.00     0.044 C 
HETATM    3  C3  UNL     1     -33.903   7.190   5.970  1.00 20.00     0.167 C 
HETATM    4  C4  UNL     1     -33.382   7.466   3.668  1.00 20.00     0.207 C 
HETATM    5  C5  UNL     1     -33.994   5.625   1.934  1.00 20.00     0.209 A 
HETATM    6  C6  UNL     1     -33.983   6.133   3.354  1.00 20.00     0.103 A 
HETATM    7  O7  UNL     1     -32.884   7.483   5.010  1.00 20.00    -0.388 OA
HETATM    8  O8  UNL     1     -33.041   5.152   2.899  1.00 20.00    -0.373 OA
ENDROOT
TORSDOF 0
ENDMDL
MODEL 3
REMARK VINA RESULT:      -4.2      1.433      2.098
REMARK  0 active torsions:
REMARK  status: ('A' for Active; 'I' for Inactive)
ROOT
HETATM    1  C1  UNL     1     -34.126   7.092   5.424  1.00 20.00     0.029 C 
HETATM    2  C2  UNL     1     -32.802   7.499   4.780  1.00 20.00     0.044 C 
HETATM    3  C3  UNL     1     -34.539   5.698   4.967  1.00 20.00     0.167 C 
HETATM    4  C4  UNL     1     -33.392   5.902   2.896  1.00 20.00     0.207 C 
HETATM    5  C5  UNL     1     -31.959   8.010   2.370  1.00 20.00     0.209 A 
HETATM    6  C6  UNL     1     -32.854   7.237   3.305  1.00 20.00     0.103 A 
HETATM    7  O7  UNL     1     -34.644   5.651   3.541  1.00 20.00    -0.388 OA
HETATM    8  O8  UNL     1     -33.349   8.336   2.528  1.00 20.00    -0.373 OA
ENDROOT
TORSDOF 0
ENDMDL
MODEL 4
REMARK VINA RESULT:      -3.9     11.819     12.713
REMARK  0 active torsions:
REMARK  status: ('A' for Active; 'I' for Inactive)
ROOT
HETATM    1  C1  UNL     1     -34.170  13.843  -7.495  1.00 20.00     0.029 C 
HETATM    2  C2  UNL     1     -33.954  15.004  -6.526  1.00 20.00     0.044 C 
HETATM    3  C3  UNL     1     -35.506  13.160  -7.224  1.00 20.00     0.167 C 
HETATM    4  C4  UNL     1     -35.492  13.769  -4.928  1.00 20.00     0.207 C 
HETATM    5  C5  UNL     1     -33.602  15.274  -3.961  1.00 20.00     0.209 A 
HETATM    6  C6  UNL     1     -34.233  14.552  -5.125  1.00 20.00     0.103 A 
HETATM    7  O7  UNL     1     -35.564  12.696  -5.872  1.00 20.00    -0.388 OA
HETATM    8  O8  UNL     1     -33.092  14.019  -4.438  1.00 20.00    -0.373 OA
ENDROOT
TORSDOF 0
ENDMDL
MODEL 5
REMARK VINA RESULT:      -3.8      1.473      2.870
REMARK  0 active torsions:
REMARK  status: ('A' for Active; 'I' for Inactive)
ROOT
HETATM    1  C1  UNL     1     -32.835   7.179   2.603  1.00 20.00     0.029 C 
HETATM    2  C2  UNL     1     -33.219   5.749   2.980  1.00 20.00     0.044 C 
HETATM    3  C3  UNL     1     -32.280   7.922   3.814  1.00 20.00     0.167 C 
HETATM    4  C4  UNL     1     -33.531   6.609   5.349  1.00 20.00     0.207 C 
HETATM    5  C5  UNL     1     -34.988   4.619   4.519  1.00 20.00     0.209 A 
HETATM    6  C6  UNL     1     -34.046   5.760   4.230  1.00 20.00     0.103 A 
HETATM    7  O7  UNL     1     -33.236   7.928   4.877  1.00 20.00    -0.388 OA
HETATM    8  O8  UNL     1     -35.457   5.874   4.003  1.00 20.00    -0.373 OA
ENDROOT
TORSDOF 0
ENDMDL
MODEL 6
REMARK VINA RESULT:      -3.6     11.863     12.916
REMARK  0 active torsions:
REMARK  status: ('A' for Active; 'I' for Inactive)
ROOT
HETATM    1  C1  UNL     1     -33.215  14.763  -4.271  1.00 20.00     0.029 C 
HETATM    2  C2  UNL     1     -34.722  14.663  -4.038  1.00 20.00     0.044 C 
HETATM    3  C3  UNL     1     -32.918  15.628  -5.491  1.00 20.00     0.167 C 
HETATM    4  C4  UNL     1     -34.992  15.102  -6.524  1.00 20.00     0.207 C 
HETATM    5  C5  UNL     1     -36.758  13.638  -5.295  1.00 20.00     0.209 A 
HETATM    6  C6  UNL     1     -35.411  14.316  -5.322  1.00 20.00     0.103 A 
HETATM    7  O7  UNL     1     -33.566  15.096  -6.650  1.00 20.00    -0.388 OA
HETATM    8  O8  UNL     1     -35.549  12.908  -5.556  1.00 20.00    -0.373 OA
ENDROOT
TORSDOF 0
ENDMDL
MODEL 7
REMARK VINA RESULT:      -3.5      1.111      3.263
REMARK  0 active torsions:
REMARK  status: ('A' for Active; 'I' for Inactive)
ROOT
HETATM    1  C1  UNL     1     -32.695   7.723   4.692  1.00 20.00     0.029 C 
HETATM    2  C2  UNL     1     -34.054   7.114   5.036  1.00 20.00     0.044 C 
HETATM    3  C3  UNL     1     -32.489   7.754   3.182  1.00 20.00     0.167 C 
HETATM    4  C4  UNL     1     -33.898   5.874   2.826  1.00 20.00     0.207 C 
HETATM    5  C5  UNL     1     -35.183   4.780   4.807  1.00 20.00     0.209 A 
HETATM    6  C6  UNL     1     -34.240   5.833   4.282  1.00 20.00     0.103 A 
HETATM    7  O7  UNL     1     -32.596   6.436   2.636  1.00 20.00    -0.388 OA
HETATM    8  O8  UNL     1     -33.760   4.669   4.968  1.00 20.00    -0.373 OA
ENDROOT
TORSDOF 0
ENDMDL
MODEL 8
REMARK VINA RESULT:      -3.5     11.850     12.730
REMARK  0 active torsions:
REMARK  status: ('A' for Active; 'I' for Inactive)
ROOT
HETATM    1  C1  UNL     1     -34.261  16.236  -3.212  1.00 20.00     0.029 C 
HETATM    2  C2  UNL     1     -35.517  15.569  -3.772  1.00 20.00     0.044 C 
HETATM    3  C3  UNL     1     -33.397  16.785  -4.342  1.00 20.00     0.167 C 
HETATM    4  C4  UNL     1     -34.185  15.171  -5.897  1.00 20.00     0.207 C 
HETATM    5  C5  UNL     1     -36.047  13.480  -5.231  1.00 20.00     0.209 A 
HETATM    6  C6  UNL     1     -35.142  14.633  -4.880  1.00 20.00     0.103 A 
HETATM    7  O7  UNL     1     -33.042  15.741  -5.252  1.00 20.00    -0.388 OA
HETATM    8  O8  UNL     1     -34.856  13.295  -4.451  1.00 20.00    -0.373 OA
ENDROOT
TORSDOF 0
ENDMDL
MODEL 9
REMARK VINA RESULT:      -3.4     12.537     13.492
REMARK  0 active torsions:
REMARK  status: ('A' for Active; 'I' for Inactive)
ROOT
HETATM    1  C1  UNL     1     -34.041  14.031  -7.912  1.00 20.00     0.029 C 
HETATM    2  C2  UNL     1     -34.021  15.472  -7.404  1.00 20.00     0.044 C 
HETATM    3  C3  UNL     1     -35.118  13.225  -7.195  1.00 20.00     0.167 C 
HETATM    4  C4  UNL     1     -35.001  14.572  -5.241  1.00 20.00     0.207 C 
HETATM    5  C5  UNL     1     -33.462  16.669  -5.161  1.00 20.00     0.209 A 
HETATM    6  C6  UNL     1     -34.015  15.480  -5.906  1.00 20.00     0.103 A 
HETATM    7  O7  UNL     1     -34.902  13.250  -5.781  1.00 20.00    -0.388 OA
HETATM    8  O8  UNL     1     -32.706  15.459  -5.321  1.00 20.00    -0.373 OA
ENDROOT
TORSDOF 0
ENDMDL
