MODEL 1
REMARK VINA RESULT:      -3.7      0.000      0.000
REMARK  1 active torsions:
REMARK  status: ('A' for Active; 'I' for Inactive)
REMARK    1  A    between atoms: C1_1  and  C3_3 
ROOT
HETATM    1  C1  UNL     1     -33.947   7.019   3.639  1.00 20.00     0.181 A 
HETATM    2  C2  UNL     1     -32.530   7.211   3.182  1.00 20.00     0.247 A 
HETATM    3  O4  UNL     1     -32.914   7.423   4.546  1.00 20.00    -0.358 OA
HETATM    4 CL5  UNL     1     -32.112   8.588   2.200  1.00 20.00    -0.092 Cl
ENDROOT
BRANCH   1   5
HETATM    5  C3  UNL     1     -34.494   5.661   3.893  1.00 20.00     0.150 C 
HETATM    6 CL6  UNL     1     -34.617   5.327   5.644  1.00 20.00    -0.128 Cl
ENDBRANCH   1   5
TORSDOF 1
ENDMDL
MODEL 2
REMARK VINA RESULT:      -3.7      1.339      3.569
REMARK  1 active torsions:
REMARK  status: ('A' for Active; 'I' for Inactive)
REMARK    1  A    between atoms: C1_1  and  C3_3 
ROOT
HETATM    1  C1  UNL     1     -33.898   6.726   3.798  1.00 20.00     0.181 A 
HETATM    2  C2  UNL     1     -34.184   5.285   4.107  1.00 20.00     0.247 A 
HETATM    3  O4  UNL     1     -35.099   6.086   3.349  1.00 20.00    -0.358 OA
HETATM    4 CL5  UNL     1     -34.619   4.814   5.727  1.00 20.00    -0.092 Cl
ENDROOT
BRANCH   1   5
HETATM    5  C3  UNL     1     -32.959   7.105   2.710  1.00 20.00     0.150 C 
HETATM    6 CL6  UNL     1     -31.643   8.148   3.322  1.00 20.00    -0.128 Cl
ENDBRANCH   1   5
TORSDOF 1
ENDMDL
MODEL 3
REMARK VINA RESULT:      -3.6      2.417      4.205
REMARK  1 active torsions:
REMARK  status: ('A' for Active; 'I' for Inactive)
REMARK    1  A    between atoms: C1_1  and  C3_3 
ROOT
HETATM    1  C1  UNL     1     -32.044   8.341   1.771  1.00 20.00     0.181 A 
HETATM    2  C2  UNL     1     -32.861   7.646   2.822  1.00 20.00     0.247 A 
HETATM    3  O4  UNL     1     -31.625   8.298   3.141  1.00 20.00    -0.358 OA
HETATM    4 CL5  UNL     1     -32.930   5.906   2.859  1.00 20.00    -0.092 Cl
ENDROOT
BRANCH   1   5
HETATM    5  C3  UNL     1     -32.415   9.694   1.282  1.00 20.00     0.150 C 
HETATM    6 CL6  UNL     1     -33.124   9.622  -0.357  1.00 20.00    -0.128 Cl
ENDBRANCH   1   5
TORSDOF 1
ENDMDL
MODEL 4
REMARK VINA RESULT:      -3.6      1.754      1.923
REMARK  1 active torsions:
REMARK  status: ('A' for Active; 'I' for Inactive)
REMARK    1  A    between atoms: C1_1  and  C3_3 
ROOT
HETATM    1  C1  UNL     1     -32.896   7.819   2.868  1.00 20.00     0.181 A 
HETATM    2  C2  UNL     1     -32.085   8.464   1.780  1.00 20.00     0.247 A 
HETATM    3  O4  UNL     1     -31.553   8.263   3.096  1.00 20.00    -0.358 OA
HETATM    4 CL5  UNL     1     -32.461  10.084   1.262  1.00 20.00    -0.092 Cl
ENDROOT
BRANCH   1   5
HETATM    5  C3  UNL     1     -33.074   6.344   2.919  1.00 20.00     0.150 C 
HETATM    6 CL6  UNL     1     -34.693   5.905   3.534  1.00 20.00    -0.128 Cl
ENDBRANCH   1   5
TORSDOF 1
ENDMDL
MODEL 5
REMARK VINA RESULT:      -3.6      1.959      3.860
REMARK  1 active torsions:
REMARK  status: ('A' for Active; 'I' for Inactive)
REMARK    1  A    between atoms: C1_1  and  C3_3 
ROOT
HETATM    1  C1  UNL     1     -32.954   7.940   2.516  1.00 20.00     0.181 A 
HETATM    2  C2  UNL     1     -32.543   7.458   3.877  1.00 20.00     0.247 A 
HETATM    3  O4  UNL     1     -32.603   6.571   2.753  1.00 20.00    -0.358 OA
HETATM    4 CL5  UNL     1     -33.734   7.301   5.139  1.00 20.00    -0.092 Cl
ENDROOT
BRANCH   1   5
HETATM    5  C3  UNL     1     -32.002   8.677   1.644  1.00 20.00     0.150 C 
HETATM    6 CL6  UNL     1     -32.689  10.237   1.105  1.00 20.00    -0.128 Cl
ENDBRANCH   1   5
TORSDOF 1
ENDMDL
MODEL 6
REMARK VINA RESULT:      -3.4      2.390      2.731
REMARK  1 active torsions:
REMARK  status: ('A' for Active; 'I' for Inactive)
REMARK    1  A    between atoms: C1_1  and  C3_3 
ROOT
HETATM    1  C1  UNL     1     -32.111   8.331   2.536  1.00 20.00     0.181 A 
HETATM    2  C2  UNL     1     -32.655   9.054   1.337  1.00 20.00     0.247 A 
HETATM    3  O4  UNL     1     -31.418   8.333   1.281  1.00 20.00    -0.358 OA
HETATM    4 CL5  UNL     1     -32.619  10.795   1.282  1.00 20.00    -0.092 Cl
ENDROOT
BRANCH   1   5
HETATM    5  C3  UNL     1     -32.648   7.006   2.941  1.00 20.00     0.150 C 
HETATM    6 CL6  UNL     1     -33.772   7.155   4.322  1.00 20.00    -0.128 Cl
ENDBRANCH   1   5
TORSDOF 1
ENDMDL
MODEL 7
REMARK VINA RESULT:      -3.3      2.861      3.024
REMARK  1 active torsions:
REMARK  status: ('A' for Active; 'I' for Inactive)
REMARK    1  A    between atoms: C1_1  and  C3_3 
ROOT
HETATM    1  C1  UNL     1     -33.931   5.021   5.024  1.00 20.00     0.181 A 
HETATM    2  C2  UNL     1     -34.147   5.073   3.539  1.00 20.00     0.247 A 
HETATM    3  O4  UNL     1     -34.804   4.099   4.359  1.00 20.00    -0.358 OA
HETATM    4 CL5  UNL     1     -32.883   4.552   2.459  1.00 20.00    -0.092 Cl
ENDROOT
BRANCH   1   5
HETATM    5  C3  UNL     1     -34.620   5.974   5.933  1.00 20.00     0.150 C 
HETATM    6 CL6  UNL     1     -33.709   7.504   6.081  1.00 20.00    -0.128 Cl
ENDBRANCH   1   5
TORSDOF 1
ENDMDL
MODEL 8
REMARK VINA RESULT:      -2.9     11.655     12.582
REMARK  1 active torsions:
REMARK  status: ('A' for Active; 'I' for Inactive)
REMARK    1  A    between atoms: C1_1  and  C3_3 
ROOT
HETATM    1  C1  UNL     1     -35.660  13.780  -6.259  1.00 20.00     0.181 A 
HETATM    2  C2  UNL     1     -35.217  14.075  -4.855  1.00 20.00     0.247 A 
HETATM    3  O4  UNL     1     -35.927  12.874  -5.181  1.00 20.00    -0.358 OA
HETATM    4 CL5  UNL     1     -36.028  15.309  -3.930  1.00 20.00    -0.092 Cl
ENDROOT
BRANCH   1   5
HETATM    5  C3  UNL     1     -34.702  13.265  -7.272  1.00 20.00     0.150 C 
HETATM    6 CL6  UNL     1     -33.672  14.575  -7.918  1.00 20.00    -0.128 Cl
ENDBRANCH   1   5
TORSDOF 1
ENDMDL
MODEL 9
REMARK VINA RESULT:      -2.9     11.547     11.985
REMARK  1 active torsions:
REMARK  status: ('A' for Active; 'I' for Inactive)
REMARK    1  A    between atoms: C1_1  and  C3_3 
ROOT
HETATM    1  C1  UNL     1     -35.217  14.067  -4.913  1.00 20.00     0.181 A 
HETATM    2  C2  UNL     1     -35.760  13.716  -6.269  1.00 20.00     0.247 A 
HETATM    3  O4  UNL     1     -35.957  12.860  -5.137  1.00 20.00    -0.358 OA
HETATM    4 CL5  UNL     1     -34.675  13.206  -7.533  1.00 20.00    -0.092 Cl
ENDROOT
BRANCH   1   5
HETATM    5  C3  UNL     1     -35.905  15.059  -4.046  1.00 20.00     0.150 C 
HETATM    6 CL6  UNL     1     -34.744  15.920  -2.995  1.00 20.00    -0.128 Cl
ENDBRANCH   1   5
TORSDOF 1
ENDMDL
