MODEL 1
REMARK VINA RESULT:      -4.0      0.000      0.000
REMARK  0 active torsions:
REMARK  status: ('A' for Active; 'I' for Inactive)
ROOT
HETATM    1  C1  UNL     1     -33.318   7.211   3.451  1.00 20.00     0.223 C 
HETATM    2  C2  UNL     1     -33.970   6.725   4.471  1.00 20.00    -0.033 C 
HETATM    3  C3  UNL     1     -34.966   5.611   4.329  1.00 20.00     0.047 C 
HETATM    4  C4  UNL     1     -33.774   7.240   5.868  1.00 20.00     0.047 C 
HETATM    5  O5  UNL     1     -32.730   7.651   2.533  1.00 20.00    -0.284 OA
ENDROOT
TORSDOF 0
ENDMDL
MODEL 2
REMARK VINA RESULT:      -4.0      0.009      1.606
REMARK  0 active torsions:
REMARK  status: ('A' for Active; 'I' for Inactive)
ROOT
HETATM    1  C1  UNL     1     -33.311   7.214   3.447  1.00 20.00     0.223 C 
HETATM    2  C2  UNL     1     -33.962   6.729   4.468  1.00 20.00    -0.033 C 
HETATM    3  C3  UNL     1     -33.766   7.246   5.864  1.00 20.00     0.047 C 
HETATM    4  C4  UNL     1     -34.960   5.615   4.327  1.00 20.00     0.047 C 
HETATM    5  O5  UNL     1     -32.724   7.651   2.526  1.00 20.00    -0.284 OA
ENDROOT
TORSDOF 0
ENDMDL
MODEL 3
REMARK VINA RESULT:      -4.0      1.041      1.064
REMARK  0 active torsions:
REMARK  status: ('A' for Active; 'I' for Inactive)
ROOT
HETATM    1  C1  UNL     1     -33.852   6.343   3.646  1.00 20.00     0.223 C 
HETATM    2  C2  UNL     1     -34.095   6.222   4.922  1.00 20.00    -0.033 C 
HETATM    3  C3  UNL     1     -34.711   4.984   5.508  1.00 20.00     0.047 C 
HETATM    4  C4  UNL     1     -33.778   7.312   5.906  1.00 20.00     0.047 C 
HETATM    5  O5  UNL     1     -33.632   6.453   2.496  1.00 20.00    -0.284 OA
ENDROOT
TORSDOF 0
ENDMDL
MODEL 4
REMARK VINA RESULT:      -4.0      1.073      1.843
REMARK  0 active torsions:
REMARK  status: ('A' for Active; 'I' for Inactive)
ROOT
HETATM    1  C1  UNL     1     -33.877   6.312   3.650  1.00 20.00     0.223 C 
HETATM    2  C2  UNL     1     -34.101   6.209   4.931  1.00 20.00    -0.033 C 
HETATM    3  C3  UNL     1     -33.772   7.314   5.894  1.00 20.00     0.047 C 
HETATM    4  C4  UNL     1     -34.706   4.979   5.544  1.00 20.00     0.047 C 
HETATM    5  O5  UNL     1     -33.676   6.403   2.495  1.00 20.00    -0.284 OA
ENDROOT
TORSDOF 0
ENDMDL
MODEL 5
REMARK VINA RESULT:      -3.9      2.065      2.557
REMARK  0 active torsions:
REMARK  status: ('A' for Active; 'I' for Inactive)
ROOT
HETATM    1  C1  UNL     1     -34.427   5.235   4.544  1.00 20.00     0.223 C 
HETATM    2  C2  UNL     1     -33.959   6.451   4.595  1.00 20.00    -0.033 C 
HETATM    3  C3  UNL     1     -33.489   7.182   3.371  1.00 20.00     0.047 C 
HETATM    4  C4  UNL     1     -33.854   7.217   5.883  1.00 20.00     0.047 C 
HETATM    5  O5  UNL     1     -34.850   4.138   4.499  1.00 20.00    -0.284 OA
ENDROOT
TORSDOF 0
ENDMDL
MODEL 6
REMARK VINA RESULT:      -3.9      2.065      2.814
REMARK  0 active torsions:
REMARK  status: ('A' for Active; 'I' for Inactive)
ROOT
HETATM    1  C1  UNL     1     -34.420   5.227   4.543  1.00 20.00     0.223 C 
HETATM    2  C2  UNL     1     -33.962   6.447   4.599  1.00 20.00    -0.033 C 
HETATM    3  C3  UNL     1     -33.864   7.208   5.890  1.00 20.00     0.047 C 
HETATM    4  C4  UNL     1     -33.496   7.186   3.378  1.00 20.00     0.047 C 
HETATM    5  O5  UNL     1     -34.833   4.127   4.491  1.00 20.00    -0.284 OA
ENDROOT
TORSDOF 0
ENDMDL
MODEL 7
REMARK VINA RESULT:      -3.8      1.950      2.557
REMARK  0 active torsions:
REMARK  status: ('A' for Active; 'I' for Inactive)
ROOT
HETATM    1  C1  UNL     1     -34.018   6.680   5.229  1.00 20.00     0.223 C 
HETATM    2  C2  UNL     1     -34.163   5.776   4.300  1.00 20.00    -0.033 C 
HETATM    3  C3  UNL     1     -33.959   6.082   2.844  1.00 20.00     0.047 C 
HETATM    4  C4  UNL     1     -34.544   4.357   4.613  1.00 20.00     0.047 C 
HETATM    5  O5  UNL     1     -33.888   7.494   6.068  1.00 20.00    -0.284 OA
ENDROOT
TORSDOF 0
ENDMDL
MODEL 8
REMARK VINA RESULT:      -3.8      1.962      2.506
REMARK  0 active torsions:
REMARK  status: ('A' for Active; 'I' for Inactive)
ROOT
HETATM    1  C1  UNL     1     -34.039   6.667   5.242  1.00 20.00     0.223 C 
HETATM    2  C2  UNL     1     -34.171   5.766   4.308  1.00 20.00    -0.033 C 
HETATM    3  C3  UNL     1     -34.538   4.342   4.614  1.00 20.00     0.047 C 
HETATM    4  C4  UNL     1     -33.968   6.082   2.854  1.00 20.00     0.047 C 
HETATM    5  O5  UNL     1     -33.920   7.481   6.083  1.00 20.00    -0.284 OA
ENDROOT
TORSDOF 0
ENDMDL
MODEL 9
REMARK VINA RESULT:      -3.6      1.934      2.532
REMARK  0 active torsions:
REMARK  status: ('A' for Active; 'I' for Inactive)
ROOT
HETATM    1  C1  UNL     1     -33.589   7.143   4.810  1.00 20.00     0.223 C 
HETATM    2  C2  UNL     1     -33.217   6.915   3.581  1.00 20.00    -0.033 C 
HETATM    3  C3  UNL     1     -33.645   5.688   2.828  1.00 20.00     0.047 C 
HETATM    4  C4  UNL     1     -32.332   7.861   2.821  1.00 20.00     0.047 C 
HETATM    5  O5  UNL     1     -33.924   7.351   5.918  1.00 20.00    -0.284 OA
ENDROOT
TORSDOF 0
ENDMDL
