MODEL 1
REMARK VINA RESULT:      -6.1      0.000      0.000
REMARK  1 active torsions:
REMARK  status: ('A' for Active; 'I' for Inactive)
REMARK    1  A    between atoms: C9_9  and  O11_11 
ROOT
HETATM    1  C1  UNL     1     -34.321   4.816   5.353  1.00 20.00    -0.025 C 
HETATM    2  C2  UNL     1     -34.009   4.251   4.170  1.00 20.00    -0.025 C 
HETATM    3  C3  UNL     1     -32.566   7.951   4.999  1.00 20.00    -0.022 C 
HETATM    4  C4  UNL     1     -31.798   8.167   3.906  1.00 20.00     0.001 C 
HETATM    5  C5  UNL     1     -35.455   5.920   3.684  1.00 20.00     0.018 C 
HETATM    6  C6  UNL     1     -34.817   6.216   5.078  1.00 20.00     0.017 C 
HETATM    7  C7  UNL     1     -34.167   5.325   3.094  1.00 20.00     0.016 C 
HETATM    8  C8  UNL     1     -33.757   7.194   4.545  1.00 20.00     0.023 C 
HETATM    9  C9  UNL     1     -32.291   7.376   2.690  1.00 20.00     0.146 C 
HETATM   10  C10 UNL     1     -33.053   6.324   3.466  1.00 20.00     0.034 C 
ENDROOT
BRANCH   9  11
HETATM   11  O11 UNL     1     -33.105   8.175   1.858  1.00 20.00    -0.391 OA
HETATM   12  H23 UNL     1     -33.926   7.678   1.692  1.00 20.00     0.210 HD
ENDBRANCH   9  11
TORSDOF 1
ENDMDL
MODEL 2
REMARK VINA RESULT:      -5.0     11.858     12.822
REMARK  1 active torsions:
REMARK  status: ('A' for Active; 'I' for Inactive)
REMARK    1  A    between atoms: C9_9  and  O11_11 
ROOT
HETATM    1  C1  UNL     1     -33.613  16.996  -4.958  1.00 20.00    -0.025 C 
HETATM    2  C2  UNL     1     -33.376  16.287  -6.078  1.00 20.00    -0.025 C 
HETATM    3  C3  UNL     1     -36.766  15.535  -3.982  1.00 20.00    -0.022 C 
HETATM    4  C4  UNL     1     -37.355  14.618  -4.785  1.00 20.00     0.001 C 
HETATM    5  C5  UNL     1     -33.083  14.838  -4.368  1.00 20.00     0.018 C 
HETATM    6  C6  UNL     1     -33.968  16.020  -3.861  1.00 20.00     0.017 C 
HETATM    7  C7  UNL     1     -33.704  14.826  -5.772  1.00 20.00     0.016 C 
HETATM    8  C8  UNL     1     -35.306  15.286  -4.045  1.00 20.00     0.023 C 
HETATM    9  C9  UNL     1     -36.331  13.846  -5.625  1.00 20.00     0.146 C 
HETATM   10  C10 UNL     1     -35.228  14.877  -5.542  1.00 20.00     0.034 C 
ENDROOT
BRANCH   9  11
HETATM   11  O11 UNL     1     -36.007  12.610  -5.023  1.00 20.00    -0.391 OA
HETATM   12  H23 UNL     1     -36.566  11.929  -5.438  1.00 20.00     0.210 HD
ENDBRANCH   9  11
TORSDOF 1
ENDMDL
MODEL 3
REMARK VINA RESULT:      -4.8     11.601     12.391
REMARK  1 active torsions:
REMARK  status: ('A' for Active; 'I' for Inactive)
REMARK    1  A    between atoms: C9_9  and  O11_11 
ROOT
HETATM    1  C1  UNL     1     -34.789  14.186  -4.164  1.00 20.00    -0.025 C 
HETATM    2  C2  UNL     1     -33.498  14.446  -4.443  1.00 20.00    -0.025 C 
HETATM    3  C3  UNL     1     -35.354  16.654  -1.591  1.00 20.00    -0.022 C 
HETATM    4  C4  UNL     1     -34.324  17.418  -1.160  1.00 20.00     0.001 C 
HETATM    5  C5  UNL     1     -34.663  16.199  -5.268  1.00 20.00     0.018 C 
HETATM    6  C6  UNL     1     -35.538  15.497  -4.182  1.00 20.00     0.017 C 
HETATM    7  C7  UNL     1     -33.343  15.965  -4.518  1.00 20.00     0.016 C 
HETATM    8  C8  UNL     1     -35.175  16.475  -3.052  1.00 20.00     0.023 C 
HETATM    9  C9  UNL     1     -33.256  17.609  -2.243  1.00 20.00     0.146 C 
HETATM   10  C10 UNL     1     -33.623  16.392  -3.063  1.00 20.00     0.034 C 
ENDROOT
BRANCH   9  11
HETATM   11  O11 UNL     1     -33.434  18.833  -2.924  1.00 20.00    -0.391 OA
HETATM   12  H23 UNL     1     -32.567  19.275  -2.959  1.00 20.00     0.210 HD
ENDBRANCH   9  11
TORSDOF 1
ENDMDL
MODEL 4
REMARK VINA RESULT:      -4.7     11.491     12.968
REMARK  1 active torsions:
REMARK  status: ('A' for Active; 'I' for Inactive)
REMARK    1  A    between atoms: C9_9  and  O11_11 
ROOT
HETATM    1  C1  UNL     1     -34.705  15.798  -3.498  1.00 20.00    -0.025 C 
HETATM    2  C2  UNL     1     -33.862  16.518  -4.263  1.00 20.00    -0.025 C 
HETATM    3  C3  UNL     1     -36.382  13.906  -6.074  1.00 20.00    -0.022 C 
HETATM    4  C4  UNL     1     -36.101  14.151  -7.374  1.00 20.00     0.001 C 
HETATM    5  C5  UNL     1     -33.080  14.398  -4.326  1.00 20.00     0.018 C 
HETATM    6  C6  UNL     1     -34.585  14.352  -3.916  1.00 20.00     0.017 C 
HETATM    7  C7  UNL     1     -33.264  15.570  -5.302  1.00 20.00     0.016 C 
HETATM    8  C8  UNL     1     -35.108  14.032  -5.326  1.00 20.00     0.023 C 
HETATM    9  C9  UNL     1     -34.678  14.690  -7.564  1.00 20.00     0.146 C 
HETATM   10  C10 UNL     1     -34.497  15.200  -6.151  1.00 20.00     0.034 C 
ENDROOT
BRANCH   9  11
HETATM   11  O11 UNL     1     -33.785  13.655  -7.918  1.00 20.00    -0.391 OA
HETATM   12  H23 UNL     1     -33.573  13.765  -8.862  1.00 20.00     0.210 HD
ENDBRANCH   9  11
TORSDOF 1
ENDMDL
MODEL 5
REMARK VINA RESULT:      -4.7     11.816     13.350
REMARK  1 active torsions:
REMARK  status: ('A' for Active; 'I' for Inactive)
REMARK    1  A    between atoms: C9_9  and  O11_11 
ROOT
HETATM    1  C1  UNL     1     -35.727  15.521  -7.816  1.00 20.00    -0.025 C 
HETATM    2  C2  UNL     1     -36.143  14.347  -7.305  1.00 20.00    -0.025 C 
HETATM    3  C3  UNL     1     -33.523  16.581  -5.160  1.00 20.00    -0.022 C 
HETATM    4  C4  UNL     1     -33.430  15.838  -4.033  1.00 20.00     0.001 C 
HETATM    5  C5  UNL     1     -33.984  14.024  -7.890  1.00 20.00     0.018 C 
HETATM    6  C6  UNL     1     -34.220  15.558  -7.719  1.00 20.00     0.017 C 
HETATM    7  C7  UNL     1     -34.916  13.636  -6.733  1.00 20.00     0.016 C 
HETATM    8  C8  UNL     1     -33.656  15.631  -6.291  1.00 20.00     0.023 C 
HETATM    9  C9  UNL     1     -33.729  14.357  -4.293  1.00 20.00     0.146 C 
HETATM   10  C10 UNL     1     -34.520  14.562  -5.565  1.00 20.00     0.034 C 
ENDROOT
BRANCH   9  11
HETATM   11  O11 UNL     1     -32.538  13.621  -4.471  1.00 20.00    -0.391 OA
HETATM   12  H23 UNL     1     -31.999  13.741  -3.669  1.00 20.00     0.210 HD
ENDBRANCH   9  11
TORSDOF 1
ENDMDL
MODEL 6
REMARK VINA RESULT:      -4.7     11.667     12.871
REMARK  1 active torsions:
REMARK  status: ('A' for Active; 'I' for Inactive)
REMARK    1  A    between atoms: C9_9  and  O11_11 
ROOT
HETATM    1  C1  UNL     1     -36.903  14.789  -6.884  1.00 20.00    -0.025 C 
HETATM    2  C2  UNL     1     -37.114  14.153  -5.716  1.00 20.00    -0.025 C 
HETATM    3  C3  UNL     1     -33.620  16.144  -6.242  1.00 20.00    -0.022 C 
HETATM    4  C4  UNL     1     -33.055  15.980  -5.023  1.00 20.00     0.001 C 
HETATM    5  C5  UNL     1     -35.534  12.944  -6.789  1.00 20.00     0.018 C 
HETATM    6  C6  UNL     1     -35.537  14.386  -7.388  1.00 20.00     0.017 C 
HETATM    7  C7  UNL     1     -35.824  13.416  -5.357  1.00 20.00     0.016 C 
HETATM    8  C8  UNL     1     -34.354  14.893  -6.549  1.00 20.00     0.023 C 
HETATM    9  C9  UNL     1     -33.558  14.713  -4.322  1.00 20.00     0.146 C 
HETATM   10  C10 UNL     1     -34.844  14.580  -5.107  1.00 20.00     0.034 C 
ENDROOT
BRANCH   9  11
HETATM   11  O11 UNL     1     -32.661  13.639  -4.507  1.00 20.00    -0.391 OA
HETATM   12  H23 UNL     1     -31.861  13.998  -4.932  1.00 20.00     0.210 HD
ENDBRANCH   9  11
TORSDOF 1
ENDMDL
MODEL 7
REMARK VINA RESULT:      -4.6      1.595      3.667
REMARK  1 active torsions:
REMARK  status: ('A' for Active; 'I' for Inactive)
REMARK    1  A    between atoms: C9_9  and  O11_11 
ROOT
HETATM    1  C1  UNL     1     -31.482   7.904   3.249  1.00 20.00    -0.025 C 
HETATM    2  C2  UNL     1     -32.069   8.283   4.400  1.00 20.00    -0.025 C 
HETATM    3  C3  UNL     1     -33.066   4.692   2.797  1.00 20.00    -0.022 C 
HETATM    4  C4  UNL     1     -33.901   4.218   3.751  1.00 20.00     0.001 C 
HETATM    5  C5  UNL     1     -33.684   8.410   2.823  1.00 20.00     0.018 C 
HETATM    6  C6  UNL     1     -32.569   7.448   2.305  1.00 20.00     0.017 C 
HETATM    7  C7  UNL     1     -33.558   7.953   4.284  1.00 20.00     0.016 C 
HETATM    8  C8  UNL     1     -33.293   6.155   2.715  1.00 20.00     0.023 C 
HETATM    9  C9  UNL     1     -34.573   5.348   4.541  1.00 20.00     0.146 C 
HETATM   10  C10 UNL     1     -33.545   6.412   4.227  1.00 20.00     0.034 C 
ENDROOT
BRANCH   9  11
HETATM   11  O11 UNL     1     -35.860   5.627   4.034  1.00 20.00    -0.391 OA
HETATM   12  H23 UNL     1     -35.952   5.147   3.192  1.00 20.00     0.210 HD
ENDBRANCH   9  11
TORSDOF 1
ENDMDL
MODEL 8
REMARK VINA RESULT:      -4.5     11.385     12.939
REMARK  1 active torsions:
REMARK  status: ('A' for Active; 'I' for Inactive)
REMARK    1  A    between atoms: C9_9  and  O11_11 
ROOT
HETATM    1  C1  UNL     1     -32.996  15.656  -5.059  1.00 20.00    -0.025 C 
HETATM    2  C2  UNL     1     -33.088  14.438  -4.493  1.00 20.00    -0.025 C 
HETATM    3  C3  UNL     1     -36.050  15.652  -6.984  1.00 20.00    -0.022 C 
HETATM    4  C4  UNL     1     -36.820  14.539  -7.013  1.00 20.00     0.001 C 
HETATM    5  C5  UNL     1     -34.666  15.699  -3.479  1.00 20.00     0.018 C 
HETATM    6  C6  UNL     1     -34.315  16.363  -4.848  1.00 20.00     0.017 C 
HETATM    7  C7  UNL     1     -34.528  14.265  -4.010  1.00 20.00     0.016 C 
HETATM    8  C8  UNL     1     -35.509  15.764  -5.608  1.00 20.00     0.023 C 
HETATM    9  C9  UNL     1     -36.665  13.698  -5.741  1.00 20.00     0.146 C 
HETATM   10  C10 UNL     1     -35.315  14.246  -5.336  1.00 20.00     0.034 C 
ENDROOT
BRANCH   9  11
HETATM   11  O11 UNL     1     -37.696  13.975  -4.818  1.00 20.00    -0.391 OA
HETATM   12  H23 UNL     1     -38.465  14.290  -5.327  1.00 20.00     0.210 HD
ENDBRANCH   9  11
TORSDOF 1
ENDMDL
MODEL 9
REMARK VINA RESULT:      -4.5     11.792     12.879
REMARK  1 active torsions:
REMARK  status: ('A' for Active; 'I' for Inactive)
REMARK    1  A    between atoms: C9_9  and  O11_11 
ROOT
HETATM    1  C1  UNL     1     -35.731  17.534  -2.849  1.00 20.00    -0.025 C 
HETATM    2  C2  UNL     1     -34.944  18.322  -3.606  1.00 20.00    -0.025 C 
HETATM    3  C3  UNL     1     -35.207  14.380  -4.525  1.00 20.00    -0.022 C 
HETATM    4  C4  UNL     1     -34.455  14.338  -5.650  1.00 20.00     0.001 C 
HETATM    5  C5  UNL     1     -33.532  17.017  -2.418  1.00 20.00     0.018 C 
HETATM    6  C6  UNL     1     -34.926  16.315  -2.462  1.00 20.00     0.017 C 
HETATM    7  C7  UNL     1     -33.637  17.568  -3.848  1.00 20.00     0.016 C 
HETATM    8  C8  UNL     1     -34.573  15.369  -3.621  1.00 20.00     0.023 C 
HETATM    9  C9  UNL     1     -33.406  15.455  -5.683  1.00 20.00     0.146 C 
HETATM   10  C10 UNL     1     -34.104  16.376  -4.708  1.00 20.00     0.034 C 
ENDROOT
BRANCH   9  11
HETATM   11  O11 UNL     1     -32.151  14.989  -5.233  1.00 20.00    -0.391 OA
HETATM   12  H23 UNL     1     -31.681  15.749  -4.847  1.00 20.00     0.210 HD
ENDBRANCH   9  11
TORSDOF 1
ENDMDL
