MODEL 1
REMARK VINA RESULT:      -4.4      0.000      0.000
REMARK  1 active torsions:
REMARK  status: ('A' for Active; 'I' for Inactive)
REMARK    1  A    between atoms: C2_2  and  C4_4 
ROOT
HETATM    1  C3  UNL     1     -33.288   5.611   2.786  1.00 20.00     0.205 A 
HETATM    2  C4  UNL     1     -34.331   6.298   3.590  1.00 20.00     0.173 A 
HETATM    3  O6  UNL     1     -33.333   7.036   2.916  1.00 20.00    -0.377 OA
ENDROOT
BRANCH   2   4
HETATM    4  C2  UNL     1     -34.279   6.115   5.078  1.00 20.00    -0.062 C 
HETATM    5  C1  UNL     1     -34.675   4.976   5.666  1.00 20.00     0.016 C 
HETATM    6  C5  UNL     1     -33.759   7.277   5.870  1.00 20.00     0.045 C 
ENDBRANCH   2   4
TORSDOF 1
ENDMDL
MODEL 2
REMARK VINA RESULT:      -4.4      0.323      1.469
REMARK  1 active torsions:
REMARK  status: ('A' for Active; 'I' for Inactive)
REMARK    1  A    between atoms: C2_2  and  C4_4 
ROOT
HETATM    1  C3  UNL     1     -33.002   6.062   2.835  1.00 20.00     0.205 A 
HETATM    2  C4  UNL     1     -34.186   6.545   3.593  1.00 20.00     0.173 A 
HETATM    3  O6  UNL     1     -33.290   7.456   2.990  1.00 20.00    -0.377 OA
ENDROOT
BRANCH   2   4
HETATM    4  C2  UNL     1     -34.183   6.330   5.077  1.00 20.00    -0.062 C 
HETATM    5  C1  UNL     1     -33.762   7.277   5.929  1.00 20.00     0.016 C 
HETATM    6  C5  UNL     1     -34.675   4.996   5.554  1.00 20.00     0.045 C 
ENDBRANCH   2   4
TORSDOF 1
ENDMDL
MODEL 3
REMARK VINA RESULT:      -4.1      1.846      3.109
REMARK  1 active torsions:
REMARK  status: ('A' for Active; 'I' for Inactive)
REMARK    1  A    between atoms: C2_2  and  C4_4 
ROOT
HETATM    1  C3  UNL     1     -34.598   5.302   5.595  1.00 20.00     0.205 A 
HETATM    2  C4  UNL     1     -34.856   5.540   4.151  1.00 20.00     0.173 A 
HETATM    3  O6  UNL     1     -34.902   4.235   4.691  1.00 20.00    -0.377 OA
ENDROOT
BRANCH   2   4
HETATM    4  C2  UNL     1     -33.694   5.986   3.314  1.00 20.00    -0.062 C 
HETATM    5  C1  UNL     1     -33.308   7.270   3.263  1.00 20.00     0.016 C 
HETATM    6  C5  UNL     1     -32.989   4.915   2.537  1.00 20.00     0.045 C 
ENDBRANCH   2   4
TORSDOF 1
ENDMDL
MODEL 4
REMARK VINA RESULT:      -4.1      1.827      2.820
REMARK  1 active torsions:
REMARK  status: ('A' for Active; 'I' for Inactive)
REMARK    1  A    between atoms: C2_2  and  C4_4 
ROOT
HETATM    1  C3  UNL     1     -34.557   5.376   5.572  1.00 20.00     0.205 A 
HETATM    2  C4  UNL     1     -34.823   5.569   4.123  1.00 20.00     0.173 A 
HETATM    3  O6  UNL     1     -34.976   4.300   4.725  1.00 20.00    -0.377 OA
ENDROOT
BRANCH   2   4
HETATM    4  C2  UNL     1     -33.643   5.867   3.246  1.00 20.00    -0.062 C 
HETATM    5  C1  UNL     1     -33.025   4.908   2.540  1.00 20.00     0.016 C 
HETATM    6  C5  UNL     1     -33.194   7.297   3.203  1.00 20.00     0.045 C 
ENDBRANCH   2   4
TORSDOF 1
ENDMDL
MODEL 5
REMARK VINA RESULT:      -4.0      1.477      2.113
REMARK  1 active torsions:
REMARK  status: ('A' for Active; 'I' for Inactive)
REMARK    1  A    between atoms: C2_2  and  C4_4 
ROOT
HETATM    1  C3  UNL     1     -34.446   4.449   4.721  1.00 20.00     0.205 A 
HETATM    2  C4  UNL     1     -34.574   5.779   4.069  1.00 20.00     0.173 A 
HETATM    3  O6  UNL     1     -34.013   4.683   3.377  1.00 20.00    -0.377 OA
ENDROOT
BRANCH   2   4
HETATM    4  C2  UNL     1     -33.706   6.884   4.593  1.00 20.00    -0.062 C 
HETATM    5  C1  UNL     1     -33.790   7.311   5.862  1.00 20.00     0.016 C 
HETATM    6  C5  UNL     1     -32.738   7.485   3.618  1.00 20.00     0.045 C 
ENDBRANCH   2   4
TORSDOF 1
ENDMDL
MODEL 6
REMARK VINA RESULT:      -4.0      1.186      1.239
REMARK  1 active torsions:
REMARK  status: ('A' for Active; 'I' for Inactive)
REMARK    1  A    between atoms: C2_2  and  C4_4 
ROOT
HETATM    1  C3  UNL     1     -32.446   6.770   2.728  1.00 20.00     0.205 A 
HETATM    2  C4  UNL     1     -33.528   7.420   3.513  1.00 20.00     0.173 A 
HETATM    3  O6  UNL     1     -32.188   7.854   3.627  1.00 20.00    -0.377 OA
ENDROOT
BRANCH   2   4
HETATM    4  C2  UNL     1     -34.169   6.607   4.597  1.00 20.00    -0.062 C 
HETATM    5  C1  UNL     1     -34.939   5.542   4.325  1.00 20.00     0.016 C 
HETATM    6  C5  UNL     1     -33.901   7.051   6.004  1.00 20.00     0.045 C 
ENDBRANCH   2   4
TORSDOF 1
ENDMDL
MODEL 7
REMARK VINA RESULT:      -4.0      1.675      3.155
REMARK  1 active torsions:
REMARK  status: ('A' for Active; 'I' for Inactive)
REMARK    1  A    between atoms: C2_2  and  C4_4 
ROOT
HETATM    1  C3  UNL     1     -33.647   7.245   5.742  1.00 20.00     0.205 A 
HETATM    2  C4  UNL     1     -34.226   6.950   4.405  1.00 20.00     0.173 A 
HETATM    3  O6  UNL     1     -34.399   6.055   5.484  1.00 20.00    -0.377 OA
ENDROOT
BRANCH   2   4
HETATM    4  C2  UNL     1     -33.264   6.642   3.297  1.00 20.00    -0.062 C 
HETATM    5  C1  UNL     1     -32.470   7.584   2.764  1.00 20.00     0.016 C 
HETATM    6  C5  UNL     1     -33.241   5.222   2.816  1.00 20.00     0.045 C 
ENDBRANCH   2   4
TORSDOF 1
ENDMDL
MODEL 8
REMARK VINA RESULT:      -3.9      1.669      2.810
REMARK  1 active torsions:
REMARK  status: ('A' for Active; 'I' for Inactive)
REMARK    1  A    between atoms: C2_2  and  C4_4 
ROOT
HETATM    1  C3  UNL     1     -33.640   7.226   5.732  1.00 20.00     0.205 A 
HETATM    2  C4  UNL     1     -34.261   6.893   4.423  1.00 20.00     0.173 A 
HETATM    3  O6  UNL     1     -34.425   6.044   5.541  1.00 20.00    -0.377 OA
ENDROOT
BRANCH   2   4
HETATM    4  C2  UNL     1     -33.336   6.520   3.303  1.00 20.00    -0.062 C 
HETATM    5  C1  UNL     1     -33.263   5.267   2.831  1.00 20.00     0.016 C 
HETATM    6  C5  UNL     1     -32.497   7.629   2.741  1.00 20.00     0.045 C 
ENDBRANCH   2   4
TORSDOF 1
ENDMDL
MODEL 9
REMARK VINA RESULT:      -3.9      3.935      5.110
REMARK  1 active torsions:
REMARK  status: ('A' for Active; 'I' for Inactive)
REMARK    1  A    between atoms: C2_2  and  C4_4 
ROOT
HETATM    1  C3  UNL     1     -32.691   7.693   2.616  1.00 20.00     0.205 A 
HETATM    2  C4  UNL     1     -31.874   8.455   1.636  1.00 20.00     0.173 A 
HETATM    3  O6  UNL     1     -31.594   8.519   3.019  1.00 20.00    -0.377 OA
ENDROOT
BRANCH   2   4
HETATM    4  C2  UNL     1     -32.541   9.599   0.933  1.00 20.00    -0.062 C 
HETATM    5  C1  UNL     1     -32.669  10.806   1.505  1.00 20.00     0.016 C 
HETATM    6  C5  UNL     1     -33.058   9.318  -0.447  1.00 20.00     0.045 C 
ENDBRANCH   2   4
TORSDOF 1
ENDMDL
