MODEL 1
REMARK VINA RESULT:      -5.5      0.000      0.000
REMARK  0 active torsions:
REMARK  status: ('A' for Active; 'I' for Inactive)
ROOT
HETATM    1  C1  UNL     1     -33.011   7.402   4.343  1.00 20.00     0.127 C 
HETATM    2  C2  UNL     1     -33.971   7.018   5.455  1.00 20.00     0.082 C 
HETATM    3  C3  UNL     1     -33.427   7.096   2.916  1.00 20.00     0.082 C 
HETATM    4  C4  UNL     1     -33.840   4.554   4.864  1.00 20.00     0.005 C 
HETATM    5  C5  UNL     1     -33.517   4.601   3.365  1.00 20.00     0.005 C 
HETATM    6  C6  UNL     1     -35.466   5.924   3.771  1.00 20.00     0.010 C 
HETATM    7  C7  UNL     1     -34.767   5.752   5.118  1.00 20.00    -0.007 C 
HETATM    8  C8  UNL     1     -34.275   5.821   2.823  1.00 20.00    -0.007 C 
HETATM    9  O9  UNL     1     -31.983   8.037   4.583  1.00 20.00    -0.298 OA
ENDROOT
TORSDOF 0
ENDMDL
MODEL 2
REMARK VINA RESULT:      -4.6      1.035      2.421
REMARK  0 active torsions:
REMARK  status: ('A' for Active; 'I' for Inactive)
ROOT
HETATM    1  C1  UNL     1     -33.657   6.989   5.460  1.00 20.00     0.127 C 
HETATM    2  C2  UNL     1     -32.860   7.156   4.179  1.00 20.00     0.082 C 
HETATM    3  C3  UNL     1     -34.253   5.622   5.747  1.00 20.00     0.082 C 
HETATM    4  C4  UNL     1     -34.864   6.595   2.729  1.00 20.00     0.005 C 
HETATM    5  C5  UNL     1     -35.687   5.690   3.655  1.00 20.00     0.005 C 
HETATM    6  C6  UNL     1     -33.464   4.821   3.510  1.00 20.00     0.010 C 
HETATM    7  C7  UNL     1     -33.396   6.274   3.046  1.00 20.00    -0.007 C 
HETATM    8  C8  UNL     1     -34.656   4.887   4.461  1.00 20.00    -0.007 C 
HETATM    9  O9  UNL     1     -33.728   7.898   6.288  1.00 20.00    -0.298 OA
ENDROOT
TORSDOF 0
ENDMDL
MODEL 3
REMARK VINA RESULT:      -4.5      1.610      2.789
REMARK  0 active torsions:
REMARK  status: ('A' for Active; 'I' for Inactive)
ROOT
HETATM    1  C1  UNL     1     -33.182   4.803   3.146  1.00 20.00     0.127 C 
HETATM    2  C2  UNL     1     -33.503   6.192   2.624  1.00 20.00     0.082 C 
HETATM    3  C3  UNL     1     -34.214   4.126   4.029  1.00 20.00     0.082 C 
HETATM    4  C4  UNL     1     -33.632   7.161   4.966  1.00 20.00     0.005 C 
HETATM    5  C5  UNL     1     -34.051   5.940   5.796  1.00 20.00     0.005 C 
HETATM    6  C6  UNL     1     -35.598   6.211   3.994  1.00 20.00     0.010 C 
HETATM    7  C7  UNL     1     -34.347   7.001   3.617  1.00 20.00    -0.007 C 
HETATM    8  C8  UNL     1     -34.990   5.134   4.887  1.00 20.00    -0.007 C 
HETATM    9  O9  UNL     1     -32.170   4.205   2.779  1.00 20.00    -0.298 OA
ENDROOT
TORSDOF 0
ENDMDL
MODEL 4
REMARK VINA RESULT:      -4.2     12.264     13.158
REMARK  0 active torsions:
REMARK  status: ('A' for Active; 'I' for Inactive)
ROOT
HETATM    1  C1  UNL     1     -35.543  13.808  -5.364  1.00 20.00     0.127 C 
HETATM    2  C2  UNL     1     -34.579  14.207  -6.467  1.00 20.00     0.082 C 
HETATM    3  C3  UNL     1     -36.160  14.918  -4.531  1.00 20.00     0.082 C 
HETATM    4  C4  UNL     1     -32.962  15.263  -4.821  1.00 20.00     0.005 C 
HETATM    5  C5  UNL     1     -33.896  15.682  -3.678  1.00 20.00     0.005 C 
HETATM    6  C6  UNL     1     -34.732  16.592  -5.724  1.00 20.00     0.010 C 
HETATM    7  C7  UNL     1     -33.778  15.464  -6.107  1.00 20.00    -0.007 C 
HETATM    8  C8  UNL     1     -35.206  16.107  -4.357  1.00 20.00    -0.007 C 
HETATM    9  O9  UNL     1     -35.895  12.637  -5.220  1.00 20.00    -0.298 OA
ENDROOT
TORSDOF 0
ENDMDL
MODEL 5
REMARK VINA RESULT:      -4.2     11.481     12.872
REMARK  0 active torsions:
REMARK  status: ('A' for Active; 'I' for Inactive)
ROOT
HETATM    1  C1  UNL     1     -35.475  13.842  -4.695  1.00 20.00     0.127 C 
HETATM    2  C2  UNL     1     -36.398  15.024  -4.457  1.00 20.00     0.082 C 
HETATM    3  C3  UNL     1     -34.083  13.901  -4.092  1.00 20.00     0.082 C 
HETATM    4  C4  UNL     1     -34.836  16.623  -5.657  1.00 20.00     0.005 C 
HETATM    5  C5  UNL     1     -33.470  15.960  -5.443  1.00 20.00     0.005 C 
HETATM    6  C6  UNL     1     -34.529  16.239  -3.318  1.00 20.00     0.010 C 
HETATM    7  C7  UNL     1     -35.629  16.348  -4.371  1.00 20.00    -0.007 C 
HETATM    8  C8  UNL     1     -33.537  15.334  -4.042  1.00 20.00    -0.007 C 
HETATM    9  O9  UNL     1     -35.878  12.827  -5.264  1.00 20.00    -0.298 OA
ENDROOT
TORSDOF 0
ENDMDL
MODEL 6
REMARK VINA RESULT:      -4.1      8.556      9.649
REMARK  0 active torsions:
REMARK  status: ('A' for Active; 'I' for Inactive)
ROOT
HETATM    1  C1  UNL     1     -42.044   7.907  -0.774  1.00 20.00     0.127 C 
HETATM    2  C2  UNL     1     -40.847   7.328  -0.043  1.00 20.00     0.082 C 
HETATM    3  C3  UNL     1     -43.417   7.366  -0.418  1.00 20.00     0.082 C 
HETATM    4  C4  UNL     1     -41.286   4.998  -0.946  1.00 20.00     0.005 C 
HETATM    5  C5  UNL     1     -42.804   5.021  -1.168  1.00 20.00     0.005 C 
HETATM    6  C6  UNL     1     -42.349   5.674   1.086  1.00 20.00     0.010 C 
HETATM    7  C7  UNL     1     -41.046   5.848   0.310  1.00 20.00    -0.007 C 
HETATM    8  C8  UNL     1     -43.369   5.882  -0.030  1.00 20.00    -0.007 C 
HETATM    9  O9  UNL     1     -41.918   8.857  -1.548  1.00 20.00    -0.298 OA
ENDROOT
TORSDOF 0
ENDMDL
MODEL 7
REMARK VINA RESULT:      -4.1     11.581     12.998
REMARK  0 active torsions:
REMARK  status: ('A' for Active; 'I' for Inactive)
ROOT
HETATM    1  C1  UNL     1     -35.321  13.861  -5.121  1.00 20.00     0.127 C 
HETATM    2  C2  UNL     1     -34.235  14.081  -4.084  1.00 20.00     0.082 C 
HETATM    3  C3  UNL     1     -35.531  14.946  -6.163  1.00 20.00     0.082 C 
HETATM    4  C4  UNL     1     -35.373  16.158  -3.174  1.00 20.00     0.005 C 
HETATM    5  C5  UNL     1     -36.139  16.668  -4.401  1.00 20.00     0.005 C 
HETATM    6  C6  UNL     1     -33.842  16.378  -4.997  1.00 20.00     0.010 C 
HETATM    7  C7  UNL     1     -34.069  15.563  -3.726  1.00 20.00    -0.007 C 
HETATM    8  C8  UNL     1     -35.241  16.346  -5.604  1.00 20.00    -0.007 C 
HETATM    9  O9  UNL     1     -35.935  12.796  -5.182  1.00 20.00    -0.298 OA
ENDROOT
TORSDOF 0
ENDMDL
MODEL 8
REMARK VINA RESULT:      -4.0     11.894     12.790
REMARK  0 active torsions:
REMARK  status: ('A' for Active; 'I' for Inactive)
ROOT
HETATM    1  C1  UNL     1     -34.570  14.817  -4.005  1.00 20.00     0.127 C 
HETATM    2  C2  UNL     1     -33.420  15.778  -4.244  1.00 20.00     0.082 C 
HETATM    3  C3  UNL     1     -35.961  15.405  -3.856  1.00 20.00     0.082 C 
HETATM    4  C4  UNL     1     -33.796  16.951  -2.026  1.00 20.00     0.005 C 
HETATM    5  C5  UNL     1     -35.297  16.730  -1.797  1.00 20.00     0.005 C 
HETATM    6  C6  UNL     1     -34.986  17.708  -3.956  1.00 20.00     0.010 C 
HETATM    7  C7  UNL     1     -33.638  17.124  -3.544  1.00 20.00    -0.007 C 
HETATM    8  C8  UNL     1     -35.935  16.789  -3.192  1.00 20.00    -0.007 C 
HETATM    9  O9  UNL     1     -34.397  13.598  -4.038  1.00 20.00    -0.298 OA
ENDROOT
TORSDOF 0
ENDMDL
MODEL 9
REMARK VINA RESULT:      -4.0      1.644      2.666
REMARK  0 active torsions:
REMARK  status: ('A' for Active; 'I' for Inactive)
ROOT
HETATM    1  C1  UNL     1     -34.430   5.765   5.338  1.00 20.00     0.127 C 
HETATM    2  C2  UNL     1     -35.258   5.534   4.088  1.00 20.00     0.082 C 
HETATM    3  C3  UNL     1     -33.648   7.063   5.437  1.00 20.00     0.082 C 
HETATM    4  C4  UNL     1     -33.212   5.607   2.589  1.00 20.00     0.005 C 
HETATM    5  C5  UNL     1     -32.261   6.509   3.387  1.00 20.00     0.005 C 
HETATM    6  C6  UNL     1     -34.344   7.648   3.105  1.00 20.00     0.010 C 
HETATM    7  C7  UNL     1     -34.618   6.168   2.846  1.00 20.00    -0.007 C 
HETATM    8  C8  UNL     1     -33.163   7.550   4.065  1.00 20.00    -0.007 C 
HETATM    9  O9  UNL     1     -34.476   4.979   6.285  1.00 20.00    -0.298 OA
ENDROOT
TORSDOF 0
ENDMDL
