MODEL 1
REMARK VINA RESULT:      -3.3      0.000      0.000
REMARK  1 active torsions:
REMARK  status: ('A' for Active; 'I' for Inactive)
REMARK    1  A    between atoms: C1_1  and  S5_5 
ROOT
HETATM    1  C1  UNL     1     -33.746   6.907   4.361  1.00 20.00     0.041 C 
HETATM    2  C2  UNL     1     -33.678   7.323   5.808  1.00 20.00     0.069 C 
HETATM    3  S4  UNL     1     -32.637   7.471   3.240  1.00 20.00    -0.078 SA
ENDROOT
BRANCH   1   4
HETATM    4  S5  UNL     1     -35.059   5.820   3.922  1.00 20.00    -0.128 SA
HETATM    5  C3  UNL     1     -34.376   4.253   4.512  1.00 20.00     0.096 C 
ENDBRANCH   1   4
TORSDOF 1
ENDMDL
MODEL 2
REMARK VINA RESULT:      -3.1      1.754      2.677
REMARK  1 active torsions:
REMARK  status: ('A' for Active; 'I' for Inactive)
REMARK    1  A    between atoms: C1_1  and  S5_5 
ROOT
HETATM    1  C1  UNL     1     -34.068   5.994   4.666  1.00 20.00     0.041 C 
HETATM    2  C2  UNL     1     -34.702   4.712   5.140  1.00 20.00     0.069 C 
HETATM    3  S4  UNL     1     -33.753   7.253   5.725  1.00 20.00    -0.078 SA
ENDROOT
BRANCH   1   4
HETATM    4  S5  UNL     1     -33.704   6.097   2.947  1.00 20.00    -0.128 SA
HETATM    5  C3  UNL     1     -32.523   7.465   2.960  1.00 20.00     0.096 C 
ENDBRANCH   1   4
TORSDOF 1
ENDMDL
MODEL 3
REMARK VINA RESULT:      -3.1      1.240      2.842
REMARK  1 active torsions:
REMARK  status: ('A' for Active; 'I' for Inactive)
REMARK    1  A    between atoms: C1_1  and  S5_5 
ROOT
HETATM    1  C1  UNL     1     -33.839   6.480   4.460  1.00 20.00     0.041 C 
HETATM    2  C2  UNL     1     -33.632   7.390   5.643  1.00 20.00     0.069 C 
HETATM    3  S4  UNL     1     -34.712   5.058   4.599  1.00 20.00    -0.078 SA
ENDROOT
BRANCH   1   4
HETATM    4  S5  UNL     1     -33.099   6.986   2.946  1.00 20.00    -0.128 SA
HETATM    5  C3  UNL     1     -31.788   8.055   3.582  1.00 20.00     0.096 C 
ENDBRANCH   1   4
TORSDOF 1
ENDMDL
MODEL 4
REMARK VINA RESULT:      -3.0      1.650      2.037
REMARK  1 active torsions:
REMARK  status: ('A' for Active; 'I' for Inactive)
REMARK    1  A    between atoms: C1_1  and  S5_5 
ROOT
HETATM    1  C1  UNL     1     -33.201   6.923   3.608  1.00 20.00     0.041 C 
HETATM    2  C2  UNL     1     -33.721   5.705   2.889  1.00 20.00     0.069 C 
HETATM    3  S4  UNL     1     -32.164   8.002   2.855  1.00 20.00    -0.078 SA
ENDROOT
BRANCH   1   4
HETATM    4  S5  UNL     1     -33.726   7.130   5.275  1.00 20.00    -0.128 SA
HETATM    5  C3  UNL     1     -34.568   5.551   5.534  1.00 20.00     0.096 C 
ENDBRANCH   1   4
TORSDOF 1
ENDMDL
MODEL 5
REMARK VINA RESULT:      -3.0      1.451      1.762
REMARK  1 active torsions:
REMARK  status: ('A' for Active; 'I' for Inactive)
REMARK    1  A    between atoms: C1_1  and  S5_5 
ROOT
HETATM    1  C1  UNL     1     -33.687   6.932   4.232  1.00 20.00     0.041 C 
HETATM    2  C2  UNL     1     -32.698   7.445   3.217  1.00 20.00     0.069 C 
HETATM    3  S4  UNL     1     -33.602   7.394   5.840  1.00 20.00    -0.078 SA
ENDROOT
BRANCH   1   4
HETATM    4  S5  UNL     1     -34.910   5.816   3.637  1.00 20.00    -0.128 SA
HETATM    5  C3  UNL     1     -34.438   4.325   4.543  1.00 20.00     0.096 C 
ENDBRANCH   1   4
TORSDOF 1
ENDMDL
MODEL 6
REMARK VINA RESULT:      -2.8      2.123      3.590
REMARK  1 active torsions:
REMARK  status: ('A' for Active; 'I' for Inactive)
REMARK    1  A    between atoms: C1_1  and  S5_5 
ROOT
HETATM    1  C1  UNL     1     -33.105   7.117   3.858  1.00 20.00     0.041 C 
HETATM    2  C2  UNL     1     -33.677   6.169   2.836  1.00 20.00     0.069 C 
HETATM    3  S4  UNL     1     -33.725   7.201   5.411  1.00 20.00    -0.078 SA
ENDROOT
BRANCH   1   4
HETATM    4  S5  UNL     1     -31.774   8.135   3.320  1.00 20.00    -0.128 SA
HETATM    5  C3  UNL     1     -32.414   8.659   1.712  1.00 20.00     0.096 C 
ENDBRANCH   1   4
TORSDOF 1
ENDMDL
MODEL 7
REMARK VINA RESULT:      -2.8      1.571      3.164
REMARK  1 active torsions:
REMARK  status: ('A' for Active; 'I' for Inactive)
REMARK    1  A    between atoms: C1_1  and  S5_5 
ROOT
HETATM    1  C1  UNL     1     -33.749   5.512   3.718  1.00 20.00     0.041 C 
HETATM    2  C2  UNL     1     -33.085   4.920   2.502  1.00 20.00     0.069 C 
HETATM    3  S4  UNL     1     -34.650   4.565   4.765  1.00 20.00    -0.078 SA
ENDROOT
BRANCH   1   4
HETATM    4  S5  UNL     1     -33.541   7.243   3.956  1.00 20.00    -0.128 SA
HETATM    5  C3  UNL     1     -33.694   7.331   5.755  1.00 20.00     0.096 C 
ENDBRANCH   1   4
TORSDOF 1
ENDMDL
MODEL 8
REMARK VINA RESULT:      -2.5      2.092      2.625
REMARK  1 active torsions:
REMARK  status: ('A' for Active; 'I' for Inactive)
REMARK    1  A    between atoms: C1_1  and  S5_5 
ROOT
HETATM    1  C1  UNL     1     -32.302   7.961   2.616  1.00 20.00     0.041 C 
HETATM    2  C2  UNL     1     -31.373   8.290   3.756  1.00 20.00     0.069 C 
HETATM    3  S4  UNL     1     -32.376   8.923   1.247  1.00 20.00    -0.078 SA
ENDROOT
BRANCH   1   4
HETATM    4  S5  UNL     1     -33.309   6.532   2.817  1.00 20.00    -0.128 SA
HETATM    5  C3  UNL     1     -33.941   6.828   4.485  1.00 20.00     0.096 C 
ENDBRANCH   1   4
TORSDOF 1
ENDMDL
MODEL 9
REMARK VINA RESULT:      -2.3      3.012      4.334
REMARK  1 active torsions:
REMARK  status: ('A' for Active; 'I' for Inactive)
REMARK    1  A    between atoms: C1_1  and  S5_5 
ROOT
HETATM    1  C1  UNL     1     -32.229   7.915   2.567  1.00 20.00     0.041 C 
HETATM    2  C2  UNL     1     -31.432   8.436   3.734  1.00 20.00     0.069 C 
HETATM    3  S4  UNL     1     -33.326   6.663   2.752  1.00 20.00    -0.078 SA
ENDROOT
BRANCH   1   4
HETATM    4  S5  UNL     1     -31.926   8.678   1.011  1.00 20.00    -0.128 SA
HETATM    5  C3  UNL     1     -32.794  10.244   1.258  1.00 20.00     0.096 C 
ENDBRANCH   1   4
TORSDOF 1
ENDMDL
