MODEL 1
REMARK VINA RESULT:      -5.1      0.000      0.000
REMARK  0 active torsions:
REMARK  status: ('A' for Active; 'I' for Inactive)
ROOT
HETATM    1  C1  UNL     1     -33.517   5.455   3.148  1.00 20.00     0.229 C 
HETATM    2  C2  UNL     1     -34.615   4.780   3.943  1.00 20.00     0.104 C 
HETATM    3  C3  UNL     1     -34.275   4.691   5.427  1.00 20.00     0.009 C 
HETATM    4  C4  UNL     1     -34.642   5.947   6.214  1.00 20.00     0.002 C 
HETATM    5  C5  UNL     1     -33.871   7.201   5.805  1.00 20.00     0.021 C 
HETATM    6  C6  UNL     1     -34.098   7.602   4.351  1.00 20.00     0.140 C 
HETATM    7  N7  UNL     1     -33.304   6.798   3.426  1.00 20.00    -0.284 N 
HETATM    8  O8  UNL     1     -32.871   4.805   2.322  1.00 20.00    -0.273 OA
HETATM    9 BR9  UNL     1     -31.865   7.686   2.545  1.00 20.00     0.052 Br
ENDROOT
TORSDOF 0
ENDMDL
MODEL 2
REMARK VINA RESULT:      -4.5      1.864      2.330
REMARK  0 active torsions:
REMARK  status: ('A' for Active; 'I' for Inactive)
ROOT
HETATM    1  C1  UNL     1     -34.342   4.912   4.230  1.00 20.00     0.229 C 
HETATM    2  C2  UNL     1     -34.927   5.938   5.178  1.00 20.00     0.104 C 
HETATM    3  C3  UNL     1     -33.845   6.692   5.943  1.00 20.00     0.009 C 
HETATM    4  C4  UNL     1     -33.284   7.892   5.182  1.00 20.00     0.002 C 
HETATM    5  C5  UNL     1     -32.547   7.538   3.892  1.00 20.00     0.021 C 
HETATM    6  C6  UNL     1     -33.431   6.835   2.865  1.00 20.00     0.140 C 
HETATM    7  N7  UNL     1     -33.607   5.417   3.167  1.00 20.00    -0.284 N 
HETATM    8  O8  UNL     1     -34.527   3.710   4.438  1.00 20.00    -0.273 OA
HETATM    9 BR9  UNL     1     -32.748   4.184   1.995  1.00 20.00     0.052 Br
ENDROOT
TORSDOF 0
ENDMDL
MODEL 3
REMARK VINA RESULT:      -4.5     12.542     13.034
REMARK  0 active torsions:
REMARK  status: ('A' for Active; 'I' for Inactive)
ROOT
HETATM    1  C1  UNL     1     -32.377  18.374  -0.504  1.00 20.00     0.229 C 
HETATM    2  C2  UNL     1     -33.008  18.206  -1.870  1.00 20.00     0.104 C 
HETATM    3  C3  UNL     1     -33.847  16.936  -1.960  1.00 20.00     0.009 C 
HETATM    4  C4  UNL     1     -35.277  17.111  -1.453  1.00 20.00     0.002 C 
HETATM    5  C5  UNL     1     -35.388  17.439   0.035  1.00 20.00     0.021 C 
HETATM    6  C6  UNL     1     -34.702  18.746   0.418  1.00 20.00     0.140 C 
HETATM    7  N7  UNL     1     -33.255  18.593   0.548  1.00 20.00    -0.284 N 
HETATM    8  O8  UNL     1     -31.152  18.303  -0.383  1.00 20.00    -0.273 OA
HETATM    9 BR9  UNL     1     -32.542  18.704   2.312  1.00 20.00     0.052 Br
ENDROOT
TORSDOF 0
ENDMDL
MODEL 4
REMARK VINA RESULT:      -4.2      2.082      2.825
REMARK  0 active torsions:
REMARK  status: ('A' for Active; 'I' for Inactive)
ROOT
HETATM    1  C1  UNL     1     -33.208   6.964   3.476  1.00 20.00     0.229 C 
HETATM    2  C2  UNL     1     -33.480   5.983   2.354  1.00 20.00     0.104 C 
HETATM    3  C3  UNL     1     -32.982   4.581   2.687  1.00 20.00     0.009 C 
HETATM    4  C4  UNL     1     -33.981   3.753   3.493  1.00 20.00     0.002 C 
HETATM    5  C5  UNL     1     -34.284   4.302   4.886  1.00 20.00     0.021 C 
HETATM    6  C6  UNL     1     -34.899   5.698   4.865  1.00 20.00     0.140 C 
HETATM    7  N7  UNL     1     -33.897   6.740   4.659  1.00 20.00    -0.284 N 
HETATM    8  O8  UNL     1     -32.405   7.884   3.302  1.00 20.00    -0.273 OA
HETATM    9 BR9  UNL     1     -33.522   7.867   6.151  1.00 20.00     0.052 Br
ENDROOT
TORSDOF 0
ENDMDL
MODEL 5
REMARK VINA RESULT:      -4.2     12.377     13.369
REMARK  0 active torsions:
REMARK  status: ('A' for Active; 'I' for Inactive)
ROOT
HETATM    1  C1  UNL     1     -35.481  13.819  -5.302  1.00 20.00     0.229 C 
HETATM    2  C2  UNL     1     -34.695  14.296  -4.098  1.00 20.00     0.104 C 
HETATM    3  C3  UNL     1     -33.235  14.571  -4.441  1.00 20.00     0.009 C 
HETATM    4  C4  UNL     1     -32.992  15.970  -5.003  1.00 20.00     0.002 C 
HETATM    5  C5  UNL     1     -33.671  16.242  -6.345  1.00 20.00     0.021 C 
HETATM    6  C6  UNL     1     -35.192  16.130  -6.286  1.00 20.00     0.140 C 
HETATM    7  N7  UNL     1     -35.645  14.742  -6.324  1.00 20.00    -0.284 N 
HETATM    8  O8  UNL     1     -35.920  12.667  -5.328  1.00 20.00    -0.273 OA
HETATM    9 BR9  UNL     1     -36.528  14.179  -7.917  1.00 20.00     0.052 Br
ENDROOT
TORSDOF 0
ENDMDL
MODEL 6
REMARK VINA RESULT:      -4.1     12.064     12.869
REMARK  0 active torsions:
REMARK  status: ('A' for Active; 'I' for Inactive)
ROOT
HETATM    1  C1  UNL     1     -35.595  13.821  -4.686  1.00 20.00     0.229 C 
HETATM    2  C2  UNL     1     -34.191  14.046  -4.161  1.00 20.00     0.104 C 
HETATM    3  C3  UNL     1     -33.482  15.179  -4.896  1.00 20.00     0.009 C 
HETATM    4  C4  UNL     1     -33.788  16.563  -4.326  1.00 20.00     0.002 C 
HETATM    5  C5  UNL     1     -35.248  16.992  -4.452  1.00 20.00     0.021 C 
HETATM    6  C6  UNL     1     -36.215  16.071  -3.714  1.00 20.00     0.140 C 
HETATM    7  N7  UNL     1     -36.497  14.851  -4.466  1.00 20.00    -0.284 N 
HETATM    8  O8  UNL     1     -35.866  12.772  -5.275  1.00 20.00    -0.273 OA
HETATM    9 BR9  UNL     1     -38.252  14.686  -5.193  1.00 20.00     0.052 Br
ENDROOT
TORSDOF 0
ENDMDL
MODEL 7
REMARK VINA RESULT:      -3.8     12.563     13.324
REMARK  0 active torsions:
REMARK  status: ('A' for Active; 'I' for Inactive)
ROOT
HETATM    1  C1  UNL     1     -35.415  14.167  -5.266  1.00 20.00     0.229 C 
HETATM    2  C2  UNL     1     -35.695  14.996  -4.030  1.00 20.00     0.104 C 
HETATM    3  C3  UNL     1     -34.414  15.536  -3.402  1.00 20.00     0.009 C 
HETATM    4  C4  UNL     1     -33.932  16.845  -4.025  1.00 20.00     0.002 C 
HETATM    5  C5  UNL     1     -33.524  16.736  -5.493  1.00 20.00     0.021 C 
HETATM    6  C6  UNL     1     -34.664  16.295  -6.407  1.00 20.00     0.140 C 
HETATM    7  N7  UNL     1     -34.888  14.852  -6.351  1.00 20.00    -0.284 N 
HETATM    8  O8  UNL     1     -35.650  12.956  -5.257  1.00 20.00    -0.273 OA
HETATM    9 BR9  UNL     1     -34.408  13.856  -7.904  1.00 20.00     0.052 Br
ENDROOT
TORSDOF 0
ENDMDL
MODEL 8
REMARK VINA RESULT:      -3.8      1.899      2.706
REMARK  0 active torsions:
REMARK  status: ('A' for Active; 'I' for Inactive)
ROOT
HETATM    1  C1  UNL     1     -32.667   7.694   4.650  1.00 20.00     0.229 C 
HETATM    2  C2  UNL     1     -33.231   6.700   5.644  1.00 20.00     0.104 C 
HETATM    3  C3  UNL     1     -34.715   6.438   5.411  1.00 20.00     0.009 C 
HETATM    4  C4  UNL     1     -34.989   5.362   4.362  1.00 20.00     0.002 C 
HETATM    5  C5  UNL     1     -34.523   5.719   2.951  1.00 20.00     0.021 C 
HETATM    6  C6  UNL     1     -33.018   5.951   2.853  1.00 20.00     0.140 C 
HETATM    7  N7  UNL     1     -32.632   7.277   3.328  1.00 20.00    -0.284 N 
HETATM    8  O8  UNL     1     -32.285   8.800   5.041  1.00 20.00    -0.273 OA
HETATM    9 BR9  UNL     1     -32.039   8.516   2.005  1.00 20.00     0.052 Br
ENDROOT
TORSDOF 0
ENDMDL
MODEL 9
REMARK VINA RESULT:      -3.8      2.755      3.899
REMARK  0 active torsions:
REMARK  status: ('A' for Active; 'I' for Inactive)
ROOT
HETATM    1  C1  UNL     1     -33.706   7.229   5.159  1.00 20.00     0.229 C 
HETATM    2  C2  UNL     1     -33.229   8.315   4.217  1.00 20.00     0.104 C 
HETATM    3  C3  UNL     1     -32.005   7.881   3.417  1.00 20.00     0.009 C 
HETATM    4  C4  UNL     1     -32.349   7.099   2.151  1.00 20.00     0.002 C 
HETATM    5  C5  UNL     1     -33.036   5.757   2.400  1.00 20.00     0.021 C 
HETATM    6  C6  UNL     1     -34.373   5.888   3.123  1.00 20.00     0.140 C 
HETATM    7  N7  UNL     1     -34.206   6.083   4.561  1.00 20.00    -0.284 N 
HETATM    8  O8  UNL     1     -33.624   7.398   6.379  1.00 20.00    -0.273 OA
HETATM    9 BR9  UNL     1     -34.722   4.629   5.682  1.00 20.00     0.052 Br
ENDROOT
TORSDOF 0
ENDMDL
