MODEL 1
REMARK VINA RESULT:      -5.3      0.000      0.000
REMARK  2 active torsions:
REMARK  status: ('A' for Active; 'I' for Inactive)
REMARK    1  A    between atoms: C5_5  and  C6_6 
REMARK    2  A    between atoms: C6_6  and  O7_7 
ROOT
HETATM    1  C1  UNL     1     -34.258   6.139   5.843  1.00 20.00    -0.004 A 
HETATM    2  C2  UNL     1     -34.825   5.311   4.811  1.00 20.00    -0.004 A 
HETATM    3  C3  UNL     1     -33.700   7.226   5.291  1.00 20.00    -0.016 A 
HETATM    4  C4  UNL     1     -34.623   5.882   3.615  1.00 20.00    -0.016 A 
HETATM    5  C5  UNL     1     -33.876   7.179   3.794  1.00 20.00     0.054 A 
ENDROOT
BRANCH   5   6
HETATM    6  C6  UNL     1     -32.543   7.185   3.057  1.00 20.00     0.176 C 
BRANCH   6   7
HETATM    7  O7  UNL     1     -31.690   8.136   3.669  1.00 20.00    -0.400 OA
HETATM    8  H15 UNL     1     -31.676   7.936   4.619  1.00 20.00     0.209 HD
ENDBRANCH   6   7
ENDBRANCH   5   6
TORSDOF 2
ENDMDL
MODEL 2
REMARK VINA RESULT:      -5.3      1.597      1.640
REMARK  2 active torsions:
REMARK  status: ('A' for Active; 'I' for Inactive)
REMARK    1  A    between atoms: C5_5  and  C6_6 
REMARK    2  A    between atoms: C6_6  and  O7_7 
ROOT
HETATM    1  C1  UNL     1     -34.051   6.622   5.989  1.00 20.00    -0.004 A 
HETATM    2  C2  UNL     1     -34.650   5.350   5.683  1.00 20.00    -0.004 A 
HETATM    3  C3  UNL     1     -33.786   7.280   4.851  1.00 20.00    -0.016 A 
HETATM    4  C4  UNL     1     -34.760   5.214   4.354  1.00 20.00    -0.016 A 
HETATM    5  C5  UNL     1     -34.215   6.443   3.673  1.00 20.00     0.054 A 
ENDROOT
BRANCH   5   6
HETATM    6  C6  UNL     1     -33.055   6.121   2.741  1.00 20.00     0.176 C 
BRANCH   6   7
HETATM    7  O7  UNL     1     -32.938   4.713   2.631  1.00 20.00    -0.400 OA
HETATM    8  H15 UNL     1     -33.835   4.363   2.497  1.00 20.00     0.209 HD
ENDBRANCH   6   7
ENDBRANCH   5   6
TORSDOF 2
ENDMDL
MODEL 3
REMARK VINA RESULT:      -5.2      1.159      2.108
REMARK  2 active torsions:
REMARK  status: ('A' for Active; 'I' for Inactive)
REMARK    1  A    between atoms: C5_5  and  C6_6 
REMARK    2  A    between atoms: C6_6  and  O7_7 
ROOT
HETATM    1  C1  UNL     1     -34.229   4.182   4.368  1.00 20.00    -0.004 A 
HETATM    2  C2  UNL     1     -33.694   4.965   3.286  1.00 20.00    -0.004 A 
HETATM    3  C3  UNL     1     -34.715   4.998   5.315  1.00 20.00    -0.016 A 
HETATM    4  C4  UNL     1     -33.847   6.269   3.556  1.00 20.00    -0.016 A 
HETATM    5  C5  UNL     1     -34.522   6.433   4.893  1.00 20.00     0.054 A 
ENDROOT
BRANCH   5   6
HETATM    6  C6  UNL     1     -33.666   7.214   5.881  1.00 20.00     0.176 C 
BRANCH   6   7
HETATM    7  O7  UNL     1     -32.610   7.837   5.173  1.00 20.00    -0.400 OA
HETATM    8  H15 UNL     1     -32.323   7.216   4.484  1.00 20.00     0.209 HD
ENDBRANCH   6   7
ENDBRANCH   5   6
TORSDOF 2
ENDMDL
MODEL 4
REMARK VINA RESULT:      -5.1      2.077      3.234
REMARK  2 active torsions:
REMARK  status: ('A' for Active; 'I' for Inactive)
REMARK    1  A    between atoms: C5_5  and  C6_6 
REMARK    2  A    between atoms: C6_6  and  O7_7 
ROOT
HETATM    1  C1  UNL     1     -33.241   7.050   3.385  1.00 20.00    -0.004 A 
HETATM    2  C2  UNL     1     -33.033   7.591   4.702  1.00 20.00    -0.004 A 
HETATM    3  C3  UNL     1     -34.215   6.129   3.426  1.00 20.00    -0.016 A 
HETATM    4  C4  UNL     1     -33.876   7.009   5.565  1.00 20.00    -0.016 A 
HETATM    5  C5  UNL     1     -34.730   6.003   4.837  1.00 20.00     0.054 A 
ENDROOT
BRANCH   5   6
HETATM    6  C6  UNL     1     -34.561   4.593   5.389  1.00 20.00     0.176 C 
BRANCH   6   7
HETATM    7  O7  UNL     1     -34.312   3.710   4.310  1.00 20.00    -0.400 OA
HETATM    8  H15 UNL     1     -34.437   2.808   4.646  1.00 20.00     0.209 HD
ENDBRANCH   6   7
ENDBRANCH   5   6
TORSDOF 2
ENDMDL
MODEL 5
REMARK VINA RESULT:      -4.5      0.874      1.763
REMARK  2 active torsions:
REMARK  status: ('A' for Active; 'I' for Inactive)
REMARK    1  A    between atoms: C5_5  and  C6_6 
REMARK    2  A    between atoms: C6_6  and  O7_7 
ROOT
HETATM    1  C1  UNL     1     -34.762   5.691   4.091  1.00 20.00    -0.004 A 
HETATM    2  C2  UNL     1     -34.328   6.576   5.140  1.00 20.00    -0.004 A 
HETATM    3  C3  UNL     1     -33.933   5.798   3.042  1.00 20.00    -0.016 A 
HETATM    4  C4  UNL     1     -33.229   7.234   4.747  1.00 20.00    -0.016 A 
HETATM    5  C5  UNL     1     -32.854   6.805   3.352  1.00 20.00     0.054 A 
ENDROOT
BRANCH   5   6
HETATM    6  C6  UNL     1     -32.852   7.969   2.370  1.00 20.00     0.176 C 
BRANCH   6   7
HETATM    7  O7  UNL     1     -31.695   8.753   2.597  1.00 20.00    -0.400 OA
HETATM    8  H15 UNL     1     -31.961   9.494   3.167  1.00 20.00     0.209 HD
ENDBRANCH   6   7
ENDBRANCH   5   6
TORSDOF 2
ENDMDL
MODEL 6
REMARK VINA RESULT:      -4.2      2.243      3.127
REMARK  2 active torsions:
REMARK  status: ('A' for Active; 'I' for Inactive)
REMARK    1  A    between atoms: C5_5  and  C6_6 
REMARK    2  A    between atoms: C6_6  and  O7_7 
ROOT
HETATM    1  C1  UNL     1     -32.710   8.048   3.807  1.00 20.00    -0.004 A 
HETATM    2  C2  UNL     1     -32.610   7.332   2.563  1.00 20.00    -0.004 A 
HETATM    3  C3  UNL     1     -33.297   7.270   4.728  1.00 20.00    -0.016 A 
HETATM    4  C4  UNL     1     -33.133   6.106   2.707  1.00 20.00    -0.016 A 
HETATM    5  C5  UNL     1     -33.633   5.933   4.119  1.00 20.00     0.054 A 
ENDROOT
BRANCH   5   6
HETATM    6  C6  UNL     1     -35.126   5.634   4.171  1.00 20.00     0.176 C 
BRANCH   6   7
HETATM    7  O7  UNL     1     -35.312   4.347   4.732  1.00 20.00    -0.400 OA
HETATM    8  H15 UNL     1     -36.063   3.941   4.269  1.00 20.00     0.209 HD
ENDBRANCH   6   7
ENDBRANCH   5   6
TORSDOF 2
ENDMDL
MODEL 7
REMARK VINA RESULT:      -3.8      2.035      2.677
REMARK  2 active torsions:
REMARK  status: ('A' for Active; 'I' for Inactive)
REMARK    1  A    between atoms: C5_5  and  C6_6 
REMARK    2  A    between atoms: C6_6  and  O7_7 
ROOT
HETATM    1  C1  UNL     1     -33.947   6.970   6.167  1.00 20.00    -0.004 A 
HETATM    2  C2  UNL     1     -33.162   7.842   5.334  1.00 20.00    -0.004 A 
HETATM    3  C3  UNL     1     -34.299   5.879   5.470  1.00 20.00    -0.016 A 
HETATM    4  C4  UNL     1     -33.023   7.296   4.117  1.00 20.00    -0.016 A 
HETATM    5  C5  UNL     1     -33.741   5.972   4.072  1.00 20.00     0.054 A 
ENDROOT
BRANCH   5   6
HETATM    6  C6  UNL     1     -34.833   5.942   3.012  1.00 20.00     0.176 C 
BRANCH   6   7
HETATM    7  O7  UNL     1     -36.092   5.880   3.658  1.00 20.00    -0.400 OA
HETATM    8  H15 UNL     1     -36.066   5.118   4.260  1.00 20.00     0.209 HD
ENDBRANCH   6   7
ENDBRANCH   5   6
TORSDOF 2
ENDMDL
MODEL 8
REMARK VINA RESULT:      -3.6     11.691     12.416
REMARK  2 active torsions:
REMARK  status: ('A' for Active; 'I' for Inactive)
REMARK    1  A    between atoms: C5_5  and  C6_6 
REMARK    2  A    between atoms: C6_6  and  O7_7 
ROOT
HETATM    1  C1  UNL     1     -33.774  16.569  -3.779  1.00 20.00    -0.004 A 
HETATM    2  C2  UNL     1     -33.168  16.138  -5.011  1.00 20.00    -0.004 A 
HETATM    3  C3  UNL     1     -34.579  15.602  -3.313  1.00 20.00    -0.016 A 
HETATM    4  C4  UNL     1     -33.593  14.904  -5.314  1.00 20.00    -0.016 A 
HETATM    5  C5  UNL     1     -34.549  14.423  -4.252  1.00 20.00     0.054 A 
ENDROOT
BRANCH   5   6
HETATM    6  C6  UNL     1     -35.926  14.101  -4.817  1.00 20.00     0.176 C 
BRANCH   6   7
HETATM    7  O7  UNL     1     -36.019  12.701  -5.013  1.00 20.00    -0.400 OA
HETATM    8  H15 UNL     1     -35.762  12.279  -4.177  1.00 20.00     0.209 HD
ENDBRANCH   6   7
ENDBRANCH   5   6
TORSDOF 2
ENDMDL
MODEL 9
REMARK VINA RESULT:      -3.6      2.675      4.531
REMARK  2 active torsions:
REMARK  status: ('A' for Active; 'I' for Inactive)
REMARK    1  A    between atoms: C5_5  and  C6_6 
REMARK    2  A    between atoms: C6_6  and  O7_7 
ROOT
HETATM    1  C1  UNL     1     -32.876  10.277   0.867  1.00 20.00    -0.004 A 
HETATM    2  C2  UNL     1     -32.137   9.410  -0.013  1.00 20.00    -0.004 A 
HETATM    3  C3  UNL     1     -32.750   9.847   2.131  1.00 20.00    -0.016 A 
HETATM    4  C4  UNL     1     -31.550   8.440   0.701  1.00 20.00    -0.016 A 
HETATM    5  C5  UNL     1     -31.881   8.615   2.161  1.00 20.00     0.054 A 
ENDROOT
BRANCH   5   6
HETATM    6  C6  UNL     1     -32.609   7.409   2.738  1.00 20.00     0.176 C 
BRANCH   6   7
HETATM    7  O7  UNL     1     -32.679   7.551   4.146  1.00 20.00    -0.400 OA
HETATM    8  H15 UNL     1     -33.221   8.338   4.326  1.00 20.00     0.209 HD
ENDBRANCH   6   7
ENDBRANCH   5   6
TORSDOF 2
ENDMDL
