MODEL 1
REMARK VINA RESULT:      -4.5      0.000      0.000
REMARK  4 active torsions:
REMARK  status: ('A' for Active; 'I' for Inactive)
REMARK    1  A    between atoms: C5_5  and  C7_7 
REMARK    2  A    between atoms: C5_5  and  C8_8 
REMARK    3  A    between atoms: C6_6  and  C7_7 
REMARK    4  A    between atoms: C6_6  and  S9_9 
ROOT
HETATM    1  C5  UNL     1     -33.527   7.180   4.238  1.00 20.00     0.013 C 
ENDROOT
BRANCH   1   2
HETATM    2  C7  UNL     1     -32.476   7.527   3.154  1.00 20.00    -0.009 C 
HETATM    3  C1  UNL     1     -31.262   8.290   3.687  1.00 20.00     0.011 C 
BRANCH   2   4
HETATM    4  C6  UNL     1     -33.123   8.276   1.963  1.00 20.00     0.075 C 
BRANCH   4   5
HETATM    5  S9  UNL     1     -31.968   9.140   0.853  1.00 20.00    -0.182 SA
HETATM    6  H27 UNL     1     -32.620  10.310   0.861  1.00 20.00     0.101 HD
ENDBRANCH   4   5
ENDBRANCH   2   4
ENDBRANCH   1   2
BRANCH   1   7
HETATM    7  C8  UNL     1     -34.262   5.807   4.179  1.00 20.00    -0.051 C 
HETATM    8  C2  UNL     1     -33.520   4.790   3.297  1.00 20.00     0.014 C 
HETATM    9  C3  UNL     1     -34.483   5.210   5.580  1.00 20.00     0.014 C 
HETATM   10  C4  UNL     1     -35.658   6.052   3.562  1.00 20.00     0.014 C 
ENDBRANCH   1   7
TORSDOF 4
ENDMDL
MODEL 2
REMARK VINA RESULT:      -4.5      0.071      1.443
REMARK  4 active torsions:
REMARK  status: ('A' for Active; 'I' for Inactive)
REMARK    1  A    between atoms: C5_5  and  C7_7 
REMARK    2  A    between atoms: C5_5  and  C8_8 
REMARK    3  A    between atoms: C6_6  and  C7_7 
REMARK    4  A    between atoms: C6_6  and  S9_9 
ROOT
HETATM    1  C5  UNL     1     -33.511   7.161   4.301  1.00 20.00     0.013 C 
ENDROOT
BRANCH   1   2
HETATM    2  C7  UNL     1     -32.482   7.479   3.188  1.00 20.00    -0.009 C 
HETATM    3  C1  UNL     1     -31.255   8.250   3.678  1.00 20.00     0.011 C 
BRANCH   2   4
HETATM    4  C6  UNL     1     -33.151   8.204   1.994  1.00 20.00     0.075 C 
BRANCH   4   5
HETATM    5  S9  UNL     1     -32.033   9.168   0.929  1.00 20.00    -0.182 SA
HETATM    6  H27 UNL     1     -31.897   8.227  -0.014  1.00 20.00     0.101 HD
ENDBRANCH   4   5
ENDBRANCH   2   4
ENDBRANCH   1   2
BRANCH   1   7
HETATM    7  C8  UNL     1     -34.322   5.831   4.234  1.00 20.00    -0.051 C 
HETATM    8  C2  UNL     1     -34.500   5.190   5.619  1.00 20.00     0.014 C 
HETATM    9  C3  UNL     1     -35.699   6.028   3.576  1.00 20.00     0.014 C 
HETATM   10  C4  UNL     1     -33.528   4.847   3.345  1.00 20.00     0.014 C 
ENDBRANCH   1   7
TORSDOF 4
ENDMDL
MODEL 3
REMARK VINA RESULT:      -4.3      2.419      4.657
REMARK  4 active torsions:
REMARK  status: ('A' for Active; 'I' for Inactive)
REMARK    1  A    between atoms: C5_5  and  C7_7 
REMARK    2  A    between atoms: C5_5  and  C8_8 
REMARK    3  A    between atoms: C6_6  and  C7_7 
REMARK    4  A    between atoms: C6_6  and  S9_9 
ROOT
HETATM    1  C5  UNL     1     -33.362   8.383   1.914  1.00 20.00     0.013 C 
ENDROOT
BRANCH   1   2
HETATM    2  C7  UNL     1     -32.628   7.337   2.790  1.00 20.00    -0.009 C 
HETATM    3  C1  UNL     1     -33.265   5.947   2.763  1.00 20.00     0.011 C 
BRANCH   2   4
HETATM    4  C6  UNL     1     -32.460   7.842   4.244  1.00 20.00     0.075 C 
BRANCH   4   5
HETATM    5  S9  UNL     1     -33.668   7.201   5.447  1.00 20.00    -0.182 SA
HETATM    6  H27 UNL     1     -32.986   7.574   6.538  1.00 20.00     0.101 HD
ENDBRANCH   4   5
ENDBRANCH   2   4
ENDBRANCH   1   2
BRANCH   1   7
HETATM    7  C8  UNL     1     -32.548   9.222   0.883  1.00 20.00    -0.051 C 
HETATM    8  C2  UNL     1     -31.101   8.726   0.746  1.00 20.00     0.014 C 
HETATM    9  C3  UNL     1     -33.219   9.243  -0.502  1.00 20.00     0.014 C 
HETATM   10  C4  UNL     1     -32.512  10.681   1.394  1.00 20.00     0.014 C 
ENDBRANCH   1   7
TORSDOF 4
ENDMDL
MODEL 4
REMARK VINA RESULT:      -4.3      2.431      4.678
REMARK  4 active torsions:
REMARK  status: ('A' for Active; 'I' for Inactive)
REMARK    1  A    between atoms: C5_5  and  C7_7 
REMARK    2  A    between atoms: C5_5  and  C8_8 
REMARK    3  A    between atoms: C6_6  and  C7_7 
REMARK    4  A    between atoms: C6_6  and  S9_9 
ROOT
HETATM    1  C5  UNL     1     -33.382   8.357   1.903  1.00 20.00     0.013 C 
ENDROOT
BRANCH   1   2
HETATM    2  C7  UNL     1     -32.608   7.339   2.779  1.00 20.00    -0.009 C 
HETATM    3  C1  UNL     1     -33.193   5.926   2.752  1.00 20.00     0.011 C 
BRANCH   2   4
HETATM    4  C6  UNL     1     -32.458   7.849   4.233  1.00 20.00     0.075 C 
BRANCH   4   5
HETATM    5  S9  UNL     1     -33.670   7.200   5.426  1.00 20.00    -0.182 SA
HETATM    6  H27 UNL     1     -33.375   8.066   6.405  1.00 20.00     0.101 HD
ENDBRANCH   4   5
ENDBRANCH   2   4
ENDBRANCH   1   2
BRANCH   1   7
HETATM    7  C8  UNL     1     -32.594   9.262   0.909  1.00 20.00    -0.051 C 
HETATM    8  C2  UNL     1     -33.204   9.244  -0.501  1.00 20.00     0.014 C 
HETATM    9  C3  UNL     1     -32.493  10.715   1.408  1.00 20.00     0.014 C 
HETATM   10  C4  UNL     1     -31.152   8.711   0.819  1.00 20.00     0.014 C 
ENDBRANCH   1   7
TORSDOF 4
ENDMDL
MODEL 5
REMARK VINA RESULT:      -4.3      2.409      4.662
REMARK  4 active torsions:
REMARK  status: ('A' for Active; 'I' for Inactive)
REMARK    1  A    between atoms: C5_5  and  C7_7 
REMARK    2  A    between atoms: C5_5  and  C8_8 
REMARK    3  A    between atoms: C6_6  and  C7_7 
REMARK    4  A    between atoms: C6_6  and  S9_9 
ROOT
HETATM    1  C5  UNL     1     -33.376   8.331   1.866  1.00 20.00     0.013 C 
ENDROOT
BRANCH   1   2
HETATM    2  C7  UNL     1     -32.644   7.304   2.764  1.00 20.00    -0.009 C 
HETATM    3  C1  UNL     1     -33.287   5.916   2.772  1.00 20.00     0.011 C 
BRANCH   2   4
HETATM    4  C6  UNL     1     -32.469   7.842   4.205  1.00 20.00     0.075 C 
BRANCH   4   5
HETATM    5  S9  UNL     1     -33.657   7.212   5.433  1.00 20.00    -0.182 SA
HETATM    6  H27 UNL     1     -32.773   6.466   6.109  1.00 20.00     0.101 HD
ENDBRANCH   4   5
ENDBRANCH   2   4
ENDBRANCH   1   2
BRANCH   1   7
HETATM    7  C8  UNL     1     -32.543   9.260   0.931  1.00 20.00    -0.051 C 
HETATM    8  C2  UNL     1     -32.510  10.711   1.434  1.00 20.00     0.014 C 
HETATM    9  C3  UNL     1     -31.104   8.746   0.743  1.00 20.00     0.014 C 
HETATM   10  C4  UNL     1     -33.217   9.246  -0.460  1.00 20.00     0.014 C 
ENDBRANCH   1   7
TORSDOF 4
ENDMDL
MODEL 6
REMARK VINA RESULT:      -4.1      2.225      4.362
REMARK  4 active torsions:
REMARK  status: ('A' for Active; 'I' for Inactive)
REMARK    1  A    between atoms: C5_5  and  C7_7 
REMARK    2  A    between atoms: C5_5  and  C8_8 
REMARK    3  A    between atoms: C6_6  and  C7_7 
REMARK    4  A    between atoms: C6_6  and  S9_9 
ROOT
HETATM    1  C5  UNL     1     -33.330   7.573   2.027  1.00 20.00     0.013 C 
ENDROOT
BRANCH   1   2
HETATM    2  C7  UNL     1     -33.141   6.470   3.099  1.00 20.00    -0.009 C 
HETATM    3  C1  UNL     1     -33.016   5.059   2.524  1.00 20.00     0.011 C 
BRANCH   2   4
HETATM    4  C6  UNL     1     -34.255   6.535   4.173  1.00 20.00     0.075 C 
BRANCH   4   5
HETATM    5  S9  UNL     1     -33.759   7.224   5.784  1.00 20.00    -0.182 SA
HETATM    6  H27 UNL     1     -33.801   6.061   6.449  1.00 20.00     0.101 HD
ENDBRANCH   4   5
ENDBRANCH   2   4
ENDBRANCH   1   2
BRANCH   1   7
HETATM    7  C8  UNL     1     -32.223   8.654   1.841  1.00 20.00    -0.051 C 
HETATM    8  C2  UNL     1     -31.330   8.367   0.624  1.00 20.00     0.014 C 
HETATM    9  C3  UNL     1     -32.814  10.070   1.724  1.00 20.00     0.014 C 
HETATM   10  C4  UNL     1     -31.336   8.634   3.107  1.00 20.00     0.014 C 
ENDBRANCH   1   7
TORSDOF 4
ENDMDL
MODEL 7
REMARK VINA RESULT:      -3.5      2.441      4.255
REMARK  4 active torsions:
REMARK  status: ('A' for Active; 'I' for Inactive)
REMARK    1  A    between atoms: C5_5  and  C7_7 
REMARK    2  A    between atoms: C5_5  and  C8_8 
REMARK    3  A    between atoms: C6_6  and  C7_7 
REMARK    4  A    between atoms: C6_6  and  S9_9 
ROOT
HETATM    1  C5  UNL     1     -32.910   7.013   2.773  1.00 20.00     0.013 C 
ENDROOT
BRANCH   1   2
HETATM    2  C7  UNL     1     -34.061   7.089   3.808  1.00 20.00    -0.009 C 
HETATM    3  C1  UNL     1     -33.589   7.304   5.247  1.00 20.00     0.011 C 
BRANCH   2   4
HETATM    4  C6  UNL     1     -34.989   5.855   3.707  1.00 20.00     0.075 C 
BRANCH   4   5
HETATM    5  S9  UNL     1     -34.395   4.350   4.542  1.00 20.00    -0.182 SA
HETATM    6  H27 UNL     1     -35.374   4.303   5.455  1.00 20.00     0.101 HD
ENDBRANCH   4   5
ENDBRANCH   2   4
ENDBRANCH   1   2
BRANCH   1   7
HETATM    7  C8  UNL     1     -32.211   8.327   2.310  1.00 20.00    -0.051 C 
HETATM    8  C2  UNL     1     -31.509   8.164   0.953  1.00 20.00     0.014 C 
HETATM    9  C3  UNL     1     -33.193   9.510   2.244  1.00 20.00     0.014 C 
HETATM   10  C4  UNL     1     -31.141   8.682   3.368  1.00 20.00     0.014 C 
ENDBRANCH   1   7
TORSDOF 4
ENDMDL
MODEL 8
REMARK VINA RESULT:      -3.4     10.766     12.015
REMARK  4 active torsions:
REMARK  status: ('A' for Active; 'I' for Inactive)
REMARK    1  A    between atoms: C5_5  and  C7_7 
REMARK    2  A    between atoms: C5_5  and  C8_8 
REMARK    3  A    between atoms: C6_6  and  C7_7 
REMARK    4  A    between atoms: C6_6  and  S9_9 
ROOT
HETATM    1  C5  UNL     1     -35.033  16.344  -3.090  1.00 20.00     0.013 C 
ENDROOT
BRANCH   1   2
HETATM    2  C7  UNL     1     -33.886  15.598  -3.818  1.00 20.00    -0.009 C 
HETATM    3  C1  UNL     1     -33.413  16.287  -5.099  1.00 20.00     0.011 C 
BRANCH   2   4
HETATM    4  C6  UNL     1     -34.259  14.121  -4.089  1.00 20.00     0.075 C 
BRANCH   4   5
HETATM    5  S9  UNL     1     -35.712  13.856  -5.153  1.00 20.00    -0.182 SA
HETATM    6  H27 UNL     1     -35.903  15.149  -5.448  1.00 20.00     0.101 HD
ENDBRANCH   4   5
ENDBRANCH   2   4
ENDBRANCH   1   2
BRANCH   1   7
HETATM    7  C8  UNL     1     -34.684  17.420  -2.018  1.00 20.00    -0.051 C 
HETATM    8  C2  UNL     1     -35.430  17.185  -0.696  1.00 20.00     0.014 C 
HETATM    9  C3  UNL     1     -33.170  17.497  -1.749  1.00 20.00     0.014 C 
HETATM   10  C4  UNL     1     -35.117  18.794  -2.579  1.00 20.00     0.014 C 
ENDBRANCH   1   7
TORSDOF 4
ENDMDL
MODEL 9
REMARK VINA RESULT:      -3.3     11.225     12.289
REMARK  4 active torsions:
REMARK  status: ('A' for Active; 'I' for Inactive)
REMARK    1  A    between atoms: C5_5  and  C7_7 
REMARK    2  A    between atoms: C5_5  and  C8_8 
REMARK    3  A    between atoms: C6_6  and  C7_7 
REMARK    4  A    between atoms: C6_6  and  S9_9 
ROOT
HETATM    1  C5  UNL     1     -33.544  16.237  -3.029  1.00 20.00     0.013 C 
ENDROOT
BRANCH   1   2
HETATM    2  C7  UNL     1     -34.233  15.769  -4.336  1.00 20.00    -0.009 C 
HETATM    3  C1  UNL     1     -34.746  14.329  -4.285  1.00 20.00     0.011 C 
BRANCH   2   4
HETATM    4  C6  UNL     1     -33.315  15.987  -5.564  1.00 20.00     0.075 C 
BRANCH   4   5
HETATM    5  S9  UNL     1     -33.924  15.300  -7.136  1.00 20.00    -0.182 SA
HETATM    6  H27 UNL     1     -34.423  16.452  -7.605  1.00 20.00     0.101 HD
ENDBRANCH   4   5
ENDBRANCH   2   4
ENDBRANCH   1   2
BRANCH   1   7
HETATM    7  C8  UNL     1     -34.179  17.398  -2.205  1.00 20.00    -0.051 C 
HETATM    8  C2  UNL     1     -34.703  18.528  -3.104  1.00 20.00     0.014 C 
HETATM    9  C3  UNL     1     -35.311  16.901  -1.288  1.00 20.00     0.014 C 
HETATM   10  C4  UNL     1     -33.075  17.979  -1.292  1.00 20.00     0.014 C 
ENDBRANCH   1   7
TORSDOF 4
ENDMDL
