MODEL 1
REMARK VINA RESULT:      -5.7      0.000      0.000
REMARK  5 active torsions:
REMARK  status: ('A' for Active; 'I' for Inactive)
REMARK    1  A    between atoms: C1_1  and  C4_4 
REMARK    2  A    between atoms: C2_2  and  C7_7 
REMARK    3  A    between atoms: C7_7  and  C9_9 
REMARK    4  A    between atoms: C8_8  and  C9_9 
REMARK    5  A    between atoms: C9_9  and  O10_10 
ROOT
HETATM    1  C7  UNL     1     -33.112   6.733   3.774  1.00 20.00     0.126 C 
ENDROOT
BRANCH   1   2
HETATM    2  C2  UNL     1     -32.960   7.764   2.735  1.00 20.00    -0.099 C 
HETATM    3  C1  UNL     1     -32.835   8.605   1.887  1.00 20.00    -0.072 C 
BRANCH   3   4
HETATM    4  C4  UNL     1     -32.693   9.606   0.880  1.00 20.00    -0.018 C 
HETATM    5  C3  UNL     1     -32.321  10.844   1.235  1.00 20.00     0.028 C 
HETATM    6  C5  UNL     1     -32.968   9.242  -0.549  1.00 20.00     0.057 C 
ENDBRANCH   3   4
ENDBRANCH   1   2
BRANCH   1   7
HETATM    7  C9  UNL     1     -33.845   5.481   3.276  1.00 20.00     0.129 C 
BRANCH   7   8
HETATM    8  C8  UNL     1     -34.535   4.694   4.397  1.00 20.00     0.028 C 
HETATM    9  C6  UNL     1     -34.568   5.472   5.707  1.00 20.00     0.007 C 
ENDBRANCH   7   8
BRANCH   7  10
HETATM   10  O10 UNL     1     -32.933   4.626   2.589  1.00 20.00    -0.395 OA
HETATM   11  H24 UNL     1     -33.457   4.123   1.948  1.00 20.00     0.210 HD
ENDBRANCH   7  10
ENDBRANCH   1   7
TORSDOF 5
ENDMDL
MODEL 2
REMARK VINA RESULT:      -5.6      0.768      1.156
REMARK  5 active torsions:
REMARK  status: ('A' for Active; 'I' for Inactive)
REMARK    1  A    between atoms: C1_1  and  C4_4 
REMARK    2  A    between atoms: C2_2  and  C7_7 
REMARK    3  A    between atoms: C7_7  and  C9_9 
REMARK    4  A    between atoms: C8_8  and  C9_9 
REMARK    5  A    between atoms: C9_9  and  O10_10 
ROOT
HETATM    1  C7  UNL     1     -33.659   6.663   4.036  1.00 20.00     0.126 C 
ENDROOT
BRANCH   1   2
HETATM    2  C2  UNL     1     -33.109   7.564   3.012  1.00 20.00    -0.099 C 
HETATM    3  C1  UNL     1     -32.661   8.302   2.176  1.00 20.00    -0.072 C 
BRANCH   3   4
HETATM    4  C4  UNL     1     -32.126   9.171   1.180  1.00 20.00    -0.018 C 
HETATM    5  C3  UNL     1     -31.198   8.704   0.332  1.00 20.00     0.028 C 
HETATM    6  C5  UNL     1     -32.618  10.587   1.112  1.00 20.00     0.057 C 
ENDBRANCH   3   4
ENDBRANCH   1   2
BRANCH   1   7
HETATM    7  C9  UNL     1     -34.066   5.294   3.477  1.00 20.00     0.129 C 
BRANCH   7   8
HETATM    8  C8  UNL     1     -34.425   4.275   4.565  1.00 20.00     0.028 C 
HETATM    9  C6  UNL     1     -34.647   4.936   5.919  1.00 20.00     0.007 C 
ENDBRANCH   7   8
BRANCH   7  10
HETATM   10  O10 UNL     1     -33.016   4.770   2.666  1.00 20.00    -0.395 OA
HETATM   11  H24 UNL     1     -32.189   5.136   3.015  1.00 20.00     0.210 HD
ENDBRANCH   7  10
ENDBRANCH   1   7
TORSDOF 5
ENDMDL
MODEL 3
REMARK VINA RESULT:      -5.6      1.492      1.908
REMARK  5 active torsions:
REMARK  status: ('A' for Active; 'I' for Inactive)
REMARK    1  A    between atoms: C1_1  and  C4_4 
REMARK    2  A    between atoms: C2_2  and  C7_7 
REMARK    3  A    between atoms: C7_7  and  C9_9 
REMARK    4  A    between atoms: C8_8  and  C9_9 
REMARK    5  A    between atoms: C9_9  and  O10_10 
ROOT
HETATM    1  C7  UNL     1     -33.471   5.494   3.369  1.00 20.00     0.126 C 
ENDROOT
BRANCH   1   2
HETATM    2  C2  UNL     1     -33.051   6.716   2.665  1.00 20.00    -0.099 C 
HETATM    3  C1  UNL     1     -32.711   7.714   2.090  1.00 20.00    -0.072 C 
BRANCH   3   4
HETATM    4  C4  UNL     1     -32.299   8.897   1.406  1.00 20.00    -0.018 C 
HETATM    5  C3  UNL     1     -31.278   8.831   0.539  1.00 20.00     0.028 C 
HETATM    6  C5  UNL     1     -33.022  10.182   1.681  1.00 20.00     0.057 C 
ENDBRANCH   3   4
ENDBRANCH   1   2
BRANCH   1   7
HETATM    7  C9  UNL     1     -34.639   5.728   4.335  1.00 20.00     0.129 C 
BRANCH   7   8
HETATM    8  C8  UNL     1     -34.189   6.057   5.764  1.00 20.00     0.028 C 
HETATM    9  C6  UNL     1     -33.655   7.479   5.883  1.00 20.00     0.007 C 
ENDBRANCH   7   8
BRANCH   7  10
HETATM   10  O10 UNL     1     -35.487   4.581   4.358  1.00 20.00    -0.395 OA
HETATM   11  H24 UNL     1     -34.912   3.810   4.240  1.00 20.00     0.210 HD
ENDBRANCH   7  10
ENDBRANCH   1   7
TORSDOF 5
ENDMDL
MODEL 4
REMARK VINA RESULT:      -5.3      1.115      1.242
REMARK  5 active torsions:
REMARK  status: ('A' for Active; 'I' for Inactive)
REMARK    1  A    between atoms: C1_1  and  C4_4 
REMARK    2  A    between atoms: C2_2  and  C7_7 
REMARK    3  A    between atoms: C7_7  and  C9_9 
REMARK    4  A    between atoms: C8_8  and  C9_9 
REMARK    5  A    between atoms: C9_9  and  O10_10 
ROOT
HETATM    1  C7  UNL     1     -32.979   6.779   3.734  1.00 20.00     0.126 C 
ENDROOT
BRANCH   1   2
HETATM    2  C2  UNL     1     -32.865   7.808   2.688  1.00 20.00    -0.099 C 
HETATM    3  C1  UNL     1     -32.774   8.647   1.834  1.00 20.00    -0.072 C 
BRANCH   3   4
HETATM    4  C4  UNL     1     -32.658   9.645   0.821  1.00 20.00    -0.018 C 
HETATM    5  C3  UNL     1     -32.248  10.877   1.157  1.00 20.00     0.028 C 
HETATM    6  C5  UNL     1     -33.001   9.285  -0.595  1.00 20.00     0.057 C 
ENDBRANCH   3   4
ENDBRANCH   1   2
BRANCH   1   7
HETATM    7  C9  UNL     1     -34.386   6.688   4.337  1.00 20.00     0.129 C 
BRANCH   7   8
HETATM    8  C8  UNL     1     -34.422   5.968   5.691  1.00 20.00     0.028 C 
HETATM    9  C6  UNL     1     -34.500   4.455   5.533  1.00 20.00     0.007 C 
ENDBRANCH   7   8
BRANCH   7  10
HETATM   10  O10 UNL     1     -35.263   6.028   3.426  1.00 20.00    -0.395 OA
HETATM   11  H24 UNL     1     -34.903   5.138   3.294  1.00 20.00     0.210 HD
ENDBRANCH   7  10
ENDBRANCH   1   7
TORSDOF 5
ENDMDL
MODEL 5
REMARK VINA RESULT:      -5.3      2.266      5.444
REMARK  5 active torsions:
REMARK  status: ('A' for Active; 'I' for Inactive)
REMARK    1  A    between atoms: C1_1  and  C4_4 
REMARK    2  A    between atoms: C2_2  and  C7_7 
REMARK    3  A    between atoms: C7_7  and  C9_9 
REMARK    4  A    between atoms: C8_8  and  C9_9 
REMARK    5  A    between atoms: C9_9  and  O10_10 
ROOT
HETATM    1  C7  UNL     1     -32.109   8.709   1.735  1.00 20.00     0.126 C 
ENDROOT
BRANCH   1   2
HETATM    2  C2  UNL     1     -32.794   7.940   2.787  1.00 20.00    -0.099 C 
HETATM    3  C1  UNL     1     -33.353   7.311   3.644  1.00 20.00    -0.072 C 
BRANCH   3   4
HETATM    4  C4  UNL     1     -34.018   6.571   4.666  1.00 20.00    -0.018 C 
HETATM    5  C3  UNL     1     -33.937   6.990   5.937  1.00 20.00     0.028 C 
HETATM    6  C5  UNL     1     -34.789   5.341   4.286  1.00 20.00     0.057 C 
ENDBRANCH   3   4
ENDBRANCH   1   2
BRANCH   1   7
HETATM    7  C9  UNL     1     -32.947   9.877   1.202  1.00 20.00     0.129 C 
BRANCH   7   8
HETATM    8  C8  UNL     1     -33.284   9.753  -0.288  1.00 20.00     0.028 C 
HETATM    9  C6  UNL     1     -32.556   8.588  -0.946  1.00 20.00     0.007 C 
ENDBRANCH   7   8
BRANCH   7  10
HETATM   10  O10 UNL     1     -32.265  11.108   1.433  1.00 20.00    -0.395 OA
HETATM   11  H24 UNL     1     -31.727  11.277   0.645  1.00 20.00     0.210 HD
ENDBRANCH   7  10
ENDBRANCH   1   7
TORSDOF 5
ENDMDL
MODEL 6
REMARK VINA RESULT:      -5.3      1.994      5.191
REMARK  5 active torsions:
REMARK  status: ('A' for Active; 'I' for Inactive)
REMARK    1  A    between atoms: C1_1  and  C4_4 
REMARK    2  A    between atoms: C2_2  and  C7_7 
REMARK    3  A    between atoms: C7_7  and  C9_9 
REMARK    4  A    between atoms: C8_8  and  C9_9 
REMARK    5  A    between atoms: C9_9  and  O10_10 
ROOT
HETATM    1  C7  UNL     1     -31.679   8.395   1.149  1.00 20.00     0.126 C 
ENDROOT
BRANCH   1   2
HETATM    2  C2  UNL     1     -32.477   7.821   2.244  1.00 20.00    -0.099 C 
HETATM    3  C1  UNL     1     -33.127   7.351   3.137  1.00 20.00    -0.072 C 
BRANCH   3   4
HETATM    4  C4  UNL     1     -33.904   6.797   4.198  1.00 20.00    -0.018 C 
HETATM    5  C3  UNL     1     -34.818   5.855   3.918  1.00 20.00     0.028 C 
HETATM    6  C5  UNL     1     -33.678   7.288   5.597  1.00 20.00     0.057 C 
ENDBRANCH   3   4
ENDBRANCH   1   2
BRANCH   1   7
HETATM    7  C9  UNL     1     -32.422   9.491   0.375  1.00 20.00     0.129 C 
BRANCH   7   8
HETATM    8  C8  UNL     1     -33.220  10.439   1.279  1.00 20.00     0.028 C 
HETATM    9  C6  UNL     1     -32.318  11.407   2.033  1.00 20.00     0.007 C 
ENDBRANCH   7   8
BRANCH   7  10
HETATM   10  O10 UNL     1     -33.297   8.901  -0.583  1.00 20.00    -0.395 OA
HETATM   11  H24 UNL     1     -34.184   8.915  -0.192  1.00 20.00     0.210 HD
ENDBRANCH   7  10
ENDBRANCH   1   7
TORSDOF 5
ENDMDL
MODEL 7
REMARK VINA RESULT:      -4.6     10.546     10.941
REMARK  5 active torsions:
REMARK  status: ('A' for Active; 'I' for Inactive)
REMARK    1  A    between atoms: C1_1  and  C4_4 
REMARK    2  A    between atoms: C2_2  and  C7_7 
REMARK    3  A    between atoms: C7_7  and  C9_9 
REMARK    4  A    between atoms: C8_8  and  C9_9 
REMARK    5  A    between atoms: C9_9  and  O10_10 
ROOT
HETATM    1  C7  UNL     1     -34.367  14.475  -4.913  1.00 20.00     0.126 C 
ENDROOT
BRANCH   1   2
HETATM    2  C2  UNL     1     -34.325  15.399  -3.768  1.00 20.00    -0.099 C 
HETATM    3  C1  UNL     1     -34.291  16.152  -2.833  1.00 20.00    -0.072 C 
BRANCH   3   4
HETATM    4  C4  UNL     1     -34.254  17.051  -1.726  1.00 20.00    -0.018 C 
HETATM    5  C3  UNL     1     -35.322  17.143  -0.920  1.00 20.00     0.028 C 
HETATM    6  C5  UNL     1     -33.019  17.871  -1.498  1.00 20.00     0.057 C 
ENDBRANCH   3   4
ENDBRANCH   1   2
BRANCH   1   7
HETATM    7  C9  UNL     1     -35.790  14.031  -5.275  1.00 20.00     0.129 C 
BRANCH   7   8
HETATM    8  C8  UNL     1     -36.879  14.827  -4.547  1.00 20.00     0.028 C 
HETATM    9  C6  UNL     1     -38.264  14.568  -5.127  1.00 20.00     0.007 C 
ENDBRANCH   7   8
BRANCH   7  10
HETATM   10  O10 UNL     1     -35.951  12.642  -4.995  1.00 20.00    -0.395 OA
HETATM   11  H24 UNL     1     -36.901  12.460  -5.043  1.00 20.00     0.210 HD
ENDBRANCH   7  10
ENDBRANCH   1   7
TORSDOF 5
ENDMDL
MODEL 8
REMARK VINA RESULT:      -4.5     10.162     10.943
REMARK  5 active torsions:
REMARK  status: ('A' for Active; 'I' for Inactive)
REMARK    1  A    between atoms: C1_1  and  C4_4 
REMARK    2  A    between atoms: C2_2  and  C7_7 
REMARK    3  A    between atoms: C7_7  and  C9_9 
REMARK    4  A    between atoms: C8_8  and  C9_9 
REMARK    5  A    between atoms: C9_9  and  O10_10 
ROOT
HETATM    1  C7  UNL     1     -33.285  15.915  -4.882  1.00 20.00     0.126 C 
ENDROOT
BRANCH   1   2
HETATM    2  C2  UNL     1     -33.589  16.472  -3.553  1.00 20.00    -0.099 C 
HETATM    3  C1  UNL     1     -33.835  16.927  -2.470  1.00 20.00    -0.072 C 
BRANCH   3   4
HETATM    4  C4  UNL     1     -34.133  17.462  -1.181  1.00 20.00    -0.018 C 
HETATM    5  C3  UNL     1     -35.316  17.183  -0.613  1.00 20.00     0.028 C 
HETATM    6  C5  UNL     1     -33.113  18.326  -0.500  1.00 20.00     0.057 C 
ENDBRANCH   3   4
ENDBRANCH   1   2
BRANCH   1   7
HETATM    7  C9  UNL     1     -33.620  14.423  -4.999  1.00 20.00     0.129 C 
BRANCH   7   8
HETATM    8  C8  UNL     1     -34.952  14.045  -4.340  1.00 20.00     0.028 C 
HETATM    9  C6  UNL     1     -35.926  13.422  -5.332  1.00 20.00     0.007 C 
ENDBRANCH   7   8
BRANCH   7  10
HETATM   10  O10 UNL     1     -32.571  13.644  -4.428  1.00 20.00    -0.395 OA
HETATM   11  H24 UNL     1     -32.379  14.034  -3.561  1.00 20.00     0.210 HD
ENDBRANCH   7  10
ENDBRANCH   1   7
TORSDOF 5
ENDMDL
MODEL 9
REMARK VINA RESULT:      -4.5     10.397     11.112
REMARK  5 active torsions:
REMARK  status: ('A' for Active; 'I' for Inactive)
REMARK    1  A    between atoms: C1_1  and  C4_4 
REMARK    2  A    between atoms: C2_2  and  C7_7 
REMARK    3  A    between atoms: C7_7  and  C9_9 
REMARK    4  A    between atoms: C8_8  and  C9_9 
REMARK    5  A    between atoms: C9_9  and  O10_10 
ROOT
HETATM    1  C7  UNL     1     -36.066  15.025  -4.318  1.00 20.00     0.126 C 
ENDROOT
BRANCH   1   2
HETATM    2  C2  UNL     1     -35.448  15.840  -3.260  1.00 20.00    -0.099 C 
HETATM    3  C1  UNL     1     -34.945  16.507  -2.397  1.00 20.00    -0.072 C 
BRANCH   3   4
HETATM    4  C4  UNL     1     -34.341  17.293  -1.371  1.00 20.00    -0.018 C 
HETATM    5  C3  UNL     1     -33.085  17.733  -1.536  1.00 20.00     0.028 C 
HETATM    6  C5  UNL     1     -35.131  17.604  -0.135  1.00 20.00     0.057 C 
ENDBRANCH   3   4
ENDBRANCH   1   2
BRANCH   1   7
HETATM    7  C9  UNL     1     -35.166  13.880  -4.798  1.00 20.00     0.129 C 
BRANCH   7   8
HETATM    8  C8  UNL     1     -34.323  14.243  -6.026  1.00 20.00     0.028 C 
HETATM    9  C6  UNL     1     -34.690  13.402  -7.242  1.00 20.00     0.007 C 
ENDBRANCH   7   8
BRANCH   7  10
HETATM   10  O10 UNL     1     -35.958  12.730  -5.089  1.00 20.00    -0.395 OA
HETATM   11  H24 UNL     1     -36.860  12.936  -4.801  1.00 20.00     0.210 HD
ENDBRANCH   7  10
ENDBRANCH   1   7
TORSDOF 5
ENDMDL
