MODEL 1
REMARK VINA RESULT:      -3.6      0.000      0.000
REMARK  1 active torsions:
REMARK  status: ('A' for Active; 'I' for Inactive)
REMARK    1  A    between atoms: C2_2  and  C4_4 
ROOT
HETATM    1  C3  UNL     1     -34.206   4.334   4.131  1.00 20.00     0.204 A 
HETATM    2  C4  UNL     1     -34.845   5.591   4.611  1.00 20.00     0.167 A 
HETATM    3  O5  UNL     1     -34.660   4.488   5.481  1.00 20.00    -0.377 OA
ENDROOT
BRANCH   2   4
HETATM    4  C2  UNL     1     -33.983   6.804   4.710  1.00 20.00    -0.003 C 
HETATM    5  C1  UNL     1     -33.637   7.385   5.864  1.00 20.00     0.009 C 
ENDBRANCH   2   4
TORSDOF 1
ENDMDL
MODEL 2
REMARK VINA RESULT:      -3.5      1.953      2.451
REMARK  1 active torsions:
REMARK  status: ('A' for Active; 'I' for Inactive)
REMARK    1  A    between atoms: C2_2  and  C4_4 
ROOT
HETATM    1  C3  UNL     1     -32.945   6.871   2.900  1.00 20.00     0.204 A 
HETATM    2  C4  UNL     1     -34.151   6.142   3.381  1.00 20.00     0.167 A 
HETATM    3  O5  UNL     1     -33.062   5.448   2.798  1.00 20.00    -0.377 OA
ENDROOT
BRANCH   2   4
HETATM    4  C2  UNL     1     -34.390   6.105   4.852  1.00 20.00    -0.003 C 
HETATM    5  C1  UNL     1     -34.640   4.988   5.543  1.00 20.00     0.009 C 
ENDBRANCH   2   4
TORSDOF 1
ENDMDL
MODEL 3
REMARK VINA RESULT:      -3.5      1.493      2.850
REMARK  1 active torsions:
REMARK  status: ('A' for Active; 'I' for Inactive)
REMARK    1  A    between atoms: C2_2  and  C4_4 
ROOT
HETATM    1  C3  UNL     1     -33.623   7.387   5.844  1.00 20.00     0.204 A 
HETATM    2  C4  UNL     1     -34.452   6.536   4.946  1.00 20.00     0.167 A 
HETATM    3  O5  UNL     1     -33.240   7.113   4.492  1.00 20.00    -0.377 OA
ENDROOT
BRANCH   2   4
HETATM    4  C2  UNL     1     -34.541   5.083   5.268  1.00 20.00    -0.003 C 
HETATM    5  C1  UNL     1     -34.299   4.105   4.389  1.00 20.00     0.009 C 
ENDBRANCH   2   4
TORSDOF 1
ENDMDL
MODEL 4
REMARK VINA RESULT:      -3.4      1.643      1.837
REMARK  1 active torsions:
REMARK  status: ('A' for Active; 'I' for Inactive)
REMARK    1  A    between atoms: C2_2  and  C4_4 
ROOT
HETATM    1  C3  UNL     1     -34.601   4.542   4.737  1.00 20.00     0.204 A 
HETATM    2  C4  UNL     1     -34.670   5.729   3.842  1.00 20.00     0.167 A 
HETATM    3  O5  UNL     1     -34.560   5.880   5.246  1.00 20.00    -0.377 OA
ENDROOT
BRANCH   2   4
HETATM    4  C2  UNL     1     -33.505   5.981   2.945  1.00 20.00    -0.003 C 
HETATM    5  C1  UNL     1     -32.858   7.149   2.868  1.00 20.00     0.009 C 
ENDBRANCH   2   4
TORSDOF 1
ENDMDL
MODEL 5
REMARK VINA RESULT:      -3.3      2.935      3.452
REMARK  1 active torsions:
REMARK  status: ('A' for Active; 'I' for Inactive)
REMARK    1  A    between atoms: C2_2  and  C4_4 
ROOT
HETATM    1  C3  UNL     1     -32.476   8.211   2.218  1.00 20.00     0.204 A 
HETATM    2  C4  UNL     1     -32.571   7.180   3.288  1.00 20.00     0.167 A 
HETATM    3  O5  UNL     1     -31.593   8.203   3.345  1.00 20.00    -0.377 OA
ENDROOT
BRANCH   2   4
HETATM    4  C2  UNL     1     -33.774   7.212   4.168  1.00 20.00    -0.003 C 
HETATM    5  C1  UNL     1     -33.725   7.183   5.504  1.00 20.00     0.009 C 
ENDBRANCH   2   4
TORSDOF 1
ENDMDL
MODEL 6
REMARK VINA RESULT:      -3.3      2.479      3.153
REMARK  1 active torsions:
REMARK  status: ('A' for Active; 'I' for Inactive)
REMARK    1  A    between atoms: C2_2  and  C4_4 
ROOT
HETATM    1  C3  UNL     1     -32.796   7.824   2.446  1.00 20.00     0.204 A 
HETATM    2  C4  UNL     1     -33.037   6.560   3.194  1.00 20.00     0.167 A 
HETATM    3  O5  UNL     1     -32.320   7.630   3.783  1.00 20.00    -0.377 OA
ENDROOT
BRANCH   2   4
HETATM    4  C2  UNL     1     -34.441   6.258   3.597  1.00 20.00    -0.003 C 
HETATM    5  C1  UNL     1     -34.773   5.469   4.625  1.00 20.00     0.009 C 
ENDBRANCH   2   4
TORSDOF 1
ENDMDL
MODEL 7
REMARK VINA RESULT:      -3.2      4.482      5.118
REMARK  1 active torsions:
REMARK  status: ('A' for Active; 'I' for Inactive)
REMARK    1  A    between atoms: C2_2  and  C4_4 
ROOT
HETATM    1  C3  UNL     1     -31.698   8.255   3.260  1.00 20.00     0.204 A 
HETATM    2  C4  UNL     1     -31.873   8.343   1.784  1.00 20.00     0.167 A 
HETATM    3  O5  UNL     1     -32.671   7.469   2.562  1.00 20.00    -0.377 OA
ENDROOT
BRANCH   2   4
HETATM    4  C2  UNL     1     -32.431   9.612   1.233  1.00 20.00    -0.003 C 
HETATM    5  C1  UNL     1     -32.934   9.737   0.001  1.00 20.00     0.009 C 
ENDBRANCH   2   4
TORSDOF 1
ENDMDL
MODEL 8
REMARK VINA RESULT:      -3.1      5.316      5.807
REMARK  1 active torsions:
REMARK  status: ('A' for Active; 'I' for Inactive)
REMARK    1  A    between atoms: C2_2  and  C4_4 
ROOT
HETATM    1  C3  UNL     1     -32.980   9.453  -0.193  1.00 20.00     0.204 A 
HETATM    2  C4  UNL     1     -31.973   9.192   0.873  1.00 20.00     0.167 A 
HETATM    3  O5  UNL     1     -32.553  10.475   0.715  1.00 20.00    -0.377 OA
ENDROOT
BRANCH   2   4
HETATM    4  C2  UNL     1     -32.377   8.295   1.994  1.00 20.00    -0.003 C 
HETATM    5  C1  UNL     1     -31.695   8.171   3.137  1.00 20.00     0.009 C 
ENDBRANCH   2   4
TORSDOF 1
ENDMDL
MODEL 9
REMARK VINA RESULT:      -3.0      3.568      4.142
REMARK  1 active torsions:
REMARK  status: ('A' for Active; 'I' for Inactive)
REMARK    1  A    between atoms: C2_2  and  C4_4 
ROOT
HETATM    1  C3  UNL     1     -33.246   7.297   3.788  1.00 20.00     0.204 A 
HETATM    2  C4  UNL     1     -32.172   7.715   2.845  1.00 20.00     0.167 A 
HETATM    3  O5  UNL     1     -32.711   6.406   2.803  1.00 20.00    -0.377 OA
ENDROOT
BRANCH   2   4
HETATM    4  C2  UNL     1     -32.525   8.729   1.809  1.00 20.00    -0.003 C 
HETATM    5  C1  UNL     1     -31.747   9.035   0.765  1.00 20.00     0.009 C 
ENDBRANCH   2   4
TORSDOF 1
ENDMDL
