MODEL 1
REMARK VINA RESULT:      -4.9      0.000      0.000
REMARK  3 active torsions:
REMARK  status: ('A' for Active; 'I' for Inactive)
REMARK    1  A    between atoms: C1_1  and  C2_2 
REMARK    2  A    between atoms: C3_3  and  C8_8 
REMARK    3  A    between atoms: C8_8  and  C9_9 
ROOT
HETATM    1  C1  UNL     1     -34.333   5.630   5.553  1.00 20.00     0.043 C 
HETATM    2  C3  UNL     1     -33.998   6.903   5.269  1.00 20.00    -0.080 C 
HETATM    3  C4  UNL     1     -33.417   7.860   6.273  1.00 20.00     0.043 C 
ENDROOT
BRANCH   2   4
HETATM    4  C8  UNL     1     -34.125   7.411   3.842  1.00 20.00     0.042 C 
BRANCH   4   5
HETATM    5  C9  UNL     1     -32.823   7.496   2.994  1.00 20.00    -0.048 C 
HETATM    6  C5  UNL     1     -33.014   8.410   1.772  1.00 20.00     0.015 C 
HETATM    7  C6  UNL     1     -31.630   8.005   3.820  1.00 20.00     0.015 C 
HETATM    8  C7  UNL     1     -32.488   6.076   2.493  1.00 20.00     0.015 C 
ENDBRANCH   4   5
ENDBRANCH   2   4
BRANCH   1   9
HETATM    9  C2  UNL     1     -34.904   4.688   4.566  1.00 20.00     0.259 C 
HETATM   10  O10 UNL     1     -34.313   3.666   4.235  1.00 20.00    -0.302 OA
ENDBRANCH   1   9
TORSDOF 3
ENDMDL
MODEL 2
REMARK VINA RESULT:      -4.5      1.927      2.989
REMARK  3 active torsions:
REMARK  status: ('A' for Active; 'I' for Inactive)
REMARK    1  A    between atoms: C1_1  and  C2_2 
REMARK    2  A    between atoms: C3_3  and  C8_8 
REMARK    3  A    between atoms: C8_8  and  C9_9 
ROOT
HETATM    1  C1  UNL     1     -32.963   6.517   3.386  1.00 20.00     0.043 C 
HETATM    2  C3  UNL     1     -32.554   7.731   2.973  1.00 20.00    -0.080 C 
HETATM    3  C4  UNL     1     -31.297   8.401   3.455  1.00 20.00     0.043 C 
ENDROOT
BRANCH   2   4
HETATM    4  C8  UNL     1     -33.342   8.462   1.897  1.00 20.00     0.042 C 
BRANCH   4   5
HETATM    5  C9  UNL     1     -32.534   9.302   0.866  1.00 20.00    -0.048 C 
HETATM    6  C5  UNL     1     -32.372  10.756   1.340  1.00 20.00     0.015 C 
HETATM    7  C6  UNL     1     -31.144   8.704   0.597  1.00 20.00     0.015 C 
HETATM    8  C7  UNL     1     -33.319   9.307  -0.462  1.00 20.00     0.015 C 
ENDBRANCH   4   5
ENDBRANCH   2   4
BRANCH   1   9
HETATM    9  C2  UNL     1     -34.199   5.857   2.911  1.00 20.00     0.259 C 
HETATM   10  O10 UNL     1     -35.232   5.873   3.573  1.00 20.00    -0.302 OA
ENDBRANCH   1   9
TORSDOF 3
ENDMDL
MODEL 3
REMARK VINA RESULT:      -4.4      2.708      4.348
REMARK  3 active torsions:
REMARK  status: ('A' for Active; 'I' for Inactive)
REMARK    1  A    between atoms: C1_1  and  C2_2 
REMARK    2  A    between atoms: C3_3  and  C8_8 
REMARK    3  A    between atoms: C8_8  and  C9_9 
ROOT
HETATM    1  C1  UNL     1     -31.907   8.738   1.307  1.00 20.00     0.043 C 
HETATM    2  C3  UNL     1     -32.223   8.305   2.543  1.00 20.00    -0.080 C 
HETATM    3  C4  UNL     1     -31.249   8.260   3.689  1.00 20.00     0.043 C 
ENDROOT
BRANCH   2   4
HETATM    4  C8  UNL     1     -33.656   7.907   2.854  1.00 20.00     0.042 C 
BRANCH   4   5
HETATM    5  C9  UNL     1     -33.879   6.556   3.592  1.00 20.00    -0.048 C 
HETATM    6  C5  UNL     1     -32.986   5.449   3.008  1.00 20.00     0.015 C 
HETATM    7  C6  UNL     1     -33.611   6.672   5.102  1.00 20.00     0.015 C 
HETATM    8  C7  UNL     1     -35.354   6.146   3.398  1.00 20.00     0.015 C 
ENDBRANCH   4   5
ENDBRANCH   2   4
BRANCH   1   9
HETATM    9  C2  UNL     1     -32.862   8.783   0.180  1.00 20.00     0.259 C 
HETATM   10  O10 UNL     1     -33.152   9.837  -0.377  1.00 20.00    -0.302 OA
ENDBRANCH   1   9
TORSDOF 3
ENDMDL
MODEL 4
REMARK VINA RESULT:      -4.1      2.400      4.029
REMARK  3 active torsions:
REMARK  status: ('A' for Active; 'I' for Inactive)
REMARK    1  A    between atoms: C1_1  and  C2_2 
REMARK    2  A    between atoms: C3_3  and  C8_8 
REMARK    3  A    between atoms: C8_8  and  C9_9 
ROOT
HETATM    1  C1  UNL     1     -32.318   8.463   2.940  1.00 20.00     0.043 C 
HETATM    2  C3  UNL     1     -32.721   7.601   3.893  1.00 20.00    -0.080 C 
HETATM    3  C4  UNL     1     -32.894   7.973   5.341  1.00 20.00     0.043 C 
ENDROOT
BRANCH   2   4
HETATM    4  C8  UNL     1     -33.110   6.183   3.506  1.00 20.00     0.042 C 
BRANCH   4   5
HETATM    5  C9  UNL     1     -34.306   5.538   4.263  1.00 20.00    -0.048 C 
HETATM    6  C5  UNL     1     -34.256   4.003   4.177  1.00 20.00     0.015 C 
HETATM    7  C6  UNL     1     -34.346   5.956   5.742  1.00 20.00     0.015 C 
HETATM    8  C7  UNL     1     -35.609   6.022   3.593  1.00 20.00     0.015 C 
ENDBRANCH   4   5
ENDBRANCH   2   4
BRANCH   1   9
HETATM    9  C2  UNL     1     -32.148   8.098   1.517  1.00 20.00     0.259 C 
HETATM   10  O10 UNL     1     -31.526   8.814   0.740  1.00 20.00    -0.302 OA
ENDBRANCH   1   9
TORSDOF 3
ENDMDL
MODEL 5
REMARK VINA RESULT:      -4.1     11.849     13.167
REMARK  3 active torsions:
REMARK  status: ('A' for Active; 'I' for Inactive)
REMARK    1  A    between atoms: C1_1  and  C2_2 
REMARK    2  A    between atoms: C3_3  and  C8_8 
REMARK    3  A    between atoms: C8_8  and  C9_9 
ROOT
HETATM    1  C1  UNL     1     -35.413  14.439  -6.668  1.00 20.00     0.043 C 
HETATM    2  C3  UNL     1     -34.924  15.670  -6.425  1.00 20.00    -0.080 C 
HETATM    3  C4  UNL     1     -34.053  16.430  -7.387  1.00 20.00     0.043 C 
ENDROOT
BRANCH   2   4
HETATM    4  C8  UNL     1     -35.320  16.396  -5.150  1.00 20.00     0.042 C 
BRANCH   4   5
HETATM    5  C9  UNL     1     -34.287  16.414  -3.986  1.00 20.00    -0.048 C 
HETATM    6  C5  UNL     1     -33.299  15.242  -4.103  1.00 20.00     0.015 C 
HETATM    7  C6  UNL     1     -33.498  17.733  -3.936  1.00 20.00     0.015 C 
HETATM    8  C7  UNL     1     -35.062  16.269  -2.660  1.00 20.00     0.015 C 
ENDBRANCH   4   5
ENDBRANCH   2   4
BRANCH   1   9
HETATM    9  C2  UNL     1     -36.270  13.691  -5.723  1.00 20.00     0.259 C 
HETATM   10  O10 UNL     1     -35.880  12.665  -5.175  1.00 20.00    -0.302 OA
ENDBRANCH   1   9
TORSDOF 3
ENDMDL
MODEL 6
REMARK VINA RESULT:      -4.1     11.800     12.800
REMARK  3 active torsions:
REMARK  status: ('A' for Active; 'I' for Inactive)
REMARK    1  A    between atoms: C1_1  and  C2_2 
REMARK    2  A    between atoms: C3_3  and  C8_8 
REMARK    3  A    between atoms: C8_8  and  C9_9 
ROOT
HETATM    1  C1  UNL     1     -35.760  15.375  -5.292  1.00 20.00     0.043 C 
HETATM    2  C3  UNL     1     -34.597  15.698  -4.694  1.00 20.00    -0.080 C 
HETATM    3  C4  UNL     1     -33.365  16.133  -5.439  1.00 20.00     0.043 C 
ENDROOT
BRANCH   2   4
HETATM    4  C8  UNL     1     -34.513  15.713  -3.176  1.00 20.00     0.042 C 
BRANCH   4   5
HETATM    5  C9  UNL     1     -34.587  17.097  -2.470  1.00 20.00    -0.048 C 
HETATM    6  C5  UNL     1     -33.187  17.592  -2.069  1.00 20.00     0.015 C 
HETATM    7  C6  UNL     1     -35.261  18.161  -3.352  1.00 20.00     0.015 C 
HETATM    8  C7  UNL     1     -35.432  16.933  -1.189  1.00 20.00     0.015 C 
ENDBRANCH   4   5
ENDBRANCH   2   4
BRANCH   1   9
HETATM    9  C2  UNL     1     -36.972  14.947  -4.560  1.00 20.00     0.259 C 
HETATM   10  O10 UNL     1     -37.562  13.910  -4.844  1.00 20.00    -0.302 OA
ENDBRANCH   1   9
TORSDOF 3
ENDMDL
MODEL 7
REMARK VINA RESULT:      -4.0     11.785     12.616
REMARK  3 active torsions:
REMARK  status: ('A' for Active; 'I' for Inactive)
REMARK    1  A    between atoms: C1_1  and  C2_2 
REMARK    2  A    between atoms: C3_3  and  C8_8 
REMARK    3  A    between atoms: C8_8  and  C9_9 
ROOT
HETATM    1  C1  UNL     1     -36.526  13.964  -6.363  1.00 20.00     0.043 C 
HETATM    2  C3  UNL     1     -36.519  14.485  -5.121  1.00 20.00    -0.080 C 
HETATM    3  C4  UNL     1     -37.724  15.100  -4.463  1.00 20.00     0.043 C 
ENDROOT
BRANCH   2   4
HETATM    4  C8  UNL     1     -35.259  14.390  -4.276  1.00 20.00     0.042 C 
BRANCH   4   5
HETATM    5  C9  UNL     1     -34.310  15.623  -4.266  1.00 20.00    -0.048 C 
HETATM    6  C5  UNL     1     -34.755  16.675  -5.296  1.00 20.00     0.015 C 
HETATM    7  C6  UNL     1     -34.233  16.281  -2.879  1.00 20.00     0.015 C 
HETATM    8  C7  UNL     1     -32.895  15.138  -4.645  1.00 20.00     0.015 C 
ENDBRANCH   4   5
ENDBRANCH   2   4
BRANCH   1   9
HETATM    9  C2  UNL     1     -35.342  13.359  -7.011  1.00 20.00     0.259 C 
HETATM   10  O10 UNL     1     -35.076  12.169  -6.881  1.00 20.00    -0.302 OA
ENDBRANCH   1   9
TORSDOF 3
ENDMDL
MODEL 8
REMARK VINA RESULT:      -4.0     11.850     12.888
REMARK  3 active torsions:
REMARK  status: ('A' for Active; 'I' for Inactive)
REMARK    1  A    between atoms: C1_1  and  C2_2 
REMARK    2  A    between atoms: C3_3  and  C8_8 
REMARK    3  A    between atoms: C8_8  and  C9_9 
ROOT
HETATM    1  C1  UNL     1     -36.913  14.279  -6.573  1.00 20.00     0.043 C 
HETATM    2  C3  UNL     1     -35.673  13.857  -6.263  1.00 20.00    -0.080 C 
HETATM    3  C4  UNL     1     -34.692  13.326  -7.273  1.00 20.00     0.043 C 
ENDROOT
BRANCH   2   4
HETATM    4  C8  UNL     1     -35.173  13.983  -4.833  1.00 20.00     0.042 C 
BRANCH   4   5
HETATM    5  C9  UNL     1     -34.221  15.171  -4.511  1.00 20.00    -0.048 C 
HETATM    6  C5  UNL     1     -32.771  14.689  -4.337  1.00 20.00     0.015 C 
HETATM    7  C6  UNL     1     -34.262  16.255  -5.601  1.00 20.00     0.015 C 
HETATM    8  C7  UNL     1     -34.686  15.807  -3.185  1.00 20.00     0.015 C 
ENDBRANCH   4   5
ENDBRANCH   2   4
BRANCH   1   9
HETATM    9  C2  UNL     1     -37.879  14.801  -5.581  1.00 20.00     0.259 C 
HETATM   10  O10 UNL     1     -38.602  14.054  -4.932  1.00 20.00    -0.302 OA
ENDBRANCH   1   9
TORSDOF 3
ENDMDL
MODEL 9
REMARK VINA RESULT:      -4.0      2.469      4.417
REMARK  3 active torsions:
REMARK  status: ('A' for Active; 'I' for Inactive)
REMARK    1  A    between atoms: C1_1  and  C2_2 
REMARK    2  A    between atoms: C3_3  and  C8_8 
REMARK    3  A    between atoms: C8_8  and  C9_9 
ROOT
HETATM    1  C1  UNL     1     -32.560   7.289   1.875  1.00 20.00     0.043 C 
HETATM    2  C3  UNL     1     -32.880   6.234   2.648  1.00 20.00    -0.080 C 
HETATM    3  C4  UNL     1     -32.898   4.811   2.158  1.00 20.00     0.043 C 
ENDROOT
BRANCH   2   4
HETATM    4  C8  UNL     1     -33.166   6.446   4.126  1.00 20.00     0.042 C 
BRANCH   4   5
HETATM    5  C9  UNL     1     -34.438   5.769   4.713  1.00 20.00    -0.048 C 
HETATM    6  C5  UNL     1     -35.674   6.063   3.846  1.00 20.00     0.015 C 
HETATM    7  C6  UNL     1     -34.271   4.246   4.847  1.00 20.00     0.015 C 
HETATM    8  C7  UNL     1     -34.679   6.351   6.121  1.00 20.00     0.015 C 
ENDBRANCH   4   5
ENDBRANCH   2   4
BRANCH   1   9
HETATM    9  C2  UNL     1     -32.542   8.688   2.356  1.00 20.00     0.259 C 
HETATM   10  O10 UNL     1     -32.229   9.617   1.619  1.00 20.00    -0.302 OA
ENDBRANCH   1   9
TORSDOF 3
ENDMDL
