MODEL 1
REMARK VINA RESULT:      -6.5      0.000      0.000
REMARK  3 active torsions:
REMARK  status: ('A' for Active; 'I' for Inactive)
REMARK    1  A    between atoms: C3_3  and  C9_9 
REMARK    2  A    between atoms: C8_8  and  C10_10 
REMARK    3  A    between atoms: C9_9  and  C10_10 
ROOT
HETATM    1  C1  UNL     1     -34.406   5.087   5.643  1.00 20.00    -0.026 C 
HETATM    2  C2  UNL     1     -34.165   6.403   5.741  1.00 20.00    -0.025 C 
HETATM    3  C4  UNL     1     -35.396   6.094   3.813  1.00 20.00     0.017 C 
HETATM    4  C5  UNL     1     -33.360   4.943   3.403  1.00 20.00     0.013 C 
HETATM    5  C6  UNL     1     -34.682   4.793   4.187  1.00 20.00     0.009 C 
HETATM    6  C7  UNL     1     -34.265   6.982   4.347  1.00 20.00     0.012 C 
HETATM    7  C8  UNL     1     -33.039   6.465   3.551  1.00 20.00    -0.006 C 
ENDROOT
BRANCH   7   8
HETATM    8  C10 UNL     1     -32.869   7.156   2.202  1.00 20.00     0.012 C 
BRANCH   8   9
HETATM    9  C9  UNL     1     -32.078   8.449   2.337  1.00 20.00     0.070 C 
BRANCH   9  10
HETATM   10  C3  UNL     1     -32.243   9.354   1.141  1.00 20.00     0.231 C 
HETATM   11  O11 UNL     1     -32.629  10.517   1.191  1.00 20.00    -0.307 OA
ENDBRANCH   9  10
ENDBRANCH   8   9
ENDBRANCH   7   8
TORSDOF 3
ENDMDL
MODEL 2
REMARK VINA RESULT:      -5.6      0.955      1.105
REMARK  3 active torsions:
REMARK  status: ('A' for Active; 'I' for Inactive)
REMARK    1  A    between atoms: C3_3  and  C9_9 
REMARK    2  A    between atoms: C8_8  and  C10_10 
REMARK    3  A    between atoms: C9_9  and  C10_10 
ROOT
HETATM    1  C1  UNL     1     -34.299   4.183   4.632  1.00 20.00    -0.026 C 
HETATM    2  C2  UNL     1     -34.356   5.123   5.588  1.00 20.00    -0.025 C 
HETATM    3  C4  UNL     1     -35.303   6.041   3.693  1.00 20.00     0.017 C 
HETATM    4  C5  UNL     1     -33.038   5.657   3.093  1.00 20.00     0.013 C 
HETATM    5  C6  UNL     1     -34.366   4.896   3.302  1.00 20.00     0.009 C 
HETATM    6  C7  UNL     1     -34.446   6.464   4.893  1.00 20.00     0.012 C 
HETATM    7  C8  UNL     1     -33.067   6.726   4.232  1.00 20.00    -0.006 C 
ENDROOT
BRANCH   7   8
HETATM    8  C10 UNL     1     -32.921   8.147   3.699  1.00 20.00     0.012 C 
BRANCH   8   9
HETATM    9  C9  UNL     1     -31.849   8.227   2.622  1.00 20.00     0.070 C 
BRANCH   9  10
HETATM   10  C3  UNL     1     -32.274   9.076   1.448  1.00 20.00     0.231 C 
HETATM   11  O11 UNL     1     -31.704   9.105   0.363  1.00 20.00    -0.307 OA
ENDBRANCH   9  10
ENDBRANCH   8   9
ENDBRANCH   7   8
TORSDOF 3
ENDMDL
MODEL 3
REMARK VINA RESULT:      -5.4      0.977      1.816
REMARK  3 active torsions:
REMARK  status: ('A' for Active; 'I' for Inactive)
REMARK    1  A    between atoms: C3_3  and  C9_9 
REMARK    2  A    between atoms: C8_8  and  C10_10 
REMARK    3  A    between atoms: C9_9  and  C10_10 
ROOT
HETATM    1  C1  UNL     1     -35.311   5.729   4.228  1.00 20.00    -0.026 C 
HETATM    2  C2  UNL     1     -35.185   6.140   2.957  1.00 20.00    -0.025 C 
HETATM    3  C4  UNL     1     -33.166   5.194   3.555  1.00 20.00     0.017 C 
HETATM    4  C5  UNL     1     -33.378   7.081   4.981  1.00 20.00     0.013 C 
HETATM    5  C6  UNL     1     -33.920   5.644   4.809  1.00 20.00     0.009 C 
HETATM    6  C7  UNL     1     -33.708   6.343   2.697  1.00 20.00     0.012 C 
HETATM    7  C8  UNL     1     -33.271   7.591   3.509  1.00 20.00    -0.006 C 
ENDROOT
BRANCH   7   8
HETATM    8  C10 UNL     1     -31.866   8.068   3.160  1.00 20.00     0.012 C 
BRANCH   8   9
HETATM    9  C9  UNL     1     -31.751   8.423   1.685  1.00 20.00     0.070 C 
BRANCH   9  10
HETATM   10  C3  UNL     1     -32.498   9.687   1.335  1.00 20.00     0.231 C 
HETATM   11  O11 UNL     1     -32.860   9.996   0.205  1.00 20.00    -0.307 OA
ENDBRANCH   9  10
ENDBRANCH   8   9
ENDBRANCH   7   8
TORSDOF 3
ENDMDL
MODEL 4
REMARK VINA RESULT:      -4.7     10.987     12.071
REMARK  3 active torsions:
REMARK  status: ('A' for Active; 'I' for Inactive)
REMARK    1  A    between atoms: C3_3  and  C9_9 
REMARK    2  A    between atoms: C8_8  and  C10_10 
REMARK    3  A    between atoms: C9_9  and  C10_10 
ROOT
HETATM    1  C1  UNL     1     -33.877  18.184  -0.496  1.00 20.00    -0.026 C 
HETATM    2  C2  UNL     1     -32.824  18.026  -1.311  1.00 20.00    -0.025 C 
HETATM    3  C4  UNL     1     -34.592  18.704  -2.631  1.00 20.00     0.017 C 
HETATM    4  C5  UNL     1     -35.264  16.589  -1.787  1.00 20.00     0.013 C 
HETATM    5  C6  UNL     1     -35.120  18.063  -1.346  1.00 20.00     0.009 C 
HETATM    6  C7  UNL     1     -33.366  17.785  -2.703  1.00 20.00     0.012 C 
HETATM    7  C8  UNL     1     -34.014  16.375  -2.700  1.00 20.00    -0.006 C 
ENDROOT
BRANCH   7   8
HETATM    8  C10 UNL     1     -34.391  15.888  -4.094  1.00 20.00     0.012 C 
BRANCH   8   9
HETATM    9  C9  UNL     1     -34.476  14.370  -4.147  1.00 20.00     0.070 C 
BRANCH   9  10
HETATM   10  C3  UNL     1     -35.699  13.886  -4.888  1.00 20.00     0.231 C 
HETATM   11  O11 UNL     1     -35.889  12.728  -5.243  1.00 20.00    -0.307 OA
ENDBRANCH   9  10
ENDBRANCH   8   9
ENDBRANCH   7   8
TORSDOF 3
ENDMDL
MODEL 5
REMARK VINA RESULT:      -4.7      2.528      4.516
REMARK  3 active torsions:
REMARK  status: ('A' for Active; 'I' for Inactive)
REMARK    1  A    between atoms: C3_3  and  C9_9 
REMARK    2  A    between atoms: C8_8  and  C10_10 
REMARK    3  A    between atoms: C9_9  and  C10_10 
ROOT
HETATM    1  C1  UNL     1     -32.698   8.358   1.821  1.00 20.00    -0.026 C 
HETATM    2  C2  UNL     1     -31.836   8.625   2.814  1.00 20.00    -0.025 C 
HETATM    3  C4  UNL     1     -32.291   6.364   2.915  1.00 20.00     0.017 C 
HETATM    4  C5  UNL     1     -34.375   7.405   3.374  1.00 20.00     0.013 C 
HETATM    5  C6  UNL     1     -33.429   7.090   2.194  1.00 20.00     0.009 C 
HETATM    6  C7  UNL     1     -32.004   7.540   3.856  1.00 20.00     0.012 C 
HETATM    7  C8  UNL     1     -33.385   7.766   4.527  1.00 20.00    -0.006 C 
ENDROOT
BRANCH   7   8
HETATM    8  C10 UNL     1     -33.595   6.900   5.764  1.00 20.00     0.012 C 
BRANCH   8   9
HETATM    9  C9  UNL     1     -34.789   5.973   5.596  1.00 20.00     0.070 C 
BRANCH   9  10
HETATM   10  C3  UNL     1     -34.378   4.532   5.404  1.00 20.00     0.231 C 
HETATM   11  O11 UNL     1     -34.473   3.913   4.350  1.00 20.00    -0.307 OA
ENDBRANCH   9  10
ENDBRANCH   8   9
ENDBRANCH   7   8
TORSDOF 3
ENDMDL
MODEL 6
REMARK VINA RESULT:      -4.5      2.520      5.133
REMARK  3 active torsions:
REMARK  status: ('A' for Active; 'I' for Inactive)
REMARK    1  A    between atoms: C3_3  and  C9_9 
REMARK    2  A    between atoms: C8_8  and  C10_10 
REMARK    3  A    between atoms: C9_9  and  C10_10 
ROOT
HETATM    1  C1  UNL     1     -32.969  10.192   0.385  1.00 20.00    -0.026 C 
HETATM    2  C2  UNL     1     -32.578  10.417   1.648  1.00 20.00    -0.025 C 
HETATM    3  C4  UNL     1     -31.271   8.693   0.842  1.00 20.00     0.017 C 
HETATM    4  C5  UNL     1     -33.476   7.811   0.841  1.00 20.00     0.013 C 
HETATM    5  C6  UNL     1     -32.572   8.776   0.041  1.00 20.00     0.009 C 
HETATM    6  C7  UNL     1     -31.932   9.143   2.151  1.00 20.00     0.012 C 
HETATM    7  C8  UNL     1     -33.065   8.097   2.321  1.00 20.00    -0.006 C 
ENDROOT
BRANCH   7   8
HETATM    8  C10 UNL     1     -32.610   6.839   3.051  1.00 20.00     0.012 C 
BRANCH   8   9
HETATM    9  C9  UNL     1     -33.581   5.688   2.831  1.00 20.00     0.070 C 
BRANCH   9  10
HETATM   10  C3  UNL     1     -34.357   5.342   4.079  1.00 20.00     0.231 C 
HETATM   11  O11 UNL     1     -34.662   4.204   4.419  1.00 20.00    -0.307 OA
ENDBRANCH   9  10
ENDBRANCH   8   9
ENDBRANCH   7   8
TORSDOF 3
ENDMDL
MODEL 7
REMARK VINA RESULT:      -4.4     11.459     12.095
REMARK  3 active torsions:
REMARK  status: ('A' for Active; 'I' for Inactive)
REMARK    1  A    between atoms: C3_3  and  C9_9 
REMARK    2  A    between atoms: C8_8  and  C10_10 
REMARK    3  A    between atoms: C9_9  and  C10_10 
ROOT
HETATM    1  C1  UNL     1     -35.317  16.838  -1.698  1.00 20.00    -0.026 C 
HETATM    2  C2  UNL     1     -33.985  16.914  -1.830  1.00 20.00    -0.025 C 
HETATM    3  C4  UNL     1     -34.895  17.693  -3.803  1.00 20.00     0.017 C 
HETATM    4  C5  UNL     1     -35.554  15.413  -3.709  1.00 20.00     0.013 C 
HETATM    5  C6  UNL     1     -35.901  16.786  -3.090  1.00 20.00     0.009 C 
HETATM    6  C7  UNL     1     -33.680  16.896  -3.312  1.00 20.00     0.012 C 
HETATM    7  C8  UNL     1     -33.997  15.467  -3.824  1.00 20.00    -0.006 C 
ENDROOT
BRANCH   7   8
HETATM    8  C10 UNL     1     -33.511  15.221  -5.248  1.00 20.00     0.012 C 
BRANCH   8   9
HETATM    9  C9  UNL     1     -34.671  14.915  -6.185  1.00 20.00     0.070 C 
BRANCH   9  10
HETATM   10  C3  UNL     1     -34.516  13.583  -6.879  1.00 20.00     0.231 C 
HETATM   11  O11 UNL     1     -35.051  12.540  -6.518  1.00 20.00    -0.307 OA
ENDBRANCH   9  10
ENDBRANCH   8   9
ENDBRANCH   7   8
TORSDOF 3
ENDMDL
MODEL 8
REMARK VINA RESULT:      -4.3     10.903     12.337
REMARK  3 active torsions:
REMARK  status: ('A' for Active; 'I' for Inactive)
REMARK    1  A    between atoms: C3_3  and  C9_9 
REMARK    2  A    between atoms: C8_8  and  C10_10 
REMARK    3  A    between atoms: C9_9  and  C10_10 
ROOT
HETATM    1  C1  UNL     1     -33.696  16.405  -3.048  1.00 20.00    -0.026 C 
HETATM    2  C2  UNL     1     -35.025  16.297  -2.906  1.00 20.00    -0.025 C 
HETATM    3  C4  UNL     1     -34.309  14.368  -3.950  1.00 20.00     0.017 C 
HETATM    4  C5  UNL     1     -33.815  16.095  -5.502  1.00 20.00     0.013 C 
HETATM    5  C6  UNL     1     -33.294  15.489  -4.180  1.00 20.00     0.009 C 
HETATM    6  C7  UNL     1     -35.511  15.320  -3.954  1.00 20.00     0.012 C 
HETATM    7  C8  UNL     1     -35.366  16.022  -5.330  1.00 20.00    -0.006 C 
ENDROOT
BRANCH   7   8
HETATM    8  C10 UNL     1     -36.040  15.258  -6.464  1.00 20.00     0.012 C 
BRANCH   8   9
HETATM    9  C9  UNL     1     -35.015  14.690  -7.436  1.00 20.00     0.070 C 
BRANCH   9  10
HETATM   10  C3  UNL     1     -35.055  13.182  -7.500  1.00 20.00     0.231 C 
HETATM   11  O11 UNL     1     -35.186  12.443  -6.530  1.00 20.00    -0.307 OA
ENDBRANCH   9  10
ENDBRANCH   8   9
ENDBRANCH   7   8
TORSDOF 3
ENDMDL
MODEL 9
REMARK VINA RESULT:      -4.3     11.096     12.136
REMARK  3 active torsions:
REMARK  status: ('A' for Active; 'I' for Inactive)
REMARK    1  A    between atoms: C3_3  and  C9_9 
REMARK    2  A    between atoms: C8_8  and  C10_10 
REMARK    3  A    between atoms: C9_9  and  C10_10 
ROOT
HETATM    1  C1  UNL     1     -34.329  14.699  -6.205  1.00 20.00    -0.026 C 
HETATM    2  C2  UNL     1     -33.513  15.756  -6.080  1.00 20.00    -0.025 C 
HETATM    3  C4  UNL     1     -33.126  14.397  -4.255  1.00 20.00     0.017 C 
HETATM    4  C5  UNL     1     -35.380  15.100  -3.998  1.00 20.00     0.013 C 
HETATM    5  C6  UNL     1     -34.519  14.117  -4.824  1.00 20.00     0.009 C 
HETATM    6  C7  UNL     1     -33.172  15.887  -4.611  1.00 20.00     0.012 C 
HETATM    7  C8  UNL     1     -34.460  16.358  -3.886  1.00 20.00    -0.006 C 
ENDROOT
BRANCH   7   8
HETATM    8  C10 UNL     1     -34.214  16.769  -2.439  1.00 20.00     0.012 C 
BRANCH   8   9
HETATM    9  C9  UNL     1     -33.145  17.848  -2.343  1.00 20.00     0.070 C 
BRANCH   9  10
HETATM   10  C3  UNL     1     -32.703  18.098  -0.922  1.00 20.00     0.231 C 
HETATM   11  O11 UNL     1     -31.562  18.395  -0.586  1.00 20.00    -0.307 OA
ENDBRANCH   9  10
ENDBRANCH   8   9
ENDBRANCH   7   8
TORSDOF 3
ENDMDL
