MODEL 1
REMARK VINA RESULT:      -4.4      0.000      0.000
REMARK  2 active torsions:
REMARK  status: ('A' for Active; 'I' for Inactive)
REMARK    1  A    between atoms: C6_6  and  C8_8 
REMARK    2  A    between atoms: C7_7  and  C8_8 
ROOT
HETATM    1  C1  UNL     1     -33.711  16.954  -4.794  1.00 20.00     0.075 C 
HETATM    2  C8  UNL     1     -33.734  16.052  -3.618  1.00 20.00     0.186 C 
HETATM    3  N9  UNL     1     -33.694  17.673  -5.704  1.00 20.00    -0.196 NA
ENDROOT
BRANCH   2   4
HETATM    4  C6  UNL     1     -34.057  16.773  -2.353  1.00 20.00    -0.031 A 
HETATM    5  C2  UNL     1     -33.102  17.582  -1.747  1.00 20.00     0.028 A 
HETATM    6  C4  UNL     1     -33.452  18.231  -0.574  1.00 20.00     0.116 A 
HETATM    7  N10 UNL     1     -34.662  18.125   0.018  1.00 20.00    -0.273 NA
HETATM    8  C5  UNL     1     -35.565  17.329  -0.600  1.00 20.00     0.116 A 
HETATM    9  C3  UNL     1     -35.315  16.639  -1.774  1.00 20.00     0.028 A 
ENDBRANCH   2   4
BRANCH   2  10
HETATM   10  C7  UNL     1     -34.673  14.873  -3.853  1.00 20.00     0.255 C 
HETATM   11  O11 UNL     1     -34.322  13.714  -4.048  1.00 20.00    -0.305 OA
ENDBRANCH   2  10
TORSDOF 2
ENDMDL
MODEL 2
REMARK VINA RESULT:      -4.4      2.249      2.969
REMARK  2 active torsions:
REMARK  status: ('A' for Active; 'I' for Inactive)
REMARK    1  A    between atoms: C6_6  and  C8_8 
REMARK    2  A    between atoms: C7_7  and  C8_8 
ROOT
HETATM    1  C1  UNL     1     -35.324  13.854  -5.014  1.00 20.00     0.075 C 
HETATM    2  C8  UNL     1     -34.521  15.077  -4.779  1.00 20.00     0.186 C 
HETATM    3  N9  UNL     1     -35.965  12.903  -5.190  1.00 20.00    -0.196 NA
ENDROOT
BRANCH   2   4
HETATM    4  C6  UNL     1     -35.120  15.961  -3.738  1.00 20.00    -0.031 A 
HETATM    5  C2  UNL     1     -36.393  16.490  -3.920  1.00 20.00     0.028 A 
HETATM    6  C4  UNL     1     -36.905  17.305  -2.923  1.00 20.00     0.116 A 
HETATM    7  N10 UNL     1     -36.244  17.617  -1.787  1.00 20.00    -0.273 NA
HETATM    8  C5  UNL     1     -35.009  17.085  -1.645  1.00 20.00     0.116 A 
HETATM    9  C3  UNL     1     -34.408  16.259  -2.581  1.00 20.00     0.028 A 
ENDBRANCH   2   4
BRANCH   2  10
HETATM   10  C7  UNL     1     -33.073  14.725  -4.457  1.00 20.00     0.255 C 
HETATM   11  O11 UNL     1     -32.658  13.602  -4.189  1.00 20.00    -0.305 OA
ENDBRANCH   2  10
TORSDOF 2
ENDMDL
MODEL 3
REMARK VINA RESULT:      -4.3      2.438      4.574
REMARK  2 active torsions:
REMARK  status: ('A' for Active; 'I' for Inactive)
REMARK    1  A    between atoms: C6_6  and  C8_8 
REMARK    2  A    between atoms: C7_7  and  C8_8 
ROOT
HETATM    1  C1  UNL     1     -34.819  16.657  -1.865  1.00 20.00     0.075 C 
HETATM    2  C8  UNL     1     -34.294  16.097  -3.133  1.00 20.00     0.186 C 
HETATM    3  N9  UNL     1     -35.242  17.086  -0.873  1.00 20.00    -0.196 NA
ENDROOT
BRANCH   2   4
HETATM    4  C6  UNL     1     -35.318  15.304  -3.871  1.00 20.00    -0.031 A 
HETATM    5  C2  UNL     1     -36.636  15.746  -3.931  1.00 20.00     0.028 A 
HETATM    6  C4  UNL     1     -37.548  14.973  -4.630  1.00 20.00     0.116 A 
HETATM    7  N10 UNL     1     -37.238  13.816  -5.256  1.00 20.00    -0.273 NA
HETATM    8  C5  UNL     1     -35.949  13.418  -5.177  1.00 20.00     0.116 A 
HETATM    9  C3  UNL     1     -34.961  14.118  -4.504  1.00 20.00     0.028 A 
ENDBRANCH   2   4
BRANCH   2  10
HETATM   10  C7  UNL     1     -33.691  17.192  -4.005  1.00 20.00     0.255 C 
HETATM   11  O11 UNL     1     -33.296  17.045  -5.157  1.00 20.00    -0.305 OA
ENDBRANCH   2  10
TORSDOF 2
ENDMDL
MODEL 4
REMARK VINA RESULT:      -4.3      1.572      2.365
REMARK  2 active torsions:
REMARK  status: ('A' for Active; 'I' for Inactive)
REMARK    1  A    between atoms: C6_6  and  C8_8 
REMARK    2  A    between atoms: C7_7  and  C8_8 
ROOT
HETATM    1  C1  UNL     1     -33.962  15.208  -5.940  1.00 20.00     0.075 C 
HETATM    2  C8  UNL     1     -34.505  14.648  -4.680  1.00 20.00     0.186 C 
HETATM    3  N9  UNL     1     -33.532  15.660  -6.919  1.00 20.00    -0.196 NA
ENDROOT
BRANCH   2   4
HETATM    4  C6  UNL     1     -34.659  15.682  -3.617  1.00 20.00    -0.031 A 
HETATM    5  C2  UNL     1     -35.928  16.083  -3.211  1.00 20.00     0.028 A 
HETATM    6  C4  UNL     1     -36.017  17.046  -2.219  1.00 20.00     0.116 A 
HETATM    7  N10 UNL     1     -34.949  17.621  -1.623  1.00 20.00    -0.273 NA
HETATM    8  C5  UNL     1     -33.732  17.207  -2.044  1.00 20.00     0.116 A 
HETATM    9  C3  UNL     1     -33.535  16.250  -3.027  1.00 20.00     0.028 A 
ENDBRANCH   2   4
BRANCH   2  10
HETATM   10  C7  UNL     1     -35.809  13.898  -4.933  1.00 20.00     0.255 C 
HETATM   11  O11 UNL     1     -35.900  12.708  -5.215  1.00 20.00    -0.305 OA
ENDBRANCH   2  10
TORSDOF 2
ENDMDL
MODEL 5
REMARK VINA RESULT:      -4.3      3.313      5.241
REMARK  2 active torsions:
REMARK  status: ('A' for Active; 'I' for Inactive)
REMARK    1  A    between atoms: C6_6  and  C8_8 
REMARK    2  A    between atoms: C7_7  and  C8_8 
ROOT
HETATM    1  C1  UNL     1     -31.809  18.893   1.210  1.00 20.00     0.075 C 
HETATM    2  C8  UNL     1     -33.282  18.926   1.054  1.00 20.00     0.186 C 
HETATM    3  N9  UNL     1     -30.654  18.861   1.317  1.00 20.00    -0.196 NA
ENDROOT
BRANCH   2   4
HETATM    4  C6  UNL     1     -33.746  18.167  -0.143  1.00 20.00    -0.031 A 
HETATM    5  C2  UNL     1     -35.024  17.619  -0.171  1.00 20.00     0.028 A 
HETATM    6  C4  UNL     1     -35.406  16.923  -1.306  1.00 20.00     0.116 A 
HETATM    7  N10 UNL     1     -34.615  16.744  -2.386  1.00 20.00    -0.273 NA
HETATM    8  C5  UNL     1     -33.379  17.290  -2.323  1.00 20.00     0.116 A 
HETATM    9  C3  UNL     1     -32.901  18.003  -1.236  1.00 20.00     0.028 A 
ENDBRANCH   2   4
BRANCH   2  10
HETATM   10  C7  UNL     1     -33.976  18.453   2.327  1.00 20.00     0.255 C 
HETATM   11  O11 UNL     1     -33.408  18.068   3.344  1.00 20.00    -0.305 OA
ENDBRANCH   2  10
TORSDOF 2
ENDMDL
MODEL 6
REMARK VINA RESULT:      -4.2      1.946      2.468
REMARK  2 active torsions:
REMARK  status: ('A' for Active; 'I' for Inactive)
REMARK    1  A    between atoms: C6_6  and  C8_8 
REMARK    2  A    between atoms: C7_7  and  C8_8 
ROOT
HETATM    1  C1  UNL     1     -34.485  14.734  -3.941  1.00 20.00     0.075 C 
HETATM    2  C8  UNL     1     -35.394  15.786  -3.428  1.00 20.00     0.186 C 
HETATM    3  N9  UNL     1     -33.763  13.914  -4.331  1.00 20.00    -0.196 NA
ENDROOT
BRANCH   2   4
HETATM    4  C6  UNL     1     -34.759  16.620  -2.367  1.00 20.00    -0.031 A 
HETATM    5  C2  UNL     1     -35.468  16.942  -1.214  1.00 20.00     0.028 A 
HETATM    6  C4  UNL     1     -34.833  17.719  -0.259  1.00 20.00     0.116 A 
HETATM    7  N10 UNL     1     -33.569  18.184  -0.379  1.00 20.00    -0.273 NA
HETATM    8  C5  UNL     1     -32.912  17.851  -1.513  1.00 20.00     0.116 A 
HETATM    9  C3  UNL     1     -33.456  17.080  -2.527  1.00 20.00     0.028 A 
ENDBRANCH   2   4
BRANCH   2  10
HETATM   10  C7  UNL     1     -35.940  16.640  -4.568  1.00 20.00     0.255 C 
HETATM   11  O11 UNL     1     -35.317  16.961  -5.575  1.00 20.00    -0.305 OA
ENDBRANCH   2  10
TORSDOF 2
ENDMDL
MODEL 7
REMARK VINA RESULT:      -4.2      1.635      1.806
REMARK  2 active torsions:
REMARK  status: ('A' for Active; 'I' for Inactive)
REMARK    1  A    between atoms: C6_6  and  C8_8 
REMARK    2  A    between atoms: C7_7  and  C8_8 
ROOT
HETATM    1  C1  UNL     1     -36.315  15.566  -4.073  1.00 20.00     0.075 C 
HETATM    2  C8  UNL     1     -34.878  15.903  -3.939  1.00 20.00     0.186 C 
HETATM    3  N9  UNL     1     -37.443  15.312  -4.166  1.00 20.00    -0.196 NA
ENDROOT
BRANCH   2   4
HETATM    4  C6  UNL     1     -34.579  16.628  -2.670  1.00 20.00    -0.031 A 
HETATM    5  C2  UNL     1     -33.327  17.200  -2.471  1.00 20.00     0.028 A 
HETATM    6  C4  UNL     1     -33.100  17.863  -1.277  1.00 20.00     0.116 A 
HETATM    7  N10 UNL     1     -34.018  17.987  -0.293  1.00 20.00    -0.273 NA
HETATM    8  C5  UNL     1     -35.223  17.417  -0.521  1.00 20.00     0.116 A 
HETATM    9  C3  UNL     1     -35.550  16.734  -1.681  1.00 20.00     0.028 A 
ENDBRANCH   2   4
BRANCH   2  10
HETATM   10  C7  UNL     1     -34.009  14.660  -4.098  1.00 20.00     0.255 C 
HETATM   11  O11 UNL     1     -34.410  13.502  -4.043  1.00 20.00    -0.305 OA
ENDBRANCH   2  10
TORSDOF 2
ENDMDL
MODEL 8
REMARK VINA RESULT:      -4.2      1.934      2.160
REMARK  2 active torsions:
REMARK  status: ('A' for Active; 'I' for Inactive)
REMARK    1  A    between atoms: C6_6  and  C8_8 
REMARK    2  A    between atoms: C7_7  and  C8_8 
ROOT
HETATM    1  C1  UNL     1     -34.694  14.679  -3.920  1.00 20.00     0.075 C 
HETATM    2  C8  UNL     1     -35.477  15.875  -3.529  1.00 20.00     0.186 C 
HETATM    3  N9  UNL     1     -34.072  13.745  -4.214  1.00 20.00    -0.196 NA
ENDROOT
BRANCH   2   4
HETATM    4  C6  UNL     1     -34.821  16.653  -2.438  1.00 20.00    -0.031 A 
HETATM    5  C2  UNL     1     -33.515  17.106  -2.592  1.00 20.00     0.028 A 
HETATM    6  C4  UNL     1     -32.952  17.825  -1.550  1.00 20.00     0.116 A 
HETATM    7  N10 UNL     1     -33.592  18.112  -0.395  1.00 20.00    -0.273 NA
HETATM    8  C5  UNL     1     -34.859  17.654  -0.281  1.00 20.00     0.116 A 
HETATM    9  C3  UNL     1     -35.513  16.928  -1.263  1.00 20.00     0.028 A 
ENDBRANCH   2   4
BRANCH   2  10
HETATM   10  C7  UNL     1     -35.783  16.748  -4.741  1.00 20.00     0.255 C 
HETATM   11  O11 UNL     1     -35.369  16.553  -5.879  1.00 20.00    -0.305 OA
ENDBRANCH   2  10
TORSDOF 2
ENDMDL
MODEL 9
REMARK VINA RESULT:      -4.2      2.574      3.930
REMARK  2 active torsions:
REMARK  status: ('A' for Active; 'I' for Inactive)
REMARK    1  A    between atoms: C6_6  and  C8_8 
REMARK    2  A    between atoms: C7_7  and  C8_8 
ROOT
HETATM    1  C1  UNL     1     -35.498  13.296  -5.838  1.00 20.00     0.075 C 
HETATM    2  C8  UNL     1     -35.960  14.220  -4.776  1.00 20.00     0.186 C 
HETATM    3  N9  UNL     1     -35.123  12.580  -6.670  1.00 20.00    -0.196 NA
ENDROOT
BRANCH   2   4
HETATM    4  C6  UNL     1     -35.041  15.380  -4.591  1.00 20.00    -0.031 A 
HETATM    5  C2  UNL     1     -34.633  16.130  -5.689  1.00 20.00     0.028 A 
HETATM    6  C4  UNL     1     -33.779  17.197  -5.464  1.00 20.00     0.116 A 
HETATM    7  N10 UNL     1     -33.318  17.554  -4.245  1.00 20.00    -0.273 NA
HETATM    8  C5  UNL     1     -33.735  16.802  -3.201  1.00 20.00     0.116 A 
HETATM    9  C3  UNL     1     -34.587  15.716  -3.320  1.00 20.00     0.028 A 
ENDBRANCH   2   4
BRANCH   2  10
HETATM   10  C7  UNL     1     -37.394  14.671  -5.029  1.00 20.00     0.255 C 
HETATM   11  O11 UNL     1     -38.390  13.962  -4.923  1.00 20.00    -0.305 OA
ENDBRANCH   2  10
TORSDOF 2
ENDMDL
