MODEL 1
REMARK VINA RESULT:      -5.9      0.000      0.000
REMARK  4 active torsions:
REMARK  status: ('A' for Active; 'I' for Inactive)
REMARK    1  A    between atoms: C1_1  and  C7_7 
REMARK    2  A    between atoms: C2_2  and  C9_9 
REMARK    3  A    between atoms: C9_9  and  C11_11 
REMARK    4  A    between atoms: C10_10  and  C11_11 
ROOT
HETATM    1  C3  UNL     1     -34.793   4.523   4.462  1.00 20.00     0.006 C 
HETATM    2  C4  UNL     1     -34.432   4.874   5.901  1.00 20.00     0.026 C 
HETATM    3  C5  UNL     1     -33.950   5.336   3.484  1.00 20.00     0.045 C 
HETATM    4  C6  UNL     1     -34.463   6.382   6.112  1.00 20.00     0.169 C 
HETATM    5  C7  UNL     1     -34.012   6.827   3.823  1.00 20.00     0.200 C 
HETATM    6  O12 UNL     1     -33.607   7.040   5.179  1.00 20.00    -0.374 OA
ENDROOT
BRANCH   5   7
HETATM    7  C1  UNL     1     -33.125   7.594   2.940  1.00 20.00    -0.074 C 
HETATM    8  C2  UNL     1     -32.398   8.221   2.218  1.00 20.00    -0.104 C 
BRANCH   8   9
HETATM    9  C9  UNL     1     -31.510   8.991   1.335  1.00 20.00     0.094 C 
BRANCH   9  10
HETATM   10  C11 UNL     1     -32.227  10.214   0.765  1.00 20.00     0.012 C 
BRANCH  10  11
HETATM   11  C10 UNL     1     -33.276   9.811  -0.272  1.00 20.00    -0.004 C 
HETATM   12  C8  UNL     1     -32.753   8.728  -1.201  1.00 20.00     0.005 C 
ENDBRANCH  10  11
ENDBRANCH   9  10
ENDBRANCH   8   9
ENDBRANCH   5   7
TORSDOF 4
ENDMDL
MODEL 2
REMARK VINA RESULT:      -5.9      1.005      1.527
REMARK  4 active torsions:
REMARK  status: ('A' for Active; 'I' for Inactive)
REMARK    1  A    between atoms: C1_1  and  C7_7 
REMARK    2  A    between atoms: C2_2  and  C9_9 
REMARK    3  A    between atoms: C9_9  and  C11_11 
REMARK    4  A    between atoms: C10_10  and  C11_11 
ROOT
HETATM    1  C3  UNL     1     -34.426   5.948   5.937  1.00 20.00     0.006 C 
HETATM    2  C4  UNL     1     -35.072   4.825   5.133  1.00 20.00     0.026 C 
HETATM    3  C5  UNL     1     -33.862   7.018   5.007  1.00 20.00     0.045 C 
HETATM    4  C6  UNL     1     -34.121   4.317   4.057  1.00 20.00     0.169 C 
HETATM    5  C7  UNL     1     -32.967   6.389   3.936  1.00 20.00     0.200 C 
HETATM    6  O12 UNL     1     -33.691   5.387   3.216  1.00 20.00    -0.374 OA
ENDROOT
BRANCH   5   7
HETATM    7  C1  UNL     1     -32.504   7.409   2.987  1.00 20.00    -0.074 C 
HETATM    8  C2  UNL     1     -32.126   8.243   2.210  1.00 20.00    -0.104 C 
BRANCH   8   9
HETATM    9  C9  UNL     1     -31.659   9.263   1.260  1.00 20.00     0.094 C 
BRANCH   9  10
HETATM   10  C11 UNL     1     -32.771  10.259   0.932  1.00 20.00     0.012 C 
BRANCH  10  11
HETATM   11  C10 UNL     1     -33.457   9.913  -0.390  1.00 20.00    -0.004 C 
HETATM   12  C8  UNL     1     -32.758   8.762  -1.095  1.00 20.00     0.005 C 
ENDBRANCH  10  11
ENDBRANCH   9  10
ENDBRANCH   8   9
ENDBRANCH   5   7
TORSDOF 4
ENDMDL
MODEL 3
REMARK VINA RESULT:      -4.8      1.537      5.589
REMARK  4 active torsions:
REMARK  status: ('A' for Active; 'I' for Inactive)
REMARK    1  A    between atoms: C1_1  and  C7_7 
REMARK    2  A    between atoms: C2_2  and  C9_9 
REMARK    3  A    between atoms: C9_9  and  C11_11 
REMARK    4  A    between atoms: C10_10  and  C11_11 
ROOT
HETATM    1  C3  UNL     1     -31.386   8.489   0.335  1.00 20.00     0.006 C 
HETATM    2  C4  UNL     1     -32.415   9.529  -0.092  1.00 20.00     0.026 C 
HETATM    3  C5  UNL     1     -31.838   7.779   1.607  1.00 20.00     0.045 C 
HETATM    4  C6  UNL     1     -32.772  10.444   1.072  1.00 20.00     0.169 C 
HETATM    5  C7  UNL     1     -32.223   8.792   2.688  1.00 20.00     0.200 C 
HETATM    6  O12 UNL     1     -33.226   9.683   2.191  1.00 20.00    -0.374 OA
ENDROOT
BRANCH   5   7
HETATM    7  C1  UNL     1     -32.748   8.106   3.875  1.00 20.00    -0.074 C 
HETATM    8  C2  UNL     1     -33.178   7.546   4.846  1.00 20.00    -0.104 C 
BRANCH   8   9
HETATM    9  C9  UNL     1     -33.702   6.861   6.037  1.00 20.00     0.094 C 
BRANCH   9  10
HETATM   10  C11 UNL     1     -34.811   5.878   5.663  1.00 20.00     0.012 C 
BRANCH  10  11
HETATM   11  C10 UNL     1     -34.649   5.375   4.228  1.00 20.00    -0.004 C 
HETATM   12  C8  UNL     1     -34.096   3.959   4.195  1.00 20.00     0.005 C 
ENDBRANCH  10  11
ENDBRANCH   9  10
ENDBRANCH   8   9
ENDBRANCH   5   7
TORSDOF 4
ENDMDL
MODEL 4
REMARK VINA RESULT:      -4.5     10.944     12.031
REMARK  4 active torsions:
REMARK  status: ('A' for Active; 'I' for Inactive)
REMARK    1  A    between atoms: C1_1  and  C7_7 
REMARK    2  A    between atoms: C2_2  and  C9_9 
REMARK    3  A    between atoms: C9_9  and  C11_11 
REMARK    4  A    between atoms: C10_10  and  C11_11 
ROOT
HETATM    1  C3  UNL     1     -35.011  14.100  -5.125  1.00 20.00     0.006 C 
HETATM    2  C4  UNL     1     -34.623  14.872  -6.381  1.00 20.00     0.026 C 
HETATM    3  C5  UNL     1     -34.944  15.004  -3.898  1.00 20.00     0.045 C 
HETATM    4  C6  UNL     1     -33.300  15.598  -6.180  1.00 20.00     0.169 C 
HETATM    5  C7  UNL     1     -33.594  15.723  -3.826  1.00 20.00     0.200 C 
HETATM    6  O12 UNL     1     -33.359  16.450  -5.036  1.00 20.00    -0.374 OA
ENDROOT
BRANCH   5   7
HETATM    7  C1  UNL     1     -33.569  16.662  -2.699  1.00 20.00    -0.074 C 
HETATM    8  C2  UNL     1     -33.549  17.431  -1.776  1.00 20.00    -0.104 C 
BRANCH   8   9
HETATM    9  C9  UNL     1     -33.527  18.373  -0.648  1.00 20.00     0.094 C 
BRANCH   9  10
HETATM   10  C11 UNL     1     -32.103  18.581  -0.133  1.00 20.00     0.012 C 
BRANCH  10  11
HETATM   11  C10 UNL     1     -32.091  18.886   1.365  1.00 20.00    -0.004 C 
HETATM   12  C8  UNL     1     -30.685  18.813   1.937  1.00 20.00     0.005 C 
ENDBRANCH  10  11
ENDBRANCH   9  10
ENDBRANCH   8   9
ENDBRANCH   5   7
TORSDOF 4
ENDMDL
MODEL 5
REMARK VINA RESULT:      -4.4     10.476     11.495
REMARK  4 active torsions:
REMARK  status: ('A' for Active; 'I' for Inactive)
REMARK    1  A    between atoms: C1_1  and  C7_7 
REMARK    2  A    between atoms: C2_2  and  C9_9 
REMARK    3  A    between atoms: C9_9  and  C11_11 
REMARK    4  A    between atoms: C10_10  and  C11_11 
ROOT
HETATM    1  C3  UNL     1     -33.222  19.103   2.166  1.00 20.00     0.006 C 
HETATM    2  C4  UNL     1     -31.769  18.782   2.498  1.00 20.00     0.026 C 
HETATM    3  C5  UNL     1     -33.638  18.424   0.865  1.00 20.00     0.045 C 
HETATM    4  C6  UNL     1     -30.869  19.061   1.301  1.00 20.00     0.169 C 
HETATM    5  C7  UNL     1     -32.636  18.728  -0.251  1.00 20.00     0.200 C 
HETATM    6  O12 UNL     1     -31.319  18.342   0.153  1.00 20.00    -0.374 OA
ENDROOT
BRANCH   5   7
HETATM    7  C1  UNL     1     -32.988  17.996  -1.473  1.00 20.00    -0.074 C 
HETATM    8  C2  UNL     1     -33.276  17.397  -2.475  1.00 20.00    -0.104 C 
BRANCH   8   9
HETATM    9  C9  UNL     1     -33.631  16.665  -3.698  1.00 20.00     0.094 C 
BRANCH   9  10
HETATM   10  C11 UNL     1     -34.682  15.593  -3.412  1.00 20.00     0.012 C 
BRANCH  10  11
HETATM   11  C10 UNL     1     -34.382  14.301  -4.172  1.00 20.00    -0.004 C 
HETATM   12  C8  UNL     1     -35.616  13.777  -4.889  1.00 20.00     0.005 C 
ENDBRANCH  10  11
ENDBRANCH   9  10
ENDBRANCH   8   9
ENDBRANCH   5   7
TORSDOF 4
ENDMDL
MODEL 6
REMARK VINA RESULT:      -4.4     10.939     11.810
REMARK  4 active torsions:
REMARK  status: ('A' for Active; 'I' for Inactive)
REMARK    1  A    between atoms: C1_1  and  C7_7 
REMARK    2  A    between atoms: C2_2  and  C9_9 
REMARK    3  A    between atoms: C9_9  and  C11_11 
REMARK    4  A    between atoms: C10_10  and  C11_11 
ROOT
HETATM    1  C3  UNL     1     -35.905  13.265  -5.633  1.00 20.00     0.006 C 
HETATM    2  C4  UNL     1     -35.521  13.812  -7.003  1.00 20.00     0.026 C 
HETATM    3  C5  UNL     1     -35.557  14.269  -4.538  1.00 20.00     0.045 C 
HETATM    4  C6  UNL     1     -34.078  14.300  -7.003  1.00 20.00     0.169 C 
HETATM    5  C7  UNL     1     -34.103  14.730  -4.667  1.00 20.00     0.200 C 
HETATM    6  O12 UNL     1     -33.872  15.266  -5.973  1.00 20.00    -0.374 OA
ENDROOT
BRANCH   5   7
HETATM    7  C1  UNL     1     -33.800  15.765  -3.672  1.00 20.00    -0.074 C 
HETATM    8  C2  UNL     1     -33.553  16.612  -2.856  1.00 20.00    -0.104 C 
BRANCH   8   9
HETATM    9  C9  UNL     1     -33.252  17.651  -1.861  1.00 20.00     0.094 C 
BRANCH   9  10
HETATM   10  C11 UNL     1     -34.296  17.661  -0.744  1.00 20.00     0.012 C 
BRANCH  10  11
HETATM   11  C10 UNL     1     -33.790  18.420   0.483  1.00 20.00    -0.004 C 
HETATM   12  C8  UNL     1     -32.337  18.836   0.321  1.00 20.00     0.005 C 
ENDBRANCH  10  11
ENDBRANCH   9  10
ENDBRANCH   8   9
ENDBRANCH   5   7
TORSDOF 4
ENDMDL
MODEL 7
REMARK VINA RESULT:      -4.4     10.601     11.286
REMARK  4 active torsions:
REMARK  status: ('A' for Active; 'I' for Inactive)
REMARK    1  A    between atoms: C1_1  and  C7_7 
REMARK    2  A    between atoms: C2_2  and  C9_9 
REMARK    3  A    between atoms: C9_9  and  C11_11 
REMARK    4  A    between atoms: C10_10  and  C11_11 
ROOT
HETATM    1  C3  UNL     1     -35.099  18.227   0.188  1.00 20.00     0.006 C 
HETATM    2  C4  UNL     1     -33.651  18.493   0.581  1.00 20.00     0.026 C 
HETATM    3  C5  UNL     1     -35.178  17.098  -0.836  1.00 20.00     0.045 C 
HETATM    4  C6  UNL     1     -32.782  18.675  -0.657  1.00 20.00     0.169 C 
HETATM    5  C7  UNL     1     -34.227  17.358  -2.006  1.00 20.00     0.200 C 
HETATM    6  O12 UNL     1     -32.893  17.546  -1.522  1.00 20.00    -0.374 OA
ENDROOT
BRANCH   5   7
HETATM    7  C1  UNL     1     -34.235  16.226  -2.939  1.00 20.00    -0.074 C 
HETATM    8  C2  UNL     1     -34.243  15.298  -3.703  1.00 20.00    -0.104 C 
BRANCH   8   9
HETATM    9  C9  UNL     1     -34.248  14.163  -4.637  1.00 20.00     0.094 C 
BRANCH   9  10
HETATM   10  C11 UNL     1     -35.676  13.755  -4.998  1.00 20.00     0.012 C 
BRANCH  10  11
HETATM   11  C10 UNL     1     -35.854  13.632  -6.511  1.00 20.00    -0.004 C 
HETATM   12  C8  UNL     1     -34.514  13.537  -7.223  1.00 20.00     0.005 C 
ENDBRANCH  10  11
ENDBRANCH   9  10
ENDBRANCH   8   9
ENDBRANCH   5   7
TORSDOF 4
ENDMDL
MODEL 8
REMARK VINA RESULT:      -4.4      1.337      5.714
REMARK  4 active torsions:
REMARK  status: ('A' for Active; 'I' for Inactive)
REMARK    1  A    between atoms: C1_1  and  C7_7 
REMARK    2  A    between atoms: C2_2  and  C9_9 
REMARK    3  A    between atoms: C9_9  and  C11_11 
REMARK    4  A    between atoms: C10_10  and  C11_11 
ROOT
HETATM    1  C3  UNL     1     -32.786   9.533  -0.093  1.00 20.00     0.006 C 
HETATM    2  C4  UNL     1     -32.691  10.630   0.961  1.00 20.00     0.026 C 
HETATM    3  C5  UNL     1     -33.254   8.224   0.536  1.00 20.00     0.045 C 
HETATM    4  C6  UNL     1     -31.879  10.157   2.159  1.00 20.00     0.169 C 
HETATM    5  C7  UNL     1     -32.404   7.875   1.760  1.00 20.00     0.200 C 
HETATM    6  O12 UNL     1     -32.428   8.955   2.699  1.00 20.00    -0.374 OA
ENDROOT
BRANCH   5   7
HETATM    7  C1  UNL     1     -32.917   6.667   2.417  1.00 20.00    -0.074 C 
HETATM    8  C2  UNL     1     -33.337   5.678   2.954  1.00 20.00    -0.104 C 
BRANCH   8   9
HETATM    9  C9  UNL     1     -33.854   4.470   3.612  1.00 20.00     0.094 C 
BRANCH   9  10
HETATM   10  C11 UNL     1     -34.992   4.811   4.574  1.00 20.00     0.012 C 
BRANCH  10  11
HETATM   11  C10 UNL     1     -34.455   5.281   5.926  1.00 20.00    -0.004 C 
HETATM   12  C8  UNL     1     -34.134   6.767   5.911  1.00 20.00     0.005 C 
ENDBRANCH  10  11
ENDBRANCH   9  10
ENDBRANCH   8   9
ENDBRANCH   5   7
TORSDOF 4
ENDMDL
MODEL 9
REMARK VINA RESULT:      -4.4     10.892     11.766
REMARK  4 active torsions:
REMARK  status: ('A' for Active; 'I' for Inactive)
REMARK    1  A    between atoms: C1_1  and  C7_7 
REMARK    2  A    between atoms: C2_2  and  C9_9 
REMARK    3  A    between atoms: C9_9  and  C11_11 
REMARK    4  A    between atoms: C10_10  and  C11_11 
ROOT
HETATM    1  C3  UNL     1     -35.960  13.277  -5.514  1.00 20.00     0.006 C 
HETATM    2  C4  UNL     1     -35.578  13.678  -6.935  1.00 20.00     0.026 C 
HETATM    3  C5  UNL     1     -35.598  14.384  -4.529  1.00 20.00     0.045 C 
HETATM    4  C6  UNL     1     -34.132  14.151  -6.991  1.00 20.00     0.169 C 
HETATM    5  C7  UNL     1     -34.141  14.817  -4.711  1.00 20.00     0.200 C 
HETATM    6  O12 UNL     1     -33.912  15.216  -6.066  1.00 20.00    -0.374 OA
ENDROOT
BRANCH   5   7
HETATM    7  C1  UNL     1     -33.824  15.946  -3.828  1.00 20.00    -0.074 C 
HETATM    8  C2  UNL     1     -33.565  16.869  -3.104  1.00 20.00    -0.104 C 
BRANCH   8   9
HETATM    9  C9  UNL     1     -33.251  17.999  -2.218  1.00 20.00     0.094 C 
BRANCH   9  10
HETATM   10  C11 UNL     1     -33.711  17.721  -0.787  1.00 20.00     0.012 C 
BRANCH  10  11
HETATM   11  C10 UNL     1     -35.186  17.321  -0.745  1.00 20.00    -0.004 C 
HETATM   12  C8  UNL     1     -35.790  17.569   0.628  1.00 20.00     0.005 C 
ENDBRANCH  10  11
ENDBRANCH   9  10
ENDBRANCH   8   9
ENDBRANCH   5   7
TORSDOF 4
ENDMDL
