MODEL 1
REMARK VINA RESULT:      -4.1      0.000      0.000
REMARK  2 active torsions:
REMARK  status: ('A' for Active; 'I' for Inactive)
REMARK    1  A    between atoms: C4_4  and  C5_5 
REMARK    2  A    between atoms: C4_4  and  N6_6 
ROOT
HETATM    1  C1  UNL     1     -34.304   4.320   4.662  1.00 20.00     0.016 C 
HETATM    2  C2  UNL     1     -35.656   6.140   3.607  1.00 20.00     0.016 C 
HETATM    3  C3  UNL     1     -34.023   6.699   5.417  1.00 20.00     0.016 C 
HETATM    4  C5  UNL     1     -34.282   5.788   4.205  1.00 20.00    -0.036 C 
ENDROOT
BRANCH   4   5
HETATM    5  C4  UNL     1     -33.207   6.006   3.119  1.00 20.00     0.154 C 
BRANCH   5   6
HETATM    6  N6  UNL     1     -32.611   7.341   3.226  1.00 20.00    -0.063 NA
HETATM    7  O7  UNL     1     -32.623   7.961   2.150  1.00 20.00    -0.101 OA
ENDBRANCH   5   6
ENDBRANCH   4   5
TORSDOF 2
ENDMDL
MODEL 2
REMARK VINA RESULT:      -4.1      0.548      1.702
REMARK  2 active torsions:
REMARK  status: ('A' for Active; 'I' for Inactive)
REMARK    1  A    between atoms: C4_4  and  C5_5 
REMARK    2  A    between atoms: C4_4  and  N6_6 
ROOT
HETATM    1  C1  UNL     1     -34.093   6.526   5.534  1.00 20.00     0.016 C 
HETATM    2  C2  UNL     1     -34.274   4.249   4.516  1.00 20.00     0.016 C 
HETATM    3  C3  UNL     1     -35.649   6.128   3.604  1.00 20.00     0.016 C 
HETATM    4  C5  UNL     1     -34.288   5.758   4.216  1.00 20.00    -0.036 C 
ENDROOT
BRANCH   4   5
HETATM    5  C4  UNL     1     -33.143   6.070   3.229  1.00 20.00     0.154 C 
BRANCH   5   6
HETATM    6  N6  UNL     1     -32.980   7.515   3.048  1.00 20.00    -0.063 NA
HETATM    7  O7  UNL     1     -31.809   7.892   3.217  1.00 20.00    -0.101 OA
ENDBRANCH   5   6
ENDBRANCH   4   5
TORSDOF 2
ENDMDL
MODEL 3
REMARK VINA RESULT:      -4.1      0.051      1.649
REMARK  2 active torsions:
REMARK  status: ('A' for Active; 'I' for Inactive)
REMARK    1  A    between atoms: C4_4  and  C5_5 
REMARK    2  A    between atoms: C4_4  and  N6_6 
ROOT
HETATM    1  C1  UNL     1     -35.671   6.130   3.622  1.00 20.00     0.016 C 
HETATM    2  C2  UNL     1     -34.013   6.629   5.426  1.00 20.00     0.016 C 
HETATM    3  C3  UNL     1     -34.300   4.279   4.622  1.00 20.00     0.016 C 
HETATM    4  C5  UNL     1     -34.293   5.755   4.191  1.00 20.00    -0.036 C 
ENDROOT
BRANCH   4   5
HETATM    5  C4  UNL     1     -33.184   6.014   3.149  1.00 20.00     0.154 C 
BRANCH   5   6
HETATM    6  N6  UNL     1     -32.648   7.372   3.273  1.00 20.00    -0.063 NA
HETATM    7  O7  UNL     1     -32.614   7.977   2.190  1.00 20.00    -0.101 OA
ENDBRANCH   5   6
ENDBRANCH   4   5
TORSDOF 2
ENDMDL
MODEL 4
REMARK VINA RESULT:      -4.0      1.028      1.281
REMARK  2 active torsions:
REMARK  status: ('A' for Active; 'I' for Inactive)
REMARK    1  A    between atoms: C4_4  and  C5_5 
REMARK    2  A    between atoms: C4_4  and  N6_6 
ROOT
HETATM    1  C1  UNL     1     -33.460   4.837   3.318  1.00 20.00     0.016 C 
HETATM    2  C2  UNL     1     -35.612   6.086   3.570  1.00 20.00     0.016 C 
HETATM    3  C3  UNL     1     -34.499   5.114   5.587  1.00 20.00     0.016 C 
HETATM    4  C5  UNL     1     -34.253   5.790   4.228  1.00 20.00    -0.036 C 
ENDROOT
BRANCH   4   5
HETATM    5  C4  UNL     1     -33.499   7.124   4.411  1.00 20.00     0.154 C 
BRANCH   5   6
HETATM    6  N6  UNL     1     -32.633   7.404   3.262  1.00 20.00    -0.063 NA
HETATM    7  O7  UNL     1     -31.661   8.119   3.554  1.00 20.00    -0.101 OA
ENDBRANCH   5   6
ENDBRANCH   4   5
TORSDOF 2
ENDMDL
MODEL 5
REMARK VINA RESULT:      -3.5     11.629     12.285
REMARK  2 active torsions:
REMARK  status: ('A' for Active; 'I' for Inactive)
REMARK    1  A    between atoms: C4_4  and  C5_5 
REMARK    2  A    between atoms: C4_4  and  N6_6 
ROOT
HETATM    1  C1  UNL     1     -33.555  16.434  -5.549  1.00 20.00     0.016 C 
HETATM    2  C2  UNL     1     -32.776  14.419  -4.289  1.00 20.00     0.016 C 
HETATM    3  C3  UNL     1     -33.864  16.305  -3.060  1.00 20.00     0.016 C 
HETATM    4  C5  UNL     1     -33.870  15.499  -4.370  1.00 20.00    -0.036 C 
ENDROOT
BRANCH   4   5
HETATM    5  C4  UNL     1     -35.230  14.800  -4.574  1.00 20.00     0.154 C 
BRANCH   5   6
HETATM    6  N6  UNL     1     -35.078  13.343  -4.604  1.00 20.00    -0.063 NA
HETATM    7  O7  UNL     1     -35.960  12.781  -5.274  1.00 20.00    -0.101 OA
ENDBRANCH   5   6
ENDBRANCH   4   5
TORSDOF 2
ENDMDL
MODEL 6
REMARK VINA RESULT:      -3.4      2.111      2.459
REMARK  2 active torsions:
REMARK  status: ('A' for Active; 'I' for Inactive)
REMARK    1  A    between atoms: C4_4  and  C5_5 
REMARK    2  A    between atoms: C4_4  and  N6_6 
ROOT
HETATM    1  C1  UNL     1     -33.376   5.099   2.714  1.00 20.00     0.016 C 
HETATM    2  C2  UNL     1     -35.585   6.097   3.329  1.00 20.00     0.016 C 
HETATM    3  C3  UNL     1     -34.456   4.518   4.905  1.00 20.00     0.016 C 
HETATM    4  C5  UNL     1     -34.222   5.639   3.878  1.00 20.00    -0.036 C 
ENDROOT
BRANCH   4   5
HETATM    5  C4  UNL     1     -33.531   6.849   4.541  1.00 20.00     0.154 C 
BRANCH   5   6
HETATM    6  N6  UNL     1     -33.982   7.024   5.924  1.00 20.00    -0.063 NA
HETATM    7  O7  UNL     1     -33.408   7.961   6.503  1.00 20.00    -0.101 OA
ENDBRANCH   5   6
ENDBRANCH   4   5
TORSDOF 2
ENDMDL
MODEL 7
REMARK VINA RESULT:      -3.4     11.647     12.311
REMARK  2 active torsions:
REMARK  status: ('A' for Active; 'I' for Inactive)
REMARK    1  A    between atoms: C4_4  and  C5_5 
REMARK    2  A    between atoms: C4_4  and  N6_6 
ROOT
HETATM    1  C1  UNL     1     -35.082  16.138  -5.577  1.00 20.00     0.016 C 
HETATM    2  C2  UNL     1     -34.898  15.978  -3.088  1.00 20.00     0.016 C 
HETATM    3  C3  UNL     1     -37.006  15.259  -4.224  1.00 20.00     0.016 C 
HETATM    4  C5  UNL     1     -35.474  15.304  -4.346  1.00 20.00    -0.036 C 
ENDROOT
BRANCH   4   5
HETATM    5  C4  UNL     1     -34.893  13.878  -4.445  1.00 20.00     0.154 C 
BRANCH   5   6
HETATM    6  N6  UNL     1     -35.814  12.979  -5.145  1.00 20.00    -0.063 NA
HETATM    7  O7  UNL     1     -35.369  12.590  -6.237  1.00 20.00    -0.101 OA
ENDBRANCH   5   6
ENDBRANCH   4   5
TORSDOF 2
ENDMDL
MODEL 8
REMARK VINA RESULT:      -3.3      3.678      4.787
REMARK  2 active torsions:
REMARK  status: ('A' for Active; 'I' for Inactive)
REMARK    1  A    between atoms: C4_4  and  C5_5 
REMARK    2  A    between atoms: C4_4  and  N6_6 
ROOT
HETATM    1  C1  UNL     1     -33.294   9.235  -0.466  1.00 20.00     0.016 C 
HETATM    2  C2  UNL     1     -31.078   8.809   0.613  1.00 20.00     0.016 C 
HETATM    3  C3  UNL     1     -32.491  10.719   1.394  1.00 20.00     0.016 C 
HETATM    4  C5  UNL     1     -32.523   9.276   0.864  1.00 20.00    -0.036 C 
ENDROOT
BRANCH   4   5
HETATM    5  C4  UNL     1     -33.169   8.330   1.899  1.00 20.00     0.154 C 
BRANCH   5   6
HETATM    6  N6  UNL     1     -32.152   7.699   2.745  1.00 20.00    -0.063 NA
HETATM    7  O7  UNL     1     -32.493   7.632   3.938  1.00 20.00    -0.101 OA
ENDBRANCH   5   6
ENDBRANCH   4   5
TORSDOF 2
ENDMDL
MODEL 9
REMARK VINA RESULT:      -3.3     11.820     12.452
REMARK  2 active torsions:
REMARK  status: ('A' for Active; 'I' for Inactive)
REMARK    1  A    between atoms: C4_4  and  C5_5 
REMARK    2  A    between atoms: C4_4  and  N6_6 
ROOT
HETATM    1  C1  UNL     1     -35.682  16.172  -3.451  1.00 20.00     0.016 C 
HETATM    2  C2  UNL     1     -37.488  14.896  -4.620  1.00 20.00     0.016 C 
HETATM    3  C3  UNL     1     -35.708  16.035  -5.958  1.00 20.00     0.016 C 
HETATM    4  C5  UNL     1     -35.995  15.269  -4.655  1.00 20.00    -0.036 C 
ENDROOT
BRANCH   4   5
HETATM    5  C4  UNL     1     -35.166  13.969  -4.594  1.00 20.00     0.154 C 
BRANCH   5   6
HETATM    6  N6  UNL     1     -35.857  12.868  -5.271  1.00 20.00    -0.063 NA
HETATM    7  O7  UNL     1     -35.267  12.487  -6.295  1.00 20.00    -0.101 OA
ENDBRANCH   5   6
ENDBRANCH   4   5
TORSDOF 2
ENDMDL
