MODEL 1
REMARK VINA RESULT:      -5.2      0.000      0.000
REMARK  2 active torsions:
REMARK  status: ('A' for Active; 'I' for Inactive)
REMARK    1  A    between atoms: C6_6  and  O8_8 
REMARK    2  A    between atoms: N7_7  and  O8_8 
ROOT
HETATM    1  C1  UNL     1     -32.583  10.197   0.820  1.00 20.00     0.014 C 
HETATM    2  C2  UNL     1     -32.368   9.213   1.473  1.00 20.00    -0.089 C 
HETATM    3  C6  UNL     1     -32.104   8.013   2.268  1.00 20.00     0.296 C 
ENDROOT
BRANCH   3   4
HETATM    4  O8  UNL     1     -32.992   7.944   3.374  1.00 20.00    -0.244 OA
BRANCH   4   5
HETATM    5  N7  UNL     1     -33.618   6.692   3.352  1.00 20.00    -0.143 NA
HETATM    6  C3  UNL     1     -34.011   6.348   4.539  1.00 20.00     0.032 C 
HETATM    7  C4  UNL     1     -34.722   5.054   4.855  1.00 20.00     0.067 C 
HETATM    8  C5  UNL     1     -33.743   7.290   5.683  1.00 20.00     0.067 C 
ENDBRANCH   4   5
ENDBRANCH   3   4
TORSDOF 2
ENDMDL
MODEL 2
REMARK VINA RESULT:      -5.1      0.986      1.423
REMARK  2 active torsions:
REMARK  status: ('A' for Active; 'I' for Inactive)
REMARK    1  A    between atoms: C6_6  and  O8_8 
REMARK    2  A    between atoms: N7_7  and  O8_8 
ROOT
HETATM    1  C1  UNL     1     -32.916   9.803   0.066  1.00 20.00     0.014 C 
HETATM    2  C2  UNL     1     -32.420   9.143   0.937  1.00 20.00    -0.089 C 
HETATM    3  C6  UNL     1     -31.814   8.340   1.999  1.00 20.00     0.296 C 
ENDROOT
BRANCH   3   4
HETATM    4  O8  UNL     1     -32.749   7.401   2.509  1.00 20.00    -0.244 OA
BRANCH   4   5
HETATM    5  N7  UNL     1     -32.801   7.550   3.900  1.00 20.00    -0.143 NA
HETATM    6  C3  UNL     1     -33.760   6.838   4.408  1.00 20.00     0.032 C 
HETATM    7  C4  UNL     1     -34.080   6.777   5.881  1.00 20.00     0.067 C 
HETATM    8  C5  UNL     1     -34.614   6.020   3.476  1.00 20.00     0.067 C 
ENDBRANCH   4   5
ENDBRANCH   3   4
TORSDOF 2
ENDMDL
MODEL 3
REMARK VINA RESULT:      -4.6      1.269      4.512
REMARK  2 active torsions:
REMARK  status: ('A' for Active; 'I' for Inactive)
REMARK    1  A    between atoms: C6_6  and  O8_8 
REMARK    2  A    between atoms: N7_7  and  O8_8 
ROOT
HETATM    1  C1  UNL     1     -34.661   5.014   5.722  1.00 20.00     0.014 C 
HETATM    2  C2  UNL     1     -34.459   5.325   4.581  1.00 20.00    -0.089 C 
HETATM    3  C6  UNL     1     -34.216   5.704   3.189  1.00 20.00     0.296 C 
ENDROOT
BRANCH   3   4
HETATM    4  O8  UNL     1     -33.004   6.434   3.076  1.00 20.00    -0.244 OA
BRANCH   4   5
HETATM    5  N7  UNL     1     -33.159   7.381   2.057  1.00 20.00    -0.143 NA
HETATM    6  C3  UNL     1     -32.340   8.375   2.217  1.00 20.00     0.032 C 
HETATM    7  C4  UNL     1     -32.255   9.561   1.289  1.00 20.00     0.067 C 
HETATM    8  C5  UNL     1     -31.414   8.354   3.405  1.00 20.00     0.067 C 
ENDBRANCH   4   5
ENDBRANCH   3   4
TORSDOF 2
ENDMDL
MODEL 4
REMARK VINA RESULT:      -4.4      0.946      1.094
REMARK  2 active torsions:
REMARK  status: ('A' for Active; 'I' for Inactive)
REMARK    1  A    between atoms: C6_6  and  O8_8 
REMARK    2  A    between atoms: N7_7  and  O8_8 
ROOT
HETATM    1  C1  UNL     1     -31.833   9.358   1.708  1.00 20.00     0.014 C 
HETATM    2  C2  UNL     1     -32.313   8.320   2.071  1.00 20.00    -0.089 C 
HETATM    3  C6  UNL     1     -32.897   7.053   2.513  1.00 20.00     0.296 C 
ENDROOT
BRANCH   3   4
HETATM    4  O8  UNL     1     -34.032   7.287   3.333  1.00 20.00    -0.244 OA
BRANCH   4   5
HETATM    5  N7  UNL     1     -34.476   6.054   3.825  1.00 20.00    -0.143 NA
HETATM    6  C3  UNL     1     -34.340   5.991   5.114  1.00 20.00     0.032 C 
HETATM    7  C4  UNL     1     -34.726   4.795   5.950  1.00 20.00     0.067 C 
HETATM    8  C5  UNL     1     -33.757   7.180   5.831  1.00 20.00     0.067 C 
ENDBRANCH   4   5
ENDBRANCH   3   4
TORSDOF 2
ENDMDL
MODEL 5
REMARK VINA RESULT:      -4.4      1.220      4.376
REMARK  2 active torsions:
REMARK  status: ('A' for Active; 'I' for Inactive)
REMARK    1  A    between atoms: C6_6  and  O8_8 
REMARK    2  A    between atoms: N7_7  and  O8_8 
ROOT
HETATM    1  C1  UNL     1     -34.760   4.496   4.886  1.00 20.00     0.014 C 
HETATM    2  C2  UNL     1     -34.457   5.583   5.295  1.00 20.00    -0.089 C 
HETATM    3  C6  UNL     1     -34.087   6.907   5.796  1.00 20.00     0.296 C 
ENDROOT
BRANCH   3   4
HETATM    4  O8  UNL     1     -33.006   7.439   5.045  1.00 20.00    -0.244 OA
BRANCH   4   5
HETATM    5  N7  UNL     1     -33.402   7.514   3.704  1.00 20.00    -0.143 NA
HETATM    6  C3  UNL     1     -32.451   7.997   2.965  1.00 20.00     0.032 C 
HETATM    7  C4  UNL     1     -32.559   8.204   1.474  1.00 20.00     0.067 C 
HETATM    8  C5  UNL     1     -31.155   8.381   3.628  1.00 20.00     0.067 C 
ENDBRANCH   4   5
ENDBRANCH   3   4
TORSDOF 2
ENDMDL
MODEL 6
REMARK VINA RESULT:      -4.3      1.878      4.385
REMARK  2 active torsions:
REMARK  status: ('A' for Active; 'I' for Inactive)
REMARK    1  A    between atoms: C6_6  and  O8_8 
REMARK    2  A    between atoms: N7_7  and  O8_8 
ROOT
HETATM    1  C1  UNL     1     -34.016   6.319   3.132  1.00 20.00     0.014 C 
HETATM    2  C2  UNL     1     -33.021   6.958   3.334  1.00 20.00    -0.089 C 
HETATM    3  C6  UNL     1     -31.807   7.736   3.582  1.00 20.00     0.296 C 
ENDROOT
BRANCH   3   4
HETATM    4  O8  UNL     1     -31.767   8.878   2.739  1.00 20.00    -0.244 OA
BRANCH   4   5
HETATM    5  N7  UNL     1     -32.084   8.471   1.438  1.00 20.00    -0.143 NA
HETATM    6  C3  UNL     1     -32.609   9.445   0.760  1.00 20.00     0.032 C 
HETATM    7  C4  UNL     1     -33.059   9.332  -0.675  1.00 20.00     0.067 C 
HETATM    8  C5  UNL     1     -32.786  10.776   1.442  1.00 20.00     0.067 C 
ENDBRANCH   4   5
ENDBRANCH   3   4
TORSDOF 2
ENDMDL
MODEL 7
REMARK VINA RESULT:      -4.0      1.899      4.230
REMARK  2 active torsions:
REMARK  status: ('A' for Active; 'I' for Inactive)
REMARK    1  A    between atoms: C6_6  and  O8_8 
REMARK    2  A    between atoms: N7_7  and  O8_8 
ROOT
HETATM    1  C1  UNL     1     -33.665   7.513   6.286  1.00 20.00     0.014 C 
HETATM    2  C2  UNL     1     -34.151   6.481   5.915  1.00 20.00    -0.089 C 
HETATM    3  C6  UNL     1     -34.746   5.222   5.464  1.00 20.00     0.296 C 
ENDROOT
BRANCH   3   4
HETATM    4  O8  UNL     1     -34.891   5.218   4.052  1.00 20.00    -0.244 OA
BRANCH   4   5
HETATM    5  N7  UNL     1     -34.431   6.447   3.563  1.00 20.00    -0.143 NA
HETATM    6  C3  UNL     1     -33.413   6.283   2.776  1.00 20.00     0.032 C 
HETATM    7  C4  UNL     1     -32.685   7.410   2.085  1.00 20.00     0.067 C 
HETATM    8  C5  UNL     1     -32.916   4.882   2.532  1.00 20.00     0.067 C 
ENDBRANCH   4   5
ENDBRANCH   3   4
TORSDOF 2
ENDMDL
MODEL 8
REMARK VINA RESULT:      -4.0      1.533      4.431
REMARK  2 active torsions:
REMARK  status: ('A' for Active; 'I' for Inactive)
REMARK    1  A    between atoms: C6_6  and  O8_8 
REMARK    2  A    between atoms: N7_7  and  O8_8 
ROOT
HETATM    1  C1  UNL     1     -34.550   4.785   5.674  1.00 20.00     0.014 C 
HETATM    2  C2  UNL     1     -34.795   5.346   4.642  1.00 20.00    -0.089 C 
HETATM    3  C6  UNL     1     -35.096   6.032   3.385  1.00 20.00     0.296 C 
ENDROOT
BRANCH   3   4
HETATM    4  O8  UNL     1     -33.906   6.255   2.643  1.00 20.00    -0.244 OA
BRANCH   4   5
HETATM    5  N7  UNL     1     -32.923   6.719   3.526  1.00 20.00    -0.143 NA
HETATM    6  C3  UNL     1     -32.304   7.748   3.035  1.00 20.00     0.032 C 
HETATM    7  C4  UNL     1     -31.191   8.483   3.740  1.00 20.00     0.067 C 
HETATM    8  C5  UNL     1     -32.715   8.247   1.674  1.00 20.00     0.067 C 
ENDBRANCH   4   5
ENDBRANCH   3   4
TORSDOF 2
ENDMDL
MODEL 9
REMARK VINA RESULT:      -3.6     10.795     11.416
REMARK  2 active torsions:
REMARK  status: ('A' for Active; 'I' for Inactive)
REMARK    1  A    between atoms: C6_6  and  O8_8 
REMARK    2  A    between atoms: N7_7  and  O8_8 
ROOT
HETATM    1  C1  UNL     1     -34.284  16.513  -2.829  1.00 20.00     0.014 C 
HETATM    2  C2  UNL     1     -33.756  15.704  -3.541  1.00 20.00    -0.089 C 
HETATM    3  C6  UNL     1     -33.109  14.718  -4.408  1.00 20.00     0.296 C 
ENDROOT
BRANCH   3   4
HETATM    4  O8  UNL     1     -34.021  13.685  -4.753  1.00 20.00    -0.244 OA
BRANCH   4   5
HETATM    5  N7  UNL     1     -34.192  13.702  -6.142  1.00 20.00    -0.143 NA
HETATM    6  C3  UNL     1     -35.451  13.730  -6.456  1.00 20.00     0.032 C 
HETATM    7  C4  UNL     1     -35.971  13.754  -7.872  1.00 20.00     0.067 C 
HETATM    8  C5  UNL     1     -36.465  13.735  -5.342  1.00 20.00     0.067 C 
ENDBRANCH   4   5
ENDBRANCH   3   4
TORSDOF 2
ENDMDL
