MODEL 1
REMARK VINA RESULT:      -4.9      0.000      0.000
REMARK  2 active torsions:
REMARK  status: ('A' for Active; 'I' for Inactive)
REMARK    1  A    between atoms: C2_2  and  C3_3 
REMARK    2  A    between atoms: N7_7  and  N8_8 
ROOT
HETATM    1  C2  UNL     1     -32.554   7.689   3.466  1.00 20.00     0.138 C 
HETATM    2  N7  UNL     1     -32.845   7.928   2.227  1.00 20.00    -0.214 NA
ENDROOT
BRANCH   1   3
HETATM    3  C3  UNL     1     -33.433   6.889   4.368  1.00 20.00    -0.047 C 
HETATM    4  C1  UNL     1     -33.969   5.783   3.824  1.00 20.00    -0.023 C 
HETATM    5  C4  UNL     1     -34.879   4.797   4.482  1.00 20.00     0.036 C 
HETATM    6  C5  UNL     1     -33.621   7.400   5.762  1.00 20.00     0.049 C 
ENDBRANCH   1   3
BRANCH   2   7
HETATM    7  N8  UNL     1     -31.909   8.666   1.594  1.00 20.00    -0.222 NA
HETATM    8  C6  UNL     1     -32.402   9.837   0.890  1.00 20.00     0.135 C 
HETATM    9  H20 UNL     1     -31.343   8.092   0.969  1.00 20.00     0.148 HD
ENDBRANCH   2   7
TORSDOF 2
ENDMDL
MODEL 2
REMARK VINA RESULT:      -4.5      2.051      4.442
REMARK  2 active torsions:
REMARK  status: ('A' for Active; 'I' for Inactive)
REMARK    1  A    between atoms: C2_2  and  C3_3 
REMARK    2  A    between atoms: N7_7  and  N8_8 
ROOT
HETATM    1  C2  UNL     1     -33.300   6.753   2.964  1.00 20.00     0.138 C 
HETATM    2  N7  UNL     1     -34.045   6.717   4.023  1.00 20.00    -0.214 NA
ENDROOT
BRANCH   1   3
HETATM    3  C3  UNL     1     -32.467   7.935   2.596  1.00 20.00    -0.047 C 
HETATM    4  C1  UNL     1     -32.791   8.533   1.436  1.00 20.00    -0.023 C 
HETATM    5  C4  UNL     1     -32.139   9.728   0.818  1.00 20.00     0.036 C 
HETATM    6  C5  UNL     1     -31.375   8.321   3.544  1.00 20.00     0.049 C 
ENDBRANCH   1   3
BRANCH   2   7
HETATM    7  N8  UNL     1     -34.709   5.551   4.165  1.00 20.00    -0.222 NA
HETATM    8  C6  UNL     1     -34.635   4.942   5.482  1.00 20.00     0.135 C 
HETATM    9  H20 UNL     1     -34.435   4.876   3.450  1.00 20.00     0.148 HD
ENDBRANCH   2   7
TORSDOF 2
ENDMDL
MODEL 3
REMARK VINA RESULT:      -3.9     10.809     11.383
REMARK  2 active torsions:
REMARK  status: ('A' for Active; 'I' for Inactive)
REMARK    1  A    between atoms: C2_2  and  C3_3 
REMARK    2  A    between atoms: N7_7  and  N8_8 
ROOT
HETATM    1  C2  UNL     1     -35.293  14.922  -4.357  1.00 20.00     0.138 C 
HETATM    2  N7  UNL     1     -34.928  13.680  -4.379  1.00 20.00    -0.214 NA
ENDROOT
BRANCH   1   3
HETATM    3  C3  UNL     1     -34.513  15.987  -3.660  1.00 20.00    -0.047 C 
HETATM    4  C1  UNL     1     -34.907  16.267  -2.406  1.00 20.00    -0.023 C 
HETATM    5  C4  UNL     1     -34.319  17.276  -1.473  1.00 20.00     0.036 C 
HETATM    6  C5  UNL     1     -33.393  16.620  -4.424  1.00 20.00     0.049 C 
ENDBRANCH   1   3
BRANCH   2   7
HETATM    7  N8  UNL     1     -35.776  12.889  -5.068  1.00 20.00    -0.222 NA
HETATM    8  C6  UNL     1     -36.063  13.310  -6.429  1.00 20.00     0.135 C 
HETATM    9  H20 UNL     1     -36.645  12.740  -4.556  1.00 20.00     0.148 HD
ENDBRANCH   2   7
TORSDOF 2
ENDMDL
MODEL 4
REMARK VINA RESULT:      -3.8     10.983     11.479
REMARK  2 active torsions:
REMARK  status: ('A' for Active; 'I' for Inactive)
REMARK    1  A    between atoms: C2_2  and  C3_3 
REMARK    2  A    between atoms: N7_7  and  N8_8 
ROOT
HETATM    1  C2  UNL     1     -35.282  14.434  -5.211  1.00 20.00     0.138 C 
HETATM    2  N7  UNL     1     -35.689  13.207  -5.277  1.00 20.00    -0.214 NA
ENDROOT
BRANCH   1   3
HETATM    3  C3  UNL     1     -35.621  15.344  -4.078  1.00 20.00    -0.047 C 
HETATM    4  C1  UNL     1     -34.582  15.737  -3.320  1.00 20.00    -0.023 C 
HETATM    5  C4  UNL     1     -34.617  16.640  -2.130  1.00 20.00     0.036 C 
HETATM    6  C5  UNL     1     -37.061  15.715  -3.910  1.00 20.00     0.049 C 
ENDBRANCH   1   3
BRANCH   2   7
HETATM    7  N8  UNL     1     -35.263  12.564  -6.383  1.00 20.00    -0.222 NA
HETATM    8  C6  UNL     1     -34.682  13.406  -7.416  1.00 20.00     0.135 C 
HETATM    9  H20 UNL     1     -35.998  11.978  -6.780  1.00 20.00     0.148 HD
ENDBRANCH   2   7
TORSDOF 2
ENDMDL
MODEL 5
REMARK VINA RESULT:      -3.7     10.821     11.766
REMARK  2 active torsions:
REMARK  status: ('A' for Active; 'I' for Inactive)
REMARK    1  A    between atoms: C2_2  and  C3_3 
REMARK    2  A    between atoms: N7_7  and  N8_8 
ROOT
HETATM    1  C2  UNL     1     -36.805  15.088  -4.391  1.00 20.00     0.138 C 
HETATM    2  N7  UNL     1     -37.255  13.939  -4.781  1.00 20.00    -0.214 NA
ENDROOT
BRANCH   1   3
HETATM    3  C3  UNL     1     -35.441  15.275  -3.814  1.00 20.00    -0.047 C 
HETATM    4  C1  UNL     1     -35.300  16.328  -2.990  1.00 20.00    -0.023 C 
HETATM    5  C4  UNL     1     -34.062  16.759  -2.271  1.00 20.00     0.036 C 
HETATM    6  C5  UNL     1     -34.392  14.285  -4.211  1.00 20.00     0.049 C 
ENDBRANCH   1   3
BRANCH   2   7
HETATM    7  N8  UNL     1     -38.509  13.999  -5.274  1.00 20.00    -0.222 NA
HETATM    8  C6  UNL     1     -39.193  15.269  -5.101  1.00 20.00     0.135 C 
HETATM    9  H20 UNL     1     -39.086  13.237  -4.917  1.00 20.00     0.148 HD
ENDBRANCH   2   7
TORSDOF 2
ENDMDL
MODEL 6
REMARK VINA RESULT:      -3.6     10.972     12.101
REMARK  2 active torsions:
REMARK  status: ('A' for Active; 'I' for Inactive)
REMARK    1  A    between atoms: C2_2  and  C3_3 
REMARK    2  A    between atoms: N7_7  and  N8_8 
ROOT
HETATM    1  C2  UNL     1     -36.619  14.238  -5.908  1.00 20.00     0.138 C 
HETATM    2  N7  UNL     1     -37.398  13.770  -4.986  1.00 20.00    -0.214 NA
ENDROOT
BRANCH   1   3
HETATM    3  C3  UNL     1     -35.134  14.092  -5.870  1.00 20.00    -0.047 C 
HETATM    4  C1  UNL     1     -34.548  14.435  -4.709  1.00 20.00    -0.023 C 
HETATM    5  C4  UNL     1     -33.091  14.392  -4.380  1.00 20.00     0.036 C 
HETATM    6  C5  UNL     1     -34.467  13.590  -7.111  1.00 20.00     0.049 C 
ENDBRANCH   1   3
BRANCH   2   7
HETATM    7  N8  UNL     1     -38.704  14.009  -5.222  1.00 20.00    -0.222 NA
HETATM    8  C6  UNL     1     -39.162  15.355  -4.921  1.00 20.00     0.135 C 
HETATM    9  H20 UNL     1     -39.299  13.323  -4.756  1.00 20.00     0.148 HD
ENDBRANCH   2   7
TORSDOF 2
ENDMDL
MODEL 7
REMARK VINA RESULT:      -3.6     10.915     11.255
REMARK  2 active torsions:
REMARK  status: ('A' for Active; 'I' for Inactive)
REMARK    1  A    between atoms: C2_2  and  C3_3 
REMARK    2  A    between atoms: N7_7  and  N8_8 
ROOT
HETATM    1  C2  UNL     1     -33.682  16.385  -3.115  1.00 20.00     0.138 C 
HETATM    2  N7  UNL     1     -34.457  15.438  -3.537  1.00 20.00    -0.214 NA
ENDROOT
BRANCH   1   3
HETATM    3  C3  UNL     1     -33.933  17.140  -1.852  1.00 20.00    -0.047 C 
HETATM    4  C1  UNL     1     -35.128  16.923  -1.275  1.00 20.00    -0.023 C 
HETATM    5  C4  UNL     1     -35.652  17.533  -0.015  1.00 20.00     0.036 C 
HETATM    6  C5  UNL     1     -32.842  18.045  -1.372  1.00 20.00     0.049 C 
ENDBRANCH   1   3
BRANCH   2   7
HETATM    7  N8  UNL     1     -34.042  14.888  -4.696  1.00 20.00    -0.222 NA
HETATM    8  C6  UNL     1     -33.088  15.674  -5.459  1.00 20.00     0.135 C 
HETATM    9  H20 UNL     1     -34.831  14.623  -5.286  1.00 20.00     0.148 HD
ENDBRANCH   2   7
TORSDOF 2
ENDMDL
MODEL 8
REMARK VINA RESULT:      -3.5     11.238     11.529
REMARK  2 active torsions:
REMARK  status: ('A' for Active; 'I' for Inactive)
REMARK    1  A    between atoms: C2_2  and  C3_3 
REMARK    2  A    between atoms: N7_7  and  N8_8 
ROOT
HETATM    1  C2  UNL     1     -33.096  18.105  -0.415  1.00 20.00     0.138 C 
HETATM    2  N7  UNL     1     -31.831  18.139  -0.690  1.00 20.00    -0.214 NA
ENDROOT
BRANCH   1   3
HETATM    3  C3  UNL     1     -34.091  17.371  -1.250  1.00 20.00    -0.047 C 
HETATM    4  C1  UNL     1     -33.614  16.847  -2.393  1.00 20.00    -0.023 C 
HETATM    5  C4  UNL     1     -34.370  16.066  -3.418  1.00 20.00     0.036 C 
HETATM    6  C5  UNL     1     -35.493  17.299  -0.733  1.00 20.00     0.049 C 
ENDBRANCH   1   3
BRANCH   2   7
HETATM    7  N8  UNL     1     -31.113  18.855   0.199  1.00 20.00    -0.222 NA
HETATM    8  C6  UNL     1     -31.633  18.879   1.555  1.00 20.00     0.135 C 
HETATM    9  H20 UNL     1     -30.952  19.807  -0.133  1.00 20.00     0.148 HD
ENDBRANCH   2   7
TORSDOF 2
ENDMDL
MODEL 9
REMARK VINA RESULT:      -3.5     11.103     11.617
REMARK  2 active torsions:
REMARK  status: ('A' for Active; 'I' for Inactive)
REMARK    1  A    between atoms: C2_2  and  C3_3 
REMARK    2  A    between atoms: N7_7  and  N8_8 
ROOT
HETATM    1  C2  UNL     1     -33.589  16.414  -3.901  1.00 20.00     0.138 C 
HETATM    2  N7  UNL     1     -33.123  15.223  -4.097  1.00 20.00    -0.214 NA
ENDROOT
BRANCH   1   3
HETATM    3  C3  UNL     1     -34.085  16.886  -2.575  1.00 20.00    -0.047 C 
HETATM    4  C1  UNL     1     -33.192  17.557  -1.827  1.00 20.00    -0.023 C 
HETATM    5  C4  UNL     1     -33.403  18.144  -0.469  1.00 20.00     0.036 C 
HETATM    6  C5  UNL     1     -35.504  16.564  -2.225  1.00 20.00     0.049 C 
ENDBRANCH   1   3
BRANCH   2   7
HETATM    7  N8  UNL     1     -32.726  15.010  -5.369  1.00 20.00    -0.222 NA
HETATM    8  C6  UNL     1     -33.385  15.822  -6.378  1.00 20.00     0.135 C 
HETATM    9  H20 UNL     1     -32.787  14.022  -5.617  1.00 20.00     0.148 HD
ENDBRANCH   2   7
TORSDOF 2
ENDMDL
