MODEL 1
REMARK VINA RESULT:      -5.8      0.000      0.000
REMARK  4 active torsions:
REMARK  status: ('A' for Active; 'I' for Inactive)
REMARK    1  A    between atoms: C1_1  and  C6_6 
REMARK    2  A    between atoms: C2_2  and  C8_8 
REMARK    3  A    between atoms: C8_8  and  C10_10 
REMARK    4  A    between atoms: C9_9  and  C10_10 
ROOT
HETATM    1  C1  UNL     1     -33.196   7.136   3.211  1.00 20.00    -0.074 C 
HETATM    2  C2  UNL     1     -32.334   7.864   2.802  1.00 20.00    -0.104 C 
ENDROOT
BRANCH   1   3
HETATM    3  C6  UNL     1     -34.246   6.248   3.712  1.00 20.00     0.200 C 
HETATM    4  C4  UNL     1     -33.871   4.780   3.593  1.00 20.00     0.047 C 
HETATM    5  C3  UNL     1     -34.631   4.167   4.743  1.00 20.00     0.030 C 
HETATM    6  C5  UNL     1     -34.505   5.239   5.801  1.00 20.00     0.169 C 
HETATM    7  O11 UNL     1     -34.484   6.496   5.110  1.00 20.00    -0.374 OA
ENDBRANCH   1   3
BRANCH   2   8
HETATM    8  C8  UNL     1     -31.281   8.758   2.298  1.00 20.00     0.094 C 
BRANCH   8   9
HETATM    9  C10 UNL     1     -31.437   8.999   0.797  1.00 20.00     0.012 C 
BRANCH   9  10
HETATM   10  C9  UNL     1     -32.566   9.988   0.505  1.00 20.00    -0.004 C 
HETATM   11  C7  UNL     1     -33.428   9.523  -0.657  1.00 20.00     0.005 C 
ENDBRANCH   9  10
ENDBRANCH   8   9
ENDBRANCH   2   8
TORSDOF 4
ENDMDL
MODEL 2
REMARK VINA RESULT:      -5.7      1.768      5.559
REMARK  4 active torsions:
REMARK  status: ('A' for Active; 'I' for Inactive)
REMARK    1  A    between atoms: C1_1  and  C6_6 
REMARK    2  A    between atoms: C2_2  and  C8_8 
REMARK    3  A    between atoms: C8_8  and  C10_10 
REMARK    4  A    between atoms: C9_9  and  C10_10 
ROOT
HETATM    1  C1  UNL     1     -32.637   7.329   2.242  1.00 20.00    -0.074 C 
HETATM    2  C2  UNL     1     -33.148   6.379   2.769  1.00 20.00    -0.104 C 
ENDROOT
BRANCH   1   3
HETATM    3  C6  UNL     1     -32.016   8.489   1.601  1.00 20.00     0.200 C 
HETATM    4  C4  UNL     1     -32.613   8.787   0.235  1.00 20.00     0.047 C 
HETATM    5  C3  UNL     1     -32.422  10.279   0.127  1.00 20.00     0.030 C 
HETATM    6  C5  UNL     1     -32.682  10.726   1.548  1.00 20.00     0.169 C 
HETATM    7  O11 UNL     1     -32.219   9.669   2.401  1.00 20.00    -0.374 OA
ENDBRANCH   1   3
BRANCH   2   8
HETATM    8  C8  UNL     1     -33.769   5.213   3.414  1.00 20.00     0.094 C 
BRANCH   8   9
HETATM    9  C10 UNL     1     -34.943   5.635   4.297  1.00 20.00     0.012 C 
BRANCH   9  10
HETATM   10  C9  UNL     1     -34.511   5.799   5.755  1.00 20.00    -0.004 C 
HETATM   11  C7  UNL     1     -33.877   7.159   5.997  1.00 20.00     0.005 C 
ENDBRANCH   9  10
ENDBRANCH   8   9
ENDBRANCH   2   8
TORSDOF 4
ENDMDL
MODEL 3
REMARK VINA RESULT:      -5.3      1.124      1.613
REMARK  4 active torsions:
REMARK  status: ('A' for Active; 'I' for Inactive)
REMARK    1  A    between atoms: C1_1  and  C6_6 
REMARK    2  A    between atoms: C2_2  and  C8_8 
REMARK    3  A    between atoms: C8_8  and  C10_10 
REMARK    4  A    between atoms: C9_9  and  C10_10 
ROOT
HETATM    1  C1  UNL     1     -32.576   7.427   3.096  1.00 20.00    -0.074 C 
HETATM    2  C2  UNL     1     -32.186   8.252   2.316  1.00 20.00    -0.104 C 
ENDROOT
BRANCH   1   3
HETATM    3  C6  UNL     1     -33.051   6.419   4.045  1.00 20.00     0.200 C 
HETATM    4  C4  UNL     1     -33.705   7.037   5.270  1.00 20.00     0.047 C 
HETATM    5  C3  UNL     1     -34.700   5.975   5.666  1.00 20.00     0.030 C 
HETATM    6  C5  UNL     1     -35.170   5.477   4.317  1.00 20.00     0.169 C 
HETATM    7  O11 UNL     1     -34.049   5.585   3.428  1.00 20.00    -0.374 OA
ENDBRANCH   1   3
BRANCH   2   8
HETATM    8  C8  UNL     1     -31.708   9.265   1.364  1.00 20.00     0.094 C 
BRANCH   8   9
HETATM    9  C10 UNL     1     -32.821  10.249   1.005  1.00 20.00     0.012 C 
BRANCH   9  10
HETATM   10  C9  UNL     1     -33.430   9.927  -0.360  1.00 20.00    -0.004 C 
HETATM   11  C7  UNL     1     -32.722   8.757  -1.023  1.00 20.00     0.005 C 
ENDBRANCH   9  10
ENDBRANCH   8   9
ENDBRANCH   2   8
TORSDOF 4
ENDMDL
MODEL 4
REMARK VINA RESULT:      -5.2      1.900      5.371
REMARK  4 active torsions:
REMARK  status: ('A' for Active; 'I' for Inactive)
REMARK    1  A    between atoms: C1_1  and  C6_6 
REMARK    2  A    between atoms: C2_2  and  C8_8 
REMARK    3  A    between atoms: C8_8  and  C10_10 
REMARK    4  A    between atoms: C9_9  and  C10_10 
ROOT
HETATM    1  C1  UNL     1     -32.695   7.906   3.603  1.00 20.00    -0.074 C 
HETATM    2  C2  UNL     1     -33.172   7.568   4.652  1.00 20.00    -0.104 C 
ENDROOT
BRANCH   1   3
HETATM    3  C6  UNL     1     -32.114   8.317   2.324  1.00 20.00     0.200 C 
HETATM    4  C4  UNL     1     -33.015   7.989   1.145  1.00 20.00     0.047 C 
HETATM    5  C3  UNL     1     -32.648   9.070   0.159  1.00 20.00     0.030 C 
HETATM    6  C5  UNL     1     -32.439  10.258   1.070  1.00 20.00     0.169 C 
HETATM    7  O11 UNL     1     -31.916   9.742   2.302  1.00 20.00    -0.374 OA
ENDBRANCH   1   3
BRANCH   2   8
HETATM    8  C8  UNL     1     -33.754   7.157   5.938  1.00 20.00     0.094 C 
BRANCH   8   9
HETATM    9  C10 UNL     1     -34.515   5.839   5.800  1.00 20.00     0.012 C 
BRANCH   9  10
HETATM   10  C9  UNL     1     -34.711   5.459   4.332  1.00 20.00    -0.004 C 
HETATM   11  C7  UNL     1     -34.164   4.072   4.038  1.00 20.00     0.005 C 
ENDBRANCH   9  10
ENDBRANCH   8   9
ENDBRANCH   2   8
TORSDOF 4
ENDMDL
MODEL 5
REMARK VINA RESULT:      -4.4     10.704     11.721
REMARK  4 active torsions:
REMARK  status: ('A' for Active; 'I' for Inactive)
REMARK    1  A    between atoms: C1_1  and  C6_6 
REMARK    2  A    between atoms: C2_2  and  C8_8 
REMARK    3  A    between atoms: C8_8  and  C10_10 
REMARK    4  A    between atoms: C9_9  and  C10_10 
ROOT
HETATM    1  C1  UNL     1     -33.208  17.923  -1.215  1.00 20.00    -0.074 C 
HETATM    2  C2  UNL     1     -33.731  17.149  -1.970  1.00 20.00    -0.104 C 
ENDROOT
BRANCH   1   3
HETATM    3  C6  UNL     1     -32.571  18.867  -0.296  1.00 20.00     0.200 C 
HETATM    4  C4  UNL     1     -33.235  18.884   1.071  1.00 20.00     0.047 C 
HETATM    5  C3  UNL     1     -32.087  19.263   1.973  1.00 20.00     0.030 C 
HETATM    6  C5  UNL     1     -30.935  18.522   1.333  1.00 20.00     0.169 C 
HETATM    7  O11 UNL     1     -31.197  18.499  -0.077  1.00 20.00    -0.374 OA
ENDBRANCH   1   3
BRANCH   2   8
HETATM    8  C8  UNL     1     -34.370  16.200  -2.892  1.00 20.00     0.094 C 
BRANCH   8   9
HETATM    9  C10 UNL     1     -33.417  15.801  -4.019  1.00 20.00     0.012 C 
BRANCH   9  10
HETATM   10  C9  UNL     1     -33.620  14.343  -4.431  1.00 20.00    -0.004 C 
HETATM   11  C7  UNL     1     -35.096  13.994  -4.531  1.00 20.00     0.005 C 
ENDBRANCH   9  10
ENDBRANCH   8   9
ENDBRANCH   2   8
TORSDOF 4
ENDMDL
MODEL 6
REMARK VINA RESULT:      -4.3     10.641     11.441
REMARK  4 active torsions:
REMARK  status: ('A' for Active; 'I' for Inactive)
REMARK    1  A    between atoms: C1_1  and  C6_6 
REMARK    2  A    between atoms: C2_2  and  C8_8 
REMARK    3  A    between atoms: C8_8  and  C10_10 
REMARK    4  A    between atoms: C9_9  and  C10_10 
ROOT
HETATM    1  C1  UNL     1     -34.166  15.483  -3.574  1.00 20.00    -0.074 C 
HETATM    2  C2  UNL     1     -33.811  16.481  -3.009  1.00 20.00    -0.104 C 
ENDROOT
BRANCH   1   3
HETATM    3  C6  UNL     1     -34.599  14.266  -4.262  1.00 20.00     0.200 C 
HETATM    4  C4  UNL     1     -36.039  14.350  -4.742  1.00 20.00     0.047 C 
HETATM    5  C3  UNL     1     -36.019  13.451  -5.953  1.00 20.00     0.030 C 
HETATM    6  C5  UNL     1     -34.659  13.754  -6.539  1.00 20.00     0.169 C 
HETATM    7  O11 UNL     1     -33.792  14.041  -5.432  1.00 20.00    -0.374 OA
ENDBRANCH   1   3
BRANCH   2   8
HETATM    8  C8  UNL     1     -33.376  17.705  -2.321  1.00 20.00     0.094 C 
BRANCH   8   9
HETATM    9  C10 UNL     1     -33.808  17.693  -0.854  1.00 20.00     0.012 C 
BRANCH   9  10
HETATM   10  C9  UNL     1     -35.272  17.279  -0.708  1.00 20.00    -0.004 C 
HETATM   11  C7  UNL     1     -35.789  17.548   0.696  1.00 20.00     0.005 C 
ENDBRANCH   9  10
ENDBRANCH   8   9
ENDBRANCH   2   8
TORSDOF 4
ENDMDL
MODEL 7
REMARK VINA RESULT:      -4.3     10.740     11.576
REMARK  4 active torsions:
REMARK  status: ('A' for Active; 'I' for Inactive)
REMARK    1  A    between atoms: C1_1  and  C6_6 
REMARK    2  A    between atoms: C2_2  and  C8_8 
REMARK    3  A    between atoms: C8_8  and  C10_10 
REMARK    4  A    between atoms: C9_9  and  C10_10 
ROOT
HETATM    1  C1  UNL     1     -34.424  15.210  -3.679  1.00 20.00    -0.074 C 
HETATM    2  C2  UNL     1     -34.019  16.115  -3.002  1.00 20.00    -0.104 C 
ENDROOT
BRANCH   1   3
HETATM    3  C6  UNL     1     -34.918  14.106  -4.503  1.00 20.00     0.200 C 
HETATM    4  C4  UNL     1     -36.230  14.437  -5.194  1.00 20.00     0.047 C 
HETATM    5  C3  UNL     1     -36.149  13.596  -6.444  1.00 20.00     0.030 C 
HETATM    6  C5  UNL     1     -34.681  13.702  -6.790  1.00 20.00     0.169 C 
HETATM    7  O11 UNL     1     -33.973  13.802  -5.546  1.00 20.00    -0.374 OA
ENDBRANCH   1   3
BRANCH   2   8
HETATM    8  C8  UNL     1     -33.525  17.225  -2.175  1.00 20.00     0.094 C 
BRANCH   8   9
HETATM    9  C10 UNL     1     -34.407  17.428  -0.944  1.00 20.00     0.012 C 
BRANCH   9  10
HETATM   10  C9  UNL     1     -33.728  18.333   0.084  1.00 20.00    -0.004 C 
HETATM   11  C7  UNL     1     -32.306  18.674  -0.328  1.00 20.00     0.005 C 
ENDBRANCH   9  10
ENDBRANCH   8   9
ENDBRANCH   2   8
TORSDOF 4
ENDMDL
MODEL 8
REMARK VINA RESULT:      -4.2     10.926     11.826
REMARK  4 active torsions:
REMARK  status: ('A' for Active; 'I' for Inactive)
REMARK    1  A    between atoms: C1_1  and  C6_6 
REMARK    2  A    between atoms: C2_2  and  C8_8 
REMARK    3  A    between atoms: C8_8  and  C10_10 
REMARK    4  A    between atoms: C9_9  and  C10_10 
ROOT
HETATM    1  C1  UNL     1     -33.860  17.291  -2.074  1.00 20.00    -0.074 C 
HETATM    2  C2  UNL     1     -34.243  16.385  -2.762  1.00 20.00    -0.104 C 
ENDROOT
BRANCH   1   3
HETATM    3  C6  UNL     1     -33.393  18.394  -1.233  1.00 20.00     0.200 C 
HETATM    4  C4  UNL     1     -33.919  18.303   0.190  1.00 20.00     0.047 C 
HETATM    5  C3  UNL     1     -32.823  18.980   0.974  1.00 20.00     0.030 C 
HETATM    6  C5  UNL     1     -31.586  18.514   0.240  1.00 20.00     0.169 C 
HETATM    7  O11 UNL     1     -31.957  18.376  -1.139  1.00 20.00    -0.374 OA
ENDBRANCH   1   3
BRANCH   2   8
HETATM    8  C8  UNL     1     -34.711  15.277  -3.609  1.00 20.00     0.094 C 
BRANCH   8   9
HETATM    9  C10 UNL     1     -33.551  14.649  -4.381  1.00 20.00     0.012 C 
BRANCH   9  10
HETATM   10  C9  UNL     1     -32.905  15.655  -5.333  1.00 20.00    -0.004 C 
HETATM   11  C7  UNL     1     -33.687  15.774  -6.631  1.00 20.00     0.005 C 
ENDBRANCH   9  10
ENDBRANCH   8   9
ENDBRANCH   2   8
TORSDOF 4
ENDMDL
MODEL 9
REMARK VINA RESULT:      -3.9     10.425     11.743
REMARK  4 active torsions:
REMARK  status: ('A' for Active; 'I' for Inactive)
REMARK    1  A    between atoms: C1_1  and  C6_6 
REMARK    2  A    between atoms: C2_2  and  C8_8 
REMARK    3  A    between atoms: C8_8  and  C10_10 
REMARK    4  A    between atoms: C9_9  and  C10_10 
ROOT
HETATM    1  C1  UNL     1     -42.894   4.601  -1.610  1.00 20.00    -0.074 C 
HETATM    2  C2  UNL     1     -43.057   3.746  -2.437  1.00 20.00    -0.104 C 
ENDROOT
BRANCH   1   3
HETATM    3  C6  UNL     1     -42.698   5.644  -0.602  1.00 20.00     0.200 C 
HETATM    4  C4  UNL     1     -41.264   5.705  -0.101  1.00 20.00     0.047 C 
HETATM    5  C3  UNL     1     -41.122   7.161   0.269  1.00 20.00     0.030 C 
HETATM    6  C5  UNL     1     -41.922   7.835  -0.822  1.00 20.00     0.169 C 
HETATM    7  O11 UNL     1     -42.990   6.938  -1.160  1.00 20.00    -0.374 OA
ENDBRANCH   1   3
BRANCH   2   8
HETATM    8  C8  UNL     1     -43.252   2.699  -3.450  1.00 20.00     0.094 C 
BRANCH   8   9
HETATM    9  C10 UNL     1     -41.921   2.057  -3.840  1.00 20.00     0.012 C 
BRANCH   9  10
HETATM   10  C9  UNL     1     -42.037   0.534  -3.912  1.00 20.00    -0.004 C 
HETATM   11  C7  UNL     1     -43.313   0.041  -3.249  1.00 20.00     0.005 C 
ENDBRANCH   9  10
ENDBRANCH   8   9
ENDBRANCH   2   8
TORSDOF 4
ENDMDL
