MODEL 1
REMARK VINA RESULT:      -4.6      0.000      0.000
REMARK  1 active torsions:
REMARK  status: ('A' for Active; 'I' for Inactive)
REMARK    1  A    between atoms: C3_3  and  C8_8 
ROOT
HETATM    1  C1  UNL     1     -32.613   6.864   2.715  1.00 20.00     0.048 A 
HETATM    2  C2  UNL     1     -31.829   7.988   3.037  1.00 20.00     0.141 A 
HETATM    3  C3  UNL     1     -33.328   6.605   3.859  1.00 20.00     0.039 A 
HETATM    4  C7  UNL     1     -33.417   7.702   6.118  1.00 20.00     0.179 C 
HETATM    5  N9  UNL     1     -32.027   8.413   4.287  1.00 20.00    -0.185 NA
HETATM    6  N10 UNL     1     -32.944   7.553   4.761  1.00 20.00    -0.278 N 
ENDROOT
BRANCH   3   7
HETATM    7  C8  UNL     1     -34.365   5.515   4.177  1.00 20.00    -0.007 C 
HETATM    8  C4  UNL     1     -33.931   4.181   3.531  1.00 20.00     0.021 C 
HETATM    9  C5  UNL     1     -35.742   5.928   3.614  1.00 20.00     0.021 C 
HETATM   10  C6  UNL     1     -34.551   5.251   5.688  1.00 20.00     0.021 C 
ENDBRANCH   3   7
TORSDOF 1
ENDMDL
MODEL 2
REMARK VINA RESULT:      -4.1     11.929     13.000
REMARK  1 active torsions:
REMARK  status: ('A' for Active; 'I' for Inactive)
REMARK    1  A    between atoms: C3_3  and  C8_8 
ROOT
HETATM    1  C1  UNL     1     -36.788  15.582  -3.984  1.00 20.00     0.048 A 
HETATM    2  C2  UNL     1     -37.852  14.868  -4.566  1.00 20.00     0.141 A 
HETATM    3  C3  UNL     1     -35.669  15.119  -4.631  1.00 20.00     0.039 A 
HETATM    4  C7  UNL     1     -35.312  13.420  -6.448  1.00 20.00     0.179 C 
HETATM    5  N9  UNL     1     -37.445  14.016  -5.511  1.00 20.00    -0.185 NA
HETATM    6  N10 UNL     1     -36.113  14.192  -5.527  1.00 20.00    -0.278 N 
ENDROOT
BRANCH   3   7
HETATM    7  C8  UNL     1     -34.184  15.487  -4.471  1.00 20.00    -0.007 C 
HETATM    8  C4  UNL     1     -33.995  16.338  -3.197  1.00 20.00     0.021 C 
HETATM    9  C5  UNL     1     -33.715  16.297  -5.698  1.00 20.00     0.021 C 
HETATM   10  C6  UNL     1     -33.248  14.264  -4.345  1.00 20.00     0.021 C 
ENDBRANCH   3   7
TORSDOF 1
ENDMDL
MODEL 3
REMARK VINA RESULT:      -4.1      1.185      2.292
REMARK  1 active torsions:
REMARK  status: ('A' for Active; 'I' for Inactive)
REMARK    1  A    between atoms: C3_3  and  C8_8 
ROOT
HETATM    1  C1  UNL     1     -32.871   7.698   4.827  1.00 20.00     0.048 A 
HETATM    2  C2  UNL     1     -31.939   8.237   3.921  1.00 20.00     0.141 A 
HETATM    3  C3  UNL     1     -33.431   6.640   4.155  1.00 20.00     0.039 A 
HETATM    4  C7  UNL     1     -33.072   5.673   1.863  1.00 20.00     0.179 C 
HETATM    5  N9  UNL     1     -31.905   7.575   2.761  1.00 20.00    -0.185 NA
HETATM    6  N10 UNL     1     -32.824   6.610   2.934  1.00 20.00    -0.278 N 
ENDROOT
BRANCH   3   7
HETATM    7  C8  UNL     1     -34.515   5.633   4.577  1.00 20.00    -0.007 C 
HETATM    8  C4  UNL     1     -35.800   5.881   3.759  1.00 20.00     0.021 C 
HETATM    9  C5  UNL     1     -34.826   5.807   6.079  1.00 20.00     0.021 C 
HETATM   10  C6  UNL     1     -34.115   4.156   4.362  1.00 20.00     0.021 C 
ENDBRANCH   3   7
TORSDOF 1
ENDMDL
MODEL 4
REMARK VINA RESULT:      -4.1     12.019     12.871
REMARK  1 active torsions:
REMARK  status: ('A' for Active; 'I' for Inactive)
REMARK    1  A    between atoms: C3_3  and  C8_8 
ROOT
HETATM    1  C1  UNL     1     -34.994  14.105  -4.655  1.00 20.00     0.048 A 
HETATM    2  C2  UNL     1     -36.020  13.335  -5.236  1.00 20.00     0.141 A 
HETATM    3  C3  UNL     1     -35.628  15.238  -4.207  1.00 20.00     0.039 A 
HETATM    4  C7  UNL     1     -38.018  16.012  -4.270  1.00 20.00     0.179 C 
HETATM    5  N9  UNL     1     -37.214  13.929  -5.164  1.00 20.00    -0.185 NA
HETATM    6  N10 UNL     1     -36.943  15.084  -4.533  1.00 20.00    -0.278 N 
ENDROOT
BRANCH   3   7
HETATM    7  C8  UNL     1     -35.084  16.480  -3.480  1.00 20.00    -0.007 C 
HETATM    8  C4  UNL     1     -35.355  17.739  -4.332  1.00 20.00     0.021 C 
HETATM    9  C5  UNL     1     -33.563  16.330  -3.265  1.00 20.00     0.021 C 
HETATM   10  C6  UNL     1     -35.720  16.721  -2.093  1.00 20.00     0.021 C 
ENDBRANCH   3   7
TORSDOF 1
ENDMDL
MODEL 5
REMARK VINA RESULT:      -4.0      1.760      3.045
REMARK  1 active torsions:
REMARK  status: ('A' for Active; 'I' for Inactive)
REMARK    1  A    between atoms: C3_3  and  C8_8 
ROOT
HETATM    1  C1  UNL     1     -33.434   7.696   4.928  1.00 20.00     0.048 A 
HETATM    2  C2  UNL     1     -33.920   7.367   6.207  1.00 20.00     0.141 A 
HETATM    3  C3  UNL     1     -33.702   6.587   4.163  1.00 20.00     0.039 A 
HETATM    4  C7  UNL     1     -34.784   4.375   4.661  1.00 20.00     0.179 C 
HETATM    5  N9  UNL     1     -34.457   6.145   6.256  1.00 20.00    -0.185 NA
HETATM    6  N10 UNL     1     -34.309   5.696   4.998  1.00 20.00    -0.278 N 
ENDROOT
BRANCH   3   7
HETATM    7  C8  UNL     1     -33.427   6.293   2.679  1.00 20.00    -0.007 C 
HETATM    8  C4  UNL     1     -32.487   7.373   2.101  1.00 20.00     0.021 C 
HETATM    9  C5  UNL     1     -34.756   6.303   1.893  1.00 20.00     0.021 C 
HETATM   10  C6  UNL     1     -32.758   4.924   2.427  1.00 20.00     0.021 C 
ENDBRANCH   3   7
TORSDOF 1
ENDMDL
MODEL 6
REMARK VINA RESULT:      -4.0     11.944     12.662
REMARK  1 active torsions:
REMARK  status: ('A' for Active; 'I' for Inactive)
REMARK    1  A    between atoms: C3_3  and  C8_8 
ROOT
HETATM    1  C1  UNL     1     -33.424  15.303  -3.850  1.00 20.00     0.048 A 
HETATM    2  C2  UNL     1     -33.989  14.355  -4.724  1.00 20.00     0.141 A 
HETATM    3  C3  UNL     1     -34.497  16.024  -3.386  1.00 20.00     0.039 A 
HETATM    4  C7  UNL     1     -36.969  15.902  -3.818  1.00 20.00     0.179 C 
HETATM    5  N9  UNL     1     -35.318  14.462  -4.811  1.00 20.00    -0.185 NA
HETATM    6  N10 UNL     1     -35.596  15.486  -3.987  1.00 20.00    -0.278 N 
ENDROOT
BRANCH   3   7
HETATM    7  C8  UNL     1     -34.571  17.205  -2.402  1.00 20.00    -0.007 C 
HETATM    8  C4  UNL     1     -35.132  18.448  -3.125  1.00 20.00     0.021 C 
HETATM    9  C5  UNL     1     -33.159  17.523  -1.866  1.00 20.00     0.021 C 
HETATM   10  C6  UNL     1     -35.477  16.942  -1.178  1.00 20.00     0.021 C 
ENDBRANCH   3   7
TORSDOF 1
ENDMDL
MODEL 7
REMARK VINA RESULT:      -4.0     11.896     12.764
REMARK  1 active torsions:
REMARK  status: ('A' for Active; 'I' for Inactive)
REMARK    1  A    between atoms: C3_3  and  C8_8 
ROOT
HETATM    1  C1  UNL     1     -36.741  14.758  -4.649  1.00 20.00     0.048 A 
HETATM    2  C2  UNL     1     -36.288  13.565  -5.244  1.00 20.00     0.141 A 
HETATM    3  C3  UNL     1     -35.596  15.385  -4.222  1.00 20.00     0.039 A 
HETATM    4  C7  UNL     1     -33.159  14.786  -4.342  1.00 20.00     0.179 C 
HETATM    5  N9  UNL     1     -34.958  13.441  -5.201  1.00 20.00    -0.185 NA
HETATM    6  N10 UNL     1     -34.567  14.563  -4.574  1.00 20.00    -0.278 N 
ENDROOT
BRANCH   3   7
HETATM    7  C8  UNL     1     -35.390  16.725  -3.495  1.00 20.00    -0.007 C 
HETATM    8  C4  UNL     1     -36.761  17.345  -3.150  1.00 20.00     0.021 C 
HETATM    9  C5  UNL     1     -34.608  17.695  -4.406  1.00 20.00     0.021 C 
HETATM   10  C6  UNL     1     -34.599  16.602  -2.173  1.00 20.00     0.021 C 
ENDBRANCH   3   7
TORSDOF 1
ENDMDL
MODEL 8
REMARK VINA RESULT:      -3.9     12.054     13.541
REMARK  1 active torsions:
REMARK  status: ('A' for Active; 'I' for Inactive)
REMARK    1  A    between atoms: C3_3  and  C8_8 
ROOT
HETATM    1  C1  UNL     1     -33.761  15.246  -7.271  1.00 20.00     0.048 A 
HETATM    2  C2  UNL     1     -33.991  14.004  -7.893  1.00 20.00     0.141 A 
HETATM    3  C3  UNL     1     -34.478  15.182  -6.101  1.00 20.00     0.039 A 
HETATM    4  C7  UNL     1     -35.930  13.410  -5.068  1.00 20.00     0.179 C 
HETATM    5  N9  UNL     1     -34.791  13.209  -7.177  1.00 20.00    -0.185 NA
HETATM    6  N10 UNL     1     -35.070  13.953  -6.093  1.00 20.00    -0.278 N 
ENDROOT
BRANCH   3   7
HETATM    7  C8  UNL     1     -34.653  16.205  -4.967  1.00 20.00    -0.007 C 
HETATM    8  C4  UNL     1     -36.107  16.725  -4.957  1.00 20.00     0.021 C 
HETATM    9  C5  UNL     1     -33.691  17.392  -5.185  1.00 20.00     0.021 C 
HETATM   10  C6  UNL     1     -34.364  15.635  -3.560  1.00 20.00     0.021 C 
ENDBRANCH   3   7
TORSDOF 1
ENDMDL
MODEL 9
REMARK VINA RESULT:      -3.8     11.870     12.538
REMARK  1 active torsions:
REMARK  status: ('A' for Active; 'I' for Inactive)
REMARK    1  A    between atoms: C3_3  and  C8_8 
ROOT
HETATM    1  C1  UNL     1     -33.977  16.573  -2.394  1.00 20.00     0.048 A 
HETATM    2  C2  UNL     1     -34.864  17.322  -1.597  1.00 20.00     0.141 A 
HETATM    3  C3  UNL     1     -34.770  16.036  -3.378  1.00 20.00     0.039 A 
HETATM    4  C7  UNL     1     -37.227  16.185  -3.881  1.00 20.00     0.179 C 
HETATM    5  N9  UNL     1     -36.124  17.267  -2.038  1.00 20.00    -0.185 NA
HETATM    6  N10 UNL     1     -36.034  16.478  -3.122  1.00 20.00    -0.278 N 
ENDROOT
BRANCH   3   7
HETATM    7  C8  UNL     1     -34.426  15.121  -4.566  1.00 20.00    -0.007 C 
HETATM    8  C4  UNL     1     -32.988  14.582  -4.406  1.00 20.00     0.021 C 
HETATM    9  C5  UNL     1     -34.525  15.919  -5.883  1.00 20.00     0.021 C 
HETATM   10  C6  UNL     1     -35.358  13.896  -4.702  1.00 20.00     0.021 C 
ENDBRANCH   3   7
TORSDOF 1
ENDMDL
