MODEL 1
REMARK VINA RESULT:      -5.8      0.000      0.000
REMARK  3 active torsions:
REMARK  status: ('A' for Active; 'I' for Inactive)
REMARK    1  A    between atoms: C1_1  and  C3_3 
REMARK    2  A    between atoms: C2_2  and  C7_7 
REMARK    3  A    between atoms: C7_7  and  C8_8 
ROOT
HETATM    1  C1  UNL     1     -33.091   6.859   2.919  1.00 20.00     0.045 C 
HETATM    2  C2  UNL     1     -32.699   8.103   2.608  1.00 20.00    -0.023 C 
ENDROOT
BRANCH   2   3
HETATM    3  C7  UNL     1     -31.756   8.413   1.479  1.00 20.00     0.031 C 
BRANCH   3   4
HETATM    4  C8  UNL     1     -32.169   9.658   0.672  1.00 20.00    -0.019 C 
HETATM    5  C5  UNL     1     -33.111   9.253  -0.464  1.00 20.00     0.010 C 
HETATM    6  C6  UNL     1     -32.843  10.716   1.550  1.00 20.00     0.010 C 
ENDBRANCH   3   4
ENDBRANCH   2   3
BRANCH   1   7
HETATM    7  C3  UNL     1     -34.024   6.618   4.053  1.00 20.00     0.145 C 
HETATM    8  C4  UNL     1     -33.672   7.260   5.368  1.00 20.00     0.096 C 
HETATM    9  O9  UNL     1     -35.024   5.913   3.939  1.00 20.00    -0.294 OA
ENDBRANCH   1   7
TORSDOF 3
ENDMDL
MODEL 2
REMARK VINA RESULT:      -5.6      2.187      4.888
REMARK  3 active torsions:
REMARK  status: ('A' for Active; 'I' for Inactive)
REMARK    1  A    between atoms: C1_1  and  C3_3 
REMARK    2  A    between atoms: C2_2  and  C7_7 
REMARK    3  A    between atoms: C7_7  and  C8_8 
ROOT
HETATM    1  C1  UNL     1     -32.297   8.622   1.983  1.00 20.00     0.045 C 
HETATM    2  C2  UNL     1     -33.291   7.868   2.473  1.00 20.00    -0.023 C 
ENDROOT
BRANCH   2   3
HETATM    3  C7  UNL     1     -33.069   6.733   3.435  1.00 20.00     0.031 C 
BRANCH   3   4
HETATM    4  C8  UNL     1     -34.178   6.616   4.497  1.00 20.00    -0.019 C 
HETATM    5  C5  UNL     1     -34.571   5.149   4.680  1.00 20.00     0.010 C 
HETATM    6  C6  UNL     1     -33.752   7.209   5.843  1.00 20.00     0.010 C 
ENDBRANCH   3   4
ENDBRANCH   2   3
BRANCH   1   7
HETATM    7  C3  UNL     1     -32.583   9.728   1.029  1.00 20.00     0.145 C 
HETATM    8  C4  UNL     1     -32.971   9.332  -0.371  1.00 20.00     0.096 C 
HETATM    9  O9  UNL     1     -32.489  10.911   1.351  1.00 20.00    -0.294 OA
ENDBRANCH   1   7
TORSDOF 3
ENDMDL
MODEL 3
REMARK VINA RESULT:      -5.6      2.175      4.769
REMARK  3 active torsions:
REMARK  status: ('A' for Active; 'I' for Inactive)
REMARK    1  A    between atoms: C1_1  and  C3_3 
REMARK    2  A    between atoms: C2_2  and  C7_7 
REMARK    3  A    between atoms: C7_7  and  C8_8 
ROOT
HETATM    1  C1  UNL     1     -32.111   8.058   2.423  1.00 20.00     0.045 C 
HETATM    2  C2  UNL     1     -33.111   7.168   2.483  1.00 20.00    -0.023 C 
ENDROOT
BRANCH   2   3
HETATM    3  C7  UNL     1     -33.213   6.111   3.547  1.00 20.00     0.031 C 
BRANCH   3   4
HETATM    4  C8  UNL     1     -34.239   6.455   4.643  1.00 20.00    -0.019 C 
HETATM    5  C5  UNL     1     -34.746   5.171   5.304  1.00 20.00     0.010 C 
HETATM    6  C6  UNL     1     -33.654   7.387   5.708  1.00 20.00     0.010 C 
ENDBRANCH   3   4
ENDBRANCH   2   3
BRANCH   1   7
HETATM    7  C3  UNL     1     -32.065   9.077   1.339  1.00 20.00     0.145 C 
HETATM    8  C4  UNL     1     -32.935  10.293   1.515  1.00 20.00     0.096 C 
HETATM    9  O9  UNL     1     -31.372   8.933   0.334  1.00 20.00    -0.294 OA
ENDBRANCH   1   7
TORSDOF 3
ENDMDL
MODEL 4
REMARK VINA RESULT:      -5.6      2.034      4.941
REMARK  3 active torsions:
REMARK  status: ('A' for Active; 'I' for Inactive)
REMARK    1  A    between atoms: C1_1  and  C3_3 
REMARK    2  A    between atoms: C2_2  and  C7_7 
REMARK    3  A    between atoms: C7_7  and  C8_8 
ROOT
HETATM    1  C1  UNL     1     -32.951   7.054   2.629  1.00 20.00     0.045 C 
HETATM    2  C2  UNL     1     -34.021   7.127   3.433  1.00 20.00    -0.023 C 
ENDROOT
BRANCH   2   3
HETATM    3  C7  UNL     1     -35.049   6.036   3.541  1.00 20.00     0.031 C 
BRANCH   3   4
HETATM    4  C8  UNL     1     -34.928   5.219   4.841  1.00 20.00    -0.019 C 
HETATM    5  C5  UNL     1     -34.081   3.969   4.593  1.00 20.00     0.010 C 
HETATM    6  C6  UNL     1     -34.319   6.038   5.982  1.00 20.00     0.010 C 
ENDBRANCH   3   4
ENDBRANCH   2   3
BRANCH   1   7
HETATM    7  C3  UNL     1     -31.971   8.173   2.564  1.00 20.00     0.145 C 
HETATM    8  C4  UNL     1     -31.875   8.914   1.257  1.00 20.00     0.096 C 
HETATM    9  O9  UNL     1     -31.255   8.471   3.517  1.00 20.00    -0.294 OA
ENDBRANCH   1   7
TORSDOF 3
ENDMDL
MODEL 5
REMARK VINA RESULT:      -5.6      1.141      1.720
REMARK  3 active torsions:
REMARK  status: ('A' for Active; 'I' for Inactive)
REMARK    1  A    between atoms: C1_1  and  C3_3 
REMARK    2  A    between atoms: C2_2  and  C7_7 
REMARK    3  A    between atoms: C7_7  and  C8_8 
ROOT
HETATM    1  C1  UNL     1     -33.470   7.341   3.274  1.00 20.00     0.045 C 
HETATM    2  C2  UNL     1     -32.263   7.877   3.048  1.00 20.00    -0.023 C 
ENDROOT
BRANCH   2   3
HETATM    3  C7  UNL     1     -31.834   8.412   1.710  1.00 20.00     0.031 C 
BRANCH   3   4
HETATM    4  C8  UNL     1     -32.867   9.365   1.081  1.00 20.00    -0.019 C 
HETATM    5  C5  UNL     1     -32.520  10.814   1.431  1.00 20.00     0.010 C 
HETATM    6  C6  UNL     1     -32.948   9.206  -0.439  1.00 20.00     0.010 C 
ENDBRANCH   3   4
ENDBRANCH   2   3
BRANCH   1   7
HETATM    7  C3  UNL     1     -33.832   6.824   4.622  1.00 20.00     0.145 C 
HETATM    8  C4  UNL     1     -34.709   5.602   4.667  1.00 20.00     0.096 C 
HETATM    9  O9  UNL     1     -33.456   7.374   5.656  1.00 20.00    -0.294 OA
ENDBRANCH   1   7
TORSDOF 3
ENDMDL
MODEL 6
REMARK VINA RESULT:      -5.3      1.432      2.115
REMARK  3 active torsions:
REMARK  status: ('A' for Active; 'I' for Inactive)
REMARK    1  A    between atoms: C1_1  and  C3_3 
REMARK    2  A    between atoms: C2_2  and  C7_7 
REMARK    3  A    between atoms: C7_7  and  C8_8 
ROOT
HETATM    1  C1  UNL     1     -34.388   5.925   3.351  1.00 20.00     0.045 C 
HETATM    2  C2  UNL     1     -33.198   6.346   2.901  1.00 20.00    -0.023 C 
ENDROOT
BRANCH   2   3
HETATM    3  C7  UNL     1     -33.042   7.309   1.757  1.00 20.00     0.031 C 
BRANCH   3   4
HETATM    4  C8  UNL     1     -31.907   8.326   1.974  1.00 20.00    -0.019 C 
HETATM    5  C5  UNL     1     -32.342   9.706   1.475  1.00 20.00     0.010 C 
HETATM    6  C6  UNL     1     -31.487   8.417   3.443  1.00 20.00     0.010 C 
ENDBRANCH   3   4
ENDBRANCH   2   3
BRANCH   1   7
HETATM    7  C3  UNL     1     -34.474   4.966   4.487  1.00 20.00     0.145 C 
HETATM    8  C4  UNL     1     -34.609   5.558   5.864  1.00 20.00     0.096 C 
HETATM    9  O9  UNL     1     -34.417   3.749   4.321  1.00 20.00    -0.294 OA
ENDBRANCH   1   7
TORSDOF 3
ENDMDL
MODEL 7
REMARK VINA RESULT:      -4.4      9.615     10.182
REMARK  3 active torsions:
REMARK  status: ('A' for Active; 'I' for Inactive)
REMARK    1  A    between atoms: C1_1  and  C3_3 
REMARK    2  A    between atoms: C2_2  and  C7_7 
REMARK    3  A    between atoms: C7_7  and  C8_8 
ROOT
HETATM    1  C1  UNL     1     -34.707  14.403  -4.302  1.00 20.00     0.045 C 
HETATM    2  C2  UNL     1     -34.841  15.572  -3.660  1.00 20.00    -0.023 C 
ENDROOT
BRANCH   2   3
HETATM    3  C7  UNL     1     -33.693  16.292  -3.008  1.00 20.00     0.031 C 
BRANCH   3   4
HETATM    4  C8  UNL     1     -34.145  17.442  -2.088  1.00 20.00    -0.019 C 
HETATM    5  C5  UNL     1     -35.267  16.960  -1.166  1.00 20.00     0.010 C 
HETATM    6  C6  UNL     1     -32.991  17.997  -1.250  1.00 20.00     0.010 C 
ENDBRANCH   3   4
ENDBRANCH   2   3
BRANCH   1   7
HETATM    7  C3  UNL     1     -35.885  13.738  -4.922  1.00 20.00     0.145 C 
HETATM    8  C4  UNL     1     -37.166  14.528  -4.961  1.00 20.00     0.096 C 
HETATM    9  O9  UNL     1     -35.832  12.593  -5.365  1.00 20.00    -0.294 OA
ENDBRANCH   1   7
TORSDOF 3
ENDMDL
MODEL 8
REMARK VINA RESULT:      -4.1      9.788     10.668
REMARK  3 active torsions:
REMARK  status: ('A' for Active; 'I' for Inactive)
REMARK    1  A    between atoms: C1_1  and  C3_3 
REMARK    2  A    between atoms: C2_2  and  C7_7 
REMARK    3  A    between atoms: C7_7  and  C8_8 
ROOT
HETATM    1  C1  UNL     1     -32.887  17.857  -1.655  1.00 20.00     0.045 C 
HETATM    2  C2  UNL     1     -33.996  17.110  -1.561  1.00 20.00    -0.023 C 
ENDROOT
BRANCH   2   3
HETATM    3  C7  UNL     1     -34.711  16.540  -2.755  1.00 20.00     0.031 C 
BRANCH   3   4
HETATM    4  C8  UNL     1     -33.781  15.753  -3.697  1.00 20.00    -0.019 C 
HETATM    5  C5  UNL     1     -34.422  14.412  -4.061  1.00 20.00     0.010 C 
HETATM    6  C6  UNL     1     -33.457  16.535  -4.973  1.00 20.00     0.010 C 
ENDBRANCH   3   4
ENDBRANCH   2   3
BRANCH   1   7
HETATM    7  C3  UNL     1     -32.229  18.396  -0.433  1.00 20.00     0.145 C 
HETATM    8  C4  UNL     1     -33.120  19.080   0.570  1.00 20.00     0.096 C 
HETATM    9  O9  UNL     1     -31.016  18.313  -0.252  1.00 20.00    -0.294 OA
ENDBRANCH   1   7
TORSDOF 3
ENDMDL
MODEL 9
REMARK VINA RESULT:      -4.1      9.847     10.430
REMARK  3 active torsions:
REMARK  status: ('A' for Active; 'I' for Inactive)
REMARK    1  A    between atoms: C1_1  and  C3_3 
REMARK    2  A    between atoms: C2_2  and  C7_7 
REMARK    3  A    between atoms: C7_7  and  C8_8 
ROOT
HETATM    1  C1  UNL     1     -35.899  14.922  -4.557  1.00 20.00     0.045 C 
HETATM    2  C2  UNL     1     -35.053  15.542  -3.722  1.00 20.00    -0.023 C 
ENDROOT
BRANCH   2   3
HETATM    3  C7  UNL     1     -35.451  16.708  -2.860  1.00 20.00     0.031 C 
BRANCH   3   4
HETATM    4  C8  UNL     1     -34.646  16.793  -1.550  1.00 20.00    -0.019 C 
HETATM    5  C5  UNL     1     -33.368  17.604  -1.775  1.00 20.00     0.010 C 
HETATM    6  C6  UNL     1     -35.460  17.416  -0.413  1.00 20.00     0.010 C 
ENDBRANCH   3   4
ENDBRANCH   2   3
BRANCH   1   7
HETATM    7  C3  UNL     1     -35.441  13.774  -5.388  1.00 20.00     0.145 C 
HETATM    8  C4  UNL     1     -34.401  14.070  -6.436  1.00 20.00     0.096 C 
HETATM    9  O9  UNL     1     -35.898  12.642  -5.248  1.00 20.00    -0.294 OA
ENDBRANCH   1   7
TORSDOF 3
ENDMDL
