MODEL 1
REMARK VINA RESULT:      -3.8      0.000      0.000
REMARK  0 active torsions:
REMARK  status: ('A' for Active; 'I' for Inactive)
ROOT
HETATM    1  C1  UNL     1     -34.308  16.538  -2.924  1.00 20.00     0.145 C 
HETATM    2  C2  UNL     1     -35.714  15.339  -4.640  1.00 20.00     0.061 C 
HETATM    3  C3  UNL     1     -36.748  17.171  -2.952  1.00 20.00     0.061 C 
HETATM    4  C4  UNL     1     -34.490  16.232  -4.414  1.00 20.00     0.103 C 
HETATM    5  C5  UNL     1     -35.596  16.626  -2.101  1.00 20.00     0.103 C 
HETATM    6  C6  UNL     1     -33.180  15.744  -5.034  1.00 20.00     0.024 C 
HETATM    7  C7  UNL     1     -35.345  17.344  -0.774  1.00 20.00     0.024 C 
HETATM    8  O8  UNL     1     -33.196  16.701  -2.421  1.00 20.00    -0.296 OA
HETATM    9  S9  UNL     1     -35.658  13.741  -5.148  1.00 20.00    -0.076 SA
HETATM   10  S10 UNL     1     -37.467  18.672  -2.746  1.00 20.00    -0.076 SA
HETATM   11  S11 UNL     1     -37.271  16.102  -4.266  1.00 20.00    -0.074 SA
ENDROOT
TORSDOF 0
ENDMDL
MODEL 2
REMARK VINA RESULT:      -3.8      0.023      3.637
REMARK  0 active torsions:
REMARK  status: ('A' for Active; 'I' for Inactive)
ROOT
HETATM    1  C1  UNL     1     -34.312  16.529  -2.944  1.00 20.00     0.145 C 
HETATM    2  C2  UNL     1     -36.751  17.170  -2.954  1.00 20.00     0.061 C 
HETATM    3  C3  UNL     1     -35.732  15.343  -4.657  1.00 20.00     0.061 C 
HETATM    4  C4  UNL     1     -35.595  16.618  -2.112  1.00 20.00     0.103 C 
HETATM    5  C5  UNL     1     -34.505  16.233  -4.434  1.00 20.00     0.103 C 
HETATM    6  C6  UNL     1     -35.334  17.328  -0.783  1.00 20.00     0.024 C 
HETATM    7  C7  UNL     1     -33.200  15.744  -5.065  1.00 20.00     0.024 C 
HETATM    8  O8  UNL     1     -33.197  16.687  -2.447  1.00 20.00    -0.296 OA
HETATM    9  S9  UNL     1     -37.468  18.670  -2.734  1.00 20.00    -0.076 SA
HETATM   10  S10 UNL     1     -35.682  13.747  -5.170  1.00 20.00    -0.076 SA
HETATM   11  S11 UNL     1     -37.284  16.109  -4.271  1.00 20.00    -0.074 SA
ENDROOT
TORSDOF 0
ENDMDL
MODEL 3
REMARK VINA RESULT:      -3.7      2.713      3.138
REMARK  0 active torsions:
REMARK  status: ('A' for Active; 'I' for Inactive)
ROOT
HETATM    1  C1  UNL     1     -34.743  14.658  -4.928  1.00 20.00     0.145 C 
HETATM    2  C2  UNL     1     -35.735  15.602  -7.045  1.00 20.00     0.061 C 
HETATM    3  C3  UNL     1     -34.719  17.173  -5.103  1.00 20.00     0.061 C 
HETATM    4  C4  UNL     1     -34.672  14.667  -6.458  1.00 20.00     0.103 C 
HETATM    5  C5  UNL     1     -35.185  15.971  -4.275  1.00 20.00     0.103 C 
HETATM    6  C6  UNL     1     -34.653  13.241  -7.011  1.00 20.00     0.024 C 
HETATM    7  C7  UNL     1     -34.810  15.994  -2.792  1.00 20.00     0.024 C 
HETATM    8  O8  UNL     1     -34.462  13.659  -4.266  1.00 20.00    -0.296 OA
HETATM    9  S9  UNL     1     -37.078  15.101  -7.918  1.00 20.00    -0.076 SA
HETATM   10  S10 UNL     1     -33.542  18.269  -4.629  1.00 20.00    -0.076 SA
HETATM   11  S11 UNL     1     -35.490  17.323  -6.693  1.00 20.00    -0.074 SA
ENDROOT
TORSDOF 0
ENDMDL
MODEL 4
REMARK VINA RESULT:      -3.7      2.729      4.388
REMARK  0 active torsions:
REMARK  status: ('A' for Active; 'I' for Inactive)
ROOT
HETATM    1  C1  UNL     1     -34.823  14.647  -5.022  1.00 20.00     0.145 C 
HETATM    2  C2  UNL     1     -34.825  17.165  -5.152  1.00 20.00     0.061 C 
HETATM    3  C3  UNL     1     -35.895  15.620  -7.086  1.00 20.00     0.061 C 
HETATM    4  C4  UNL     1     -35.251  15.945  -4.330  1.00 20.00     0.103 C 
HETATM    5  C5  UNL     1     -34.804  14.685  -6.552  1.00 20.00     0.103 C 
HETATM    6  C6  UNL     1     -34.827  15.944  -2.860  1.00 20.00     0.024 C 
HETATM    7  C7  UNL     1     -34.794  13.269  -7.131  1.00 20.00     0.024 C 
HETATM    8  O8  UNL     1     -34.514  13.639  -4.387  1.00 20.00    -0.296 OA
HETATM    9  S9  UNL     1     -33.642  18.264  -4.697  1.00 20.00    -0.076 SA
HETATM   10  S10 UNL     1     -37.264  15.124  -7.918  1.00 20.00    -0.076 SA
HETATM   11  S11 UNL     1     -35.649  17.336  -6.713  1.00 20.00    -0.074 SA
ENDROOT
TORSDOF 0
ENDMDL
MODEL 5
REMARK VINA RESULT:      -3.7      2.678      3.648
REMARK  0 active torsions:
REMARK  status: ('A' for Active; 'I' for Inactive)
ROOT
HETATM    1  C1  UNL     1     -34.851  14.343  -5.907  1.00 20.00     0.145 C 
HETATM    2  C2  UNL     1     -37.060  15.435  -5.373  1.00 20.00     0.061 C 
HETATM    3  C3  UNL     1     -34.741  16.256  -4.269  1.00 20.00     0.061 C 
HETATM    4  C4  UNL     1     -36.075  15.061  -6.485  1.00 20.00     0.103 C 
HETATM    5  C5  UNL     1     -34.431  14.773  -4.499  1.00 20.00     0.103 C 
HETATM    6  C6  UNL     1     -36.658  14.280  -7.664  1.00 20.00     0.024 C 
HETATM    7  C7  UNL     1     -32.996  14.335  -4.202  1.00 20.00     0.024 C 
HETATM    8  O8  UNL     1     -34.245  13.475  -6.535  1.00 20.00    -0.296 OA
HETATM    9  S9  UNL     1     -38.575  14.745  -5.160  1.00 20.00    -0.076 SA
HETATM   10  S10 UNL     1     -33.589  17.465  -4.110  1.00 20.00    -0.076 SA
HETATM   11  S11 UNL     1     -36.467  16.657  -4.233  1.00 20.00    -0.074 SA
ENDROOT
TORSDOF 0
ENDMDL
MODEL 6
REMARK VINA RESULT:      -3.7      2.679      4.061
REMARK  0 active torsions:
REMARK  status: ('A' for Active; 'I' for Inactive)
ROOT
HETATM    1  C1  UNL     1     -34.850  14.343  -5.909  1.00 20.00     0.145 C 
HETATM    2  C2  UNL     1     -34.740  16.258  -4.272  1.00 20.00     0.061 C 
HETATM    3  C3  UNL     1     -37.059  15.437  -5.377  1.00 20.00     0.061 C 
HETATM    4  C4  UNL     1     -34.429  14.776  -4.500  1.00 20.00     0.103 C 
HETATM    5  C5  UNL     1     -36.072  15.063  -6.488  1.00 20.00     0.103 C 
HETATM    6  C6  UNL     1     -32.995  14.336  -4.202  1.00 20.00     0.024 C 
HETATM    7  C7  UNL     1     -36.655  14.281  -7.666  1.00 20.00     0.024 C 
HETATM    8  O8  UNL     1     -34.244  13.475  -6.535  1.00 20.00    -0.296 OA
HETATM    9  S9  UNL     1     -33.588  17.467  -4.109  1.00 20.00    -0.076 SA
HETATM   10  S10 UNL     1     -38.572  14.746  -5.163  1.00 20.00    -0.076 SA
HETATM   11  S11 UNL     1     -36.467  16.661  -4.239  1.00 20.00    -0.074 SA
ENDROOT
TORSDOF 0
ENDMDL
MODEL 7
REMARK VINA RESULT:      -3.6      2.692      4.423
REMARK  0 active torsions:
REMARK  status: ('A' for Active; 'I' for Inactive)
ROOT
HETATM    1  C1  UNL     1     -36.442  15.386  -4.253  1.00 20.00     0.145 C 
HETATM    2  C2  UNL     1     -34.520  16.824  -3.478  1.00 20.00     0.061 C 
HETATM    3  C3  UNL     1     -34.363  15.268  -5.675  1.00 20.00     0.061 C 
HETATM    4  C4  UNL     1     -35.989  16.810  -3.916  1.00 20.00     0.103 C 
HETATM    5  C5  UNL     1     -35.365  14.467  -4.836  1.00 20.00     0.103 C 
HETATM    6  C6  UNL     1     -36.979  17.485  -2.965  1.00 20.00     0.024 C 
HETATM    7  C7  UNL     1     -35.997  13.256  -5.524  1.00 20.00     0.024 C 
HETATM    8  O8  UNL     1     -37.597  15.005  -4.066  1.00 20.00    -0.296 OA
HETATM    9  S9  UNL     1     -33.984  17.153  -1.923  1.00 20.00    -0.076 SA
HETATM   10  S10 UNL     1     -34.210  15.169  -7.342  1.00 20.00    -0.076 SA
HETATM   11  S11 UNL     1     -33.360  16.402  -4.752  1.00 20.00    -0.074 SA
ENDROOT
TORSDOF 0
ENDMDL
MODEL 8
REMARK VINA RESULT:      -3.6      2.693      3.163
REMARK  0 active torsions:
REMARK  status: ('A' for Active; 'I' for Inactive)
ROOT
HETATM    1  C1  UNL     1     -36.444  15.388  -4.259  1.00 20.00     0.145 C 
HETATM    2  C2  UNL     1     -34.365  15.266  -5.682  1.00 20.00     0.061 C 
HETATM    3  C3  UNL     1     -34.524  16.831  -3.491  1.00 20.00     0.061 C 
HETATM    4  C4  UNL     1     -35.366  14.467  -4.840  1.00 20.00     0.103 C 
HETATM    5  C5  UNL     1     -35.992  16.813  -3.929  1.00 20.00     0.103 C 
HETATM    6  C6  UNL     1     -35.998  13.253  -5.523  1.00 20.00     0.024 C 
HETATM    7  C7  UNL     1     -36.983  17.491  -2.980  1.00 20.00     0.024 C 
HETATM    8  O8  UNL     1     -37.598  15.006  -4.070  1.00 20.00    -0.296 OA
HETATM    9  S9  UNL     1     -34.210  15.158  -7.348  1.00 20.00    -0.076 SA
HETATM   10  S10 UNL     1     -33.989  17.163  -1.937  1.00 20.00    -0.076 SA
HETATM   11  S11 UNL     1     -33.364  16.406  -4.763  1.00 20.00    -0.074 SA
ENDROOT
TORSDOF 0
ENDMDL
MODEL 9
REMARK VINA RESULT:      -3.6      2.821      3.258
REMARK  0 active torsions:
REMARK  status: ('A' for Active; 'I' for Inactive)
ROOT
HETATM    1  C1  UNL     1     -34.304  16.191  -3.752  1.00 20.00     0.145 C 
HETATM    2  C2  UNL     1     -33.582  18.067  -5.274  1.00 20.00     0.061 C 
HETATM    3  C3  UNL     1     -33.565  18.302  -2.588  1.00 20.00     0.061 C 
HETATM    4  C4  UNL     1     -33.342  16.609  -4.869  1.00 20.00     0.103 C 
HETATM    5  C5  UNL     1     -34.708  17.297  -2.773  1.00 20.00     0.103 C 
HETATM    6  C6  UNL     1     -33.351  15.587  -6.006  1.00 20.00     0.024 C 
HETATM    7  C7  UNL     1     -35.292  16.702  -1.491  1.00 20.00     0.024 C 
HETATM    8  O8  UNL     1     -34.726  15.039  -3.649  1.00 20.00    -0.296 OA
HETATM    9  S9  UNL     1     -34.220  18.563  -6.744  1.00 20.00    -0.076 SA
HETATM   10  S10 UNL     1     -32.673  18.492  -1.180  1.00 20.00    -0.076 SA
HETATM   11  S11 UNL     1     -33.179  19.262  -4.027  1.00 20.00    -0.074 SA
ENDROOT
TORSDOF 0
ENDMDL
