MODEL 1
REMARK VINA RESULT:      -6.2      0.000      0.000
REMARK  3 active torsions:
REMARK  status: ('A' for Active; 'I' for Inactive)
REMARK    1  A    between atoms: C3_3  and  C9_9 
REMARK    2  A    between atoms: C8_8  and  C10_10 
REMARK    3  A    between atoms: C9_9  and  C10_10 
ROOT
HETATM    1  C1  UNL     1     -33.987   5.361   5.494  1.00 20.00    -0.026 C 
HETATM    2  C2  UNL     1     -34.071   6.699   5.492  1.00 20.00    -0.025 C 
HETATM    3  C4  UNL     1     -35.463   5.939   3.812  1.00 20.00     0.017 C 
HETATM    4  C5  UNL     1     -33.272   5.284   3.134  1.00 20.00     0.013 C 
HETATM    5  C6  UNL     1     -34.394   4.885   4.120  1.00 20.00     0.009 C 
HETATM    6  C7  UNL     1     -34.525   7.116   4.112  1.00 20.00     0.012 C 
HETATM    7  C8  UNL     1     -33.398   6.839   3.081  1.00 20.00    -0.006 C 
ENDROOT
BRANCH   7   8
HETATM    8  C10 UNL     1     -32.087   7.565   3.346  1.00 20.00     0.012 C 
BRANCH   8   9
HETATM    9  C9  UNL     1     -31.626   8.345   2.122  1.00 20.00     0.070 C 
BRANCH   9  10
HETATM   10  C3  UNL     1     -32.749   9.114   1.467  1.00 20.00     0.231 C 
HETATM   11  O11 UNL     1     -32.726  10.317   1.228  1.00 20.00    -0.307 OA
ENDBRANCH   9  10
ENDBRANCH   8   9
ENDBRANCH   7   8
TORSDOF 3
ENDMDL
MODEL 2
REMARK VINA RESULT:      -5.4      0.853      1.816
REMARK  3 active torsions:
REMARK  status: ('A' for Active; 'I' for Inactive)
REMARK    1  A    between atoms: C3_3  and  C9_9 
REMARK    2  A    between atoms: C8_8  and  C10_10 
REMARK    3  A    between atoms: C9_9  and  C10_10 
ROOT
HETATM    1  C1  UNL     1     -35.541   6.086   3.694  1.00 20.00    -0.026 C 
HETATM    2  C2  UNL     1     -34.854   6.093   2.543  1.00 20.00    -0.025 C 
HETATM    3  C4  UNL     1     -33.630   4.836   4.045  1.00 20.00     0.017 C 
HETATM    4  C5  UNL     1     -33.651   7.037   4.964  1.00 20.00     0.013 C 
HETATM    5  C6  UNL     1     -34.556   5.794   4.800  1.00 20.00     0.009 C 
HETATM    6  C7  UNL     1     -33.408   5.814   2.883  1.00 20.00     0.012 C 
HETATM    7  C8  UNL     1     -32.806   7.022   3.651  1.00 20.00    -0.006 C 
ENDROOT
BRANCH   7   8
HETATM    8  C10 UNL     1     -32.829   8.343   2.898  1.00 20.00     0.012 C 
BRANCH   8   9
HETATM    9  C9  UNL     1     -31.820   8.351   1.757  1.00 20.00     0.070 C 
BRANCH   9  10
HETATM   10  C3  UNL     1     -32.190   9.323   0.662  1.00 20.00     0.231 C 
HETATM   11  O11 UNL     1     -32.549  10.481   0.848  1.00 20.00    -0.307 OA
ENDBRANCH   9  10
ENDBRANCH   8   9
ENDBRANCH   7   8
TORSDOF 3
ENDMDL
MODEL 3
REMARK VINA RESULT:      -4.4     10.864     11.986
REMARK  3 active torsions:
REMARK  status: ('A' for Active; 'I' for Inactive)
REMARK    1  A    between atoms: C3_3  and  C9_9 
REMARK    2  A    between atoms: C8_8  and  C10_10 
REMARK    3  A    between atoms: C9_9  and  C10_10 
ROOT
HETATM    1  C1  UNL     1     -35.421  18.847  -2.489  1.00 20.00    -0.026 C 
HETATM    2  C2  UNL     1     -36.152  17.748  -2.726  1.00 20.00    -0.025 C 
HETATM    3  C4  UNL     1     -35.033  17.392  -0.737  1.00 20.00     0.017 C 
HETATM    4  C5  UNL     1     -33.315  17.566  -2.381  1.00 20.00     0.013 C 
HETATM    5  C6  UNL     1     -34.294  18.444  -1.569  1.00 20.00     0.009 C 
HETATM    6  C7  UNL     1     -35.505  16.611  -1.970  1.00 20.00     0.012 C 
HETATM    7  C8  UNL     1     -34.138  16.260  -2.614  1.00 20.00    -0.006 C 
ENDROOT
BRANCH   7   8
HETATM    8  C10 UNL     1     -34.200  15.833  -4.073  1.00 20.00     0.012 C 
BRANCH   8   9
HETATM    9  C9  UNL     1     -34.326  14.321  -4.205  1.00 20.00     0.070 C 
BRANCH   9  10
HETATM   10  C3  UNL     1     -35.623  13.901  -4.854  1.00 20.00     0.231 C 
HETATM   11  O11 UNL     1     -35.891  12.757  -5.204  1.00 20.00    -0.307 OA
ENDBRANCH   9  10
ENDBRANCH   8   9
ENDBRANCH   7   8
TORSDOF 3
ENDMDL
MODEL 4
REMARK VINA RESULT:      -4.4     11.110     12.130
REMARK  3 active torsions:
REMARK  status: ('A' for Active; 'I' for Inactive)
REMARK    1  A    between atoms: C3_3  and  C9_9 
REMARK    2  A    between atoms: C8_8  and  C10_10 
REMARK    3  A    between atoms: C9_9  and  C10_10 
ROOT
HETATM    1  C1  UNL     1     -35.278  16.863  -4.892  1.00 20.00    -0.026 C 
HETATM    2  C2  UNL     1     -33.938  16.892  -4.859  1.00 20.00    -0.025 C 
HETATM    3  C4  UNL     1     -34.586  14.893  -3.902  1.00 20.00     0.017 C 
HETATM    4  C5  UNL     1     -35.448  16.574  -2.447  1.00 20.00     0.013 C 
HETATM    5  C6  UNL     1     -35.730  15.908  -3.813  1.00 20.00     0.009 C 
HETATM    6  C7  UNL     1     -33.497  15.964  -3.751  1.00 20.00     0.012 C 
HETATM    7  C8  UNL     1     -33.890  16.563  -2.374  1.00 20.00    -0.006 C 
ENDROOT
BRANCH   7   8
HETATM    8  C10 UNL     1     -33.285  17.925  -2.066  1.00 20.00     0.012 C 
BRANCH   8   9
HETATM    9  C9  UNL     1     -33.418  18.272  -0.589  1.00 20.00     0.070 C 
BRANCH   9  10
HETATM   10  C3  UNL     1     -32.108  18.705   0.024  1.00 20.00     0.231 C 
HETATM   11  O11 UNL     1     -31.008  18.263  -0.291  1.00 20.00    -0.307 OA
ENDBRANCH   9  10
ENDBRANCH   8   9
ENDBRANCH   7   8
TORSDOF 3
ENDMDL
MODEL 5
REMARK VINA RESULT:      -4.4      0.911      1.461
REMARK  3 active torsions:
REMARK  status: ('A' for Active; 'I' for Inactive)
REMARK    1  A    between atoms: C3_3  and  C9_9 
REMARK    2  A    between atoms: C8_8  and  C10_10 
REMARK    3  A    between atoms: C9_9  and  C10_10 
ROOT
HETATM    1  C1  UNL     1     -34.364   4.133   4.274  1.00 20.00    -0.026 C 
HETATM    2  C2  UNL     1     -33.201   4.630   4.718  1.00 20.00    -0.025 C 
HETATM    3  C4  UNL     1     -34.876   5.920   5.646  1.00 20.00     0.017 C 
HETATM    4  C5  UNL     1     -35.049   6.292   3.296  1.00 20.00     0.013 C 
HETATM    5  C6  UNL     1     -35.389   5.237   4.374  1.00 20.00     0.009 C 
HETATM    6  C7  UNL     1     -33.448   6.070   5.104  1.00 20.00     0.012 C 
HETATM    7  C8  UNL     1     -33.723   6.917   3.833  1.00 20.00    -0.006 C 
ENDROOT
BRANCH   7   8
HETATM    8  C10 UNL     1     -32.598   6.929   2.809  1.00 20.00     0.012 C 
BRANCH   8   9
HETATM    9  C9  UNL     1     -31.945   8.301   2.716  1.00 20.00     0.070 C 
BRANCH   9  10
HETATM   10  C3  UNL     1     -32.256   9.005   1.416  1.00 20.00     0.231 C 
HETATM   11  O11 UNL     1     -32.561  10.188   1.318  1.00 20.00    -0.307 OA
ENDBRANCH   9  10
ENDBRANCH   8   9
ENDBRANCH   7   8
TORSDOF 3
ENDMDL
MODEL 6
REMARK VINA RESULT:      -4.2      9.150     10.798
REMARK  3 active torsions:
REMARK  status: ('A' for Active; 'I' for Inactive)
REMARK    1  A    between atoms: C3_3  and  C9_9 
REMARK    2  A    between atoms: C8_8  and  C10_10 
REMARK    3  A    between atoms: C9_9  and  C10_10 
ROOT
HETATM    1  C1  UNL     1     -41.871   7.809  -0.700  1.00 20.00    -0.026 C 
HETATM    2  C2  UNL     1     -43.184   7.538  -0.699  1.00 20.00    -0.025 C 
HETATM    3  C4  UNL     1     -42.293   6.529   1.177  1.00 20.00     0.017 C 
HETATM    4  C5  UNL     1     -41.260   5.418  -0.664  1.00 20.00     0.013 C 
HETATM    5  C6  UNL     1     -41.195   6.744   0.130  1.00 20.00     0.009 C 
HETATM    6  C7  UNL     1     -43.382   6.287   0.124  1.00 20.00     0.012 C 
HETATM    7  C8  UNL     1     -42.779   5.066  -0.620  1.00 20.00    -0.006 C 
ENDROOT
BRANCH   7   8
HETATM    8  C10 UNL     1     -43.378   4.784  -1.990  1.00 20.00     0.012 C 
BRANCH   8   9
HETATM    9  C9  UNL     1     -43.378   3.293  -2.302  1.00 20.00     0.070 C 
BRANCH   9  10
HETATM   10  C3  UNL     1     -42.505   2.948  -3.485  1.00 20.00     0.231 C 
HETATM   11  O11 UNL     1     -41.290   2.792  -3.435  1.00 20.00    -0.307 OA
ENDBRANCH   9  10
ENDBRANCH   8   9
ENDBRANCH   7   8
TORSDOF 3
ENDMDL
MODEL 7
REMARK VINA RESULT:      -4.2     11.169     12.251
REMARK  3 active torsions:
REMARK  status: ('A' for Active; 'I' for Inactive)
REMARK    1  A    between atoms: C3_3  and  C9_9 
REMARK    2  A    between atoms: C8_8  and  C10_10 
REMARK    3  A    between atoms: C9_9  and  C10_10 
ROOT
HETATM    1  C1  UNL     1     -34.969  17.757  -4.281  1.00 20.00    -0.026 C 
HETATM    2  C2  UNL     1     -35.825  16.927  -3.667  1.00 20.00    -0.025 C 
HETATM    3  C4  UNL     1     -33.837  16.824  -2.496  1.00 20.00     0.017 C 
HETATM    4  C5  UNL     1     -33.316  15.964  -4.658  1.00 20.00     0.013 C 
HETATM    5  C6  UNL     1     -33.574  17.302  -3.927  1.00 20.00     0.009 C 
HETATM    6  C7  UNL     1     -34.998  15.912  -2.912  1.00 20.00     0.012 C 
HETATM    7  C8  UNL     1     -34.268  14.977  -3.913  1.00 20.00    -0.006 C 
ENDROOT
BRANCH   7   8
HETATM    8  C10 UNL     1     -35.178  14.190  -4.845  1.00 20.00     0.012 C 
BRANCH   8   9
HETATM    9  C9  UNL     1     -34.894  14.513  -6.306  1.00 20.00     0.070 C 
BRANCH   9  10
HETATM   10  C3  UNL     1     -34.976  13.295  -7.195  1.00 20.00     0.231 C 
HETATM   11  O11 UNL     1     -35.100  12.143  -6.792  1.00 20.00    -0.307 OA
ENDBRANCH   9  10
ENDBRANCH   8   9
ENDBRANCH   7   8
TORSDOF 3
ENDMDL
MODEL 8
REMARK VINA RESULT:      -4.2      2.461      4.888
REMARK  3 active torsions:
REMARK  status: ('A' for Active; 'I' for Inactive)
REMARK    1  A    between atoms: C3_3  and  C9_9 
REMARK    2  A    between atoms: C8_8  and  C10_10 
REMARK    3  A    between atoms: C9_9  and  C10_10 
ROOT
HETATM    1  C1  UNL     1     -32.976  10.274   1.131  1.00 20.00    -0.026 C 
HETATM    2  C2  UNL     1     -32.282  10.124   2.268  1.00 20.00    -0.025 C 
HETATM    3  C4  UNL     1     -31.266   8.787   0.682  1.00 20.00     0.017 C 
HETATM    4  C5  UNL     1     -33.444   7.857   0.959  1.00 20.00     0.013 C 
HETATM    5  C6  UNL     1     -32.723   9.048   0.287  1.00 20.00     0.009 C 
HETATM    6  C7  UNL     1     -31.572   8.792   2.185  1.00 20.00     0.012 C 
HETATM    7  C8  UNL     1     -32.608   7.638   2.259  1.00 20.00    -0.006 C 
ENDROOT
BRANCH   7   8
HETATM    8  C10 UNL     1     -33.450   7.605   3.525  1.00 20.00     0.012 C 
BRANCH   8   9
HETATM    9  C9  UNL     1     -34.136   6.257   3.702  1.00 20.00     0.070 C 
BRANCH   9  10
HETATM   10  C3  UNL     1     -34.444   5.949   5.148  1.00 20.00     0.231 C 
HETATM   11  O11 UNL     1     -34.662   4.827   5.593  1.00 20.00    -0.307 OA
ENDBRANCH   9  10
ENDBRANCH   8   9
ENDBRANCH   7   8
TORSDOF 3
ENDMDL
MODEL 9
REMARK VINA RESULT:      -4.2     10.786     12.502
REMARK  3 active torsions:
REMARK  status: ('A' for Active; 'I' for Inactive)
REMARK    1  A    between atoms: C3_3  and  C9_9 
REMARK    2  A    between atoms: C8_8  and  C10_10 
REMARK    3  A    between atoms: C9_9  and  C10_10 
ROOT
HETATM    1  C1  UNL     1     -33.850  14.412  -3.934  1.00 20.00    -0.026 C 
HETATM    2  C2  UNL     1     -32.955  14.917  -4.795  1.00 20.00    -0.025 C 
HETATM    3  C4  UNL     1     -33.847  16.704  -3.635  1.00 20.00     0.017 C 
HETATM    4  C5  UNL     1     -35.682  15.787  -4.851  1.00 20.00     0.013 C 
HETATM    5  C6  UNL     1     -34.819  15.520  -3.597  1.00 20.00     0.009 C 
HETATM    6  C7  UNL     1     -33.334  16.359  -5.039  1.00 20.00     0.012 C 
HETATM    7  C8  UNL     1     -34.660  16.427  -5.842  1.00 20.00    -0.006 C 
ENDROOT
BRANCH   7   8
HETATM    8  C10 UNL     1     -34.627  15.749  -7.204  1.00 20.00     0.012 C 
BRANCH   8   9
HETATM    9  C9  UNL     1     -35.671  14.644  -7.302  1.00 20.00     0.070 C 
BRANCH   9  10
HETATM   10  C3  UNL     1     -35.053  13.276  -7.462  1.00 20.00     0.231 C 
HETATM   11  O11 UNL     1     -35.090  12.389  -6.617  1.00 20.00    -0.307 OA
ENDBRANCH   9  10
ENDBRANCH   8   9
ENDBRANCH   7   8
TORSDOF 3
ENDMDL
