MODEL 1
REMARK VINA RESULT:      -4.4      0.000      0.000
REMARK  0 active torsions:
REMARK  status: ('A' for Active; 'I' for Inactive)
ROOT
HETATM    1  C1  UNL     1     -34.530   5.160   5.627  1.00 20.00     0.028 C 
HETATM    2  C2  UNL     1     -34.368   6.640   5.974  1.00 20.00     0.017 C 
HETATM    3  C3  UNL     1     -34.674   4.959   4.122  1.00 20.00     0.188 C 
HETATM    4  C4  UNL     1     -33.225   7.273   5.194  1.00 20.00     0.140 C 
HETATM    5  O5  UNL     1     -32.269   7.554   2.704  1.00 20.00    -0.229 OA
HETATM    6  O6  UNL     1     -33.561   5.526   3.433  1.00 20.00    -0.296 OA
HETATM    7  S7  UNL     1     -33.531   7.139   3.402  1.00 20.00     0.152 S 
ENDROOT
TORSDOF 0
ENDMDL
MODEL 2
REMARK VINA RESULT:      -4.3      1.201      2.014
REMARK  0 active torsions:
REMARK  status: ('A' for Active; 'I' for Inactive)
ROOT
HETATM    1  C1  UNL     1     -34.781   5.401   5.247  1.00 20.00     0.028 C 
HETATM    2  C2  UNL     1     -34.115   4.699   4.064  1.00 20.00     0.017 C 
HETATM    3  C3  UNL     1     -34.005   6.649   5.656  1.00 20.00     0.188 C 
HETATM    4  C4  UNL     1     -33.900   5.653   2.898  1.00 20.00     0.140 C 
HETATM    5  O5  UNL     1     -32.870   8.056   2.300  1.00 20.00    -0.229 OA
HETATM    6  O6  UNL     1     -33.866   7.537   4.547  1.00 20.00    -0.296 OA
HETATM    7  S7  UNL     1     -32.836   7.044   3.406  1.00 20.00     0.152 S 
ENDROOT
TORSDOF 0
ENDMDL
MODEL 3
REMARK VINA RESULT:      -4.2      2.206      3.158
REMARK  0 active torsions:
REMARK  status: ('A' for Active; 'I' for Inactive)
ROOT
HETATM    1  C1  UNL     1     -32.722   7.810   4.489  1.00 20.00     0.028 C 
HETATM    2  C2  UNL     1     -33.146   7.305   3.111  1.00 20.00     0.017 C 
HETATM    3  C3  UNL     1     -33.729   7.401   5.560  1.00 20.00     0.188 C 
HETATM    4  C4  UNL     1     -33.401   5.804   3.121  1.00 20.00     0.140 C 
HETATM    5  O5  UNL     1     -34.750   3.901   4.445  1.00 20.00    -0.229 OA
HETATM    6  O6  UNL     1     -33.905   5.985   5.566  1.00 20.00    -0.296 OA
HETATM    7  S7  UNL     1     -34.724   5.395   4.307  1.00 20.00     0.152 S 
ENDROOT
TORSDOF 0
ENDMDL
MODEL 4
REMARK VINA RESULT:      -4.0      1.152      2.269
REMARK  0 active torsions:
REMARK  status: ('A' for Active; 'I' for Inactive)
ROOT
HETATM    1  C1  UNL     1     -33.931   7.194   5.937  1.00 20.00     0.028 C 
HETATM    2  C2  UNL     1     -34.425   5.761   5.739  1.00 20.00     0.017 C 
HETATM    3  C3  UNL     1     -32.933   7.588   4.852  1.00 20.00     0.188 C 
HETATM    4  C4  UNL     1     -34.981   5.552   4.338  1.00 20.00     0.140 C 
HETATM    5  O5  UNL     1     -34.370   5.903   1.750  1.00 20.00    -0.229 OA
HETATM    6  O6  UNL     1     -33.509   7.420   3.558  1.00 20.00    -0.296 OA
HETATM    7  S7  UNL     1     -33.695   5.887   3.089  1.00 20.00     0.152 S 
ENDROOT
TORSDOF 0
ENDMDL
MODEL 5
REMARK VINA RESULT:      -3.7      1.978      2.570
REMARK  0 active torsions:
REMARK  status: ('A' for Active; 'I' for Inactive)
ROOT
HETATM    1  C1  UNL     1     -33.522   4.764   3.102  1.00 20.00     0.028 C 
HETATM    2  C2  UNL     1     -34.497   4.486   4.245  1.00 20.00     0.017 C 
HETATM    3  C3  UNL     1     -33.391   6.261   2.840  1.00 20.00     0.188 C 
HETATM    4  C4  UNL     1     -34.120   5.261   5.500  1.00 20.00     0.140 C 
HETATM    5  O5  UNL     1     -33.521   7.731   6.355  1.00 20.00    -0.229 OA
HETATM    6  O6  UNL     1     -32.993   6.943   4.028  1.00 20.00    -0.296 OA
HETATM    7  S7  UNL     1     -34.133   7.053   5.165  1.00 20.00     0.152 S 
ENDROOT
TORSDOF 0
ENDMDL
MODEL 6
REMARK VINA RESULT:      -3.6      2.165      3.427
REMARK  0 active torsions:
REMARK  status: ('A' for Active; 'I' for Inactive)
ROOT
HETATM    1  C1  UNL     1     -32.653   7.012   2.825  1.00 20.00     0.028 C 
HETATM    2  C2  UNL     1     -33.359   5.739   2.359  1.00 20.00     0.017 C 
HETATM    3  C3  UNL     1     -33.436   7.701   3.938  1.00 20.00     0.188 C 
HETATM    4  C4  UNL     1     -33.651   4.805   3.524  1.00 20.00     0.140 C 
HETATM    5  O5  UNL     1     -34.763   4.758   5.965  1.00 20.00    -0.229 OA
HETATM    6  O6  UNL     1     -33.649   6.806   5.028  1.00 20.00    -0.296 OA
HETATM    7  S7  UNL     1     -34.720   5.633   4.747  1.00 20.00     0.152 S 
ENDROOT
TORSDOF 0
ENDMDL
MODEL 7
REMARK VINA RESULT:      -3.6     12.225     13.039
REMARK  0 active torsions:
REMARK  status: ('A' for Active; 'I' for Inactive)
ROOT
HETATM    1  C1  UNL     1     -32.883  15.707  -5.275  1.00 20.00     0.028 C 
HETATM    2  C2  UNL     1     -33.853  15.726  -6.455  1.00 20.00     0.017 C 
HETATM    3  C3  UNL     1     -33.580  15.261  -3.994  1.00 20.00     0.188 C 
HETATM    4  C4  UNL     1     -34.559  14.387  -6.618  1.00 20.00     0.140 C 
HETATM    5  O5  UNL     1     -35.962  12.560  -5.244  1.00 20.00    -0.229 OA
HETATM    6  O6  UNL     1     -34.189  13.983  -4.175  1.00 20.00    -0.296 OA
HETATM    7  S7  UNL     1     -35.503  13.982  -5.112  1.00 20.00     0.152 S 
ENDROOT
TORSDOF 0
ENDMDL
MODEL 8
REMARK VINA RESULT:      -3.4      1.730      2.803
REMARK  0 active torsions:
REMARK  status: ('A' for Active; 'I' for Inactive)
ROOT
HETATM    1  C1  UNL     1     -33.169   7.818   3.850  1.00 20.00     0.028 C 
HETATM    2  C2  UNL     1     -33.329   7.364   5.300  1.00 20.00     0.017 C 
HETATM    3  C3  UNL     1     -32.865   6.638   2.932  1.00 20.00     0.188 C 
HETATM    4  C4  UNL     1     -34.362   6.253   5.426  1.00 20.00     0.140 C 
HETATM    5  O5  UNL     1     -35.030   3.866   4.401  1.00 20.00    -0.229 OA
HETATM    6  O6  UNL     1     -33.880   5.642   3.046  1.00 20.00    -0.296 OA
HETATM    7  S7  UNL     1     -33.865   4.810   4.429  1.00 20.00     0.152 S 
ENDROOT
TORSDOF 0
ENDMDL
MODEL 9
REMARK VINA RESULT:      -3.4     11.899     12.482
REMARK  0 active torsions:
REMARK  status: ('A' for Active; 'I' for Inactive)
ROOT
HETATM    1  C1  UNL     1     -34.905  16.362  -3.046  1.00 20.00     0.028 C 
HETATM    2  C2  UNL     1     -33.737  15.677  -3.754  1.00 20.00     0.017 C 
HETATM    3  C3  UNL     1     -36.191  16.239  -3.858  1.00 20.00     0.188 C 
HETATM    4  C4  UNL     1     -34.065  14.233  -4.102  1.00 20.00     0.140 C 
HETATM    5  O5  UNL     1     -35.928  12.720  -5.301  1.00 20.00    -0.229 OA
HETATM    6  O6  UNL     1     -36.486  14.868  -4.122  1.00 20.00    -0.296 OA
HETATM    7  S7  UNL     1     -35.518  14.160  -5.201  1.00 20.00     0.152 S 
ENDROOT
TORSDOF 0
ENDMDL
