MODEL 1
REMARK VINA RESULT:      -4.2      0.000      0.000
REMARK  0 active torsions:
REMARK  status: ('A' for Active; 'I' for Inactive)
ROOT
HETATM    1  C1  UNL     1     -32.839   7.249   3.847  1.00 20.00     0.062 C 
HETATM    2  C2  UNL     1     -34.161   6.135   5.658  1.00 20.00     0.113 C 
HETATM    3  C3  UNL     1     -34.352   5.591   4.235  1.00 20.00     0.056 C 
HETATM    4  C4  UNL     1     -31.803   8.083   3.174  1.00 20.00     0.078 C 
HETATM    5  C5  UNL     1     -34.203   4.066   4.224  1.00 20.00     0.041 C 
HETATM    6  C6  UNL     1     -35.724   5.970   3.655  1.00 20.00     0.041 C 
HETATM    7  N7  UNL     1     -33.302   6.152   3.348  1.00 20.00    -0.277 NA
HETATM    8  S8  UNL     1     -33.424   7.763   5.405  1.00 20.00    -0.113 SA
ENDROOT
TORSDOF 0
ENDMDL
MODEL 2
REMARK VINA RESULT:      -3.2     12.143     13.222
REMARK  0 active torsions:
REMARK  status: ('A' for Active; 'I' for Inactive)
ROOT
HETATM    1  C1  UNL     1     -34.757  14.229  -6.771  1.00 20.00     0.062 C 
HETATM    2  C2  UNL     1     -33.178  15.878  -5.742  1.00 20.00     0.113 C 
HETATM    3  C3  UNL     1     -33.668  14.739  -4.835  1.00 20.00     0.056 C 
HETATM    4  C4  UNL     1     -35.518  13.468  -7.802  1.00 20.00     0.078 C 
HETATM    5  C5  UNL     1     -32.481  14.066  -4.138  1.00 20.00     0.041 C 
HETATM    6  C6  UNL     1     -34.663  15.237  -3.776  1.00 20.00     0.041 C 
HETATM    7  N7  UNL     1     -34.347  13.710  -5.662  1.00 20.00    -0.277 NA
HETATM    8  S8  UNL     1     -34.368  15.895  -7.099  1.00 20.00    -0.113 SA
ENDROOT
TORSDOF 0
ENDMDL
MODEL 3
REMARK VINA RESULT:      -3.2     12.012     12.974
REMARK  0 active torsions:
REMARK  status: ('A' for Active; 'I' for Inactive)
ROOT
HETATM    1  C1  UNL     1     -37.036  14.822  -4.778  1.00 20.00     0.062 C 
HETATM    2  C2  UNL     1     -34.653  14.298  -4.214  1.00 20.00     0.113 C 
HETATM    3  C3  UNL     1     -35.093  15.759  -4.041  1.00 20.00     0.056 C 
HETATM    4  C4  UNL     1     -38.482  14.632  -5.081  1.00 20.00     0.078 C 
HETATM    5  C5  UNL     1     -34.684  16.278  -2.659  1.00 20.00     0.041 C 
HETATM    6  C6  UNL     1     -34.493  16.670  -5.123  1.00 20.00     0.041 C 
HETATM    7  N7  UNL     1     -36.572  15.841  -4.133  1.00 20.00    -0.277 NA
HETATM    8  S8  UNL     1     -35.918  13.587  -5.287  1.00 20.00    -0.113 SA
ENDROOT
TORSDOF 0
ENDMDL
MODEL 4
REMARK VINA RESULT:      -3.2     12.117     12.698
REMARK  0 active torsions:
REMARK  status: ('A' for Active; 'I' for Inactive)
ROOT
HETATM    1  C1  UNL     1     -34.888  16.581  -2.391  1.00 20.00     0.062 C 
HETATM    2  C2  UNL     1     -35.370  15.305  -4.491  1.00 20.00     0.113 C 
HETATM    3  C3  UNL     1     -33.906  15.704  -4.251  1.00 20.00     0.056 C 
HETATM    4  C4  UNL     1     -35.060  17.163  -1.030  1.00 20.00     0.078 C 
HETATM    5  C5  UNL     1     -32.988  14.490  -4.431  1.00 20.00     0.041 C 
HETATM    6  C6  UNL     1     -33.455  16.826  -5.199  1.00 20.00     0.041 C 
HETATM    7  N7  UNL     1     -33.750  16.184  -2.855  1.00 20.00    -0.277 NA
HETATM    8  S8  UNL     1     -36.302  16.391  -3.391  1.00 20.00    -0.113 SA
ENDROOT
TORSDOF 0
ENDMDL
MODEL 5
REMARK VINA RESULT:      -3.1     12.118     13.158
REMARK  0 active torsions:
REMARK  status: ('A' for Active; 'I' for Inactive)
ROOT
HETATM    1  C1  UNL     1     -34.991  14.093  -6.559  1.00 20.00     0.062 C 
HETATM    2  C2  UNL     1     -35.280  14.988  -4.238  1.00 20.00     0.113 C 
HETATM    3  C3  UNL     1     -33.909  15.210  -4.894  1.00 20.00     0.056 C 
HETATM    4  C4  UNL     1     -35.323  13.546  -7.905  1.00 20.00     0.078 C 
HETATM    5  C5  UNL     1     -33.492  16.680  -4.769  1.00 20.00     0.041 C 
HETATM    6  C6  UNL     1     -32.823  14.320  -4.269  1.00 20.00     0.041 C 
HETATM    7  N7  UNL     1     -33.997  14.888  -6.340  1.00 20.00    -0.277 NA
HETATM    8  S8  UNL     1     -36.022  13.668  -5.221  1.00 20.00    -0.113 SA
ENDROOT
TORSDOF 0
ENDMDL
MODEL 6
REMARK VINA RESULT:      -3.1     12.166     12.905
REMARK  0 active torsions:
REMARK  status: ('A' for Active; 'I' for Inactive)
ROOT
HETATM    1  C1  UNL     1     -34.785  15.781  -3.663  1.00 20.00     0.062 C 
HETATM    2  C2  UNL     1     -34.159  14.977  -5.950  1.00 20.00     0.113 C 
HETATM    3  C3  UNL     1     -35.638  14.844  -5.557  1.00 20.00     0.056 C 
HETATM    4  C4  UNL     1     -34.704  16.478  -2.348  1.00 20.00     0.078 C 
HETATM    5  C5  UNL     1     -36.534  15.426  -6.655  1.00 20.00     0.041 C 
HETATM    6  C6  UNL     1     -36.034  13.382  -5.301  1.00 20.00     0.041 C 
HETATM    7  N7  UNL     1     -35.887  15.618  -4.315  1.00 20.00    -0.277 NA
HETATM    8  S8  UNL     1     -33.307  15.190  -4.373  1.00 20.00    -0.113 SA
ENDROOT
TORSDOF 0
ENDMDL
MODEL 7
REMARK VINA RESULT:      -3.0     12.006     13.043
REMARK  0 active torsions:
REMARK  status: ('A' for Active; 'I' for Inactive)
ROOT
HETATM    1  C1  UNL     1     -33.672  14.478  -5.035  1.00 20.00     0.062 C 
HETATM    2  C2  UNL     1     -35.318  15.746  -6.432  1.00 20.00     0.113 C 
HETATM    3  C3  UNL     1     -35.645  14.271  -6.156  1.00 20.00     0.056 C 
HETATM    4  C4  UNL     1     -32.545  14.195  -4.102  1.00 20.00     0.078 C 
HETATM    5  C5  UNL     1     -37.084  14.131  -5.649  1.00 20.00     0.041 C 
HETATM    6  C6  UNL     1     -35.461  13.399  -7.408  1.00 20.00     0.041 C 
HETATM    7  N7  UNL     1     -34.742  13.757  -5.096  1.00 20.00    -0.277 NA
HETATM    8  S8  UNL     1     -33.555  15.875  -6.068  1.00 20.00    -0.113 SA
ENDROOT
TORSDOF 0
ENDMDL
MODEL 8
REMARK VINA RESULT:      -3.0     12.344     13.237
REMARK  0 active torsions:
REMARK  status: ('A' for Active; 'I' for Inactive)
ROOT
HETATM    1  C1  UNL     1     -35.178  14.613  -5.033  1.00 20.00     0.062 C 
HETATM    2  C2  UNL     1     -33.246  16.206  -5.074  1.00 20.00     0.113 C 
HETATM    3  C3  UNL     1     -34.343  16.484  -4.036  1.00 20.00     0.056 C 
HETATM    4  C4  UNL     1     -35.998  13.393  -5.277  1.00 20.00     0.078 C 
HETATM    5  C5  UNL     1     -33.722  16.699  -2.651  1.00 20.00     0.041 C 
HETATM    6  C6  UNL     1     -35.188  17.712  -4.409  1.00 20.00     0.041 C 
HETATM    7  N7  UNL     1     -35.246  15.309  -3.947  1.00 20.00    -0.277 NA
HETATM    8  S8  UNL     1     -34.041  15.100  -6.259  1.00 20.00    -0.113 SA
ENDROOT
TORSDOF 0
ENDMDL
MODEL 9
REMARK VINA RESULT:      -3.0     12.275     12.883
REMARK  0 active torsions:
REMARK  status: ('A' for Active; 'I' for Inactive)
ROOT
HETATM    1  C1  UNL     1     -34.729  16.214  -3.473  1.00 20.00     0.062 C 
HETATM    2  C2  UNL     1     -36.161  15.943  -5.509  1.00 20.00     0.113 C 
HETATM    3  C3  UNL     1     -35.207  14.784  -5.181  1.00 20.00     0.056 C 
HETATM    4  C4  UNL     1     -34.217  16.738  -2.175  1.00 20.00     0.078 C 
HETATM    5  C5  UNL     1     -35.964  13.452  -5.200  1.00 20.00     0.041 C 
HETATM    6  C6  UNL     1     -34.030  14.713  -6.167  1.00 20.00     0.041 C 
HETATM    7  N7  UNL     1     -34.658  14.971  -3.815  1.00 20.00    -0.277 NA
HETATM    8  S8  UNL     1     -35.496  17.331  -4.567  1.00 20.00    -0.113 SA
ENDROOT
TORSDOF 0
ENDMDL
