MODEL 1
REMARK VINA RESULT:      -4.9      0.000      0.000
REMARK  1 active torsions:
REMARK  status: ('A' for Active; 'I' for Inactive)
REMARK    1  A    between atoms: C3_3  and  C7_7 
ROOT
HETATM    1  C1  UNL     1     -34.086  16.596  -2.753  1.00 20.00    -0.082 C 
HETATM    2  C2  UNL     1     -35.438  16.595  -2.695  1.00 20.00    -0.081 C 
HETATM    3  C4  UNL     1     -33.321  15.654  -3.658  1.00 20.00     0.035 C 
HETATM    4  C5  UNL     1     -36.279  15.686  -3.572  1.00 20.00     0.050 C 
HETATM    5  C6  UNL     1     -34.166  14.541  -4.276  1.00 20.00     0.021 C 
HETATM    6  C7  UNL     1     -35.531  15.045  -4.756  1.00 20.00     0.013 C 
HETATM    7  C8  UNL     1     -33.195  17.518  -1.963  1.00 20.00     0.043 C 
HETATM    8  C9  UNL     1     -36.258  17.451  -1.766  1.00 20.00     0.043 C 
HETATM    9  C10 UNL     1     -35.392  16.028  -5.929  1.00 20.00     0.023 C 
ENDROOT
BRANCH   6  10
HETATM   10  C3  UNL     1     -36.345  13.870  -5.238  1.00 20.00     0.240 C 
HETATM   11  O11 UNL     1     -35.941  12.711  -5.210  1.00 20.00    -0.306 OA
ENDBRANCH   6  10
TORSDOF 1
ENDMDL
MODEL 2
REMARK VINA RESULT:      -4.8     10.235     10.945
REMARK  1 active torsions:
REMARK  status: ('A' for Active; 'I' for Inactive)
REMARK    1  A    between atoms: C3_3  and  C7_7 
ROOT
HETATM    1  C1  UNL     1     -33.303   7.398   4.703  1.00 20.00    -0.082 C 
HETATM    2  C2  UNL     1     -33.793   6.829   3.577  1.00 20.00    -0.081 C 
HETATM    3  C4  UNL     1     -32.132   8.357   4.673  1.00 20.00     0.035 C 
HETATM    4  C5  UNL     1     -33.236   7.155   2.204  1.00 20.00     0.050 C 
HETATM    5  C6  UNL     1     -31.390   8.412   3.339  1.00 20.00     0.021 C 
HETATM    6  C7  UNL     1     -32.347   8.412   2.141  1.00 20.00     0.013 C 
HETATM    7  C8  UNL     1     -33.853   7.172   6.087  1.00 20.00     0.043 C 
HETATM    8  C9  UNL     1     -34.904   5.813   3.542  1.00 20.00     0.043 C 
HETATM    9  C10 UNL     1     -33.192   9.694   2.089  1.00 20.00     0.023 C 
ENDROOT
BRANCH   6  10
HETATM   10  C3  UNL     1     -31.539   8.345   0.870  1.00 20.00     0.240 C 
HETATM   11  O11 UNL     1     -31.740   9.070  -0.100  1.00 20.00    -0.306 OA
ENDBRANCH   6  10
TORSDOF 1
ENDMDL
MODEL 3
REMARK VINA RESULT:      -4.5      2.004      3.087
REMARK  1 active torsions:
REMARK  status: ('A' for Active; 'I' for Inactive)
REMARK    1  A    between atoms: C3_3  and  C7_7 
ROOT
HETATM    1  C1  UNL     1     -33.593  18.247  -0.243  1.00 20.00    -0.082 C 
HETATM    2  C2  UNL     1     -34.824  17.711  -0.085  1.00 20.00    -0.081 C 
HETATM    3  C4  UNL     1     -32.792  18.056  -1.514  1.00 20.00     0.035 C 
HETATM    4  C5  UNL     1     -35.509  16.927  -1.190  1.00 20.00     0.050 C 
HETATM    5  C6  UNL     1     -33.357  17.004  -2.469  1.00 20.00     0.021 C 
HETATM    6  C7  UNL     1     -34.883  17.087  -2.588  1.00 20.00     0.013 C 
HETATM    7  C8  UNL     1     -32.886  19.091   0.784  1.00 20.00     0.043 C 
HETATM    8  C9  UNL     1     -35.643  17.799   1.176  1.00 20.00     0.043 C 
HETATM    9  C10 UNL     1     -35.329  18.397  -3.256  1.00 20.00     0.023 C 
ENDROOT
BRANCH   6  10
HETATM   10  C3  UNL     1     -35.368  15.946  -3.446  1.00 20.00     0.240 C 
HETATM   11  O11 UNL     1     -34.677  14.974  -3.734  1.00 20.00    -0.306 OA
ENDBRANCH   6  10
TORSDOF 1
ENDMDL
MODEL 4
REMARK VINA RESULT:      -4.4     10.960     11.732
REMARK  1 active torsions:
REMARK  status: ('A' for Active; 'I' for Inactive)
REMARK    1  A    between atoms: C3_3  and  C7_7 
ROOT
HETATM    1  C1  UNL     1     -34.009   5.653   4.160  1.00 20.00    -0.082 C 
HETATM    2  C2  UNL     1     -33.873   6.852   4.769  1.00 20.00    -0.081 C 
HETATM    3  C4  UNL     1     -33.772   5.476   2.675  1.00 20.00     0.035 C 
HETATM    4  C5  UNL     1     -33.422   8.091   4.016  1.00 20.00     0.050 C 
HETATM    5  C6  UNL     1     -33.643   6.782   1.892  1.00 20.00     0.021 C 
HETATM    6  C7  UNL     1     -32.797   7.823   2.634  1.00 20.00     0.013 C 
HETATM    7  C8  UNL     1     -34.386   4.373   4.859  1.00 20.00     0.043 C 
HETATM    8  C9  UNL     1     -34.163   7.114   6.224  1.00 20.00     0.043 C 
HETATM    9  C10 UNL     1     -31.331   7.378   2.758  1.00 20.00     0.023 C 
ENDROOT
BRANCH   6  10
HETATM   10  C3  UNL     1     -32.819   9.115   1.857  1.00 20.00     0.240 C 
HETATM   11  O11 UNL     1     -31.980   9.411   1.012  1.00 20.00    -0.306 OA
ENDBRANCH   6  10
TORSDOF 1
ENDMDL
MODEL 5
REMARK VINA RESULT:      -4.4     11.547     12.164
REMARK  1 active torsions:
REMARK  status: ('A' for Active; 'I' for Inactive)
REMARK    1  A    between atoms: C3_3  and  C7_7 
ROOT
HETATM    1  C1  UNL     1     -32.516   7.690   2.866  1.00 20.00    -0.082 C 
HETATM    2  C2  UNL     1     -32.711   7.721   4.204  1.00 20.00    -0.081 C 
HETATM    3  C4  UNL     1     -32.974   6.524   2.016  1.00 20.00     0.035 C 
HETATM    4  C5  UNL     1     -33.449   6.615   4.936  1.00 20.00     0.050 C 
HETATM    5  C6  UNL     1     -33.414   5.293   2.808  1.00 20.00     0.021 C 
HETATM    6  C7  UNL     1     -34.257   5.662   4.034  1.00 20.00     0.013 C 
HETATM    7  C8  UNL     1     -31.853   8.783   2.070  1.00 20.00     0.043 C 
HETATM    8  C9  UNL     1     -32.217   8.812   5.119  1.00 20.00     0.043 C 
HETATM    9  C10 UNL     1     -35.605   6.280   3.631  1.00 20.00     0.023 C 
ENDROOT
BRANCH   6  10
HETATM   10  C3  UNL     1     -34.545   4.410   4.824  1.00 20.00     0.240 C 
HETATM   11  O11 UNL     1     -34.172   3.293   4.480  1.00 20.00    -0.306 OA
ENDBRANCH   6  10
TORSDOF 1
ENDMDL
MODEL 6
REMARK VINA RESULT:      -4.3      1.367      1.690
REMARK  1 active torsions:
REMARK  status: ('A' for Active; 'I' for Inactive)
REMARK    1  A    between atoms: C3_3  and  C7_7 
ROOT
HETATM    1  C1  UNL     1     -33.877  17.271  -4.421  1.00 20.00    -0.082 C 
HETATM    2  C2  UNL     1     -34.495  16.406  -3.585  1.00 20.00    -0.081 C 
HETATM    3  C4  UNL     1     -33.703  16.976  -5.896  1.00 20.00     0.035 C 
HETATM    4  C5  UNL     1     -35.102  15.106  -4.078  1.00 20.00     0.050 C 
HETATM    5  C6  UNL     1     -34.024  15.538  -6.298  1.00 20.00     0.021 C 
HETATM    6  C7  UNL     1     -35.285  15.008  -5.605  1.00 20.00     0.013 C 
HETATM    7  C8  UNL     1     -33.315  18.607  -4.011  1.00 20.00     0.043 C 
HETATM    8  C9  UNL     1     -34.638  16.602  -2.099  1.00 20.00     0.043 C 
HETATM    9  C10 UNL     1     -36.544  15.758  -6.068  1.00 20.00     0.023 C 
ENDROOT
BRANCH   6  10
HETATM   10  C3  UNL     1     -35.463  13.553  -5.959  1.00 20.00     0.240 C 
HETATM   11  O11 UNL     1     -35.921  12.719  -5.184  1.00 20.00    -0.306 OA
ENDBRANCH   6  10
TORSDOF 1
ENDMDL
MODEL 7
REMARK VINA RESULT:      -4.3      1.153      1.306
REMARK  1 active torsions:
REMARK  status: ('A' for Active; 'I' for Inactive)
REMARK    1  A    between atoms: C3_3  and  C7_7 
ROOT
HETATM    1  C1  UNL     1     -34.392  16.129  -3.274  1.00 20.00    -0.082 C 
HETATM    2  C2  UNL     1     -35.627  16.151  -3.826  1.00 20.00    -0.081 C 
HETATM    3  C4  UNL     1     -33.286  15.251  -3.819  1.00 20.00     0.035 C 
HETATM    4  C5  UNL     1     -35.972  15.337  -5.059  1.00 20.00     0.050 C 
HETATM    5  C6  UNL     1     -33.744  14.211  -4.841  1.00 20.00     0.021 C 
HETATM    6  C7  UNL     1     -34.761  14.784  -5.835  1.00 20.00     0.013 C 
HETATM    7  C8  UNL     1     -33.964  16.962  -2.094  1.00 20.00     0.043 C 
HETATM    8  C9  UNL     1     -36.792  16.943  -3.292  1.00 20.00     0.043 C 
HETATM    9  C10 UNL     1     -34.132  15.859  -6.735  1.00 20.00     0.023 C 
ENDROOT
BRANCH   6  10
HETATM   10  C3  UNL     1     -35.252  13.671  -6.727  1.00 20.00     0.240 C 
HETATM   11  O11 UNL     1     -35.178  12.483  -6.429  1.00 20.00    -0.306 OA
ENDBRANCH   6  10
TORSDOF 1
ENDMDL
MODEL 8
REMARK VINA RESULT:      -4.2      1.889      3.003
REMARK  1 active torsions:
REMARK  status: ('A' for Active; 'I' for Inactive)
REMARK    1  A    between atoms: C3_3  and  C7_7 
ROOT
HETATM    1  C1  UNL     1     -34.986  17.156  -1.620  1.00 20.00    -0.082 C 
HETATM    2  C2  UNL     1     -33.737  17.469  -2.036  1.00 20.00    -0.081 C 
HETATM    3  C4  UNL     1     -36.030  16.599  -2.565  1.00 20.00     0.035 C 
HETATM    4  C5  UNL     1     -33.283  17.233  -3.465  1.00 20.00     0.050 C 
HETATM    5  C6  UNL     1     -35.656  16.679  -4.044  1.00 20.00     0.021 C 
HETATM    6  C7  UNL     1     -34.191  16.305  -4.294  1.00 20.00     0.013 C 
HETATM    7  C8  UNL     1     -35.480  17.300  -0.205  1.00 20.00     0.043 C 
HETATM    8  C9  UNL     1     -32.675  18.093  -1.170  1.00 20.00     0.043 C 
HETATM    9  C10 UNL     1     -33.921  14.826  -3.977  1.00 20.00     0.023 C 
ENDROOT
BRANCH   6  10
HETATM   10  C3  UNL     1     -33.872  16.526  -5.751  1.00 20.00     0.240 C 
HETATM   11  O11 UNL     1     -33.152  15.780  -6.407  1.00 20.00    -0.306 OA
ENDBRANCH   6  10
TORSDOF 1
ENDMDL
MODEL 9
REMARK VINA RESULT:      -4.2      2.662      4.657
REMARK  1 active torsions:
REMARK  status: ('A' for Active; 'I' for Inactive)
REMARK    1  A    between atoms: C3_3  and  C7_7 
ROOT
HETATM    1  C1  UNL     1     -35.520  15.743  -3.641  1.00 20.00    -0.082 C 
HETATM    2  C2  UNL     1     -34.171  15.662  -3.690  1.00 20.00    -0.081 C 
HETATM    3  C4  UNL     1     -36.234  16.638  -2.649  1.00 20.00     0.035 C 
HETATM    4  C5  UNL     1     -33.280  16.500  -2.792  1.00 20.00     0.050 C 
HETATM    5  C6  UNL     1     -35.338  17.212  -1.552  1.00 20.00     0.021 C 
HETATM    6  C7  UNL     1     -33.983  17.682  -2.095  1.00 20.00     0.013 C 
HETATM    7  C8  UNL     1     -36.459  14.993  -4.548  1.00 20.00     0.043 C 
HETATM    8  C9  UNL     1     -33.399  14.741  -4.599  1.00 20.00     0.043 C 
HETATM    9  C10 UNL     1     -34.136  18.881  -3.043  1.00 20.00     0.023 C 
ENDROOT
BRANCH   6  10
HETATM   10  C3  UNL     1     -33.118  18.119  -0.940  1.00 20.00     0.240 C 
HETATM   11  O11 UNL     1     -31.947  18.463  -1.063  1.00 20.00    -0.306 OA
ENDBRANCH   6  10
TORSDOF 1
ENDMDL
