MODEL 1
REMARK VINA RESULT:      -4.1      0.000      0.000
REMARK  4 active torsions:
REMARK  status: ('A' for Active; 'I' for Inactive)
REMARK    1  A    between atoms: C2_2  and  C6_6 
REMARK    2  A    between atoms: C2_2  and  C7_7 
REMARK    3  A    between atoms: C6_6  and  C8_8 
REMARK    4  A    between atoms: C7_7  and  O10_10 
ROOT
HETATM    1  C1  UNL     1     -34.802  13.518  -6.975  1.00 20.00     0.209 A 
HETATM    2  C2  UNL     1     -35.687  13.843  -5.796  1.00 20.00     0.104 A 
HETATM    3  O9  UNL     1     -35.399  12.489  -6.172  1.00 20.00    -0.373 OA
ENDROOT
BRANCH   2   4
HETATM    4  C6  UNL     1     -35.053  14.262  -4.474  1.00 20.00     0.051 C 
BRANCH   4   5
HETATM    5  C8  UNL     1     -34.485  15.704  -4.425  1.00 20.00    -0.049 C 
HETATM    6  C3  UNL     1     -34.426  16.147  -2.950  1.00 20.00     0.014 C 
HETATM    7  C4  UNL     1     -35.388  16.683  -5.194  1.00 20.00     0.014 C 
HETATM    8  C5  UNL     1     -33.064  15.761  -5.009  1.00 20.00     0.014 C 
ENDBRANCH   4   5
ENDBRANCH   2   4
BRANCH   2   9
HETATM    9  C7  UNL     1     -37.108  14.244  -6.028  1.00 20.00     0.204 C 
BRANCH   9  10
HETATM   10  O10 UNL     1     -37.917  13.804  -4.940  1.00 20.00    -0.398 OA
HETATM   11  H26 UNL     1     -38.810  14.147  -5.104  1.00 20.00     0.209 HD
ENDBRANCH   9  10
ENDBRANCH   2   9
TORSDOF 4
ENDMDL
MODEL 2
REMARK VINA RESULT:      -4.1      0.096      1.343
REMARK  4 active torsions:
REMARK  status: ('A' for Active; 'I' for Inactive)
REMARK    1  A    between atoms: C2_2  and  C6_6 
REMARK    2  A    between atoms: C2_2  and  C7_7 
REMARK    3  A    between atoms: C6_6  and  C8_8 
REMARK    4  A    between atoms: C7_7  and  O10_10 
ROOT
HETATM    1  C1  UNL     1     -34.761  13.519  -7.021  1.00 20.00     0.209 A 
HETATM    2  C2  UNL     1     -35.654  13.801  -5.837  1.00 20.00     0.104 A 
HETATM    3  O9  UNL     1     -35.359  12.462  -6.256  1.00 20.00    -0.373 OA
ENDROOT
BRANCH   2   4
HETATM    4  C6  UNL     1     -35.029  14.177  -4.498  1.00 20.00     0.051 C 
BRANCH   4   5
HETATM    5  C8  UNL     1     -34.505  15.631  -4.382  1.00 20.00    -0.049 C 
HETATM    6  C3  UNL     1     -33.048  15.659  -4.881  1.00 20.00     0.014 C 
HETATM    7  C4  UNL     1     -34.530  16.116  -2.922  1.00 20.00     0.014 C 
HETATM    8  C5  UNL     1     -35.337  16.592  -5.247  1.00 20.00     0.014 C 
ENDBRANCH   4   5
ENDBRANCH   2   4
BRANCH   2   9
HETATM    9  C7  UNL     1     -37.074  14.205  -6.064  1.00 20.00     0.204 C 
BRANCH   9  10
HETATM   10  O10 UNL     1     -37.874  13.799  -4.956  1.00 20.00    -0.398 OA
HETATM   11  H26 UNL     1     -37.284  13.770  -4.187  1.00 20.00     0.209 HD
ENDBRANCH   9  10
ENDBRANCH   2   9
TORSDOF 4
ENDMDL
MODEL 3
REMARK VINA RESULT:      -4.0      1.371      1.842
REMARK  4 active torsions:
REMARK  status: ('A' for Active; 'I' for Inactive)
REMARK    1  A    between atoms: C2_2  and  C6_6 
REMARK    2  A    between atoms: C2_2  and  C7_7 
REMARK    3  A    between atoms: C6_6  and  C8_8 
REMARK    4  A    between atoms: C7_7  and  O10_10 
ROOT
HETATM    1  C1  UNL     1     -34.085  14.970  -6.494  1.00 20.00     0.209 A 
HETATM    2  C2  UNL     1     -34.620  14.580  -5.137  1.00 20.00     0.104 A 
HETATM    3  O9  UNL     1     -33.780  13.701  -5.898  1.00 20.00    -0.373 OA
ENDROOT
BRANCH   2   4
HETATM    4  C6  UNL     1     -33.953  15.131  -3.881  1.00 20.00     0.051 C 
BRANCH   4   5
HETATM    5  C8  UNL     1     -34.483  16.500  -3.381  1.00 20.00    -0.049 C 
HETATM    6  C3  UNL     1     -33.515  17.025  -2.303  1.00 20.00     0.014 C 
HETATM    7  C4  UNL     1     -35.881  16.360  -2.755  1.00 20.00     0.014 C 
HETATM    8  C5  UNL     1     -34.541  17.525  -4.525  1.00 20.00     0.014 C 
ENDBRANCH   4   5
ENDBRANCH   2   4
BRANCH   2   9
HETATM    9  C7  UNL     1     -36.031  14.106  -5.009  1.00 20.00     0.204 C 
BRANCH   9  10
HETATM   10  O10 UNL     1     -36.059  12.681  -4.969  1.00 20.00    -0.398 OA
HETATM   11  H26 UNL     1     -36.976  12.428  -4.782  1.00 20.00     0.209 HD
ENDBRANCH   9  10
ENDBRANCH   2   9
TORSDOF 4
ENDMDL
MODEL 4
REMARK VINA RESULT:      -4.0      0.868      1.575
REMARK  4 active torsions:
REMARK  status: ('A' for Active; 'I' for Inactive)
REMARK    1  A    between atoms: C2_2  and  C6_6 
REMARK    2  A    between atoms: C2_2  and  C7_7 
REMARK    3  A    between atoms: C6_6  and  C8_8 
REMARK    4  A    between atoms: C7_7  and  O10_10 
ROOT
HETATM    1  C1  UNL     1     -35.380  13.512  -6.332  1.00 20.00     0.209 A 
HETATM    2  C2  UNL     1     -35.983  14.099  -5.078  1.00 20.00     0.104 A 
HETATM    3  O9  UNL     1     -35.912  12.682  -5.288  1.00 20.00    -0.373 OA
ENDROOT
BRANCH   2   4
HETATM    4  C6  UNL     1     -35.067  14.603  -3.969  1.00 20.00     0.051 C 
BRANCH   4   5
HETATM    5  C8  UNL     1     -34.223  15.859  -4.308  1.00 20.00    -0.049 C 
HETATM    6  C3  UNL     1     -35.103  16.821  -5.130  1.00 20.00     0.014 C 
HETATM    7  C4  UNL     1     -32.989  15.488  -5.147  1.00 20.00     0.014 C 
HETATM    8  C5  UNL     1     -33.768  16.583  -3.031  1.00 20.00     0.014 C 
ENDBRANCH   4   5
ENDBRANCH   2   4
BRANCH   2   9
HETATM    9  C7  UNL     1     -37.374  14.645  -5.116  1.00 20.00     0.204 C 
BRANCH   9  10
HETATM   10  O10 UNL     1     -37.770  15.044  -3.806  1.00 20.00    -0.398 OA
HETATM   11  H26 UNL     1     -37.769  16.015  -3.802  1.00 20.00     0.209 HD
ENDBRANCH   9  10
ENDBRANCH   2   9
TORSDOF 4
ENDMDL
MODEL 5
REMARK VINA RESULT:      -3.9      1.327      1.904
REMARK  4 active torsions:
REMARK  status: ('A' for Active; 'I' for Inactive)
REMARK    1  A    between atoms: C2_2  and  C6_6 
REMARK    2  A    between atoms: C2_2  and  C7_7 
REMARK    3  A    between atoms: C6_6  and  C8_8 
REMARK    4  A    between atoms: C7_7  and  O10_10 
ROOT
HETATM    1  C1  UNL     1     -35.138  13.713  -7.845  1.00 20.00     0.209 A 
HETATM    2  C2  UNL     1     -35.311  14.257  -6.447  1.00 20.00     0.104 A 
HETATM    3  O9  UNL     1     -34.308  13.280  -6.756  1.00 20.00    -0.373 OA
ENDROOT
BRANCH   2   4
HETATM    4  C6  UNL     1     -34.744  15.629  -6.099  1.00 20.00     0.051 C 
BRANCH   4   5
HETATM    5  C8  UNL     1     -34.106  15.760  -4.692  1.00 20.00    -0.049 C 
HETATM    6  C3  UNL     1     -33.354  17.104  -4.628  1.00 20.00     0.014 C 
HETATM    7  C4  UNL     1     -33.101  14.626  -4.431  1.00 20.00     0.014 C 
HETATM    8  C5  UNL     1     -35.180  15.748  -3.593  1.00 20.00     0.014 C 
ENDBRANCH   4   5
ENDBRANCH   2   4
BRANCH   2   9
HETATM    9  C7  UNL     1     -36.415  13.737  -5.585  1.00 20.00     0.204 C 
BRANCH   9  10
HETATM   10  O10 UNL     1     -35.970  12.582  -4.878  1.00 20.00    -0.398 OA
HETATM   11  H26 UNL     1     -36.720  11.967  -4.854  1.00 20.00     0.209 HD
ENDBRANCH   9  10
ENDBRANCH   2   9
TORSDOF 4
ENDMDL
MODEL 6
REMARK VINA RESULT:      -3.7     11.181     12.247
REMARK  4 active torsions:
REMARK  status: ('A' for Active; 'I' for Inactive)
REMARK    1  A    between atoms: C2_2  and  C6_6 
REMARK    2  A    between atoms: C2_2  and  C7_7 
REMARK    3  A    between atoms: C6_6  and  C8_8 
REMARK    4  A    between atoms: C7_7  and  O10_10 
ROOT
HETATM    1  C1  UNL     1     -32.076   8.364   4.344  1.00 20.00     0.209 A 
HETATM    2  C2  UNL     1     -32.506   7.620   3.102  1.00 20.00     0.104 A 
HETATM    3  O9  UNL     1     -31.123   7.862   3.396  1.00 20.00    -0.373 OA
ENDROOT
BRANCH   2   4
HETATM    4  C6  UNL     1     -32.909   6.154   3.208  1.00 20.00     0.051 C 
BRANCH   4   5
HETATM    5  C8  UNL     1     -34.161   5.858   4.073  1.00 20.00    -0.049 C 
HETATM    6  C3  UNL     1     -34.219   4.340   4.333  1.00 20.00     0.014 C 
HETATM    7  C4  UNL     1     -35.450   6.278   3.346  1.00 20.00     0.014 C 
HETATM    8  C5  UNL     1     -34.085   6.583   5.426  1.00 20.00     0.014 C 
ENDBRANCH   4   5
ENDBRANCH   2   4
BRANCH   2   9
HETATM    9  C7  UNL     1     -33.015   8.386   1.924  1.00 20.00     0.204 C 
BRANCH   9  10
HETATM   10  O10 UNL     1     -31.926   8.743   1.075  1.00 20.00    -0.398 OA
HETATM   11  H26 UNL     1     -32.093   8.317   0.220  1.00 20.00     0.209 HD
ENDBRANCH   9  10
ENDBRANCH   2   9
TORSDOF 4
ENDMDL
MODEL 7
REMARK VINA RESULT:      -3.6      1.197      1.355
REMARK  4 active torsions:
REMARK  status: ('A' for Active; 'I' for Inactive)
REMARK    1  A    between atoms: C2_2  and  C6_6 
REMARK    2  A    between atoms: C2_2  and  C7_7 
REMARK    3  A    between atoms: C6_6  and  C8_8 
REMARK    4  A    between atoms: C7_7  and  O10_10 
ROOT
HETATM    1  C1  UNL     1     -34.584  14.680  -7.617  1.00 20.00     0.209 A 
HETATM    2  C2  UNL     1     -34.805  14.229  -6.193  1.00 20.00     0.104 A 
HETATM    3  O9  UNL     1     -34.072  13.430  -7.132  1.00 20.00    -0.373 OA
ENDROOT
BRANCH   2   4
HETATM    4  C6  UNL     1     -33.943  14.812  -5.079  1.00 20.00     0.051 C 
BRANCH   4   5
HETATM    5  C8  UNL     1     -34.433  16.155  -4.478  1.00 20.00    -0.049 C 
HETATM    6  C3  UNL     1     -34.927  15.888  -3.043  1.00 20.00     0.014 C 
HETATM    7  C4  UNL     1     -35.598  16.736  -5.296  1.00 20.00     0.014 C 
HETATM    8  C5  UNL     1     -33.293  17.185  -4.419  1.00 20.00     0.014 C 
ENDBRANCH   4   5
ENDBRANCH   2   4
BRANCH   2   9
HETATM    9  C7  UNL     1     -36.123  13.643  -5.801  1.00 20.00     0.204 C 
BRANCH   9  10
HETATM   10  O10 UNL     1     -35.918  12.543  -4.918  1.00 20.00    -0.398 OA
HETATM   11  H26 UNL     1     -36.233  12.827  -4.046  1.00 20.00     0.209 HD
ENDBRANCH   9  10
ENDBRANCH   2   9
TORSDOF 4
ENDMDL
MODEL 8
REMARK VINA RESULT:      -3.6      1.662      3.087
REMARK  4 active torsions:
REMARK  status: ('A' for Active; 'I' for Inactive)
REMARK    1  A    between atoms: C2_2  and  C6_6 
REMARK    2  A    between atoms: C2_2  and  C7_7 
REMARK    3  A    between atoms: C6_6  and  C8_8 
REMARK    4  A    between atoms: C7_7  and  O10_10 
ROOT
HETATM    1  C1  UNL     1     -36.207  15.987  -3.772  1.00 20.00     0.209 A 
HETATM    2  C2  UNL     1     -35.847  15.060  -4.908  1.00 20.00     0.104 A 
HETATM    3  O9  UNL     1     -37.178  15.120  -4.378  1.00 20.00    -0.373 OA
ENDROOT
BRANCH   2   4
HETATM    4  C6  UNL     1     -35.724  15.618  -6.322  1.00 20.00     0.051 C 
BRANCH   4   5
HETATM    5  C8  UNL     1     -34.284  15.705  -6.890  1.00 20.00    -0.049 C 
HETATM    6  C3  UNL     1     -34.197  16.953  -7.790  1.00 20.00     0.014 C 
HETATM    7  C4  UNL     1     -33.946  14.467  -7.738  1.00 20.00     0.014 C 
HETATM    8  C5  UNL     1     -33.249  15.844  -5.762  1.00 20.00     0.014 C 
ENDBRANCH   4   5
ENDBRANCH   2   4
BRANCH   2   9
HETATM    9  C7  UNL     1     -35.139  13.777  -4.616  1.00 20.00     0.204 C 
BRANCH   9  10
HETATM   10  O10 UNL     1     -35.928  12.678  -5.066  1.00 20.00    -0.398 OA
HETATM   11  H26 UNL     1     -36.530  13.029  -5.741  1.00 20.00     0.209 HD
ENDBRANCH   9  10
ENDBRANCH   2   9
TORSDOF 4
ENDMDL
MODEL 9
REMARK VINA RESULT:      -3.6      9.599     10.448
REMARK  4 active torsions:
REMARK  status: ('A' for Active; 'I' for Inactive)
REMARK    1  A    between atoms: C2_2  and  C6_6 
REMARK    2  A    between atoms: C2_2  and  C7_7 
REMARK    3  A    between atoms: C6_6  and  C8_8 
REMARK    4  A    between atoms: C7_7  and  O10_10 
ROOT
HETATM    1  C1  UNL     1     -31.471   8.095   3.689  1.00 20.00     0.209 A 
HETATM    2  C2  UNL     1     -32.643   7.596   2.879  1.00 20.00     0.104 A 
HETATM    3  O9  UNL     1     -32.759   7.872   4.281  1.00 20.00    -0.373 OA
ENDROOT
BRANCH   2   4
HETATM    4  C6  UNL     1     -33.413   8.571   1.995  1.00 20.00     0.051 C 
BRANCH   4   5
HETATM    5  C8  UNL     1     -32.581   9.302   0.910  1.00 20.00    -0.049 C 
HETATM    6  C3  UNL     1     -32.393  10.766   1.354  1.00 20.00     0.014 C 
HETATM    7  C4  UNL     1     -33.306   9.292  -0.446  1.00 20.00     0.014 C 
HETATM    8  C5  UNL     1     -31.194   8.659   0.748  1.00 20.00     0.014 C 
ENDBRANCH   4   5
ENDBRANCH   2   4
BRANCH   2   9
HETATM    9  C7  UNL     1     -32.740   6.144   2.540  1.00 20.00     0.204 C 
BRANCH   9  10
HETATM   10  O10 UNL     1     -33.929   5.596   3.103  1.00 20.00    -0.398 OA
HETATM   11  H26 UNL     1     -34.464   6.347   3.403  1.00 20.00     0.209 HD
ENDBRANCH   9  10
ENDBRANCH   2   9
TORSDOF 4
ENDMDL
