MODEL 1
REMARK VINA RESULT:      -5.6      0.000      0.000
REMARK  0 active torsions:
REMARK  status: ('A' for Active; 'I' for Inactive)
ROOT
HETATM    1  C1  UNL     1     -34.036   7.023   5.971  1.00 20.00     0.009 A 
HETATM    2  C2  UNL     1     -34.499   5.781   5.799  1.00 20.00     0.074 A 
HETATM    3  C3  UNL     1     -33.296   7.685   4.933  1.00 20.00     0.043 A 
HETATM    4  C4  UNL     1     -33.060   7.057   3.773  1.00 20.00     0.108 A 
HETATM    5  C5  UNL     1     -34.247   5.058   4.517  1.00 20.00     0.248 A 
HETATM    6  C6  UNL     1     -33.233   5.117   2.257  1.00 20.00     0.160 C 
HETATM    7  N7  UNL     1     -33.516   5.760   3.539  1.00 20.00    -0.309 N 
HETATM    8  O8  UNL     1     -34.687   3.915   4.398  1.00 20.00    -0.268 OA
HETATM    9 CL9  UNL     1     -32.171   7.861   2.531  1.00 20.00    -0.064 Cl
ENDROOT
TORSDOF 0
ENDMDL
MODEL 2
REMARK VINA RESULT:      -5.1      2.038      2.688
REMARK  0 active torsions:
REMARK  status: ('A' for Active; 'I' for Inactive)
ROOT
HETATM    1  C1  UNL     1     -34.732   4.703   5.532  1.00 20.00     0.009 A 
HETATM    2  C2  UNL     1     -34.535   5.957   5.950  1.00 20.00     0.074 A 
HETATM    3  C3  UNL     1     -34.247   4.267   4.252  1.00 20.00     0.043 A 
HETATM    4  C4  UNL     1     -33.589   5.122   3.459  1.00 20.00     0.108 A 
HETATM    5  C5  UNL     1     -33.806   6.930   5.084  1.00 20.00     0.248 A 
HETATM    6  C6  UNL     1     -32.633   7.337   2.939  1.00 20.00     0.160 C 
HETATM    7  N7  UNL     1     -33.356   6.443   3.841  1.00 20.00    -0.309 N 
HETATM    8  O8  UNL     1     -33.647   8.077   5.502  1.00 20.00    -0.268 OA
HETATM    9 CL9  UNL     1     -33.010   4.589   1.923  1.00 20.00    -0.064 Cl
ENDROOT
TORSDOF 0
ENDMDL
MODEL 3
REMARK VINA RESULT:      -4.8      1.687      2.338
REMARK  0 active torsions:
REMARK  status: ('A' for Active; 'I' for Inactive)
ROOT
HETATM    1  C1  UNL     1     -34.692   4.516   5.343  1.00 20.00     0.009 A 
HETATM    2  C2  UNL     1     -34.232   4.130   4.149  1.00 20.00     0.074 A 
HETATM    3  C3  UNL     1     -34.468   5.850   5.824  1.00 20.00     0.043 A 
HETATM    4  C4  UNL     1     -33.789   6.728   5.074  1.00 20.00     0.108 A 
HETATM    5  C5  UNL     1     -33.469   5.087   3.294  1.00 20.00     0.248 A 
HETATM    6  C6  UNL     1     -32.547   7.374   3.041  1.00 20.00     0.160 C 
HETATM    7  N7  UNL     1     -33.282   6.380   3.821  1.00 20.00    -0.309 N 
HETATM    8  O8  UNL     1     -33.058   4.694   2.203  1.00 20.00    -0.268 OA
HETATM    9 CL9  UNL     1     -33.525   8.330   5.659  1.00 20.00    -0.064 Cl
ENDROOT
TORSDOF 0
ENDMDL
MODEL 4
REMARK VINA RESULT:      -4.6      2.409      2.900
REMARK  0 active torsions:
REMARK  status: ('A' for Active; 'I' for Inactive)
ROOT
HETATM    1  C1  UNL     1     -33.681   7.460   5.973  1.00 20.00     0.009 A 
HETATM    2  C2  UNL     1     -32.972   8.059   5.012  1.00 20.00     0.074 A 
HETATM    3  C3  UNL     1     -34.230   6.147   5.776  1.00 20.00     0.043 A 
HETATM    4  C4  UNL     1     -34.034   5.506   4.617  1.00 20.00     0.108 A 
HETATM    5  C5  UNL     1     -32.742   7.367   3.709  1.00 20.00     0.248 A 
HETATM    6  C6  UNL     1     -33.119   5.343   2.330  1.00 20.00     0.160 C 
HETATM    7  N7  UNL     1     -33.304   6.083   3.577  1.00 20.00    -0.309 N 
HETATM    8  O8  UNL     1     -32.086   7.952   2.847  1.00 20.00    -0.268 OA
HETATM    9 CL9  UNL     1     -34.696   3.928   4.389  1.00 20.00    -0.064 Cl
ENDROOT
TORSDOF 0
ENDMDL
MODEL 5
REMARK VINA RESULT:      -4.6      1.128      2.519
REMARK  0 active torsions:
REMARK  status: ('A' for Active; 'I' for Inactive)
ROOT
HETATM    1  C1  UNL     1     -33.663   4.542   2.919  1.00 20.00     0.009 A 
HETATM    2  C2  UNL     1     -34.294   4.357   4.083  1.00 20.00     0.074 A 
HETATM    3  C3  UNL     1     -32.978   5.772   2.638  1.00 20.00     0.043 A 
HETATM    4  C4  UNL     1     -32.966   6.755   3.548  1.00 20.00     0.108 A 
HETATM    5  C5  UNL     1     -34.298   5.438   5.113  1.00 20.00     0.248 A 
HETATM    6  C6  UNL     1     -33.567   7.722   5.738  1.00 20.00     0.160 C 
HETATM    7  N7  UNL     1     -33.609   6.620   4.779  1.00 20.00    -0.309 N 
HETATM    8  O8  UNL     1     -34.892   5.232   6.171  1.00 20.00    -0.268 OA
HETATM    9 CL9  UNL     1     -32.139   8.230   3.202  1.00 20.00    -0.064 Cl
ENDROOT
TORSDOF 0
ENDMDL
MODEL 6
REMARK VINA RESULT:      -4.4      1.623      2.697
REMARK  0 active torsions:
REMARK  status: ('A' for Active; 'I' for Inactive)
ROOT
HETATM    1  C1  UNL     1     -32.908   6.556   2.621  1.00 20.00     0.009 A 
HETATM    2  C2  UNL     1     -33.319   5.284   2.625  1.00 20.00     0.074 A 
HETATM    3  C3  UNL     1     -33.075   7.389   3.779  1.00 20.00     0.043 A 
HETATM    4  C4  UNL     1     -33.651   6.895   4.882  1.00 20.00     0.108 A 
HETATM    5  C5  UNL     1     -33.967   4.710   3.841  1.00 20.00     0.248 A 
HETATM    6  C6  UNL     1     -34.726   5.085   6.171  1.00 20.00     0.160 C 
HETATM    7  N7  UNL     1     -34.103   5.577   4.943  1.00 20.00    -0.309 N 
HETATM    8  O8  UNL     1     -34.336   3.536   3.806  1.00 20.00    -0.268 OA
HETATM    9 CL9  UNL     1     -33.848   7.904   6.269  1.00 20.00    -0.064 Cl
ENDROOT
TORSDOF 0
ENDMDL
MODEL 7
REMARK VINA RESULT:      -4.3      2.606      3.815
REMARK  0 active torsions:
REMARK  status: ('A' for Active; 'I' for Inactive)
ROOT
HETATM    1  C1  UNL     1     -33.412   5.044   2.557  1.00 20.00     0.009 A 
HETATM    2  C2  UNL     1     -32.814   6.236   2.462  1.00 20.00     0.074 A 
HETATM    3  C3  UNL     1     -34.090   4.654   3.762  1.00 20.00     0.043 A 
HETATM    4  C4  UNL     1     -34.128   5.487   4.810  1.00 20.00     0.108 A 
HETATM    5  C5  UNL     1     -32.839   7.183   3.616  1.00 20.00     0.248 A 
HETATM    6  C6  UNL     1     -33.589   7.615   5.938  1.00 20.00     0.160 C 
HETATM    7  N7  UNL     1     -33.519   6.742   4.768  1.00 20.00    -0.309 N 
HETATM    8  O8  UNL     1     -32.275   8.269   3.490  1.00 20.00    -0.268 OA
HETATM    9 CL9  UNL     1     -34.945   5.010   6.253  1.00 20.00    -0.064 Cl
ENDROOT
TORSDOF 0
ENDMDL
MODEL 8
REMARK VINA RESULT:      -4.2      1.847      2.610
REMARK  0 active torsions:
REMARK  status: ('A' for Active; 'I' for Inactive)
ROOT
HETATM    1  C1  UNL     1     -32.367   7.923   3.680  1.00 20.00     0.009 A 
HETATM    2  C2  UNL     1     -33.037   7.894   4.837  1.00 20.00     0.074 A 
HETATM    3  C3  UNL     1     -32.415   6.811   2.773  1.00 20.00     0.043 A 
HETATM    4  C4  UNL     1     -33.136   5.725   3.081  1.00 20.00     0.108 A 
HETATM    5  C5  UNL     1     -33.846   6.695   5.205  1.00 20.00     0.248 A 
HETATM    6  C6  UNL     1     -34.624   4.431   4.564  1.00 20.00     0.160 C 
HETATM    7  N7  UNL     1     -33.853   5.638   4.274  1.00 20.00    -0.309 N 
HETATM    8  O8  UNL     1     -34.446   6.705   6.280  1.00 20.00    -0.268 OA
HETATM    9 CL9  UNL     1     -33.188   4.393   1.984  1.00 20.00    -0.064 Cl
ENDROOT
TORSDOF 0
ENDMDL
MODEL 9
REMARK VINA RESULT:      -4.1     12.234     12.727
REMARK  0 active torsions:
REMARK  status: ('A' for Active; 'I' for Inactive)
ROOT
HETATM    1  C1  UNL     1     -34.351  15.389  -3.566  1.00 20.00     0.009 A 
HETATM    2  C2  UNL     1     -34.491  14.213  -4.186  1.00 20.00     0.074 A 
HETATM    3  C3  UNL     1     -35.456  16.299  -3.451  1.00 20.00     0.043 A 
HETATM    4  C4  UNL     1     -36.648  15.974  -3.969  1.00 20.00     0.108 A 
HETATM    5  C5  UNL     1     -35.808  13.829  -4.774  1.00 20.00     0.248 A 
HETATM    6  C6  UNL     1     -38.172  14.455  -5.178  1.00 20.00     0.160 C 
HETATM    7  N7  UNL     1     -36.852  14.762  -4.629  1.00 20.00    -0.309 N 
HETATM    8  O8  UNL     1     -35.897  12.739  -5.340  1.00 20.00    -0.268 OA
HETATM    9 CL9  UNL     1     -37.970  17.073  -3.825  1.00 20.00    -0.064 Cl
ENDROOT
TORSDOF 0
ENDMDL
