MODEL 1
REMARK VINA RESULT:      -5.4      0.000      0.000
REMARK  2 active torsions:
REMARK  status: ('A' for Active; 'I' for Inactive)
REMARK    1  A    between atoms: C3_3  and  C7_7 
REMARK    2  A    between atoms: C7_7  and  C8_8 
ROOT
HETATM    1  C1  UNL     1     -34.148   6.373   5.280  1.00 20.00     0.088 C 
HETATM    2  C2  UNL     1     -33.360   7.414   4.721  1.00 20.00     0.096 C 
HETATM    3  C3  UNL     1     -32.794   7.363   3.500  1.00 20.00    -0.073 C 
HETATM    4  C4  UNL     1     -32.981   6.143   2.635  1.00 20.00     0.044 C 
HETATM    5  N9  UNL     1     -34.796   5.527   5.741  1.00 20.00    -0.192 NA
ENDROOT
BRANCH   3   6
HETATM    6  C7  UNL     1     -31.981   8.484   2.879  1.00 20.00     0.038 C 
BRANCH   6   7
HETATM    7  C8  UNL     1     -32.410   8.872   1.449  1.00 20.00    -0.019 C 
HETATM    8  C5  UNL     1     -31.296   8.637   0.426  1.00 20.00     0.010 C 
HETATM    9  C6  UNL     1     -32.840  10.341   1.416  1.00 20.00     0.010 C 
ENDBRANCH   6   7
ENDBRANCH   3   6
TORSDOF 2
ENDMDL
MODEL 2
REMARK VINA RESULT:      -5.4      2.679      4.769
REMARK  2 active torsions:
REMARK  status: ('A' for Active; 'I' for Inactive)
REMARK    1  A    between atoms: C3_3  and  C7_7 
REMARK    2  A    between atoms: C7_7  and  C8_8 
ROOT
HETATM    1  C1  UNL     1     -32.612   9.490   1.172  1.00 20.00     0.088 C 
HETATM    2  C2  UNL     1     -33.068   8.248   1.690  1.00 20.00     0.096 C 
HETATM    3  C3  UNL     1     -32.545   7.642   2.773  1.00 20.00    -0.073 C 
HETATM    4  C4  UNL     1     -31.402   8.285   3.515  1.00 20.00     0.044 C 
HETATM    5  N9  UNL     1     -32.247  10.507   0.745  1.00 20.00    -0.192 NA
ENDROOT
BRANCH   3   6
HETATM    6  C7  UNL     1     -33.047   6.335   3.355  1.00 20.00     0.038 C 
BRANCH   6   7
HETATM    7  C8  UNL     1     -34.229   6.481   4.337  1.00 20.00    -0.019 C 
HETATM    8  C5  UNL     1     -33.801   7.101   5.670  1.00 20.00     0.010 C 
HETATM    9  C6  UNL     1     -34.870   5.114   4.586  1.00 20.00     0.010 C 
ENDBRANCH   6   7
ENDBRANCH   3   6
TORSDOF 2
ENDMDL
MODEL 3
REMARK VINA RESULT:      -5.4      0.891      1.492
REMARK  2 active torsions:
REMARK  status: ('A' for Active; 'I' for Inactive)
REMARK    1  A    between atoms: C3_3  and  C7_7 
REMARK    2  A    between atoms: C7_7  and  C8_8 
ROOT
HETATM    1  C1  UNL     1     -34.000   5.188   3.684  1.00 20.00     0.088 C 
HETATM    2  C2  UNL     1     -33.217   6.168   3.016  1.00 20.00     0.096 C 
HETATM    3  C3  UNL     1     -32.796   7.315   3.582  1.00 20.00    -0.073 C 
HETATM    4  C4  UNL     1     -33.154   7.622   5.014  1.00 20.00     0.044 C 
HETATM    5  N9  UNL     1     -34.636   4.381   4.224  1.00 20.00    -0.192 NA
ENDROOT
BRANCH   3   6
HETATM    6  C7  UNL     1     -31.931   8.351   2.890  1.00 20.00     0.038 C 
BRANCH   6   7
HETATM    7  C8  UNL     1     -32.417   8.757   1.483  1.00 20.00    -0.019 C 
HETATM    8  C5  UNL     1     -31.347   8.528   0.412  1.00 20.00     0.010 C 
HETATM    9  C6  UNL     1     -32.838  10.229   1.485  1.00 20.00     0.010 C 
ENDBRANCH   6   7
ENDBRANCH   3   6
TORSDOF 2
ENDMDL
MODEL 4
REMARK VINA RESULT:      -5.2      1.116      1.528
REMARK  2 active torsions:
REMARK  status: ('A' for Active; 'I' for Inactive)
REMARK    1  A    between atoms: C3_3  and  C7_7 
REMARK    2  A    between atoms: C7_7  and  C8_8 
ROOT
HETATM    1  C1  UNL     1     -34.033   6.331   4.155  1.00 20.00     0.088 C 
HETATM    2  C2  UNL     1     -33.568   6.905   2.941  1.00 20.00     0.096 C 
HETATM    3  C3  UNL     1     -32.537   7.766   2.858  1.00 20.00    -0.073 C 
HETATM    4  C4  UNL     1     -31.797   8.176   4.106  1.00 20.00     0.044 C 
HETATM    5  N9  UNL     1     -34.416   5.855   5.143  1.00 20.00    -0.192 NA
ENDROOT
BRANCH   3   6
HETATM    6  C7  UNL     1     -32.010   8.357   1.564  1.00 20.00     0.038 C 
BRANCH   6   7
HETATM    7  C8  UNL     1     -32.926   9.420   0.923  1.00 20.00    -0.019 C 
HETATM    8  C5  UNL     1     -32.986   9.291  -0.601  1.00 20.00     0.010 C 
HETATM    9  C6  UNL     1     -32.441  10.821   1.304  1.00 20.00     0.010 C 
ENDBRANCH   6   7
ENDBRANCH   3   6
TORSDOF 2
ENDMDL
MODEL 5
REMARK VINA RESULT:      -5.1      2.450      4.728
REMARK  2 active torsions:
REMARK  status: ('A' for Active; 'I' for Inactive)
REMARK    1  A    between atoms: C3_3  and  C7_7 
REMARK    2  A    between atoms: C7_7  and  C8_8 
ROOT
HETATM    1  C1  UNL     1     -32.355   8.126   2.063  1.00 20.00     0.088 C 
HETATM    2  C2  UNL     1     -33.515   7.730   2.783  1.00 20.00     0.096 C 
HETATM    3  C3  UNL     1     -33.854   6.450   3.026  1.00 20.00    -0.073 C 
HETATM    4  C4  UNL     1     -32.978   5.331   2.523  1.00 20.00     0.044 C 
HETATM    5  N9  UNL     1     -31.408   8.457   1.480  1.00 20.00    -0.192 NA
ENDROOT
BRANCH   3   6
HETATM    6  C7  UNL     1     -35.070   6.017   3.823  1.00 20.00     0.038 C 
BRANCH   6   7
HETATM    7  C8  UNL     1     -34.832   5.897   5.343  1.00 20.00    -0.019 C 
HETATM    8  C5  UNL     1     -33.877   6.973   5.867  1.00 20.00     0.010 C 
HETATM    9  C6  UNL     1     -34.277   4.509   5.673  1.00 20.00     0.010 C 
ENDBRANCH   6   7
ENDBRANCH   3   6
TORSDOF 2
ENDMDL
MODEL 6
REMARK VINA RESULT:      -4.6     10.453     10.949
REMARK  2 active torsions:
REMARK  status: ('A' for Active; 'I' for Inactive)
REMARK    1  A    between atoms: C3_3  and  C7_7 
REMARK    2  A    between atoms: C7_7  and  C8_8 
ROOT
HETATM    1  C1  UNL     1     -35.659  13.789  -4.877  1.00 20.00     0.088 C 
HETATM    2  C2  UNL     1     -35.429  15.055  -4.274  1.00 20.00     0.096 C 
HETATM    3  C3  UNL     1     -34.208  15.558  -4.013  1.00 20.00    -0.073 C 
HETATM    4  C4  UNL     1     -32.977  14.764  -4.365  1.00 20.00     0.044 C 
HETATM    5  N9  UNL     1     -35.854  12.758  -5.373  1.00 20.00    -0.192 NA
ENDROOT
BRANCH   3   6
HETATM    6  C7  UNL     1     -33.951  16.923  -3.403  1.00 20.00     0.038 C 
BRANCH   6   7
HETATM    7  C8  UNL     1     -33.830  16.926  -1.864  1.00 20.00    -0.019 C 
HETATM    8  C5  UNL     1     -35.188  17.095  -1.177  1.00 20.00     0.010 C 
HETATM    9  C6  UNL     1     -32.885  18.045  -1.420  1.00 20.00     0.010 C 
ENDBRANCH   6   7
ENDBRANCH   3   6
TORSDOF 2
ENDMDL
MODEL 7
REMARK VINA RESULT:      -4.6      2.457      4.950
REMARK  2 active torsions:
REMARK  status: ('A' for Active; 'I' for Inactive)
REMARK    1  A    between atoms: C3_3  and  C7_7 
REMARK    2  A    between atoms: C7_7  and  C8_8 
ROOT
HETATM    1  C1  UNL     1     -32.184   7.982   2.527  1.00 20.00     0.088 C 
HETATM    2  C2  UNL     1     -33.322   7.138   2.640  1.00 20.00     0.096 C 
HETATM    3  C3  UNL     1     -33.965   6.887   3.796  1.00 20.00    -0.073 C 
HETATM    4  C4  UNL     1     -33.484   7.519   5.077  1.00 20.00     0.044 C 
HETATM    5  N9  UNL     1     -31.256   8.672   2.426  1.00 20.00    -0.192 NA
ENDROOT
BRANCH   3   6
HETATM    6  C7  UNL     1     -35.202   6.018   3.922  1.00 20.00     0.038 C 
BRANCH   6   7
HETATM    7  C8  UNL     1     -34.973   4.678   4.654  1.00 20.00    -0.019 C 
HETATM    8  C5  UNL     1     -34.636   4.877   6.134  1.00 20.00     0.010 C 
HETATM    9  C6  UNL     1     -33.847   3.898   3.969  1.00 20.00     0.010 C 
ENDBRANCH   6   7
ENDBRANCH   3   6
TORSDOF 2
ENDMDL
MODEL 8
REMARK VINA RESULT:      -4.3     10.408     11.181
REMARK  2 active torsions:
REMARK  status: ('A' for Active; 'I' for Inactive)
REMARK    1  A    between atoms: C3_3  and  C7_7 
REMARK    2  A    between atoms: C7_7  and  C8_8 
ROOT
HETATM    1  C1  UNL     1     -35.267  13.701  -4.740  1.00 20.00     0.088 C 
HETATM    2  C2  UNL     1     -34.466  14.680  -4.092  1.00 20.00     0.096 C 
HETATM    3  C3  UNL     1     -34.691  16.006  -4.158  1.00 20.00    -0.073 C 
HETATM    4  C4  UNL     1     -35.854  16.532  -4.958  1.00 20.00     0.044 C 
HETATM    5  N9  UNL     1     -35.919  12.896  -5.264  1.00 20.00    -0.192 NA
ENDROOT
BRANCH   3   6
HETATM    6  C7  UNL     1     -33.864  17.056  -3.440  1.00 20.00     0.038 C 
BRANCH   6   7
HETATM    7  C8  UNL     1     -33.862  16.931  -1.902  1.00 20.00    -0.019 C 
HETATM    8  C5  UNL     1     -35.272  17.016  -1.312  1.00 20.00     0.010 C 
HETATM    9  C6  UNL     1     -32.981  18.026  -1.294  1.00 20.00     0.010 C 
ENDBRANCH   6   7
ENDBRANCH   3   6
TORSDOF 2
ENDMDL
MODEL 9
REMARK VINA RESULT:      -4.0     10.366     11.183
REMARK  2 active torsions:
REMARK  status: ('A' for Active; 'I' for Inactive)
REMARK    1  A    between atoms: C3_3  and  C7_7 
REMARK    2  A    between atoms: C7_7  and  C8_8 
ROOT
HETATM    1  C1  UNL     1     -32.638  18.365  -0.634  1.00 20.00     0.088 C 
HETATM    2  C2  UNL     1     -33.117  17.640  -1.758  1.00 20.00     0.096 C 
HETATM    3  C3  UNL     1     -34.333  17.065  -1.825  1.00 20.00    -0.073 C 
HETATM    4  C4  UNL     1     -35.281  17.172  -0.658  1.00 20.00     0.044 C 
HETATM    5  N9  UNL     1     -32.242  18.962   0.280  1.00 20.00    -0.192 NA
ENDROOT
BRANCH   3   6
HETATM    6  C7  UNL     1     -34.868  16.319  -3.033  1.00 20.00     0.038 C 
BRANCH   6   7
HETATM    7  C8  UNL     1     -33.807  15.515  -3.813  1.00 20.00    -0.019 C 
HETATM    8  C5  UNL     1     -33.368  16.225  -5.096  1.00 20.00     0.010 C 
HETATM    9  C6  UNL     1     -34.355  14.126  -4.153  1.00 20.00     0.010 C 
ENDBRANCH   6   7
ENDBRANCH   3   6
TORSDOF 2
ENDMDL
