MODEL 1
REMARK VINA RESULT:      -4.5      0.000      0.000
REMARK  6 active torsions:
REMARK  status: ('A' for Active; 'I' for Inactive)
REMARK    1  A    between atoms: C1_1  and  C5_5 
REMARK    2  A    between atoms: C1_1  and  C8_8 
REMARK    3  A    between atoms: C6_6  and  O10_10 
REMARK    4  A    between atoms: C7_7  and  O11_11 
REMARK    5  A    between atoms: C8_8  and  O10_10 
REMARK    6  A    between atoms: C8_8  and  O11_11 
ROOT
HETATM    1  C8  UNL     1     -32.911   6.924   3.543  1.00 20.00     0.329 C 
ENDROOT
BRANCH   1   2
HETATM    2  C1  UNL     1     -32.082   8.025   2.893  1.00 20.00     0.181 C 
HETATM    3  O9  UNL     1     -31.161   8.580   3.492  1.00 20.00    -0.293 OA
BRANCH   2   4
HETATM    4  C5  UNL     1     -32.468   8.406   1.471  1.00 20.00     0.079 C 
HETATM    5  C2  UNL     1     -32.530   9.908   1.265  1.00 20.00     0.013 C 
ENDBRANCH   2   4
ENDBRANCH   1   2
BRANCH   1   6
HETATM    6  O10 UNL     1     -33.870   7.619   4.338  1.00 20.00    -0.355 OA
BRANCH   6   7
HETATM    7  C6  UNL     1     -33.734   7.323   5.721  1.00 20.00     0.167 C 
HETATM    8  C3  UNL     1     -34.555   6.092   6.044  1.00 20.00     0.033 C 
ENDBRANCH   6   7
ENDBRANCH   1   6
BRANCH   1   9
HETATM    9  O11 UNL     1     -33.537   6.136   2.539  1.00 20.00    -0.355 OA
BRANCH   9  10
HETATM   10  C7  UNL     1     -33.122   4.776   2.573  1.00 20.00     0.167 C 
HETATM   11  C4  UNL     1     -33.882   4.056   3.667  1.00 20.00     0.033 C 
ENDBRANCH   9  10
ENDBRANCH   1   9
TORSDOF 6
ENDMDL
MODEL 2
REMARK VINA RESULT:      -4.4      0.559      2.413
REMARK  6 active torsions:
REMARK  status: ('A' for Active; 'I' for Inactive)
REMARK    1  A    between atoms: C1_1  and  C5_5 
REMARK    2  A    between atoms: C1_1  and  C8_8 
REMARK    3  A    between atoms: C6_6  and  O10_10 
REMARK    4  A    between atoms: C7_7  and  O11_11 
REMARK    5  A    between atoms: C8_8  and  O10_10 
REMARK    6  A    between atoms: C8_8  and  O11_11 
ROOT
HETATM    1  C8  UNL     1     -33.312   7.599   3.388  1.00 20.00     0.329 C 
ENDROOT
BRANCH   1   2
HETATM    2  C1  UNL     1     -32.153   8.238   2.631  1.00 20.00     0.181 C 
HETATM    3  O9  UNL     1     -31.038   8.360   3.138  1.00 20.00    -0.293 OA
BRANCH   2   4
HETATM    4  C5  UNL     1     -32.459   8.726   1.222  1.00 20.00     0.079 C 
HETATM    5  C2  UNL     1     -32.668  10.228   1.158  1.00 20.00     0.013 C 
ENDBRANCH   2   4
ENDBRANCH   1   2
BRANCH   1   6
HETATM    6  O10 UNL     1     -33.713   6.502   2.569  1.00 20.00    -0.355 OA
BRANCH   6   7
HETATM    7  C6  UNL     1     -32.871   5.370   2.740  1.00 20.00     0.167 C 
HETATM    8  C3  UNL     1     -33.706   4.206   3.230  1.00 20.00     0.033 C 
ENDBRANCH   6   7
ENDBRANCH   1   6
BRANCH   1   9
HETATM    9  O11 UNL     1     -32.870   7.162   4.666  1.00 20.00    -0.355 OA
BRANCH   9  10
HETATM   10  C7  UNL     1     -33.842   7.373   5.682  1.00 20.00     0.167 C 
HETATM   11  C4  UNL     1     -34.543   6.063   5.973  1.00 20.00     0.033 C 
ENDBRANCH   9  10
ENDBRANCH   1   9
TORSDOF 6
ENDMDL
MODEL 3
REMARK VINA RESULT:      -4.4      1.265      4.356
REMARK  6 active torsions:
REMARK  status: ('A' for Active; 'I' for Inactive)
REMARK    1  A    between atoms: C1_1  and  C5_5 
REMARK    2  A    between atoms: C1_1  and  C8_8 
REMARK    3  A    between atoms: C6_6  and  O10_10 
REMARK    4  A    between atoms: C7_7  and  O11_11 
REMARK    5  A    between atoms: C8_8  and  O10_10 
REMARK    6  A    between atoms: C8_8  and  O11_11 
ROOT
HETATM    1  C8  UNL     1     -32.751   6.983   3.088  1.00 20.00     0.329 C 
ENDROOT
BRANCH   1   2
HETATM    2  C1  UNL     1     -33.366   5.599   2.923  1.00 20.00     0.181 C 
HETATM    3  O9  UNL     1     -32.821   4.724   2.251  1.00 20.00    -0.293 OA
BRANCH   2   4
HETATM    4  C5  UNL     1     -34.698   5.367   3.623  1.00 20.00     0.079 C 
HETATM    5  C2  UNL     1     -34.597   4.354   4.748  1.00 20.00     0.013 C 
ENDBRANCH   2   4
ENDBRANCH   1   2
BRANCH   1   6
HETATM    6  O10 UNL     1     -32.773   7.544   1.777  1.00 20.00    -0.355 OA
BRANCH   6   7
HETATM    7  C6  UNL     1     -32.063   8.773   1.708  1.00 20.00     0.167 C 
HETATM    8  C3  UNL     1     -32.527   9.542   0.489  1.00 20.00     0.033 C 
ENDBRANCH   6   7
ENDBRANCH   1   6
BRANCH   1   9
HETATM    9  O11 UNL     1     -33.527   7.750   3.998  1.00 20.00    -0.355 OA
BRANCH   9  10
HETATM   10  C7  UNL     1     -32.907   7.881   5.271  1.00 20.00     0.167 C 
HETATM   11  C4  UNL     1     -33.869   7.407   6.340  1.00 20.00     0.033 C 
ENDBRANCH   9  10
ENDBRANCH   1   9
TORSDOF 6
ENDMDL
MODEL 4
REMARK VINA RESULT:      -4.3      1.030      3.708
REMARK  6 active torsions:
REMARK  status: ('A' for Active; 'I' for Inactive)
REMARK    1  A    between atoms: C1_1  and  C5_5 
REMARK    2  A    between atoms: C1_1  and  C8_8 
REMARK    3  A    between atoms: C6_6  and  O10_10 
REMARK    4  A    between atoms: C7_7  and  O11_11 
REMARK    5  A    between atoms: C8_8  and  O10_10 
REMARK    6  A    between atoms: C8_8  and  O11_11 
ROOT
HETATM    1  C8  UNL     1     -32.739   7.096   2.453  1.00 20.00     0.329 C 
ENDROOT
BRANCH   1   2
HETATM    2  C1  UNL     1     -32.667   7.719   3.842  1.00 20.00     0.181 C 
HETATM    3  O9  UNL     1     -31.627   8.213   4.276  1.00 20.00    -0.293 OA
BRANCH   2   4
HETATM    4  C5  UNL     1     -33.948   7.680   4.663  1.00 20.00     0.079 C 
HETATM    5  C2  UNL     1     -33.716   7.204   6.085  1.00 20.00     0.013 C 
ENDBRANCH   2   4
ENDBRANCH   1   2
BRANCH   1   6
HETATM    6  O10 UNL     1     -33.743   6.089   2.564  1.00 20.00    -0.355 OA
BRANCH   6   7
HETATM    7  C6  UNL     1     -33.191   4.814   2.864  1.00 20.00     0.167 C 
HETATM    8  C3  UNL     1     -34.011   4.169   3.962  1.00 20.00     0.033 C 
ENDBRANCH   6   7
ENDBRANCH   1   6
BRANCH   1   9
HETATM    9  O11 UNL     1     -33.096   8.087   1.499  1.00 20.00    -0.355 OA
BRANCH   9  10
HETATM   10  C7  UNL     1     -32.021   8.968   1.197  1.00 20.00     0.167 C 
HETATM   11  C4  UNL     1     -32.560  10.375   1.057  1.00 20.00     0.033 C 
ENDBRANCH   9  10
ENDBRANCH   1   9
TORSDOF 6
ENDMDL
MODEL 5
REMARK VINA RESULT:      -4.3     10.817     12.164
REMARK  6 active torsions:
REMARK  status: ('A' for Active; 'I' for Inactive)
REMARK    1  A    between atoms: C1_1  and  C5_5 
REMARK    2  A    between atoms: C1_1  and  C8_8 
REMARK    3  A    between atoms: C6_6  and  O10_10 
REMARK    4  A    between atoms: C7_7  and  O11_11 
REMARK    5  A    between atoms: C8_8  and  O10_10 
REMARK    6  A    between atoms: C8_8  and  O11_11 
ROOT
HETATM    1  C8  UNL     1     -36.055  13.933  -5.424  1.00 20.00     0.329 C 
ENDROOT
BRANCH   1   2
HETATM    2  C1  UNL     1     -35.076  14.328  -4.325  1.00 20.00     0.181 C 
HETATM    3  O9  UNL     1     -34.184  13.569  -3.949  1.00 20.00    -0.293 OA
BRANCH   2   4
HETATM    4  C5  UNL     1     -35.276  15.707  -3.712  1.00 20.00     0.079 C 
HETATM    5  C2  UNL     1     -34.025  16.231  -3.031  1.00 20.00     0.013 C 
ENDBRANCH   2   4
ENDBRANCH   1   2
BRANCH   1   6
HETATM    6  O10 UNL     1     -35.456  12.797  -6.045  1.00 20.00    -0.355 OA
BRANCH   6   7
HETATM    7  C6  UNL     1     -35.332  12.959  -7.452  1.00 20.00     0.167 C 
HETATM    8  C3  UNL     1     -34.214  13.940  -7.738  1.00 20.00     0.033 C 
ENDBRANCH   6   7
ENDBRANCH   1   6
BRANCH   1   9
HETATM    9  O11 UNL     1     -37.316  13.612  -4.854  1.00 20.00    -0.355 OA
BRANCH   9  10
HETATM   10  C7  UNL     1     -38.331  14.542  -5.211  1.00 20.00     0.167 C 
HETATM   11  C4  UNL     1     -37.868  15.340  -6.411  1.00 20.00     0.033 C 
ENDBRANCH   9  10
ENDBRANCH   1   9
TORSDOF 6
ENDMDL
MODEL 6
REMARK VINA RESULT:      -4.2     10.782     12.066
REMARK  6 active torsions:
REMARK  status: ('A' for Active; 'I' for Inactive)
REMARK    1  A    between atoms: C1_1  and  C5_5 
REMARK    2  A    between atoms: C1_1  and  C8_8 
REMARK    3  A    between atoms: C6_6  and  O10_10 
REMARK    4  A    between atoms: C7_7  and  O11_11 
REMARK    5  A    between atoms: C8_8  and  O10_10 
REMARK    6  A    between atoms: C8_8  and  O11_11 
ROOT
HETATM    1  C8  UNL     1     -35.473  13.949  -5.359  1.00 20.00     0.329 C 
ENDROOT
BRANCH   1   2
HETATM    2  C1  UNL     1     -35.033  13.350  -6.690  1.00 20.00     0.181 C 
HETATM    3  O9  UNL     1     -35.080  12.139  -6.902  1.00 20.00    -0.293 OA
BRANCH   2   4
HETATM    4  C5  UNL     1     -34.519  14.334  -7.732  1.00 20.00     0.079 C 
HETATM    5  C2  UNL     1     -34.938  15.764  -7.442  1.00 20.00     0.013 C 
ENDBRANCH   2   4
ENDBRANCH   1   2
BRANCH   1   6
HETATM    6  O10 UNL     1     -36.779  13.419  -5.143  1.00 20.00    -0.355 OA
BRANCH   6   7
HETATM    7  C6  UNL     1     -37.791  14.401  -5.320  1.00 20.00     0.167 C 
HETATM    8  C3  UNL     1     -37.540  15.546  -4.361  1.00 20.00     0.033 C 
ENDBRANCH   6   7
ENDBRANCH   1   6
BRANCH   1   9
HETATM    9  O11 UNL     1     -34.572  13.556  -4.332  1.00 20.00    -0.355 OA
BRANCH   9  10
HETATM   10  C7  UNL     1     -33.430  14.400  -4.254  1.00 20.00     0.167 C 
HETATM   11  C4  UNL     1     -33.855  15.757  -3.734  1.00 20.00     0.033 C 
ENDBRANCH   9  10
ENDBRANCH   1   9
TORSDOF 6
ENDMDL
MODEL 7
REMARK VINA RESULT:      -4.2      1.145      3.753
REMARK  6 active torsions:
REMARK  status: ('A' for Active; 'I' for Inactive)
REMARK    1  A    between atoms: C1_1  and  C5_5 
REMARK    2  A    between atoms: C1_1  and  C8_8 
REMARK    3  A    between atoms: C6_6  and  O10_10 
REMARK    4  A    between atoms: C7_7  and  O11_11 
REMARK    5  A    between atoms: C8_8  and  O10_10 
REMARK    6  A    between atoms: C8_8  and  O11_11 
ROOT
HETATM    1  C8  UNL     1     -33.369   7.278   2.721  1.00 20.00     0.329 C 
ENDROOT
BRANCH   1   2
HETATM    2  C1  UNL     1     -33.531   5.773   2.904  1.00 20.00     0.181 C 
HETATM    3  O9  UNL     1     -32.706   4.975   2.461  1.00 20.00    -0.293 OA
BRANCH   2   4
HETATM    4  C5  UNL     1     -34.776   5.318   3.651  1.00 20.00     0.079 C 
HETATM    5  C2  UNL     1     -34.473   4.272   4.708  1.00 20.00     0.013 C 
ENDBRANCH   2   4
ENDBRANCH   1   2
BRANCH   1   6
HETATM    6  O10 UNL     1     -33.898   7.843   3.919  1.00 20.00    -0.355 OA
BRANCH   6   7
HETATM    7  C6  UNL     1     -32.958   7.813   4.984  1.00 20.00     0.167 C 
HETATM    8  C3  UNL     1     -33.677   7.447   6.265  1.00 20.00     0.033 C 
ENDBRANCH   6   7
ENDBRANCH   1   6
BRANCH   1   9
HETATM    9  O11 UNL     1     -31.994   7.598   2.554  1.00 20.00    -0.355 OA
BRANCH   9  10
HETATM   10  C7  UNL     1     -31.743   8.324   1.357  1.00 20.00     0.167 C 
HETATM   11  C4  UNL     1     -32.440   9.665   1.438  1.00 20.00     0.033 C 
ENDBRANCH   9  10
ENDBRANCH   1   9
TORSDOF 6
ENDMDL
MODEL 8
REMARK VINA RESULT:      -4.1     10.844     12.081
REMARK  6 active torsions:
REMARK  status: ('A' for Active; 'I' for Inactive)
REMARK    1  A    between atoms: C1_1  and  C5_5 
REMARK    2  A    between atoms: C1_1  and  C8_8 
REMARK    3  A    between atoms: C6_6  and  O10_10 
REMARK    4  A    between atoms: C7_7  and  O11_11 
REMARK    5  A    between atoms: C8_8  and  O10_10 
REMARK    6  A    between atoms: C8_8  and  O11_11 
ROOT
HETATM    1  C8  UNL     1     -35.364  13.991  -5.418  1.00 20.00     0.329 C 
ENDROOT
BRANCH   1   2
HETATM    2  C1  UNL     1     -36.771  14.451  -5.053  1.00 20.00     0.181 C 
HETATM    3  O9  UNL     1     -37.694  13.652  -4.902  1.00 20.00    -0.293 OA
BRANCH   2   4
HETATM    4  C5  UNL     1     -36.967  15.953  -4.900  1.00 20.00     0.079 C 
HETATM    5  C2  UNL     1     -36.277  16.746  -5.993  1.00 20.00     0.013 C 
ENDBRANCH   2   4
ENDBRANCH   1   2
BRANCH   1   6
HETATM    6  O10 UNL     1     -34.690  13.873  -4.167  1.00 20.00    -0.355 OA
BRANCH   6   7
HETATM    7  C6  UNL     1     -33.453  14.573  -4.158  1.00 20.00     0.167 C 
HETATM    8  C3  UNL     1     -33.643  15.899  -3.452  1.00 20.00     0.033 C 
ENDBRANCH   6   7
ENDBRANCH   1   6
BRANCH   1   9
HETATM    9  O11 UNL     1     -35.427  12.744  -6.098  1.00 20.00    -0.355 OA
BRANCH   9  10
HETATM   10  C7  UNL     1     -35.249  12.878  -7.503  1.00 20.00     0.167 C 
HETATM   11  C4  UNL     1     -34.254  13.987  -7.771  1.00 20.00     0.033 C 
ENDBRANCH   9  10
ENDBRANCH   1   9
TORSDOF 6
ENDMDL
MODEL 9
REMARK VINA RESULT:      -4.1     11.045     12.311
REMARK  6 active torsions:
REMARK  status: ('A' for Active; 'I' for Inactive)
REMARK    1  A    between atoms: C1_1  and  C5_5 
REMARK    2  A    between atoms: C1_1  and  C8_8 
REMARK    3  A    between atoms: C6_6  and  O10_10 
REMARK    4  A    between atoms: C7_7  and  O11_11 
REMARK    5  A    between atoms: C8_8  and  O10_10 
REMARK    6  A    between atoms: C8_8  and  O11_11 
ROOT
HETATM    1  C8  UNL     1     -34.566  14.414  -4.436  1.00 20.00     0.329 C 
ENDROOT
BRANCH   1   2
HETATM    2  C1  UNL     1     -35.877  13.770  -4.872  1.00 20.00     0.181 C 
HETATM    3  O9  UNL     1     -35.927  12.603  -5.259  1.00 20.00    -0.293 OA
BRANCH   2   4
HETATM    4  C5  UNL     1     -37.113  14.656  -4.814  1.00 20.00     0.079 C 
HETATM    5  C2  UNL     1     -37.629  15.029  -6.191  1.00 20.00     0.013 C 
ENDBRANCH   2   4
ENDBRANCH   1   2
BRANCH   1   6
HETATM    6  O10 UNL     1     -33.669  14.169  -5.518  1.00 20.00    -0.355 OA
BRANCH   6   7
HETATM    7  C6  UNL     1     -33.798  15.137  -6.550  1.00 20.00     0.167 C 
HETATM    8  C3  UNL     1     -33.947  14.425  -7.878  1.00 20.00     0.033 C 
ENDBRANCH   6   7
ENDBRANCH   1   6
BRANCH   1   9
HETATM    9  O11 UNL     1     -34.760  15.806  -4.223  1.00 20.00    -0.355 OA
BRANCH   9  10
HETATM   10  C7  UNL     1     -34.119  16.273  -3.043  1.00 20.00     0.167 C 
HETATM   11  C4  UNL     1     -35.174  16.654  -2.026  1.00 20.00     0.033 C 
ENDBRANCH   9  10
ENDBRANCH   1   9
TORSDOF 6
ENDMDL
