MODEL 1
REMARK VINA RESULT:      -3.8      0.000      0.000
REMARK  0 active torsions:
REMARK  status: ('A' for Active; 'I' for Inactive)
ROOT
HETATM    1  C1  UNL     1     -33.923   6.677   5.198  1.00 20.00     0.084 C 
HETATM    2  C2  UNL     1     -35.665   6.101   3.550  1.00 20.00     0.048 C 
HETATM    3  C3  UNL     1     -34.370   4.298   4.731  1.00 20.00     0.048 C 
HETATM    4  C4  UNL     1     -34.318   5.713   4.158  1.00 20.00     0.118 C 
HETATM    5  N5  UNL     1     -33.616   7.437   6.020  1.00 20.00    -0.195 NA
HETATM    6 CL6  UNL     1     -33.064   5.776   2.878  1.00 20.00    -0.104 Cl
ENDROOT
TORSDOF 0
ENDMDL
MODEL 2
REMARK VINA RESULT:      -3.8      1.372      1.901
REMARK  0 active torsions:
REMARK  status: ('A' for Active; 'I' for Inactive)
ROOT
HETATM    1  C1  UNL     1     -33.950   6.641   5.147  1.00 20.00     0.084 C 
HETATM    2  C2  UNL     1     -34.338   4.262   4.626  1.00 20.00     0.048 C 
HETATM    3  C3  UNL     1     -33.304   5.796   2.923  1.00 20.00     0.048 C 
HETATM    4  C4  UNL     1     -34.296   5.689   4.079  1.00 20.00     0.118 C 
HETATM    5  N5  UNL     1     -33.674   7.391   5.990  1.00 20.00    -0.195 NA
HETATM    6 CL6  UNL     1     -35.929   6.131   3.487  1.00 20.00    -0.104 Cl
ENDROOT
TORSDOF 0
ENDMDL
MODEL 3
REMARK VINA RESULT:      -3.8      1.301      1.830
REMARK  0 active torsions:
REMARK  status: ('A' for Active; 'I' for Inactive)
ROOT
HETATM    1  C1  UNL     1     -33.912   6.691   5.156  1.00 20.00     0.084 C 
HETATM    2  C2  UNL     1     -33.250   5.904   2.915  1.00 20.00     0.048 C 
HETATM    3  C3  UNL     1     -35.678   6.098   3.540  1.00 20.00     0.048 C 
HETATM    4  C4  UNL     1     -34.270   5.792   4.047  1.00 20.00     0.118 C 
HETATM    5  N5  UNL     1     -33.631   7.405   6.028  1.00 20.00    -0.195 NA
HETATM    6 CL6  UNL     1     -34.237   4.120   4.694  1.00 20.00    -0.104 Cl
ENDROOT
TORSDOF 0
ENDMDL
MODEL 4
REMARK VINA RESULT:      -3.6      2.002      2.276
REMARK  0 active torsions:
REMARK  status: ('A' for Active; 'I' for Inactive)
ROOT
HETATM    1  C1  UNL     1     -33.327   6.368   3.469  1.00 20.00     0.084 C 
HETATM    2  C2  UNL     1     -34.304   6.302   5.732  1.00 20.00     0.048 C 
HETATM    3  C3  UNL     1     -34.151   4.214   4.340  1.00 20.00     0.048 C 
HETATM    4  C4  UNL     1     -34.346   5.728   4.317  1.00 20.00     0.118 C 
HETATM    5  N5  UNL     1     -32.519   6.871   2.803  1.00 20.00    -0.195 NA
HETATM    6 CL6  UNL     1     -35.943   6.097   3.589  1.00 20.00    -0.104 Cl
ENDROOT
TORSDOF 0
ENDMDL
MODEL 5
REMARK VINA RESULT:      -3.6      2.052      2.549
REMARK  0 active torsions:
REMARK  status: ('A' for Active; 'I' for Inactive)
ROOT
HETATM    1  C1  UNL     1     -33.285   6.434   3.414  1.00 20.00     0.084 C 
HETATM    2  C2  UNL     1     -34.094   4.265   4.261  1.00 20.00     0.048 C 
HETATM    3  C3  UNL     1     -35.714   6.090   3.654  1.00 20.00     0.048 C 
HETATM    4  C4  UNL     1     -34.329   5.774   4.214  1.00 20.00     0.118 C 
HETATM    5  N5  UNL     1     -32.463   6.953   2.779  1.00 20.00    -0.195 NA
HETATM    6 CL6  UNL     1     -34.211   6.431   5.878  1.00 20.00    -0.104 Cl
ENDROOT
TORSDOF 0
ENDMDL
MODEL 6
REMARK VINA RESULT:      -3.6      1.829      2.053
REMARK  0 active torsions:
REMARK  status: ('A' for Active; 'I' for Inactive)
ROOT
HETATM    1  C1  UNL     1     -33.294   6.546   3.453  1.00 20.00     0.084 C 
HETATM    2  C2  UNL     1     -35.713   6.116   3.655  1.00 20.00     0.048 C 
HETATM    3  C3  UNL     1     -34.267   6.296   5.705  1.00 20.00     0.048 C 
HETATM    4  C4  UNL     1     -34.327   5.856   4.243  1.00 20.00     0.118 C 
HETATM    5  N5  UNL     1     -32.481   7.093   2.831  1.00 20.00    -0.195 NA
HETATM    6 CL6  UNL     1     -33.977   4.100   4.150  1.00 20.00    -0.104 Cl
ENDROOT
TORSDOF 0
ENDMDL
MODEL 7
REMARK VINA RESULT:      -3.3      2.311      2.678
REMARK  0 active torsions:
REMARK  status: ('A' for Active; 'I' for Inactive)
ROOT
HETATM    1  C1  UNL     1     -34.143   4.593   4.220  1.00 20.00     0.084 C 
HETATM    2  C2  UNL     1     -35.644   6.399   3.468  1.00 20.00     0.048 C 
HETATM    3  C3  UNL     1     -33.169   6.530   3.045  1.00 20.00     0.048 C 
HETATM    4  C4  UNL     1     -34.256   6.044   4.001  1.00 20.00     0.118 C 
HETATM    5  N5  UNL     1     -34.053   3.448   4.388  1.00 20.00    -0.195 NA
HETATM    6 CL6  UNL     1     -34.026   6.837   5.593  1.00 20.00    -0.104 Cl
ENDROOT
TORSDOF 0
ENDMDL
MODEL 8
REMARK VINA RESULT:      -3.1     12.300     12.846
REMARK  0 active torsions:
REMARK  status: ('A' for Active; 'I' for Inactive)
ROOT
HETATM    1  C1  UNL     1     -35.249  13.818  -4.957  1.00 20.00     0.084 C 
HETATM    2  C2  UNL     1     -34.867  15.693  -3.402  1.00 20.00     0.048 C 
HETATM    3  C3  UNL     1     -34.234  15.890  -5.828  1.00 20.00     0.048 C 
HETATM    4  C4  UNL     1     -34.359  14.945  -4.634  1.00 20.00     0.118 C 
HETATM    5  N5  UNL     1     -35.955  12.932  -5.213  1.00 20.00    -0.195 NA
HETATM    6 CL6  UNL     1     -32.746  14.253  -4.268  1.00 20.00    -0.104 Cl
ENDROOT
TORSDOF 0
ENDMDL
MODEL 9
REMARK VINA RESULT:      -3.1     12.755     12.990
REMARK  0 active torsions:
REMARK  status: ('A' for Active; 'I' for Inactive)
ROOT
HETATM    1  C1  UNL     1     -35.307  13.835  -4.973  1.00 20.00     0.084 C 
HETATM    2  C2  UNL     1     -33.036  14.619  -4.420  1.00 20.00     0.048 C 
HETATM    3  C3  UNL     1     -35.056  15.737  -3.424  1.00 20.00     0.048 C 
HETATM    4  C4  UNL     1     -34.493  15.018  -4.648  1.00 20.00     0.118 C 
HETATM    5  N5  UNL     1     -35.948  12.900  -5.225  1.00 20.00    -0.195 NA
HETATM    6 CL6  UNL     1     -34.579  16.120  -6.060  1.00 20.00    -0.104 Cl
ENDROOT
TORSDOF 0
ENDMDL
