MODEL 1
REMARK VINA RESULT:      -6.1      0.000      0.000
REMARK  0 active torsions:
REMARK  status: ('A' for Active; 'I' for Inactive)
ROOT
HETATM    1  C1  UNL     1     -33.647   7.313   5.991  1.00 20.00    -0.002 A 
HETATM    2  C2  UNL     1     -32.760   7.923   5.042  1.00 20.00     0.010 A 
HETATM    3  C3  UNL     1     -34.437   6.290   5.653  1.00 20.00    -0.010 A 
HETATM    4  C4  UNL     1     -32.655   7.526   3.766  1.00 20.00    -0.015 A 
HETATM    5  C5  UNL     1     -33.501   6.384   3.292  1.00 20.00     0.166 A 
HETATM    6  C6  UNL     1     -34.474   5.690   4.270  1.00 20.00     0.035 A 
HETATM    7  C7  UNL     1     -31.729   8.165   2.781  1.00 20.00     0.052 C 
HETATM    8  C8  UNL     1     -34.082   4.208   4.359  1.00 20.00     0.027 C 
HETATM    9  C9  UNL     1     -35.895   5.824   3.704  1.00 20.00     0.027 C 
HETATM   10  O10 UNL     1     -33.409   6.013   2.119  1.00 20.00    -0.292 OA
ENDROOT
TORSDOF 0
ENDMDL
MODEL 2
REMARK VINA RESULT:      -5.0      1.235      1.890
REMARK  0 active torsions:
REMARK  status: ('A' for Active; 'I' for Inactive)
ROOT
HETATM    1  C1  UNL     1     -34.757   5.587   5.445  1.00 20.00    -0.002 A 
HETATM    2  C2  UNL     1     -33.989   6.743   5.814  1.00 20.00     0.010 A 
HETATM    3  C3  UNL     1     -34.713   5.085   4.208  1.00 20.00    -0.010 A 
HETATM    4  C4  UNL     1     -33.183   7.397   4.966  1.00 20.00    -0.015 A 
HETATM    5  C5  UNL     1     -33.066   6.908   3.556  1.00 20.00     0.166 A 
HETATM    6  C6  UNL     1     -33.870   5.669   3.102  1.00 20.00     0.035 A 
HETATM    7  C7  UNL     1     -32.385   8.600   5.356  1.00 20.00     0.052 C 
HETATM    8  C8  UNL     1     -32.873   4.605   2.619  1.00 20.00     0.027 C 
HETATM    9  C9  UNL     1     -34.787   6.093   1.945  1.00 20.00     0.027 C 
HETATM   10  O10 UNL     1     -32.326   7.505   2.770  1.00 20.00    -0.292 OA
ENDROOT
TORSDOF 0
ENDMDL
MODEL 3
REMARK VINA RESULT:      -4.7      1.477      2.891
REMARK  0 active torsions:
REMARK  status: ('A' for Active; 'I' for Inactive)
ROOT
HETATM    1  C1  UNL     1     -32.059   7.920   3.273  1.00 20.00    -0.002 A 
HETATM    2  C2  UNL     1     -32.576   8.007   4.610  1.00 20.00     0.010 A 
HETATM    3  C3  UNL     1     -32.508   7.007   2.408  1.00 20.00    -0.010 A 
HETATM    4  C4  UNL     1     -33.531   7.196   5.087  1.00 20.00    -0.015 A 
HETATM    5  C5  UNL     1     -34.098   6.139   4.190  1.00 20.00     0.166 A 
HETATM    6  C6  UNL     1     -33.579   5.999   2.742  1.00 20.00     0.035 A 
HETATM    7  C7  UNL     1     -34.066   7.290   6.481  1.00 20.00     0.052 C 
HETATM    8  C8  UNL     1     -34.767   6.199   1.790  1.00 20.00     0.027 C 
HETATM    9  C9  UNL     1     -33.005   4.585   2.576  1.00 20.00     0.027 C 
HETATM   10  O10 UNL     1     -34.977   5.390   4.623  1.00 20.00    -0.292 OA
ENDROOT
TORSDOF 0
ENDMDL
MODEL 4
REMARK VINA RESULT:      -4.6      1.689      3.705
REMARK  0 active torsions:
REMARK  status: ('A' for Active; 'I' for Inactive)
ROOT
HETATM    1  C1  UNL     1     -33.232   5.048   2.573  1.00 20.00    -0.002 A 
HETATM    2  C2  UNL     1     -33.885   4.673   3.795  1.00 20.00     0.010 A 
HETATM    3  C3  UNL     1     -32.806   6.297   2.362  1.00 20.00    -0.010 A 
HETATM    4  C4  UNL     1     -34.116   5.528   4.802  1.00 20.00    -0.015 A 
HETATM    5  C5  UNL     1     -33.674   6.951   4.659  1.00 20.00     0.166 A 
HETATM    6  C6  UNL     1     -32.967   7.411   3.366  1.00 20.00     0.035 A 
HETATM    7  C7  UNL     1     -34.798   5.132   6.074  1.00 20.00     0.052 C 
HETATM    8  C8  UNL     1     -31.577   7.943   3.747  1.00 20.00     0.027 C 
HETATM    9  C9  UNL     1     -33.805   8.534   2.737  1.00 20.00     0.027 C 
HETATM   10  O10 UNL     1     -33.884   7.743   5.582  1.00 20.00    -0.292 OA
ENDROOT
TORSDOF 0
ENDMDL
MODEL 5
REMARK VINA RESULT:      -4.5      0.841      3.117
REMARK  0 active torsions:
REMARK  status: ('A' for Active; 'I' for Inactive)
ROOT
HETATM    1  C1  UNL     1     -33.884   7.332   5.932  1.00 20.00    -0.002 A 
HETATM    2  C2  UNL     1     -34.237   5.958   5.711  1.00 20.00     0.010 A 
HETATM    3  C3  UNL     1     -33.302   8.066   4.979  1.00 20.00    -0.010 A 
HETATM    4  C4  UNL     1     -34.016   5.314   4.557  1.00 20.00    -0.015 A 
HETATM    5  C5  UNL     1     -33.369   6.055   3.427  1.00 20.00     0.166 A 
HETATM    6  C6  UNL     1     -32.967   7.535   3.608  1.00 20.00     0.035 A 
HETATM    7  C7  UNL     1     -34.386   3.882   4.332  1.00 20.00     0.052 C 
HETATM    8  C8  UNL     1     -33.717   8.364   2.555  1.00 20.00     0.027 C 
HETATM    9  C9  UNL     1     -31.452   7.649   3.385  1.00 20.00     0.027 C 
HETATM   10  O10 UNL     1     -33.163   5.468   2.362  1.00 20.00    -0.292 OA
ENDROOT
TORSDOF 0
ENDMDL
MODEL 6
REMARK VINA RESULT:      -4.3      1.499      2.653
REMARK  0 active torsions:
REMARK  status: ('A' for Active; 'I' for Inactive)
ROOT
HETATM    1  C1  UNL     1     -32.727   6.698   2.326  1.00 20.00    -0.002 A 
HETATM    2  C2  UNL     1     -32.283   7.624   3.329  1.00 20.00     0.010 A 
HETATM    3  C3  UNL     1     -33.695   5.811   2.573  1.00 20.00    -0.010 A 
HETATM    4  C4  UNL     1     -32.792   7.672   4.568  1.00 20.00    -0.015 A 
HETATM    5  C5  UNL     1     -33.883   6.716   4.940  1.00 20.00     0.166 A 
HETATM    6  C6  UNL     1     -34.401   5.697   3.901  1.00 20.00     0.035 A 
HETATM    7  C7  UNL     1     -32.325   8.639   5.610  1.00 20.00     0.052 C 
HETATM    8  C8  UNL     1     -35.901   5.951   3.692  1.00 20.00     0.027 C 
HETATM    9  C9  UNL     1     -34.180   4.287   4.466  1.00 20.00     0.027 C 
HETATM   10  O10 UNL     1     -34.356   6.755   6.079  1.00 20.00    -0.292 OA
ENDROOT
TORSDOF 0
ENDMDL
MODEL 7
REMARK VINA RESULT:      -4.2     11.941     12.672
REMARK  0 active torsions:
REMARK  status: ('A' for Active; 'I' for Inactive)
ROOT
HETATM    1  C1  UNL     1     -33.115  15.274  -4.799  1.00 20.00    -0.002 A 
HETATM    2  C2  UNL     1     -33.531  15.907  -3.579  1.00 20.00     0.010 A 
HETATM    3  C3  UNL     1     -34.001  14.762  -5.657  1.00 20.00    -0.010 A 
HETATM    4  C4  UNL     1     -34.813  16.031  -3.211  1.00 20.00    -0.015 A 
HETATM    5  C5  UNL     1     -35.881  15.488  -4.109  1.00 20.00     0.166 A 
HETATM    6  C6  UNL     1     -35.492  14.797  -5.435  1.00 20.00     0.035 A 
HETATM    7  C7  UNL     1     -35.241  16.692  -1.938  1.00 20.00     0.052 C 
HETATM    8  C8  UNL     1     -36.151  15.570  -6.586  1.00 20.00     0.027 C 
HETATM    9  C9  UNL     1     -36.026  13.357  -5.396  1.00 20.00     0.027 C 
HETATM   10  O10 UNL     1     -37.063  15.599  -3.776  1.00 20.00    -0.292 OA
ENDROOT
TORSDOF 0
ENDMDL
MODEL 8
REMARK VINA RESULT:      -4.2     12.076     12.721
REMARK  0 active torsions:
REMARK  status: ('A' for Active; 'I' for Inactive)
ROOT
HETATM    1  C1  UNL     1     -35.527  17.644   0.596  1.00 20.00    -0.002 A 
HETATM    2  C2  UNL     1     -34.323  18.208   1.140  1.00 20.00     0.010 A 
HETATM    3  C3  UNL     1     -35.673  17.442  -0.716  1.00 20.00    -0.010 A 
HETATM    4  C4  UNL     1     -33.273  18.570   0.390  1.00 20.00    -0.015 A 
HETATM    5  C5  UNL     1     -33.342  18.381  -1.093  1.00 20.00     0.166 A 
HETATM    6  C6  UNL     1     -34.612  17.779  -1.734  1.00 20.00     0.035 A 
HETATM    7  C7  UNL     1     -32.021  19.157   0.962  1.00 20.00     0.052 C 
HETATM    8  C8  UNL     1     -34.208  16.497  -2.477  1.00 20.00     0.027 C 
HETATM    9  C9  UNL     1     -35.178  18.805  -2.726  1.00 20.00     0.027 C 
HETATM   10  O10 UNL     1     -32.378  18.711  -1.789  1.00 20.00    -0.292 OA
ENDROOT
TORSDOF 0
ENDMDL
MODEL 9
REMARK VINA RESULT:      -4.0     11.852     12.778
REMARK  0 active torsions:
REMARK  status: ('A' for Active; 'I' for Inactive)
ROOT
HETATM    1  C1  UNL     1     -34.007  14.458  -4.226  1.00 20.00    -0.002 A 
HETATM    2  C2  UNL     1     -35.292  14.059  -4.727  1.00 20.00     0.010 A 
HETATM    3  C3  UNL     1     -33.843  15.602  -3.554  1.00 20.00    -0.010 A 
HETATM    4  C4  UNL     1     -36.407  14.787  -4.566  1.00 20.00    -0.015 A 
HETATM    5  C5  UNL     1     -36.323  16.085  -3.825  1.00 20.00     0.166 A 
HETATM    6  C6  UNL     1     -34.966  16.565  -3.263  1.00 20.00     0.035 A 
HETATM    7  C7  UNL     1     -37.744  14.366  -5.090  1.00 20.00     0.052 C 
HETATM    8  C8  UNL     1     -35.109  16.720  -1.742  1.00 20.00     0.027 C 
HETATM    9  C9  UNL     1     -34.639  17.922  -3.902  1.00 20.00     0.027 C 
HETATM   10  O10 UNL     1     -37.345  16.759  -3.672  1.00 20.00    -0.292 OA
ENDROOT
TORSDOF 0
ENDMDL
