MODEL 1
REMARK VINA RESULT:      -4.8      0.000      0.000
REMARK  1 active torsions:
REMARK  status: ('A' for Active; 'I' for Inactive)
REMARK    1  A    between atoms: C7_7  and  C11_11 
ROOT
HETATM    1  C1  UNL     1     -35.167  13.902  -5.884  1.00 20.00     0.127 C 
HETATM    2  C2  UNL     1     -34.585  14.799  -6.952  1.00 20.00     0.078 C 
HETATM    3  C3  UNL     1     -35.519  14.517  -4.548  1.00 20.00     0.079 C 
HETATM    4  C4  UNL     1     -33.336  15.554  -6.508  1.00 20.00     0.008 C 
HETATM    5  C5  UNL     1     -34.259  14.816  -3.749  1.00 20.00     0.013 C 
HETATM    6  C6  UNL     1     -33.639  16.653  -5.490  1.00 20.00     0.006 C 
HETATM    7  C7  UNL     1     -33.634  16.196  -4.020  1.00 20.00    -0.007 C 
HETATM    8  O12 UNL     1     -35.389  12.711  -6.112  1.00 20.00    -0.298 OA
ENDROOT
BRANCH   7   9
HETATM    9  C11 UNL     1     -34.293  17.272  -3.149  1.00 20.00    -0.048 C 
HETATM   10  C8  UNL     1     -34.935  16.613  -1.917  1.00 20.00     0.015 C 
HETATM   11  C9  UNL     1     -35.374  17.999  -3.961  1.00 20.00     0.015 C 
HETATM   12  C10 UNL     1     -33.232  18.284  -2.690  1.00 20.00     0.015 C 
ENDBRANCH   7   9
TORSDOF 1
ENDMDL
MODEL 2
REMARK VINA RESULT:      -4.8      0.030      1.253
REMARK  1 active torsions:
REMARK  status: ('A' for Active; 'I' for Inactive)
REMARK    1  A    between atoms: C7_7  and  C11_11 
ROOT
HETATM    1  C1  UNL     1     -35.163  13.925  -5.869  1.00 20.00     0.127 C 
HETATM    2  C2  UNL     1     -34.576  14.820  -6.936  1.00 20.00     0.078 C 
HETATM    3  C3  UNL     1     -35.520  14.541  -4.535  1.00 20.00     0.079 C 
HETATM    4  C4  UNL     1     -33.328  15.575  -6.486  1.00 20.00     0.008 C 
HETATM    5  C5  UNL     1     -34.264  14.841  -3.731  1.00 20.00     0.013 C 
HETATM    6  C6  UNL     1     -33.636  16.676  -5.471  1.00 20.00     0.006 C 
HETATM    7  C7  UNL     1     -33.637  16.220  -4.001  1.00 20.00    -0.007 C 
HETATM    8  O12 UNL     1     -35.385  12.734  -6.096  1.00 20.00    -0.298 OA
ENDROOT
BRANCH   7   9
HETATM    9  C11 UNL     1     -34.299  17.298  -3.134  1.00 20.00    -0.048 C 
HETATM   10  C8  UNL     1     -35.384  18.019  -3.950  1.00 20.00     0.015 C 
HETATM   11  C9  UNL     1     -33.242  18.313  -2.680  1.00 20.00     0.015 C 
HETATM   12  C10 UNL     1     -34.941  16.643  -1.901  1.00 20.00     0.015 C 
ENDBRANCH   7   9
TORSDOF 1
ENDMDL
MODEL 3
REMARK VINA RESULT:      -4.6     11.234     12.639
REMARK  1 active torsions:
REMARK  status: ('A' for Active; 'I' for Inactive)
REMARK    1  A    between atoms: C7_7  and  C11_11 
ROOT
HETATM    1  C1  UNL     1     -34.016   4.540   4.299  1.00 20.00     0.127 C 
HETATM    2  C2  UNL     1     -33.916   5.267   5.620  1.00 20.00     0.078 C 
HETATM    3  C3  UNL     1     -33.295   5.124   3.104  1.00 20.00     0.079 C 
HETATM    4  C4  UNL     1     -34.351   6.728   5.553  1.00 20.00     0.008 C 
HETATM    5  C5  UNL     1     -34.021   6.359   2.592  1.00 20.00     0.013 C 
HETATM    6  C6  UNL     1     -33.363   7.605   4.784  1.00 20.00     0.006 C 
HETATM    7  C7  UNL     1     -33.605   7.679   3.266  1.00 20.00    -0.007 C 
HETATM    8  O12 UNL     1     -34.634   3.477   4.208  1.00 20.00    -0.298 OA
ENDROOT
BRANCH   7   9
HETATM    9  C11 UNL     1     -32.369   8.274   2.580  1.00 20.00    -0.048 C 
HETATM   10  C8  UNL     1     -32.680   9.705   2.114  1.00 20.00     0.015 C 
HETATM   11  C9  UNL     1     -31.991   7.412   1.367  1.00 20.00     0.015 C 
HETATM   12  C10 UNL     1     -31.196   8.304   3.571  1.00 20.00     0.015 C 
ENDBRANCH   7   9
TORSDOF 1
ENDMDL
MODEL 4
REMARK VINA RESULT:      -4.5      1.573      2.100
REMARK  1 active torsions:
REMARK  status: ('A' for Active; 'I' for Inactive)
REMARK    1  A    between atoms: C7_7  and  C11_11 
ROOT
HETATM    1  C1  UNL     1     -36.729  14.613  -4.785  1.00 20.00     0.127 C 
HETATM    2  C2  UNL     1     -35.432  13.931  -5.155  1.00 20.00     0.078 C 
HETATM    3  C3  UNL     1     -36.678  16.065  -4.363  1.00 20.00     0.079 C 
HETATM    4  C4  UNL     1     -34.366  14.004  -4.066  1.00 20.00     0.008 C 
HETATM    5  C5  UNL     1     -36.096  16.196  -2.964  1.00 20.00     0.013 C 
HETATM    6  C6  UNL     1     -33.791  15.411  -3.894  1.00 20.00     0.006 C 
HETATM    7  C7  UNL     1     -34.561  16.311  -2.911  1.00 20.00    -0.007 C 
HETATM    8  O12 UNL     1     -37.803  14.015  -4.866  1.00 20.00    -0.298 OA
ENDROOT
BRANCH   7   9
HETATM    9  C11 UNL     1     -34.118  17.766  -3.097  1.00 20.00    -0.048 C 
HETATM   10  C8  UNL     1     -35.317  18.701  -2.871  1.00 20.00     0.015 C 
HETATM   11  C9  UNL     1     -33.580  17.961  -4.521  1.00 20.00     0.015 C 
HETATM   12  C10 UNL     1     -33.013  18.101  -2.083  1.00 20.00     0.015 C 
ENDBRANCH   7   9
TORSDOF 1
ENDMDL
MODEL 5
REMARK VINA RESULT:      -4.4      2.981      5.122
REMARK  1 active torsions:
REMARK  status: ('A' for Active; 'I' for Inactive)
REMARK    1  A    between atoms: C7_7  and  C11_11 
ROOT
HETATM    1  C1  UNL     1     -32.926  18.328  -1.215  1.00 20.00     0.127 C 
HETATM    2  C2  UNL     1     -34.108  18.566  -0.304  1.00 20.00     0.078 C 
HETATM    3  C3  UNL     1     -33.197  17.973  -2.661  1.00 20.00     0.079 C 
HETATM    4  C4  UNL     1     -35.095  17.404  -0.261  1.00 20.00     0.008 C 
HETATM    5  C5  UNL     1     -33.699  16.541  -2.774  1.00 20.00     0.013 C 
HETATM    6  C6  UNL     1     -35.890  17.255  -1.558  1.00 20.00     0.006 C 
HETATM    7  C7  UNL     1     -35.223  16.377  -2.632  1.00 20.00    -0.007 C 
HETATM    8  O12 UNL     1     -31.772  18.462  -0.802  1.00 20.00    -0.298 OA
ENDROOT
BRANCH   7   9
HETATM    9  C11 UNL     1     -35.922  16.598  -3.979  1.00 20.00    -0.048 C 
HETATM   10  C8  UNL     1     -34.920  16.364  -5.121  1.00 20.00     0.015 C 
HETATM   11  C9  UNL     1     -36.453  18.036  -4.052  1.00 20.00     0.015 C 
HETATM   12  C10 UNL     1     -37.092  15.613  -4.118  1.00 20.00     0.015 C 
ENDBRANCH   7   9
TORSDOF 1
ENDMDL
MODEL 6
REMARK VINA RESULT:      -4.4      1.325      2.195
REMARK  1 active torsions:
REMARK  status: ('A' for Active; 'I' for Inactive)
REMARK    1  A    between atoms: C7_7  and  C11_11 
ROOT
HETATM    1  C1  UNL     1     -35.767  13.724  -4.985  1.00 20.00     0.127 C 
HETATM    2  C2  UNL     1     -37.159  14.313  -5.032  1.00 20.00     0.078 C 
HETATM    3  C3  UNL     1     -34.764  14.336  -4.031  1.00 20.00     0.079 C 
HETATM    4  C4  UNL     1     -37.183  15.811  -5.318  1.00 20.00     0.008 C 
HETATM    5  C5  UNL     1     -34.284  15.682  -4.552  1.00 20.00     0.013 C 
HETATM    6  C6  UNL     1     -36.670  16.646  -4.145  1.00 20.00     0.006 C 
HETATM    7  C7  UNL     1     -35.149  16.884  -4.133  1.00 20.00    -0.007 C 
HETATM    8  O12 UNL     1     -35.472  12.745  -5.672  1.00 20.00    -0.298 OA
ENDROOT
BRANCH   7   9
HETATM    9  C11 UNL     1     -34.725  17.405  -2.755  1.00 20.00    -0.048 C 
HETATM   10  C8  UNL     1     -33.259  17.026  -2.492  1.00 20.00     0.015 C 
HETATM   11  C9  UNL     1     -35.617  16.781  -1.673  1.00 20.00     0.015 C 
HETATM   12  C10 UNL     1     -34.871  18.934  -2.717  1.00 20.00     0.015 C 
ENDBRANCH   7   9
TORSDOF 1
ENDMDL
MODEL 7
REMARK VINA RESULT:      -4.4      1.938      2.852
REMARK  1 active torsions:
REMARK  status: ('A' for Active; 'I' for Inactive)
REMARK    1  A    between atoms: C7_7  and  C11_11 
ROOT
HETATM    1  C1  UNL     1     -36.475  15.909  -3.878  1.00 20.00     0.127 C 
HETATM    2  C2  UNL     1     -35.268  15.465  -4.673  1.00 20.00     0.078 C 
HETATM    3  C3  UNL     1     -36.330  17.110  -2.969  1.00 20.00     0.079 C 
HETATM    4  C4  UNL     1     -34.037  15.184  -3.816  1.00 20.00     0.008 C 
HETATM    5  C5  UNL     1     -35.524  16.749  -1.731  1.00 20.00     0.013 C 
HETATM    6  C6  UNL     1     -33.417  16.455  -3.236  1.00 20.00     0.006 C 
HETATM    7  C7  UNL     1     -34.000  16.903  -1.884  1.00 20.00    -0.007 C 
HETATM    8  O12 UNL     1     -37.559  15.335  -4.000  1.00 20.00    -0.298 OA
ENDROOT
BRANCH   7   9
HETATM    9  C11 UNL     1     -33.567  18.345  -1.594  1.00 20.00    -0.048 C 
HETATM   10  C8  UNL     1     -32.243  18.336  -0.814  1.00 20.00     0.015 C 
HETATM   11  C9  UNL     1     -34.647  19.048  -0.759  1.00 20.00     0.015 C 
HETATM   12  C10 UNL     1     -33.373  19.099  -2.918  1.00 20.00     0.015 C 
ENDBRANCH   7   9
TORSDOF 1
ENDMDL
MODEL 8
REMARK VINA RESULT:      -4.4      2.485      4.650
REMARK  1 active torsions:
REMARK  status: ('A' for Active; 'I' for Inactive)
REMARK    1  A    between atoms: C7_7  and  C11_11 
ROOT
HETATM    1  C1  UNL     1     -33.506  18.218  -2.781  1.00 20.00     0.127 C 
HETATM    2  C2  UNL     1     -34.794  18.157  -1.992  1.00 20.00     0.078 C 
HETATM    3  C3  UNL     1     -33.453  17.509  -4.117  1.00 20.00     0.079 C 
HETATM    4  C4  UNL     1     -35.283  16.738  -1.721  1.00 20.00     0.008 C 
HETATM    5  C5  UNL     1     -33.376  16.002  -3.919  1.00 20.00     0.013 C 
HETATM    6  C6  UNL     1     -35.805  16.042  -2.978  1.00 20.00     0.006 C 
HETATM    7  C7  UNL     1     -34.738  15.296  -3.799  1.00 20.00    -0.007 C 
HETATM    8  O12 UNL     1     -32.541  18.864  -2.369  1.00 20.00    -0.298 OA
ENDROOT
BRANCH   7   9
HETATM    9  C11 UNL     1     -35.302  14.961  -5.185  1.00 20.00    -0.048 C 
HETATM   10  C8  UNL     1     -34.147  14.824  -6.189  1.00 20.00     0.015 C 
HETATM   11  C9  UNL     1     -36.245  16.083  -5.640  1.00 20.00     0.015 C 
HETATM   12  C10 UNL     1     -36.078  13.637  -5.118  1.00 20.00     0.015 C 
ENDBRANCH   7   9
TORSDOF 1
ENDMDL
MODEL 9
REMARK VINA RESULT:      -4.2      2.351      4.489
REMARK  1 active torsions:
REMARK  status: ('A' for Active; 'I' for Inactive)
REMARK    1  A    between atoms: C7_7  and  C11_11 
ROOT
HETATM    1  C1  UNL     1     -36.025  17.048  -2.876  1.00 20.00     0.127 C 
HETATM    2  C2  UNL     1     -34.763  16.402  -2.353  1.00 20.00     0.078 C 
HETATM    3  C3  UNL     1     -36.742  16.385  -4.032  1.00 20.00     0.079 C 
HETATM    4  C4  UNL     1     -33.698  16.180  -3.422  1.00 20.00     0.008 C 
HETATM    5  C5  UNL     1     -35.977  16.600  -5.329  1.00 20.00     0.013 C 
HETATM    6  C6  UNL     1     -34.073  15.076  -4.411  1.00 20.00     0.006 C 
HETATM    7  C7  UNL     1     -34.897  15.544  -5.625  1.00 20.00    -0.007 C 
HETATM    8  O12 UNL     1     -36.482  18.064  -2.347  1.00 20.00    -0.298 OA
ENDROOT
BRANCH   7   9
HETATM    9  C11 UNL     1     -35.504  14.326  -6.329  1.00 20.00    -0.048 C 
HETATM   10  C8  UNL     1     -36.711  14.769  -7.171  1.00 20.00     0.015 C 
HETATM   11  C9  UNL     1     -35.961  13.302  -5.281  1.00 20.00     0.015 C 
HETATM   12  C10 UNL     1     -34.452  13.684  -7.245  1.00 20.00     0.015 C 
ENDBRANCH   7   9
TORSDOF 1
ENDMDL
