MODEL 1
REMARK VINA RESULT:      -4.3      0.000      0.000
REMARK  1 active torsions:
REMARK  status: ('A' for Active; 'I' for Inactive)
REMARK    1  A    between atoms: C1_1  and  S12_12 
ROOT
HETATM    1  C1  UNL     1     -35.688  15.922  -4.304  1.00 20.00     0.066 C 
HETATM    2  C2  UNL     1     -34.496  15.426  -3.556  1.00 20.00     0.074 C 
HETATM    3  C3  UNL     1     -34.684  18.658  -2.876  1.00 20.00     0.042 A 
HETATM    4  C4  UNL     1     -33.745  16.698  -3.196  1.00 20.00     0.029 A 
HETATM    5  C5  UNL     1     -34.125  17.556  -1.937  1.00 20.00    -0.039 A 
HETATM    6  C6  UNL     1     -34.426  17.759  -4.101  1.00 20.00     0.056 A 
HETATM    7  C7  UNL     1     -32.889  18.012  -1.157  1.00 20.00     0.015 C 
HETATM    8  C8  UNL     1     -35.180  16.983  -0.993  1.00 20.00     0.015 C 
HETATM    9  C9  UNL     1     -33.601  18.351  -5.224  1.00 20.00     0.041 C 
HETATM   10  N11 UNL     1     -35.685  17.179  -4.608  1.00 20.00    -0.276 NA
ENDROOT
BRANCH   1  11
HETATM   11  S12 UNL     1     -36.963  14.831  -4.721  1.00 20.00    -0.119 SA
HETATM   12  C10 UNL     1     -35.984  13.429  -5.305  1.00 20.00     0.097 C 
ENDBRANCH   1  11
TORSDOF 1
ENDMDL
MODEL 2
REMARK VINA RESULT:      -4.2      2.052      3.068
REMARK  1 active torsions:
REMARK  status: ('A' for Active; 'I' for Inactive)
REMARK    1  A    between atoms: C1_1  and  S12_12 
ROOT
HETATM    1  C1  UNL     1     -35.014  14.224  -6.187  1.00 20.00     0.066 C 
HETATM    2  C2  UNL     1     -35.743  14.008  -4.903  1.00 20.00     0.074 C 
HETATM    3  C3  UNL     1     -33.544  16.399  -4.277  1.00 20.00     0.042 A 
HETATM    4  C4  UNL     1     -34.858  14.685  -3.870  1.00 20.00     0.029 A 
HETATM    5  C5  UNL     1     -34.932  16.231  -3.601  1.00 20.00    -0.039 A 
HETATM    6  C6  UNL     1     -33.535  14.903  -4.651  1.00 20.00     0.056 A 
HETATM    7  C7  UNL     1     -34.907  16.557  -2.106  1.00 20.00     0.015 C 
HETATM    8  C8  UNL     1     -36.039  17.011  -4.308  1.00 20.00     0.015 C 
HETATM    9  C9  UNL     1     -32.329  14.096  -4.218  1.00 20.00     0.041 C 
HETATM   10  N11 UNL     1     -33.821  14.713  -6.087  1.00 20.00    -0.276 NA
ENDROOT
BRANCH   1  11
HETATM   11  S12 UNL     1     -35.766  13.817  -7.690  1.00 20.00    -0.119 SA
HETATM   12  C10 UNL     1     -37.100  15.036  -7.700  1.00 20.00     0.097 C 
ENDBRANCH   1  11
TORSDOF 1
ENDMDL
MODEL 3
REMARK VINA RESULT:      -4.1      2.225      3.073
REMARK  1 active torsions:
REMARK  status: ('A' for Active; 'I' for Inactive)
REMARK    1  A    between atoms: C1_1  and  S12_12 
ROOT
HETATM    1  C1  UNL     1     -33.764  17.649  -3.477  1.00 20.00     0.066 C 
HETATM    2  C2  UNL     1     -34.294  16.526  -2.650  1.00 20.00     0.074 C 
HETATM    3  C3  UNL     1     -34.524  19.215  -0.737  1.00 20.00     0.042 A 
HETATM    4  C4  UNL     1     -34.292  17.088  -1.238  1.00 20.00     0.029 A 
HETATM    5  C5  UNL     1     -35.466  17.982  -0.700  1.00 20.00    -0.039 A 
HETATM    6  C6  UNL     1     -33.415  18.361  -1.384  1.00 20.00     0.056 A 
HETATM    7  C7  UNL     1     -35.879  17.594   0.721  1.00 20.00     0.015 C 
HETATM    8  C8  UNL     1     -36.692  18.139  -1.597  1.00 20.00     0.015 C 
HETATM    9  C9  UNL     1     -32.064  18.359  -0.701  1.00 20.00     0.041 C 
HETATM   10  N11 UNL     1     -33.288  18.659  -2.825  1.00 20.00    -0.276 NA
ENDROOT
BRANCH   1  11
HETATM   11  S12 UNL     1     -33.801  17.546  -5.203  1.00 20.00    -0.119 SA
HETATM   12  C10 UNL     1     -33.120  15.887  -5.422  1.00 20.00     0.097 C 
ENDBRANCH   1  11
TORSDOF 1
ENDMDL
MODEL 4
REMARK VINA RESULT:      -4.1      2.166      4.619
REMARK  1 active torsions:
REMARK  status: ('A' for Active; 'I' for Inactive)
REMARK    1  A    between atoms: C1_1  and  S12_12 
ROOT
HETATM    1  C1  UNL     1     -34.843  16.003  -3.458  1.00 20.00     0.066 C 
HETATM    2  C2  UNL     1     -34.191  14.704  -3.799  1.00 20.00     0.074 C 
HETATM    3  C3  UNL     1     -35.860  15.592  -6.514  1.00 20.00     0.042 A 
HETATM    4  C4  UNL     1     -34.932  14.247  -5.045  1.00 20.00     0.029 A 
HETATM    5  C5  UNL     1     -34.546  14.766  -6.476  1.00 20.00    -0.039 A 
HETATM    6  C6  UNL     1     -36.172  15.181  -5.061  1.00 20.00     0.056 A 
HETATM    7  C7  UNL     1     -34.523  13.639  -7.511  1.00 20.00     0.015 C 
HETATM    8  C8  UNL     1     -33.292  15.632  -6.590  1.00 20.00     0.015 C 
HETATM    9  C9  UNL     1     -37.524  14.550  -4.802  1.00 20.00     0.041 C 
HETATM   10  N11 UNL     1     -35.911  16.294  -4.127  1.00 20.00    -0.276 NA
ENDROOT
BRANCH   1  11
HETATM   11  S12 UNL     1     -34.169  17.013  -2.228  1.00 20.00    -0.119 SA
HETATM   12  C10 UNL     1     -35.542  17.015  -1.053  1.00 20.00     0.097 C 
ENDBRANCH   1  11
TORSDOF 1
ENDMDL
MODEL 5
REMARK VINA RESULT:      -4.0      2.277      3.527
REMARK  1 active torsions:
REMARK  status: ('A' for Active; 'I' for Inactive)
REMARK    1  A    between atoms: C1_1  and  S12_12 
ROOT
HETATM    1  C1  UNL     1     -36.467  15.574  -5.969  1.00 20.00     0.066 C 
HETATM    2  C2  UNL     1     -36.142  14.396  -5.112  1.00 20.00     0.074 C 
HETATM    3  C3  UNL     1     -33.225  15.735  -5.914  1.00 20.00     0.042 A 
HETATM    4  C4  UNL     1     -34.662  14.165  -5.367  1.00 20.00     0.029 A 
HETATM    5  C5  UNL     1     -33.553  14.973  -4.602  1.00 20.00    -0.039 A 
HETATM    6  C6  UNL     1     -34.398  15.032  -6.627  1.00 20.00     0.056 A 
HETATM    7  C7  UNL     1     -32.406  14.074  -4.136  1.00 20.00     0.015 C 
HETATM    8  C8  UNL     1     -34.013  15.894  -3.474  1.00 20.00     0.015 C 
HETATM    9  C9  UNL     1     -34.080  14.309  -7.918  1.00 20.00     0.041 C 
HETATM   10  N11 UNL     1     -35.544  15.949  -6.793  1.00 20.00    -0.276 NA
ENDROOT
BRANCH   1  11
HETATM   11  S12 UNL     1     -38.007  16.348  -5.829  1.00 20.00    -0.119 SA
HETATM   12  C10 UNL     1     -38.770  15.282  -4.584  1.00 20.00     0.097 C 
ENDBRANCH   1  11
TORSDOF 1
ENDMDL
MODEL 6
REMARK VINA RESULT:      -3.9      2.311      4.733
REMARK  1 active torsions:
REMARK  status: ('A' for Active; 'I' for Inactive)
REMARK    1  A    between atoms: C1_1  and  S12_12 
ROOT
HETATM    1  C1  UNL     1     -33.611  16.960  -4.314  1.00 20.00     0.066 C 
HETATM    2  C2  UNL     1     -33.547  16.681  -5.778  1.00 20.00     0.074 C 
HETATM    3  C3  UNL     1     -34.952  14.006  -4.432  1.00 20.00     0.042 A 
HETATM    4  C4  UNL     1     -33.775  15.181  -5.868  1.00 20.00     0.029 A 
HETATM    5  C5  UNL     1     -35.218  14.561  -5.857  1.00 20.00    -0.039 A 
HETATM    6  C6  UNL     1     -33.588  14.723  -4.397  1.00 20.00     0.056 A 
HETATM    7  C7  UNL     1     -35.377  13.455  -6.904  1.00 20.00     0.015 C 
HETATM    8  C8  UNL     1     -36.396  15.531  -5.911  1.00 20.00     0.015 C 
HETATM    9  C9  UNL     1     -32.375  13.875  -4.080  1.00 20.00     0.041 C 
HETATM   10  N11 UNL     1     -33.642  15.924  -3.540  1.00 20.00    -0.276 NA
ENDROOT
BRANCH   1  11
HETATM   11  S12 UNL     1     -33.632  18.592  -3.743  1.00 20.00    -0.119 SA
HETATM   12  C10 UNL     1     -33.058  18.328  -2.050  1.00 20.00     0.097 C 
ENDBRANCH   1  11
TORSDOF 1
ENDMDL
MODEL 7
REMARK VINA RESULT:      -3.9      1.587      2.340
REMARK  1 active torsions:
REMARK  status: ('A' for Active; 'I' for Inactive)
REMARK    1  A    between atoms: C1_1  and  S12_12 
ROOT
HETATM    1  C1  UNL     1     -35.833  15.392  -5.636  1.00 20.00     0.066 C 
HETATM    2  C2  UNL     1     -36.299  15.163  -4.237  1.00 20.00     0.074 C 
HETATM    3  C3  UNL     1     -33.525  16.943  -3.961  1.00 20.00     0.042 A 
HETATM    4  C4  UNL     1     -35.081  15.499  -3.393  1.00 20.00     0.029 A 
HETATM    5  C5  UNL     1     -34.735  16.977  -2.990  1.00 20.00    -0.039 A 
HETATM    6  C6  UNL     1     -33.942  15.541  -4.447  1.00 20.00     0.056 A 
HETATM    7  C7  UNL     1     -34.316  17.090  -1.522  1.00 20.00     0.015 C 
HETATM    8  C8  UNL     1     -35.757  18.056  -3.345  1.00 20.00     0.015 C 
HETATM    9  C9  UNL     1     -32.892  14.452  -4.383  1.00 20.00     0.041 C 
HETATM   10  N11 UNL     1     -34.566  15.607  -5.784  1.00 20.00    -0.276 NA
ENDROOT
BRANCH   1  11
HETATM   11  S12 UNL     1     -36.964  15.353  -6.944  1.00 20.00    -0.119 SA
HETATM   12  C10 UNL     1     -36.254  14.007  -7.918  1.00 20.00     0.097 C 
ENDBRANCH   1  11
TORSDOF 1
ENDMDL
MODEL 8
REMARK VINA RESULT:      -3.9      1.965      4.202
REMARK  1 active torsions:
REMARK  status: ('A' for Active; 'I' for Inactive)
REMARK    1  A    between atoms: C1_1  and  S12_12 
ROOT
HETATM    1  C1  UNL     1     -35.125  16.215  -2.945  1.00 20.00     0.066 C 
HETATM    2  C2  UNL     1     -33.775  16.016  -3.551  1.00 20.00     0.074 C 
HETATM    3  C3  UNL     1     -35.891  16.031  -6.094  1.00 20.00     0.042 A 
HETATM    4  C4  UNL     1     -34.083  15.521  -4.955  1.00 20.00     0.029 A 
HETATM    5  C5  UNL     1     -34.415  16.511  -6.128  1.00 20.00    -0.039 A 
HETATM    6  C6  UNL     1     -35.588  15.156  -4.861  1.00 20.00     0.056 A 
HETATM    7  C7  UNL     1     -33.697  16.130  -7.424  1.00 20.00     0.015 C 
HETATM    8  C8  UNL     1     -34.266  18.005  -5.845  1.00 20.00     0.015 C 
HETATM    9  C9  UNL     1     -35.957  13.690  -4.953  1.00 20.00     0.041 C 
HETATM   10  N11 UNL     1     -36.126  15.769  -3.630  1.00 20.00    -0.276 NA
ENDROOT
BRANCH   1  11
HETATM   11  S12 UNL     1     -35.278  16.996  -1.410  1.00 20.00    -0.119 SA
HETATM   12  C10 UNL     1     -33.610  17.673  -1.247  1.00 20.00     0.097 C 
ENDBRANCH   1  11
TORSDOF 1
ENDMDL
MODEL 9
REMARK VINA RESULT:      -3.8      2.073      4.491
REMARK  1 active torsions:
REMARK  status: ('A' for Active; 'I' for Inactive)
REMARK    1  A    between atoms: C1_1  and  S12_12 
ROOT
HETATM    1  C1  UNL     1     -35.590  16.695  -3.491  1.00 20.00     0.066 C 
HETATM    2  C2  UNL     1     -35.823  16.963  -4.940  1.00 20.00     0.074 C 
HETATM    3  C3  UNL     1     -35.249  13.712  -4.724  1.00 20.00     0.042 A 
HETATM    4  C4  UNL     1     -35.289  15.715  -5.625  1.00 20.00     0.029 A 
HETATM    5  C5  UNL     1     -36.156  14.414  -5.770  1.00 20.00    -0.039 A 
HETATM    6  C6  UNL     1     -34.481  15.028  -4.492  1.00 20.00     0.056 A 
HETATM    7  C7  UNL     1     -36.039  13.797  -7.166  1.00 20.00     0.015 C 
HETATM    8  C8  UNL     1     -37.618  14.495  -5.335  1.00 20.00     0.015 C 
HETATM    9  C9  UNL     1     -32.975  14.979  -4.640  1.00 20.00     0.041 C 
HETATM   10  N11 UNL     1     -34.875  15.654  -3.214  1.00 20.00    -0.276 NA
ENDROOT
BRANCH   1  11
HETATM   11  S12 UNL     1     -36.254  17.755  -2.297  1.00 20.00    -0.119 SA
HETATM   12  C10 UNL     1     -35.379  17.151  -0.835  1.00 20.00     0.097 C 
ENDBRANCH   1  11
TORSDOF 1
ENDMDL
