MODEL 1
REMARK VINA RESULT:      -4.8      0.000      0.000
REMARK  1 active torsions:
REMARK  status: ('A' for Active; 'I' for Inactive)
REMARK    1  A    between atoms: C3_3  and  C7_7 
ROOT
HETATM    1  C1  UNL     1     -33.984   5.801   4.154  1.00 20.00    -0.082 C 
HETATM    2  C2  UNL     1     -33.324   5.493   3.014  1.00 20.00    -0.081 C 
HETATM    3  C4  UNL     1     -34.228   7.234   4.579  1.00 20.00     0.035 C 
HETATM    4  C5  UNL     1     -32.740   6.564   2.109  1.00 20.00     0.050 C 
HETATM    5  C6  UNL     1     -33.919   8.277   3.505  1.00 20.00     0.021 C 
HETATM    6  C7  UNL     1     -32.626   7.963   2.744  1.00 20.00     0.013 C 
HETATM    7  C8  UNL     1     -34.528   4.791   5.130  1.00 20.00     0.043 C 
HETATM    8  C9  UNL     1     -33.108   4.096   2.497  1.00 20.00     0.043 C 
HETATM    9  C10 UNL     1     -31.391   8.062   3.655  1.00 20.00     0.023 C 
ENDROOT
BRANCH   6  10
HETATM   10  C3  UNL     1     -32.474   8.991   1.652  1.00 20.00     0.240 C 
HETATM   11  O11 UNL     1     -31.604   8.937   0.789  1.00 20.00    -0.306 OA
ENDBRANCH   6  10
TORSDOF 1
ENDMDL
MODEL 2
REMARK VINA RESULT:      -4.6     10.753     12.146
REMARK  1 active torsions:
REMARK  status: ('A' for Active; 'I' for Inactive)
REMARK    1  A    between atoms: C3_3  and  C7_7 
ROOT
HETATM    1  C1  UNL     1     -33.829  17.576  -3.430  1.00 20.00    -0.082 C 
HETATM    2  C2  UNL     1     -34.631  16.748  -2.723  1.00 20.00    -0.081 C 
HETATM    3  C4  UNL     1     -33.508  17.331  -4.889  1.00 20.00     0.035 C 
HETATM    4  C5  UNL     1     -35.222  15.489  -3.331  1.00 20.00     0.050 C 
HETATM    5  C6  UNL     1     -34.362  16.252  -5.556  1.00 20.00     0.021 C 
HETATM    6  C7  UNL     1     -34.570  15.033  -4.651  1.00 20.00     0.013 C 
HETATM    7  C8  UNL     1     -33.156  18.803  -2.872  1.00 20.00     0.043 C 
HETATM    8  C9  UNL     1     -35.047  16.969  -1.292  1.00 20.00     0.043 C 
HETATM    9  C10 UNL     1     -33.252  14.286  -4.390  1.00 20.00     0.023 C 
ENDROOT
BRANCH   6  10
HETATM   10  C3  UNL     1     -35.502  14.085  -5.362  1.00 20.00     0.240 C 
HETATM   11  O11 UNL     1     -35.570  12.887  -5.108  1.00 20.00    -0.306 OA
ENDBRANCH   6  10
TORSDOF 1
ENDMDL
MODEL 3
REMARK VINA RESULT:      -4.5      0.988      2.404
REMARK  1 active torsions:
REMARK  status: ('A' for Active; 'I' for Inactive)
REMARK    1  A    between atoms: C3_3  and  C7_7 
ROOT
HETATM    1  C1  UNL     1     -34.062   5.871   4.389  1.00 20.00    -0.082 C 
HETATM    2  C2  UNL     1     -33.564   7.000   4.939  1.00 20.00    -0.081 C 
HETATM    3  C4  UNL     1     -33.704   5.437   2.982  1.00 20.00     0.035 C 
HETATM    4  C5  UNL     1     -32.650   7.936   4.167  1.00 20.00     0.050 C 
HETATM    5  C6  UNL     1     -32.547   6.213   2.353  1.00 20.00     0.021 C 
HETATM    6  C7  UNL     1     -32.629   7.715   2.642  1.00 20.00     0.013 C 
HETATM    7  C8  UNL     1     -35.025   4.934   5.071  1.00 20.00     0.043 C 
HETATM    8  C9  UNL     1     -33.822   7.454   6.352  1.00 20.00     0.043 C 
HETATM    9  C10 UNL     1     -33.853   8.359   1.970  1.00 20.00     0.023 C 
ENDROOT
BRANCH   6  10
HETATM   10  C3  UNL     1     -31.396   8.363   2.066  1.00 20.00     0.240 C 
HETATM   11  O11 UNL     1     -31.313   8.747   0.904  1.00 20.00    -0.306 OA
ENDBRANCH   6  10
TORSDOF 1
ENDMDL
MODEL 4
REMARK VINA RESULT:      -4.5     11.195     12.007
REMARK  1 active torsions:
REMARK  status: ('A' for Active; 'I' for Inactive)
REMARK    1  A    between atoms: C3_3  and  C7_7 
ROOT
HETATM    1  C1  UNL     1     -34.434  18.241   0.425  1.00 20.00    -0.082 C 
HETATM    2  C2  UNL     1     -33.201  18.339  -0.122  1.00 20.00    -0.081 C 
HETATM    3  C4  UNL     1     -35.573  17.536  -0.283  1.00 20.00     0.035 C 
HETATM    4  C5  UNL     1     -32.890  17.794  -1.505  1.00 20.00     0.050 C 
HETATM    5  C6  UNL     1     -35.155  16.727  -1.511  1.00 20.00     0.021 C 
HETATM    6  C7  UNL     1     -34.122  17.464  -2.369  1.00 20.00     0.013 C 
HETATM    7  C8  UNL     1     -34.830  18.817   1.760  1.00 20.00     0.043 C 
HETATM    8  C9  UNL     1     -32.009  18.962   0.553  1.00 20.00     0.043 C 
HETATM    9  C10 UNL     1     -34.711  18.734  -3.005  1.00 20.00     0.023 C 
ENDROOT
BRANCH   6  10
HETATM   10  C3  UNL     1     -33.709  16.541  -3.487  1.00 20.00     0.240 C 
HETATM   11  O11 UNL     1     -34.060  15.368  -3.560  1.00 20.00    -0.306 OA
ENDBRANCH   6  10
TORSDOF 1
ENDMDL
MODEL 5
REMARK VINA RESULT:      -4.3     10.976     12.033
REMARK  1 active torsions:
REMARK  status: ('A' for Active; 'I' for Inactive)
REMARK    1  A    between atoms: C3_3  and  C7_7 
ROOT
HETATM    1  C1  UNL     1     -36.299  17.137  -2.776  1.00 20.00    -0.082 C 
HETATM    2  C2  UNL     1     -35.064  16.610  -2.620  1.00 20.00    -0.081 C 
HETATM    3  C4  UNL     1     -37.304  16.556  -3.749  1.00 20.00     0.035 C 
HETATM    4  C5  UNL     1     -34.584  15.429  -3.446  1.00 20.00     0.050 C 
HETATM    5  C6  UNL     1     -36.917  15.194  -4.324  1.00 20.00     0.021 C 
HETATM    6  C7  UNL     1     -35.433  15.119  -4.695  1.00 20.00     0.013 C 
HETATM    7  C8  UNL     1     -36.816  18.347  -2.041  1.00 20.00     0.043 C 
HETATM    8  C9  UNL     1     -34.043  17.092  -1.624  1.00 20.00     0.043 C 
HETATM    9  C10 UNL     1     -35.085  16.068  -5.853  1.00 20.00     0.023 C 
ENDROOT
BRANCH   6  10
HETATM   10  C3  UNL     1     -35.142  13.712  -5.152  1.00 20.00     0.240 C 
HETATM   11  O11 UNL     1     -35.993  12.831  -5.212  1.00 20.00    -0.306 OA
ENDBRANCH   6  10
TORSDOF 1
ENDMDL
MODEL 6
REMARK VINA RESULT:      -4.3     10.914     12.012
REMARK  1 active torsions:
REMARK  status: ('A' for Active; 'I' for Inactive)
REMARK    1  A    between atoms: C3_3  and  C7_7 
ROOT
HETATM    1  C1  UNL     1     -34.498  16.140  -3.227  1.00 20.00    -0.082 C 
HETATM    2  C2  UNL     1     -34.173  15.127  -4.061  1.00 20.00    -0.081 C 
HETATM    3  C4  UNL     1     -35.910  16.677  -3.128  1.00 20.00     0.035 C 
HETATM    4  C5  UNL     1     -35.193  14.493  -4.991  1.00 20.00     0.050 C 
HETATM    5  C6  UNL     1     -36.967  15.821  -3.825  1.00 20.00     0.021 C 
HETATM    6  C7  UNL     1     -36.490  15.302  -5.185  1.00 20.00     0.013 C 
HETATM    7  C8  UNL     1     -33.525  16.859  -2.329  1.00 20.00     0.043 C 
HETATM    8  C9  UNL     1     -32.808  14.498  -4.160  1.00 20.00     0.043 C 
HETATM    9  C10 UNL     1     -36.286  16.446  -6.192  1.00 20.00     0.023 C 
ENDROOT
BRANCH   6  10
HETATM   10  C3  UNL     1     -37.561  14.394  -5.734  1.00 20.00     0.240 C 
HETATM   11  O11 UNL     1     -38.392  13.827  -5.032  1.00 20.00    -0.306 OA
ENDBRANCH   6  10
TORSDOF 1
ENDMDL
MODEL 7
REMARK VINA RESULT:      -4.3     10.661     11.861
REMARK  1 active torsions:
REMARK  status: ('A' for Active; 'I' for Inactive)
REMARK    1  A    between atoms: C3_3  and  C7_7 
ROOT
HETATM    1  C1  UNL     1     -36.054  15.929  -3.833  1.00 20.00    -0.082 C 
HETATM    2  C2  UNL     1     -34.778  15.519  -3.654  1.00 20.00    -0.081 C 
HETATM    3  C4  UNL     1     -36.514  17.318  -3.438  1.00 20.00     0.035 C 
HETATM    4  C5  UNL     1     -33.733  16.406  -3.001  1.00 20.00     0.050 C 
HETATM    5  C6  UNL     1     -35.385  18.286  -3.087  1.00 20.00     0.021 C 
HETATM    6  C7  UNL     1     -34.293  17.624  -2.241  1.00 20.00     0.013 C 
HETATM    7  C8  UNL     1     -37.157  15.080  -4.410  1.00 20.00     0.043 C 
HETATM    8  C9  UNL     1     -34.238  14.182  -4.086  1.00 20.00     0.043 C 
HETATM    9  C10 UNL     1     -34.815  17.220  -0.852  1.00 20.00     0.023 C 
ENDROOT
BRANCH   6  10
HETATM   10  C3  UNL     1     -33.190  18.632  -2.041  1.00 20.00     0.240 C 
HETATM   11  O11 UNL     1     -32.179  18.407  -1.384  1.00 20.00    -0.306 OA
ENDBRANCH   6  10
TORSDOF 1
ENDMDL
MODEL 8
REMARK VINA RESULT:      -4.2     11.236     11.883
REMARK  1 active torsions:
REMARK  status: ('A' for Active; 'I' for Inactive)
REMARK    1  A    between atoms: C3_3  and  C7_7 
ROOT
HETATM    1  C1  UNL     1     -35.677  17.310  -1.933  1.00 20.00    -0.082 C 
HETATM    2  C2  UNL     1     -34.341  17.331  -1.724  1.00 20.00    -0.081 C 
HETATM    3  C4  UNL     1     -36.301  16.506  -3.055  1.00 20.00     0.035 C 
HETATM    4  C5  UNL     1     -33.374  16.590  -2.631  1.00 20.00     0.050 C 
HETATM    5  C6  UNL     1     -35.350  15.527  -3.742  1.00 20.00     0.021 C 
HETATM    6  C7  UNL     1     -33.963  16.134  -3.980  1.00 20.00     0.013 C 
HETATM    7  C8  UNL     1     -36.687  18.073  -1.117  1.00 20.00     0.043 C 
HETATM    8  C9  UNL     1     -33.661  18.050  -0.589  1.00 20.00     0.043 C 
HETATM    9  C10 UNL     1     -34.014  17.295  -4.985  1.00 20.00     0.023 C 
ENDROOT
BRANCH   6  10
HETATM   10  C3  UNL     1     -33.083  15.059  -4.565  1.00 20.00     0.240 C 
HETATM   11  O11 UNL     1     -33.410  13.878  -4.630  1.00 20.00    -0.306 OA
ENDBRANCH   6  10
TORSDOF 1
ENDMDL
MODEL 9
REMARK VINA RESULT:      -4.1     10.928     12.766
REMARK  1 active torsions:
REMARK  status: ('A' for Active; 'I' for Inactive)
REMARK    1  A    between atoms: C3_3  and  C7_7 
ROOT
HETATM    1  C1  UNL     1     -33.956  17.271  -4.247  1.00 20.00    -0.082 C 
HETATM    2  C2  UNL     1     -34.498  17.276  -5.486  1.00 20.00    -0.081 C 
HETATM    3  C4  UNL     1     -34.028  16.058  -3.344  1.00 20.00     0.035 C 
HETATM    4  C5  UNL     1     -35.259  16.082  -6.035  1.00 20.00     0.050 C 
HETATM    5  C6  UNL     1     -34.508  14.780  -4.032  1.00 20.00     0.021 C 
HETATM    6  C7  UNL     1     -35.681  15.038  -4.983  1.00 20.00     0.013 C 
HETATM    7  C8  UNL     1     -33.249  18.442  -3.614  1.00 20.00     0.043 C 
HETATM    8  C9  UNL     1     -34.403  18.420  -6.461  1.00 20.00     0.043 C 
HETATM    9  C10 UNL     1     -36.940  15.489  -4.226  1.00 20.00     0.023 C 
ENDROOT
BRANCH   6  10
HETATM   10  C3  UNL     1     -36.004  13.740  -5.678  1.00 20.00     0.240 C 
HETATM   11  O11 UNL     1     -35.856  12.639  -5.158  1.00 20.00    -0.306 OA
ENDBRANCH   6  10
TORSDOF 1
ENDMDL
