MODEL 1
REMARK VINA RESULT:      -3.9      0.000      0.000
REMARK  1 active torsions:
REMARK  status: ('A' for Active; 'I' for Inactive)
REMARK    1  A    between atoms: C3_3  and  C5_5 
ROOT
HETATM    1  C1  UNL     1     -33.727   4.645   3.422  1.00 20.00     0.179 C 
HETATM    2  C2  UNL     1     -34.583   4.860   5.288  1.00 20.00     0.179 C 
HETATM    3  C3  UNL     1     -34.424   5.836   4.106  1.00 20.00     0.011 C 
HETATM    4  C4  UNL     1     -35.742   6.237   3.454  1.00 20.00     0.020 C 
HETATM    5  O6  UNL     1     -34.150   3.744   4.475  1.00 20.00    -0.389 OA
ENDROOT
BRANCH   3   6
HETATM    6  C5  UNL     1     -33.524   7.031   4.381  1.00 20.00     0.128 C 
HETATM    7 CL7  UNL     1     -33.600   7.477   6.097  1.00 20.00    -0.130 Cl
ENDBRANCH   3   6
TORSDOF 1
ENDMDL
MODEL 2
REMARK VINA RESULT:      -3.8      1.559      2.033
REMARK  1 active torsions:
REMARK  status: ('A' for Active; 'I' for Inactive)
REMARK    1  A    between atoms: C3_3  and  C5_5 
ROOT
HETATM    1  C1  UNL     1     -35.398   5.810   3.870  1.00 20.00     0.179 C 
HETATM    2  C2  UNL     1     -33.705   4.741   4.371  1.00 20.00     0.179 C 
HETATM    3  C3  UNL     1     -33.939   6.242   4.114  1.00 20.00     0.011 C 
HETATM    4  C4  UNL     1     -33.753   7.117   5.347  1.00 20.00     0.020 C 
HETATM    5  O6  UNL     1     -35.129   4.480   4.375  1.00 20.00    -0.389 OA
ENDROOT
BRANCH   3   6
HETATM    6  C5  UNL     1     -33.225   6.798   2.891  1.00 20.00     0.128 C 
HETATM    7 CL7  UNL     1     -31.914   7.887   3.387  1.00 20.00    -0.130 Cl
ENDBRANCH   3   6
TORSDOF 1
ENDMDL
MODEL 3
REMARK VINA RESULT:      -3.8      1.540      2.226
REMARK  1 active torsions:
REMARK  status: ('A' for Active; 'I' for Inactive)
REMARK    1  A    between atoms: C3_3  and  C5_5 
ROOT
HETATM    1  C1  UNL     1     -35.252   6.047   3.375  1.00 20.00     0.179 C 
HETATM    2  C2  UNL     1     -33.200   6.166   3.560  1.00 20.00     0.179 C 
HETATM    3  C3  UNL     1     -34.276   5.479   4.423  1.00 20.00     0.011 C 
HETATM    4  C4  UNL     1     -34.189   3.958   4.425  1.00 20.00     0.020 C 
HETATM    5  O6  UNL     1     -34.158   6.431   2.507  1.00 20.00    -0.389 OA
ENDROOT
BRANCH   3   6
HETATM    6  C5  UNL     1     -34.435   6.055   5.822  1.00 20.00     0.128 C 
HETATM    7 CL7  UNL     1     -33.499   7.554   5.981  1.00 20.00    -0.130 Cl
ENDBRANCH   3   6
TORSDOF 1
ENDMDL
MODEL 4
REMARK VINA RESULT:      -3.8      1.564      1.644
REMARK  1 active torsions:
REMARK  status: ('A' for Active; 'I' for Inactive)
REMARK    1  A    between atoms: C3_3  and  C5_5 
ROOT
HETATM    1  C1  UNL     1     -34.432   4.368   4.590  1.00 20.00     0.179 C 
HETATM    2  C2  UNL     1     -34.151   6.227   5.439  1.00 20.00     0.179 C 
HETATM    3  C3  UNL     1     -34.384   5.783   3.983  1.00 20.00     0.011 C 
HETATM    4  C4  UNL     1     -35.713   6.249   3.399  1.00 20.00     0.020 C 
HETATM    5  O6  UNL     1     -34.465   4.904   5.935  1.00 20.00    -0.389 OA
ENDROOT
BRANCH   3   6
HETATM    6  C5  UNL     1     -33.215   6.035   3.043  1.00 20.00     0.128 C 
HETATM    7 CL7  UNL     1     -32.423   7.571   3.445  1.00 20.00    -0.130 Cl
ENDBRANCH   3   6
TORSDOF 1
ENDMDL
MODEL 5
REMARK VINA RESULT:      -3.7      1.147      1.468
REMARK  1 active torsions:
REMARK  status: ('A' for Active; 'I' for Inactive)
REMARK    1  A    between atoms: C3_3  and  C5_5 
ROOT
HETATM    1  C1  UNL     1     -33.205   6.203   3.333  1.00 20.00     0.179 C 
HETATM    2  C2  UNL     1     -33.916   4.301   3.703  1.00 20.00     0.179 C 
HETATM    3  C3  UNL     1     -34.400   5.691   4.160  1.00 20.00     0.011 C 
HETATM    4  C4  UNL     1     -35.758   6.090   3.594  1.00 20.00     0.020 C 
HETATM    5  O6  UNL     1     -32.990   4.891   2.759  1.00 20.00    -0.389 OA
ENDROOT
BRANCH   3   6
HETATM    6  C5  UNL     1     -34.295   5.943   5.656  1.00 20.00     0.128 C 
HETATM    7 CL7  UNL     1     -33.519   7.509   5.964  1.00 20.00    -0.130 Cl
ENDBRANCH   3   6
TORSDOF 1
ENDMDL
MODEL 6
REMARK VINA RESULT:      -3.7      2.675      3.430
REMARK  1 active torsions:
REMARK  status: ('A' for Active; 'I' for Inactive)
REMARK    1  A    between atoms: C3_3  and  C5_5 
ROOT
HETATM    1  C1  UNL     1     -33.059   8.140   2.044  1.00 20.00     0.179 C 
HETATM    2  C2  UNL     1     -31.734   7.840   3.597  1.00 20.00     0.179 C 
HETATM    3  C3  UNL     1     -33.041   7.125   3.203  1.00 20.00     0.011 C 
HETATM    4  C4  UNL     1     -32.846   5.681   2.755  1.00 20.00     0.020 C 
HETATM    5  O6  UNL     1     -31.709   8.569   2.346  1.00 20.00    -0.389 OA
ENDROOT
BRANCH   3   6
HETATM    6  C5  UNL     1     -34.177   7.277   4.202  1.00 20.00     0.128 C 
HETATM    7 CL7  UNL     1     -33.538   7.347   5.856  1.00 20.00    -0.130 Cl
ENDBRANCH   3   6
TORSDOF 1
ENDMDL
MODEL 7
REMARK VINA RESULT:      -3.6      2.151      2.208
REMARK  1 active torsions:
REMARK  status: ('A' for Active; 'I' for Inactive)
REMARK    1  A    between atoms: C3_3  and  C5_5 
ROOT
HETATM    1  C1  UNL     1     -34.455   4.397   4.709  1.00 20.00     0.179 C 
HETATM    2  C2  UNL     1     -34.222   6.275   5.534  1.00 20.00     0.179 C 
HETATM    3  C3  UNL     1     -34.454   5.806   4.085  1.00 20.00     0.011 C 
HETATM    4  C4  UNL     1     -35.800   6.225   3.506  1.00 20.00     0.020 C 
HETATM    5  O6  UNL     1     -34.494   4.949   6.048  1.00 20.00    -0.389 OA
ENDROOT
BRANCH   3   6
HETATM    6  C5  UNL     1     -33.299   6.081   3.133  1.00 20.00     0.128 C 
HETATM    7 CL7  UNL     1     -32.776   4.578   2.349  1.00 20.00    -0.130 Cl
ENDBRANCH   3   6
TORSDOF 1
ENDMDL
MODEL 8
REMARK VINA RESULT:      -3.6      1.808      2.365
REMARK  1 active torsions:
REMARK  status: ('A' for Active; 'I' for Inactive)
REMARK    1  A    between atoms: C3_3  and  C5_5 
ROOT
HETATM    1  C1  UNL     1     -33.686   6.202   4.984  1.00 20.00     0.179 C 
HETATM    2  C2  UNL     1     -35.231   5.993   3.631  1.00 20.00     0.179 C 
HETATM    3  C3  UNL     1     -33.717   6.202   3.443  1.00 20.00     0.011 C 
HETATM    4  C4  UNL     1     -33.002   5.013   2.812  1.00 20.00     0.020 C 
HETATM    5  O6  UNL     1     -35.062   5.752   5.049  1.00 20.00    -0.389 OA
ENDROOT
BRANCH   3   6
HETATM    6  C5  UNL     1     -33.330   7.524   2.798  1.00 20.00     0.128 C 
HETATM    7 CL7  UNL     1     -31.725   8.035   3.354  1.00 20.00    -0.130 Cl
ENDBRANCH   3   6
TORSDOF 1
ENDMDL
MODEL 9
REMARK VINA RESULT:      -3.5      2.473      3.139
REMARK  1 active torsions:
REMARK  status: ('A' for Active; 'I' for Inactive)
REMARK    1  A    between atoms: C3_3  and  C5_5 
ROOT
HETATM    1  C1  UNL     1     -32.631   6.322   3.248  1.00 20.00     0.179 C 
HETATM    2  C2  UNL     1     -33.958   7.884   3.008  1.00 20.00     0.179 C 
HETATM    3  C3  UNL     1     -33.866   6.760   4.057  1.00 20.00     0.011 C 
HETATM    4  C4  UNL     1     -33.540   7.251   5.463  1.00 20.00     0.020 C 
HETATM    5  O6  UNL     1     -32.655   7.547   2.476  1.00 20.00    -0.389 OA
ENDROOT
BRANCH   3   6
HETATM    6  C5  UNL     1     -35.024   5.773   4.039  1.00 20.00     0.128 C 
HETATM    7 CL7  UNL     1     -34.455   4.149   4.471  1.00 20.00    -0.130 Cl
ENDBRANCH   3   6
TORSDOF 1
ENDMDL
