MODEL 1
REMARK VINA RESULT:      -5.0      0.000      0.000
REMARK  1 active torsions:
REMARK  status: ('A' for Active; 'I' for Inactive)
REMARK    1  A    between atoms: C6_6  and  C10_10 
ROOT
HETATM    1  C1  UNL     1     -34.318   5.811   5.349  1.00 20.00     0.052 C 
HETATM    2  C2  UNL     1     -34.001   5.186   4.205  1.00 20.00    -0.080 C 
HETATM    3  C3  UNL     1     -33.836   7.188   5.618  1.00 20.00     0.149 C 
HETATM    4  C4  UNL     1     -33.206   5.846   3.105  1.00 20.00     0.039 C 
HETATM    5  C5  UNL     1     -32.907   7.836   4.617  1.00 20.00     0.088 C 
HETATM    6  C6  UNL     1     -33.230   7.378   3.197  1.00 20.00     0.000 C 
HETATM    7  C7  UNL     1     -34.421   3.769   3.948  1.00 20.00     0.043 C 
HETATM    8  O11 UNL     1     -34.145   7.747   6.669  1.00 20.00    -0.293 OA
ENDROOT
BRANCH   6   9
HETATM    9  C10 UNL     1     -32.265   7.999   2.189  1.00 20.00    -0.018 C 
HETATM   10  C8  UNL     1     -32.957   9.105   1.395  1.00 20.00     0.010 C 
HETATM   11  C9  UNL     1     -31.025   8.539   2.895  1.00 20.00     0.010 C 
ENDBRANCH   6   9
TORSDOF 1
ENDMDL
MODEL 2
REMARK VINA RESULT:      -4.9     11.376     11.979
REMARK  1 active torsions:
REMARK  status: ('A' for Active; 'I' for Inactive)
REMARK    1  A    between atoms: C6_6  and  C10_10 
ROOT
HETATM    1  C1  UNL     1     -35.497  14.312  -4.638  1.00 20.00     0.052 C 
HETATM    2  C2  UNL     1     -36.482  15.140  -4.258  1.00 20.00    -0.080 C 
HETATM    3  C3  UNL     1     -34.096  14.559  -4.216  1.00 20.00     0.149 C 
HETATM    4  C4  UNL     1     -36.255  16.317  -3.342  1.00 20.00     0.039 C 
HETATM    5  C5  UNL     1     -33.790  15.811  -3.426  1.00 20.00     0.088 C 
HETATM    6  C6  UNL     1     -34.963  16.187  -2.524  1.00 20.00     0.000 C 
HETATM    7  C7  UNL     1     -37.892  14.945  -4.734  1.00 20.00     0.043 C 
HETATM    8  O11 UNL     1     -33.209  13.783  -4.567  1.00 20.00    -0.293 OA
ENDROOT
BRANCH   6   9
HETATM    9  C10 UNL     1     -34.672  17.475  -1.757  1.00 20.00    -0.018 C 
HETATM   10  C8  UNL     1     -35.326  17.438  -0.377  1.00 20.00     0.010 C 
HETATM   11  C9  UNL     1     -33.167  17.697  -1.632  1.00 20.00     0.010 C 
ENDBRANCH   6   9
TORSDOF 1
ENDMDL
MODEL 3
REMARK VINA RESULT:      -4.9      1.109      1.539
REMARK  1 active torsions:
REMARK  status: ('A' for Active; 'I' for Inactive)
REMARK    1  A    between atoms: C6_6  and  C10_10 
ROOT
HETATM    1  C1  UNL     1     -33.733   5.932   4.254  1.00 20.00     0.052 C 
HETATM    2  C2  UNL     1     -33.298   5.690   3.008  1.00 20.00    -0.080 C 
HETATM    3  C3  UNL     1     -33.500   7.250   4.894  1.00 20.00     0.149 C 
HETATM    4  C4  UNL     1     -32.614   6.735   2.162  1.00 20.00     0.039 C 
HETATM    5  C5  UNL     1     -32.683   8.280   4.148  1.00 20.00     0.088 C 
HETATM    6  C6  UNL     1     -32.903   8.164   2.641  1.00 20.00     0.000 C 
HETATM    7  C7  UNL     1     -33.464   4.340   2.373  1.00 20.00     0.043 C 
HETATM    8  O11 UNL     1     -33.915   7.456   6.033  1.00 20.00    -0.293 OA
ENDROOT
BRANCH   6   9
HETATM    9  C10 UNL     1     -32.046   9.176   1.884  1.00 20.00    -0.018 C 
HETATM   10  C8  UNL     1     -31.360   8.513   0.691  1.00 20.00     0.010 C 
HETATM   11  C9  UNL     1     -32.893  10.360   1.426  1.00 20.00     0.010 C 
ENDBRANCH   6   9
TORSDOF 1
ENDMDL
MODEL 4
REMARK VINA RESULT:      -4.9     11.217     12.790
REMARK  1 active torsions:
REMARK  status: ('A' for Active; 'I' for Inactive)
REMARK    1  A    between atoms: C6_6  and  C10_10 
ROOT
HETATM    1  C1  UNL     1     -35.017  14.605  -6.447  1.00 20.00     0.052 C 
HETATM    2  C2  UNL     1     -34.379  15.785  -6.418  1.00 20.00    -0.080 C 
HETATM    3  C3  UNL     1     -35.290  13.862  -5.192  1.00 20.00     0.149 C 
HETATM    4  C4  UNL     1     -33.960  16.458  -5.135  1.00 20.00     0.039 C 
HETATM    5  C5  UNL     1     -34.753  14.417  -3.893  1.00 20.00     0.088 C 
HETATM    6  C6  UNL     1     -34.738  15.944  -3.916  1.00 20.00     0.000 C 
HETATM    7  C7  UNL     1     -34.034  16.516  -7.683  1.00 20.00     0.043 C 
HETATM    8  O11 UNL     1     -35.885  12.787  -5.238  1.00 20.00    -0.293 OA
ENDROOT
BRANCH   6   9
HETATM    9  C10 UNL     1     -34.157  16.506  -2.621  1.00 20.00    -0.018 C 
HETATM   10  C8  UNL     1     -33.366  17.783  -2.897  1.00 20.00     0.010 C 
HETATM   11  C9  UNL     1     -35.265  16.769  -1.605  1.00 20.00     0.010 C 
ENDBRANCH   6   9
TORSDOF 1
ENDMDL
MODEL 5
REMARK VINA RESULT:      -4.8     11.474     12.186
REMARK  1 active torsions:
REMARK  status: ('A' for Active; 'I' for Inactive)
REMARK    1  A    between atoms: C6_6  and  C10_10 
ROOT
HETATM    1  C1  UNL     1     -33.876  18.181  -0.045  1.00 20.00     0.052 C 
HETATM    2  C2  UNL     1     -35.101  17.640  -0.136  1.00 20.00    -0.080 C 
HETATM    3  C3  UNL     1     -32.893  18.015  -1.144  1.00 20.00     0.149 C 
HETATM    4  C4  UNL     1     -35.580  16.898  -1.358  1.00 20.00     0.039 C 
HETATM    5  C5  UNL     1     -33.268  17.149  -2.324  1.00 20.00     0.088 C 
HETATM    6  C6  UNL     1     -34.765  17.240  -2.613  1.00 20.00     0.000 C 
HETATM    7  C7  UNL     1     -36.083  17.739   0.995  1.00 20.00     0.043 C 
HETATM    8  O11 UNL     1     -31.779  18.527  -1.046  1.00 20.00    -0.293 OA
ENDROOT
BRANCH   6   9
HETATM    9  C10 UNL     1     -35.153  16.333  -3.779  1.00 20.00    -0.018 C 
HETATM   10  C8  UNL     1     -34.296  15.068  -3.782  1.00 20.00     0.010 C 
HETATM   11  C9  UNL     1     -36.636  15.977  -3.712  1.00 20.00     0.010 C 
ENDBRANCH   6   9
TORSDOF 1
ENDMDL
MODEL 6
REMARK VINA RESULT:      -4.7     11.559     12.381
REMARK  1 active torsions:
REMARK  status: ('A' for Active; 'I' for Inactive)
REMARK    1  A    between atoms: C6_6  and  C10_10 
ROOT
HETATM    1  C1  UNL     1     -37.260  14.406  -4.932  1.00 20.00     0.052 C 
HETATM    2  C2  UNL     1     -37.408  15.664  -4.491  1.00 20.00    -0.080 C 
HETATM    3  C3  UNL     1     -35.927  13.754  -4.926  1.00 20.00     0.149 C 
HETATM    4  C4  UNL     1     -36.272  16.467  -3.907  1.00 20.00     0.039 C 
HETATM    5  C5  UNL     1     -34.728  14.568  -4.497  1.00 20.00     0.088 C 
HETATM    6  C6  UNL     1     -35.113  15.584  -3.424  1.00 20.00     0.000 C 
HETATM    7  C7  UNL     1     -38.735  16.362  -4.555  1.00 20.00     0.043 C 
HETATM    8  O11 UNL     1     -35.813  12.597  -5.326  1.00 20.00    -0.293 OA
ENDROOT
BRANCH   6   9
HETATM    9  C10 UNL     1     -33.911  16.436  -3.021  1.00 20.00    -0.018 C 
HETATM   10  C8  UNL     1     -33.654  17.528  -4.057  1.00 20.00     0.010 C 
HETATM   11  C9  UNL     1     -34.126  17.047  -1.639  1.00 20.00     0.010 C 
ENDBRANCH   6   9
TORSDOF 1
ENDMDL
MODEL 7
REMARK VINA RESULT:      -4.7     11.435     12.093
REMARK  1 active torsions:
REMARK  status: ('A' for Active; 'I' for Inactive)
REMARK    1  A    between atoms: C6_6  and  C10_10 
ROOT
HETATM    1  C1  UNL     1     -34.229  18.184   0.391  1.00 20.00     0.052 C 
HETATM    2  C2  UNL     1     -33.216  18.119  -0.486  1.00 20.00    -0.080 C 
HETATM    3  C3  UNL     1     -35.596  17.760   0.000  1.00 20.00     0.149 C 
HETATM    4  C4  UNL     1     -33.373  17.560  -1.878  1.00 20.00     0.039 C 
HETATM    5  C5  UNL     1     -35.840  17.338  -1.430  1.00 20.00     0.088 C 
HETATM    6  C6  UNL     1     -34.606  16.657  -2.017  1.00 20.00     0.000 C 
HETATM    7  C7  UNL     1     -31.843  18.609  -0.129  1.00 20.00     0.043 C 
HETATM    8  O11 UNL     1     -36.509  17.818   0.822  1.00 20.00    -0.293 OA
ENDROOT
BRANCH   6   9
HETATM    9  C10 UNL     1     -34.836  16.269  -3.475  1.00 20.00    -0.018 C 
HETATM   10  C8  UNL     1     -33.904  15.129  -3.882  1.00 20.00     0.010 C 
HETATM   11  C9  UNL     1     -36.294  15.878  -3.703  1.00 20.00     0.010 C 
ENDBRANCH   6   9
TORSDOF 1
ENDMDL
MODEL 8
REMARK VINA RESULT:      -4.6      1.975      2.912
REMARK  1 active torsions:
REMARK  status: ('A' for Active; 'I' for Inactive)
REMARK    1  A    between atoms: C6_6  and  C10_10 
ROOT
HETATM    1  C1  UNL     1     -33.676   5.814   4.215  1.00 20.00     0.052 C 
HETATM    2  C2  UNL     1     -33.576   7.045   4.739  1.00 20.00    -0.080 C 
HETATM    3  C3  UNL     1     -33.328   5.566   2.794  1.00 20.00     0.149 C 
HETATM    4  C4  UNL     1     -33.053   8.226   3.960  1.00 20.00     0.039 C 
HETATM    5  C5  UNL     1     -32.947   6.744   1.928  1.00 20.00     0.088 C 
HETATM    6  C6  UNL     1     -32.216   7.808   2.743  1.00 20.00     0.000 C 
HETATM    7  C7  UNL     1     -33.990   7.327   6.154  1.00 20.00     0.043 C 
HETATM    8  O11 UNL     1     -33.417   4.428   2.335  1.00 20.00    -0.293 OA
ENDROOT
BRANCH   6   9
HETATM    9  C10 UNL     1     -31.868   9.017   1.879  1.00 20.00    -0.018 C 
HETATM   10  C8  UNL     1     -31.343   8.570   0.516  1.00 20.00     0.010 C 
HETATM   11  C9  UNL     1     -33.083   9.927   1.714  1.00 20.00     0.010 C 
ENDBRANCH   6   9
TORSDOF 1
ENDMDL
MODEL 9
REMARK VINA RESULT:      -4.5     11.565     12.250
REMARK  1 active torsions:
REMARK  status: ('A' for Active; 'I' for Inactive)
REMARK    1  A    between atoms: C6_6  and  C10_10 
ROOT
HETATM    1  C1  UNL     1     -34.118  18.399   0.881  1.00 20.00     0.052 C 
HETATM    2  C2  UNL     1     -32.969  18.547   0.206  1.00 20.00    -0.080 C 
HETATM    3  C3  UNL     1     -35.314  17.820   0.221  1.00 20.00     0.149 C 
HETATM    4  C4  UNL     1     -32.791  18.085  -1.219  1.00 20.00     0.039 C 
HETATM    5  C5  UNL     1     -35.235  17.485  -1.250  1.00 20.00     0.088 C 
HETATM    6  C6  UNL     1     -33.828  17.032  -1.632  1.00 20.00     0.000 C 
HETATM    7  C7  UNL     1     -31.771  19.195   0.837  1.00 20.00     0.043 C 
HETATM    8  O11 UNL     1     -36.356  17.684   0.860  1.00 20.00    -0.293 OA
ENDROOT
BRANCH   6   9
HETATM    9  C10 UNL     1     -33.736  16.733  -3.127  1.00 20.00    -0.018 C 
HETATM   10  C8  UNL     1     -34.742  15.654  -3.522  1.00 20.00     0.010 C 
HETATM   11  C9  UNL     1     -33.961  18.003  -3.943  1.00 20.00     0.010 C 
ENDBRANCH   6   9
TORSDOF 1
ENDMDL
