MODEL 1
REMARK VINA RESULT:      -3.9      0.000      0.000
REMARK  0 active torsions:
REMARK  status: ('A' for Active; 'I' for Inactive)
ROOT
HETATM    1  C1  UNL     1     -33.076   7.171   3.713  1.00 20.00     0.061 C 
HETATM    2  C2  UNL     1     -34.129   6.122   5.722  1.00 20.00     0.107 C 
HETATM    3  C3  UNL     1     -34.497   5.537   4.362  1.00 20.00     0.114 C 
HETATM    4  C4  UNL     1     -32.131   7.983   2.896  1.00 20.00     0.078 C 
HETATM    5  C5  UNL     1     -34.455   4.015   4.376  1.00 20.00     0.035 C 
HETATM    6  N6  UNL     1     -33.547   6.029   3.336  1.00 20.00    -0.282 NA
HETATM    7  S7  UNL     1     -33.527   7.766   5.290  1.00 20.00    -0.113 SA
ENDROOT
TORSDOF 0
ENDMDL
MODEL 2
REMARK VINA RESULT:      -3.6      1.928      3.338
REMARK  0 active torsions:
REMARK  status: ('A' for Active; 'I' for Inactive)
ROOT
HETATM    1  C1  UNL     1     -33.777   6.900   4.768  1.00 20.00     0.061 C 
HETATM    2  C2  UNL     1     -33.210   6.016   2.500  1.00 20.00     0.107 C 
HETATM    3  C3  UNL     1     -33.053   7.518   2.717  1.00 20.00     0.114 C 
HETATM    4  C4  UNL     1     -34.067   6.911   6.230  1.00 20.00     0.078 C 
HETATM    5  C5  UNL     1     -31.738   8.033   2.149  1.00 20.00     0.035 C 
HETATM    6  N6  UNL     1     -33.092   7.817   4.169  1.00 20.00    -0.282 NA
HETATM    7  S7  UNL     1     -34.342   5.547   3.824  1.00 20.00    -0.113 SA
ENDROOT
TORSDOF 0
ENDMDL
MODEL 3
REMARK VINA RESULT:      -3.6      1.879      2.368
REMARK  0 active torsions:
REMARK  status: ('A' for Active; 'I' for Inactive)
ROOT
HETATM    1  C1  UNL     1     -33.903   6.553   5.159  1.00 20.00     0.061 C 
HETATM    2  C2  UNL     1     -34.184   4.203   4.357  1.00 20.00     0.107 C 
HETATM    3  C3  UNL     1     -34.003   5.281   3.293  1.00 20.00     0.114 C 
HETATM    4  C4  UNL     1     -33.635   7.690   6.085  1.00 20.00     0.078 C 
HETATM    5  C5  UNL     1     -33.006   4.855   2.225  1.00 20.00     0.035 C 
HETATM    6  N6  UNL     1     -33.515   6.529   3.927  1.00 20.00    -0.282 NA
HETATM    7  S7  UNL     1     -34.735   5.154   5.787  1.00 20.00    -0.113 SA
ENDROOT
TORSDOF 0
ENDMDL
MODEL 4
REMARK VINA RESULT:      -3.5      1.166      3.161
REMARK  0 active torsions:
REMARK  status: ('A' for Active; 'I' for Inactive)
ROOT
HETATM    1  C1  UNL     1     -34.063   6.422   3.997  1.00 20.00     0.061 C 
HETATM    2  C2  UNL     1     -32.453   8.276   4.460  1.00 20.00     0.107 C 
HETATM    3  C3  UNL     1     -32.225   7.462   3.189  1.00 20.00     0.114 C 
HETATM    4  C4  UNL     1     -35.298   5.591   4.081  1.00 20.00     0.078 C 
HETATM    5  C5  UNL     1     -31.932   8.358   1.994  1.00 20.00     0.035 C 
HETATM    6  N6  UNL     1     -33.434   6.656   2.893  1.00 20.00    -0.282 NA
HETATM    7  S7  UNL     1     -33.467   7.167   5.457  1.00 20.00    -0.113 SA
ENDROOT
TORSDOF 0
ENDMDL
MODEL 5
REMARK VINA RESULT:      -3.4      1.780      2.277
REMARK  0 active torsions:
REMARK  status: ('A' for Active; 'I' for Inactive)
ROOT
HETATM    1  C1  UNL     1     -32.764   7.381   2.971  1.00 20.00     0.061 C 
HETATM    2  C2  UNL     1     -34.507   5.978   4.083  1.00 20.00     0.107 C 
HETATM    3  C3  UNL     1     -33.442   6.600   4.982  1.00 20.00     0.114 C 
HETATM    4  C4  UNL     1     -32.089   8.201   1.925  1.00 20.00     0.078 C 
HETATM    5  C5  UNL     1     -34.054   7.223   6.229  1.00 20.00     0.035 C 
HETATM    6  N6  UNL     1     -32.715   7.653   4.234  1.00 20.00    -0.282 NA
HETATM    7  S7  UNL     1     -33.719   6.014   2.461  1.00 20.00    -0.113 SA
ENDROOT
TORSDOF 0
ENDMDL
MODEL 6
REMARK VINA RESULT:      -3.1      1.837      2.655
REMARK  0 active torsions:
REMARK  status: ('A' for Active; 'I' for Inactive)
ROOT
HETATM    1  C1  UNL     1     -33.253   5.787   3.008  1.00 20.00     0.061 C 
HETATM    2  C2  UNL     1     -32.637   7.896   4.196  1.00 20.00     0.107 C 
HETATM    3  C3  UNL     1     -33.903   7.184   4.662  1.00 20.00     0.114 C 
HETATM    4  C4  UNL     1     -33.114   4.575   2.151  1.00 20.00     0.078 C 
HETATM    5  C5  UNL     1     -33.973   7.097   6.180  1.00 20.00     0.035 C 
HETATM    6  N6  UNL     1     -33.932   5.810   4.107  1.00 20.00    -0.282 NA
HETATM    7  S7  UNL     1     -32.406   7.235   2.534  1.00 20.00    -0.113 SA
ENDROOT
TORSDOF 0
ENDMDL
MODEL 7
REMARK VINA RESULT:      -3.0     12.168     12.723
REMARK  0 active torsions:
REMARK  status: ('A' for Active; 'I' for Inactive)
ROOT
HETATM    1  C1  UNL     1     -35.257  13.726  -6.013  1.00 20.00     0.061 C 
HETATM    2  C2  UNL     1     -36.063  15.300  -4.247  1.00 20.00     0.107 C 
HETATM    3  C3  UNL     1     -34.669  14.706  -4.062  1.00 20.00     0.114 C 
HETATM    4  C4  UNL     1     -35.177  13.020  -7.323  1.00 20.00     0.078 C 
HETATM    5  C5  UNL     1     -33.657  15.766  -3.651  1.00 20.00     0.035 C 
HETATM    6  N6  UNL     1     -34.220  14.089  -5.333  1.00 20.00    -0.282 NA
HETATM    7  S7  UNL     1     -36.833  14.138  -5.391  1.00 20.00    -0.113 SA
ENDROOT
TORSDOF 0
ENDMDL
MODEL 8
REMARK VINA RESULT:      -2.9     12.390     12.713
REMARK  0 active torsions:
REMARK  status: ('A' for Active; 'I' for Inactive)
ROOT
HETATM    1  C1  UNL     1     -34.019  15.882  -3.786  1.00 20.00     0.061 C 
HETATM    2  C2  UNL     1     -34.503  15.249  -6.154  1.00 20.00     0.107 C 
HETATM    3  C3  UNL     1     -34.711  14.172  -5.093  1.00 20.00     0.114 C 
HETATM    4  C4  UNL     1     -33.765  16.740  -2.594  1.00 20.00     0.078 C 
HETATM    5  C5  UNL     1     -36.027  13.433  -5.294  1.00 20.00     0.035 C 
HETATM    6  N6  UNL     1     -34.717  14.795  -3.748  1.00 20.00    -0.282 NA
HETATM    7  S7  UNL     1     -33.389  16.401  -5.327  1.00 20.00    -0.113 SA
ENDROOT
TORSDOF 0
ENDMDL
MODEL 9
REMARK VINA RESULT:      -2.9     12.033     12.778
REMARK  0 active torsions:
REMARK  status: ('A' for Active; 'I' for Inactive)
ROOT
HETATM    1  C1  UNL     1     -37.018  14.809  -4.757  1.00 20.00     0.061 C 
HETATM    2  C2  UNL     1     -34.652  14.246  -4.184  1.00 20.00     0.107 C 
HETATM    3  C3  UNL     1     -35.078  15.701  -4.012  1.00 20.00     0.114 C 
HETATM    4  C4  UNL     1     -38.466  14.618  -5.056  1.00 20.00     0.078 C 
HETATM    5  C5  UNL     1     -34.595  16.275  -2.688  1.00 20.00     0.035 C 
HETATM    6  N6  UNL     1     -36.557  15.793  -4.058  1.00 20.00    -0.282 NA
HETATM    7  S7  UNL     1     -35.890  13.609  -5.330  1.00 20.00    -0.113 SA
ENDROOT
TORSDOF 0
ENDMDL
