MODEL 1
REMARK VINA RESULT:      -3.6      0.000      0.000
REMARK  0 active torsions:
REMARK  status: ('A' for Active; 'I' for Inactive)
ROOT
HETATM    1  C1  UNL     1     -34.586  15.057  -3.963  1.00 20.00     0.021 A 
HETATM    2  C2  UNL     1     -34.693  16.159  -3.196  1.00 20.00     0.004 A 
HETATM    3  C3  UNL     1     -36.901  15.428  -4.185  1.00 20.00     0.145 A 
HETATM    4  C4  UNL     1     -33.329  14.294  -4.245  1.00 20.00     0.069 C 
HETATM    5  C5  UNL     1     -33.637  16.898  -2.446  1.00 20.00     0.058 C 
HETATM    6  C6  UNL     1     -35.857  13.454  -5.380  1.00 20.00     0.157 C 
HETATM    7  N7  UNL     1     -35.799  14.635  -4.520  1.00 20.00    -0.340 N 
HETATM    8  S8  UNL     1     -38.500  15.268  -4.634  1.00 20.00    -0.052 SA
HETATM    9  S9  UNL     1     -36.338  16.735  -3.130  1.00 20.00    -0.063 SA
ENDROOT
TORSDOF 0
ENDMDL
MODEL 2
REMARK VINA RESULT:      -3.4      1.451      2.577
REMARK  0 active torsions:
REMARK  status: ('A' for Active; 'I' for Inactive)
ROOT
HETATM    1  C1  UNL     1     -34.731  15.845  -3.450  1.00 20.00     0.021 A 
HETATM    2  C2  UNL     1     -34.297  14.766  -4.129  1.00 20.00     0.004 A 
HETATM    3  C3  UNL     1     -36.781  15.155  -4.382  1.00 20.00     0.145 A 
HETATM    4  C4  UNL     1     -33.892  16.763  -2.616  1.00 20.00     0.069 C 
HETATM    5  C5  UNL     1     -32.919  14.203  -4.234  1.00 20.00     0.058 C 
HETATM    6  C6  UNL     1     -36.738  17.212  -2.904  1.00 20.00     0.157 C 
HETATM    7  N7  UNL     1     -36.105  16.079  -3.578  1.00 20.00    -0.340 N 
HETATM    8  S8  UNL     1     -38.398  15.080  -4.784  1.00 20.00    -0.052 SA
HETATM    9  S9  UNL     1     -35.601  13.974  -4.973  1.00 20.00    -0.063 SA
ENDROOT
TORSDOF 0
ENDMDL
MODEL 3
REMARK VINA RESULT:      -3.3      4.526      6.364
REMARK  0 active torsions:
REMARK  status: ('A' for Active; 'I' for Inactive)
ROOT
HETATM    1  C1  UNL     1     -33.709  18.082  -0.340  1.00 20.00     0.021 A 
HETATM    2  C2  UNL     1     -34.938  17.551  -0.484  1.00 20.00     0.004 A 
HETATM    3  C3  UNL     1     -34.548  18.525   1.815  1.00 20.00     0.145 A 
HETATM    4  C4  UNL     1     -32.637  18.128  -1.385  1.00 20.00     0.069 C 
HETATM    5  C5  UNL     1     -35.552  16.885  -1.670  1.00 20.00     0.058 C 
HETATM    6  C6  UNL     1     -32.187  19.245   1.248  1.00 20.00     0.157 C 
HETATM    7  N7  UNL     1     -33.473  18.628   0.926  1.00 20.00    -0.340 N 
HETATM    8  S8  UNL     1     -34.673  19.043   3.396  1.00 20.00    -0.052 SA
HETATM    9  S9  UNL     1     -35.877  17.706   0.978  1.00 20.00    -0.063 SA
ENDROOT
TORSDOF 0
ENDMDL
MODEL 4
REMARK VINA RESULT:      -3.3      1.221      3.035
REMARK  0 active torsions:
REMARK  status: ('A' for Active; 'I' for Inactive)
ROOT
HETATM    1  C1  UNL     1     -34.603  15.018  -4.093  1.00 20.00     0.021 A 
HETATM    2  C2  UNL     1     -35.742  14.556  -4.642  1.00 20.00     0.004 A 
HETATM    3  C3  UNL     1     -36.098  16.614  -3.221  1.00 20.00     0.145 A 
HETATM    4  C4  UNL     1     -33.236  14.430  -4.262  1.00 20.00     0.069 C 
HETATM    5  C5  UNL     1     -35.956  13.378  -5.532  1.00 20.00     0.058 C 
HETATM    6  C6  UNL     1     -33.640  16.789  -2.633  1.00 20.00     0.157 C 
HETATM    7  N7  UNL     1     -34.778  16.159  -3.302  1.00 20.00    -0.340 N 
HETATM    8  S8  UNL     1     -36.721  17.922  -2.394  1.00 20.00    -0.052 SA
HETATM    9  S9  UNL     1     -37.113  15.535  -4.191  1.00 20.00    -0.063 SA
ENDROOT
TORSDOF 0
ENDMDL
MODEL 5
REMARK VINA RESULT:      -3.3      1.247      3.261
REMARK  0 active torsions:
REMARK  status: ('A' for Active; 'I' for Inactive)
ROOT
HETATM    1  C1  UNL     1     -35.900  14.595  -4.610  1.00 20.00     0.021 A 
HETATM    2  C2  UNL     1     -36.976  15.322  -4.253  1.00 20.00     0.004 A 
HETATM    3  C3  UNL     1     -34.820  16.206  -3.274  1.00 20.00     0.145 A 
HETATM    4  C4  UNL     1     -35.903  13.383  -5.490  1.00 20.00     0.069 C 
HETATM    5  C5  UNL     1     -38.410  15.133  -4.614  1.00 20.00     0.058 C 
HETATM    6  C6  UNL     1     -33.432  14.393  -4.369  1.00 20.00     0.157 C 
HETATM    7  N7  UNL     1     -34.695  15.069  -4.079  1.00 20.00    -0.340 N 
HETATM    8  S8  UNL     1     -33.644  17.069  -2.465  1.00 20.00    -0.052 SA
HETATM    9  S9  UNL     1     -36.533  16.654  -3.218  1.00 20.00    -0.063 SA
ENDROOT
TORSDOF 0
ENDMDL
MODEL 6
REMARK VINA RESULT:      -3.2      1.725      2.407
REMARK  0 active torsions:
REMARK  status: ('A' for Active; 'I' for Inactive)
ROOT
HETATM    1  C1  UNL     1     -35.637  14.622  -4.514  1.00 20.00     0.021 A 
HETATM    2  C2  UNL     1     -34.408  14.994  -4.108  1.00 20.00     0.004 A 
HETATM    3  C3  UNL     1     -36.218  16.594  -3.366  1.00 20.00     0.145 A 
HETATM    4  C4  UNL     1     -35.972  13.405  -5.320  1.00 20.00     0.069 C 
HETATM    5  C5  UNL     1     -33.092  14.331  -4.337  1.00 20.00     0.058 C 
HETATM    6  C6  UNL     1     -38.048  15.236  -4.472  1.00 20.00     0.157 C 
HETATM    7  N7  UNL     1     -36.654  15.495  -4.113  1.00 20.00    -0.340 N 
HETATM    8  S8  UNL     1     -37.100  17.847  -2.707  1.00 20.00    -0.052 SA
HETATM    9  S9  UNL     1     -34.459  16.476  -3.190  1.00 20.00    -0.063 SA
ENDROOT
TORSDOF 0
ENDMDL
MODEL 7
REMARK VINA RESULT:      -3.2      1.735      2.400
REMARK  0 active torsions:
REMARK  status: ('A' for Active; 'I' for Inactive)
ROOT
HETATM    1  C1  UNL     1     -34.766  16.306  -3.130  1.00 20.00     0.021 A 
HETATM    2  C2  UNL     1     -36.049  16.707  -3.043  1.00 20.00     0.004 A 
HETATM    3  C3  UNL     1     -35.730  14.760  -4.623  1.00 20.00     0.145 A 
HETATM    4  C4  UNL     1     -33.602  16.900  -2.400  1.00 20.00     0.069 C 
HETATM    5  C5  UNL     1     -36.646  17.807  -2.233  1.00 20.00     0.058 C 
HETATM    6  C6  UNL     1     -33.232  14.671  -4.210  1.00 20.00     0.157 C 
HETATM    7  N7  UNL     1     -34.568  15.228  -4.000  1.00 20.00    -0.340 N 
HETATM    8  S8  UNL     1     -35.921  13.512  -5.713  1.00 20.00    -0.052 SA
HETATM    9  S9  UNL     1     -37.090  15.744  -4.059  1.00 20.00    -0.063 SA
ENDROOT
TORSDOF 0
ENDMDL
MODEL 8
REMARK VINA RESULT:      -3.2      2.932      3.283
REMARK  0 active torsions:
REMARK  status: ('A' for Active; 'I' for Inactive)
ROOT
HETATM    1  C1  UNL     1     -33.861  16.982  -4.970  1.00 20.00     0.021 A 
HETATM    2  C2  UNL     1     -33.992  16.240  -3.854  1.00 20.00     0.004 A 
HETATM    3  C3  UNL     1     -34.299  14.897  -5.972  1.00 20.00     0.145 A 
HETATM    4  C4  UNL     1     -33.565  18.449  -5.028  1.00 20.00     0.069 C 
HETATM    5  C5  UNL     1     -33.887  16.651  -2.424  1.00 20.00     0.058 C 
HETATM    6  C6  UNL     1     -33.916  16.913  -7.457  1.00 20.00     0.157 C 
HETATM    7  N7  UNL     1     -34.026  16.257  -6.155  1.00 20.00    -0.340 N 
HETATM    8  S8  UNL     1     -34.557  13.704  -7.110  1.00 20.00    -0.052 SA
HETATM    9  S9  UNL     1     -34.336  14.572  -4.232  1.00 20.00    -0.063 SA
ENDROOT
TORSDOF 0
ENDMDL
MODEL 9
REMARK VINA RESULT:      -3.1      2.600      3.894
REMARK  0 active torsions:
REMARK  status: ('A' for Active; 'I' for Inactive)
ROOT
HETATM    1  C1  UNL     1     -35.602  14.806  -5.406  1.00 20.00     0.021 A 
HETATM    2  C2  UNL     1     -34.611  14.626  -6.299  1.00 20.00     0.004 A 
HETATM    3  C3  UNL     1     -34.225  16.613  -4.786  1.00 20.00     0.145 A 
HETATM    4  C4  UNL     1     -36.830  13.961  -5.264  1.00 20.00     0.069 C 
HETATM    5  C5  UNL     1     -34.463  13.583  -7.355  1.00 20.00     0.058 C 
HETATM    6  C6  UNL     1     -36.392  16.236  -3.529  1.00 20.00     0.157 C 
HETATM    7  N7  UNL     1     -35.408  15.901  -4.557  1.00 20.00    -0.340 N 
HETATM    8  S8  UNL     1     -33.630  17.961  -4.004  1.00 20.00    -0.052 SA
HETATM    9  S9  UNL     1     -33.366  15.835  -6.125  1.00 20.00    -0.063 SA
ENDROOT
TORSDOF 0
ENDMDL
