MODEL 1
REMARK VINA RESULT:      -5.2      0.000      0.000
REMARK  0 active torsions:
REMARK  status: ('A' for Active; 'I' for Inactive)
ROOT
HETATM    1  C1  UNL     1     -33.198   5.751   3.119  1.00 20.00     0.149 C 
HETATM    2  C2  UNL     1     -32.697   7.146   2.800  1.00 20.00     0.080 C 
HETATM    3  C3  UNL     1     -32.298   7.891   4.065  1.00 20.00     0.007 C 
HETATM    4  C4  UNL     1     -33.417   7.888   5.102  1.00 20.00     0.003 C 
HETATM    5  C5  UNL     1     -33.824   6.456   5.450  1.00 20.00     0.033 C 
HETATM    6  C6  UNL     1     -34.252   5.638   4.224  1.00 20.00     0.093 C 
HETATM    7  C7  UNL     1     -35.614   6.068   3.677  1.00 20.00     0.041 C 
HETATM    8  O8  UNL     1     -32.833   4.793   2.438  1.00 20.00    -0.296 OA
HETATM    9 CL9  UNL     1     -34.369   3.912   4.716  1.00 20.00    -0.111 Cl
ENDROOT
TORSDOF 0
ENDMDL
MODEL 2
REMARK VINA RESULT:      -5.0      1.560      2.194
REMARK  0 active torsions:
REMARK  status: ('A' for Active; 'I' for Inactive)
ROOT
HETATM    1  C1  UNL     1     -33.043   6.975   3.830  1.00 20.00     0.149 C 
HETATM    2  C2  UNL     1     -33.524   7.811   5.001  1.00 20.00     0.080 C 
HETATM    3  C3  UNL     1     -33.839   6.940   6.208  1.00 20.00     0.007 C 
HETATM    4  C4  UNL     1     -34.798   5.808   5.856  1.00 20.00     0.003 C 
HETATM    5  C5  UNL     1     -34.224   4.946   4.730  1.00 20.00     0.033 C 
HETATM    6  C6  UNL     1     -33.890   5.752   3.468  1.00 20.00     0.093 C 
HETATM    7  C7  UNL     1     -35.138   6.202   2.709  1.00 20.00     0.041 C 
HETATM    8  O8  UNL     1     -32.075   7.345   3.165  1.00 20.00    -0.296 OA
HETATM    9 CL9  UNL     1     -32.923   4.702   2.374  1.00 20.00    -0.111 Cl
ENDROOT
TORSDOF 0
ENDMDL
MODEL 3
REMARK VINA RESULT:      -4.7      2.462      3.507
REMARK  0 active torsions:
REMARK  status: ('A' for Active; 'I' for Inactive)
ROOT
HETATM    1  C1  UNL     1     -33.671   6.815   5.045  1.00 20.00     0.149 C 
HETATM    2  C2  UNL     1     -34.716   5.733   5.240  1.00 20.00     0.080 C 
HETATM    3  C3  UNL     1     -34.279   4.423   4.603  1.00 20.00     0.007 C 
HETATM    4  C4  UNL     1     -33.884   4.606   3.142  1.00 20.00     0.003 C 
HETATM    5  C5  UNL     1     -32.769   5.644   3.011  1.00 20.00     0.033 C 
HETATM    6  C6  UNL     1     -33.138   7.003   3.622  1.00 20.00     0.093 C 
HETATM    7  C7  UNL     1     -34.168   7.763   2.786  1.00 20.00     0.041 C 
HETATM    8  O8  UNL     1     -33.365   7.553   5.981  1.00 20.00    -0.296 OA
HETATM    9 CL9  UNL     1     -31.645   8.001   3.708  1.00 20.00    -0.111 Cl
ENDROOT
TORSDOF 0
ENDMDL
MODEL 4
REMARK VINA RESULT:      -4.2      1.850      2.708
REMARK  0 active torsions:
REMARK  status: ('A' for Active; 'I' for Inactive)
ROOT
HETATM    1  C1  UNL     1     -34.738   5.900   4.139  1.00 20.00     0.149 C 
HETATM    2  C2  UNL     1     -34.186   6.191   5.522  1.00 20.00     0.080 C 
HETATM    3  C3  UNL     1     -33.508   7.552   5.570  1.00 20.00     0.007 C 
HETATM    4  C4  UNL     1     -32.461   7.703   4.472  1.00 20.00     0.003 C 
HETATM    5  C5  UNL     1     -33.089   7.485   3.095  1.00 20.00     0.033 C 
HETATM    6  C6  UNL     1     -33.786   6.124   2.961  1.00 20.00     0.093 C 
HETATM    7  C7  UNL     1     -32.796   4.962   2.876  1.00 20.00     0.041 C 
HETATM    8  O8  UNL     1     -35.862   5.413   4.014  1.00 20.00    -0.296 OA
HETATM    9 CL9  UNL     1     -34.758   6.140   1.448  1.00 20.00    -0.111 Cl
ENDROOT
TORSDOF 0
ENDMDL
MODEL 5
REMARK VINA RESULT:      -4.1     12.249     13.123
REMARK  0 active torsions:
REMARK  status: ('A' for Active; 'I' for Inactive)
ROOT
HETATM    1  C1  UNL     1     -35.334  13.824  -5.219  1.00 20.00     0.149 C 
HETATM    2  C2  UNL     1     -34.394  14.148  -4.073  1.00 20.00     0.080 C 
HETATM    3  C3  UNL     1     -34.585  15.578  -3.591  1.00 20.00     0.007 C 
HETATM    4  C4  UNL     1     -34.489  16.580  -4.735  1.00 20.00     0.003 C 
HETATM    5  C5  UNL     1     -35.516  16.258  -5.822  1.00 20.00     0.033 C 
HETATM    6  C6  UNL     1     -35.381  14.831  -6.371  1.00 20.00     0.093 C 
HETATM    7  C7  UNL     1     -34.146  14.655  -7.254  1.00 20.00     0.041 C 
HETATM    8  O8  UNL     1     -35.936  12.750  -5.238  1.00 20.00    -0.296 OA
HETATM    9 CL9  UNL     1     -36.835  14.477  -7.368  1.00 20.00    -0.111 Cl
ENDROOT
TORSDOF 0
ENDMDL
MODEL 6
REMARK VINA RESULT:      -3.9     11.894     12.413
REMARK  0 active torsions:
REMARK  status: ('A' for Active; 'I' for Inactive)
ROOT
HETATM    1  C1  UNL     1     -34.176  14.813  -4.150  1.00 20.00     0.149 C 
HETATM    2  C2  UNL     1     -33.731  16.012  -3.334  1.00 20.00     0.080 C 
HETATM    3  C3  UNL     1     -34.838  16.488  -2.405  1.00 20.00     0.007 C 
HETATM    4  C4  UNL     1     -36.142  16.734  -3.156  1.00 20.00     0.003 C 
HETATM    5  C5  UNL     1     -36.589  15.469  -3.889  1.00 20.00     0.033 C 
HETATM    6  C6  UNL     1     -35.527  14.931  -4.859  1.00 20.00     0.093 C 
HETATM    7  C7  UNL     1     -35.376  15.800  -6.107  1.00 20.00     0.041 C 
HETATM    8  O8  UNL     1     -33.420  13.853  -4.297  1.00 20.00    -0.296 OA
HETATM    9 CL9  UNL     1     -36.033  13.287  -5.383  1.00 20.00    -0.111 Cl
ENDROOT
TORSDOF 0
ENDMDL
MODEL 7
REMARK VINA RESULT:      -3.9     11.997     12.677
REMARK  0 active torsions:
REMARK  status: ('A' for Active; 'I' for Inactive)
ROOT
HETATM    1  C1  UNL     1     -35.696  13.945  -4.975  1.00 20.00     0.149 C 
HETATM    2  C2  UNL     1     -34.286  14.378  -4.617  1.00 20.00     0.080 C 
HETATM    3  C3  UNL     1     -34.291  15.376  -3.469  1.00 20.00     0.007 C 
HETATM    4  C4  UNL     1     -35.218  16.554  -3.746  1.00 20.00     0.003 C 
HETATM    5  C5  UNL     1     -36.643  16.067  -4.014  1.00 20.00     0.033 C 
HETATM    6  C6  UNL     1     -36.725  15.061  -5.171  1.00 20.00     0.093 C 
HETATM    7  C7  UNL     1     -36.516  15.716  -6.536  1.00 20.00     0.041 C 
HETATM    8  O8  UNL     1     -35.941  12.758  -5.189  1.00 20.00    -0.296 OA
HETATM    9 CL9  UNL     1     -38.365  14.323  -5.153  1.00 20.00    -0.111 Cl
ENDROOT
TORSDOF 0
ENDMDL
MODEL 8
REMARK VINA RESULT:      -3.8      1.964      2.792
REMARK  0 active torsions:
REMARK  status: ('A' for Active; 'I' for Inactive)
ROOT
HETATM    1  C1  UNL     1     -32.994   7.295   4.292  1.00 20.00     0.149 C 
HETATM    2  C2  UNL     1     -31.731   8.046   3.918  1.00 20.00     0.080 C 
HETATM    3  C3  UNL     1     -31.920   8.837   2.632  1.00 20.00     0.007 C 
HETATM    4  C4  UNL     1     -32.444   7.961   1.500  1.00 20.00     0.003 C 
HETATM    5  C5  UNL     1     -33.763   7.296   1.898  1.00 20.00     0.033 C 
HETATM    6  C6  UNL     1     -33.652   6.467   3.185  1.00 20.00     0.093 C 
HETATM    7  C7  UNL     1     -32.868   5.170   2.984  1.00 20.00     0.041 C 
HETATM    8  O8  UNL     1     -33.386   7.291   5.459  1.00 20.00    -0.296 OA
HETATM    9 CL9  UNL     1     -35.314   6.036   3.717  1.00 20.00    -0.111 Cl
ENDROOT
TORSDOF 0
ENDMDL
MODEL 9
REMARK VINA RESULT:      -3.7     12.380     13.264
REMARK  0 active torsions:
REMARK  status: ('A' for Active; 'I' for Inactive)
ROOT
HETATM    1  C1  UNL     1     -35.903  13.927  -5.359  1.00 20.00     0.149 C 
HETATM    2  C2  UNL     1     -37.167  14.331  -6.094  1.00 20.00     0.080 C 
HETATM    3  C3  UNL     1     -36.872  15.360  -7.174  1.00 20.00     0.007 C 
HETATM    4  C4  UNL     1     -36.101  16.555  -6.625  1.00 20.00     0.003 C 
HETATM    5  C5  UNL     1     -34.795  16.100  -5.972  1.00 20.00     0.033 C 
HETATM    6  C6  UNL     1     -35.009  15.065  -4.859  1.00 20.00     0.093 C 
HETATM    7  C7  UNL     1     -35.619  15.676  -3.597  1.00 20.00     0.041 C 
HETATM    8  O8  UNL     1     -35.688  12.742  -5.106  1.00 20.00    -0.296 OA
HETATM    9 CL9  UNL     1     -33.407  14.373  -4.424  1.00 20.00    -0.111 Cl
ENDROOT
TORSDOF 0
ENDMDL
