MODEL 1
REMARK VINA RESULT:      -5.1      0.000      0.000
REMARK  3 active torsions:
REMARK  status: ('A' for Active; 'I' for Inactive)
REMARK    1  A    between atoms: C3_3  and  C8_8 
REMARK    2  A    between atoms: C6_6  and  C7_7 
REMARK    3  A    between atoms: C7_7  and  C8_8 
ROOT
HETATM    1  C1  UNL     1     -31.714   9.044   2.849  1.00 20.00     0.197 C 
HETATM    2  C2  UNL     1     -32.075   8.226   1.641  1.00 20.00     0.197 C 
HETATM    3  C3  UNL     1     -32.743   7.134   3.499  1.00 20.00     0.263 C 
HETATM    4  O9  UNL     1     -31.774   8.103   3.921  1.00 20.00    -0.359 OA
HETATM    5  O10 UNL     1     -33.101   7.364   2.130  1.00 20.00    -0.359 OA
ENDROOT
BRANCH   3   6
HETATM    6  C8  UNL     1     -33.983   7.231   4.367  1.00 20.00     0.037 C 
HETATM    7  C5  UNL     1     -33.577   7.288   5.840  1.00 20.00     0.015 C 
BRANCH   6   8
HETATM    8  C7  UNL     1     -34.928   6.053   4.061  1.00 20.00     0.009 C 
BRANCH   8   9
HETATM    9  C6  UNL     1     -34.729   4.855   4.992  1.00 20.00    -0.004 C 
HETATM   10  C4  UNL     1     -33.974   3.732   4.296  1.00 20.00     0.005 C 
ENDBRANCH   8   9
ENDBRANCH   6   8
ENDBRANCH   3   6
TORSDOF 3
ENDMDL
MODEL 2
REMARK VINA RESULT:      -5.1      1.803      4.249
REMARK  3 active torsions:
REMARK  status: ('A' for Active; 'I' for Inactive)
REMARK    1  A    between atoms: C3_3  and  C8_8 
REMARK    2  A    between atoms: C6_6  and  C7_7 
REMARK    3  A    between atoms: C7_7  and  C8_8 
ROOT
HETATM    1  C1  UNL     1     -33.985   6.492   5.919  1.00 20.00     0.197 C 
HETATM    2  C2  UNL     1     -34.712   5.189   5.737  1.00 20.00     0.197 C 
HETATM    3  C3  UNL     1     -34.601   6.256   3.752  1.00 20.00     0.263 C 
HETATM    4  O9  UNL     1     -34.351   7.243   4.761  1.00 20.00    -0.359 OA
HETATM    5  O10 UNL     1     -34.594   4.947   4.336  1.00 20.00    -0.359 OA
ENDROOT
BRANCH   3   6
HETATM    6  C8  UNL     1     -33.535   6.333   2.677  1.00 20.00     0.037 C 
HETATM    7  C5  UNL     1     -32.862   4.969   2.519  1.00 20.00     0.015 C 
BRANCH   6   8
HETATM    8  C7  UNL     1     -32.529   7.450   3.019  1.00 20.00     0.009 C 
BRANCH   8   9
HETATM    9  C6  UNL     1     -31.896   8.098   1.785  1.00 20.00    -0.004 C 
HETATM   10  C4  UNL     1     -32.516   9.456   1.493  1.00 20.00     0.005 C 
ENDBRANCH   8   9
ENDBRANCH   6   8
ENDBRANCH   3   6
TORSDOF 3
ENDMDL
MODEL 3
REMARK VINA RESULT:      -5.0      1.535      4.253
REMARK  3 active torsions:
REMARK  status: ('A' for Active; 'I' for Inactive)
REMARK    1  A    between atoms: C3_3  and  C8_8 
REMARK    2  A    between atoms: C6_6  and  C7_7 
REMARK    3  A    between atoms: C7_7  and  C8_8 
ROOT
HETATM    1  C1  UNL     1     -34.217   5.903   5.586  1.00 20.00     0.197 C 
HETATM    2  C2  UNL     1     -35.078   5.413   4.455  1.00 20.00     0.197 C 
HETATM    3  C3  UNL     1     -33.899   7.207   3.760  1.00 20.00     0.263 C 
HETATM    4  O9  UNL     1     -33.877   7.233   5.194  1.00 20.00    -0.359 OA
HETATM    5  O10 UNL     1     -34.441   5.962   3.303  1.00 20.00    -0.359 OA
ENDROOT
BRANCH   3   6
HETATM    6  C8  UNL     1     -32.493   7.374   3.219  1.00 20.00     0.037 C 
HETATM    7  C5  UNL     1     -31.705   8.329   4.116  1.00 20.00     0.015 C 
BRANCH   6   8
HETATM    8  C7  UNL     1     -32.551   7.853   1.755  1.00 20.00     0.009 C 
BRANCH   8   9
HETATM    9  C6  UNL     1     -32.108   9.307   1.573  1.00 20.00    -0.004 C 
HETATM   10  C4  UNL     1     -32.805   9.954   0.385  1.00 20.00     0.005 C 
ENDBRANCH   8   9
ENDBRANCH   6   8
ENDBRANCH   3   6
TORSDOF 3
ENDMDL
MODEL 4
REMARK VINA RESULT:      -4.5      1.551      1.971
REMARK  3 active torsions:
REMARK  status: ('A' for Active; 'I' for Inactive)
REMARK    1  A    between atoms: C3_3  and  C8_8 
REMARK    2  A    between atoms: C6_6  and  C7_7 
REMARK    3  A    between atoms: C7_7  and  C8_8 
ROOT
HETATM    1  C1  UNL     1     -32.620  10.384   1.106  1.00 20.00     0.197 C 
HETATM    2  C2  UNL     1     -32.932   9.449  -0.029  1.00 20.00     0.197 C 
HETATM    3  C3  UNL     1     -32.340   8.239   1.780  1.00 20.00     0.263 C 
HETATM    4  O9  UNL     1     -31.866   9.573   2.008  1.00 20.00    -0.359 OA
HETATM    5  O10 UNL     1     -33.197   8.214   0.632  1.00 20.00    -0.359 OA
ENDROOT
BRANCH   3   6
HETATM    6  C8  UNL     1     -33.106   7.748   2.993  1.00 20.00     0.037 C 
HETATM    7  C5  UNL     1     -32.286   8.002   4.258  1.00 20.00     0.015 C 
BRANCH   6   8
HETATM    8  C7  UNL     1     -33.470   6.261   2.814  1.00 20.00     0.009 C 
BRANCH   8   9
HETATM    9  C6  UNL     1     -34.698   5.833   3.621  1.00 20.00    -0.004 C 
HETATM   10  C4  UNL     1     -34.434   4.548   4.391  1.00 20.00     0.005 C 
ENDBRANCH   8   9
ENDBRANCH   6   8
ENDBRANCH   3   6
TORSDOF 3
ENDMDL
MODEL 5
REMARK VINA RESULT:      -4.2      1.676      4.535
REMARK  3 active torsions:
REMARK  status: ('A' for Active; 'I' for Inactive)
REMARK    1  A    between atoms: C3_3  and  C8_8 
REMARK    2  A    between atoms: C6_6  and  C7_7 
REMARK    3  A    between atoms: C7_7  and  C8_8 
ROOT
HETATM    1  C1  UNL     1     -34.825   5.328   4.799  1.00 20.00     0.197 C 
HETATM    2  C2  UNL     1     -34.444   6.266   5.911  1.00 20.00     0.197 C 
HETATM    3  C3  UNL     1     -33.127   6.668   4.123  1.00 20.00     0.263 C 
HETATM    4  O9  UNL     1     -33.693   5.364   3.930  1.00 20.00    -0.359 OA
HETATM    5  O10 UNL     1     -33.769   7.320   5.227  1.00 20.00    -0.359 OA
ENDROOT
BRANCH   3   6
HETATM    6  C8  UNL     1     -33.310   7.501   2.870  1.00 20.00     0.037 C 
HETATM    7  C5  UNL     1     -33.714   6.597   1.704  1.00 20.00     0.015 C 
BRANCH   6   8
HETATM    8  C7  UNL     1     -32.023   8.297   2.580  1.00 20.00     0.009 C 
BRANCH   8   9
HETATM    9  C6  UNL     1     -31.973   8.880   1.165  1.00 20.00    -0.004 C 
HETATM   10  C4  UNL     1     -32.654  10.239   1.103  1.00 20.00     0.005 C 
ENDBRANCH   8   9
ENDBRANCH   6   8
ENDBRANCH   3   6
TORSDOF 3
ENDMDL
MODEL 6
REMARK VINA RESULT:      -4.0      1.488      2.334
REMARK  3 active torsions:
REMARK  status: ('A' for Active; 'I' for Inactive)
REMARK    1  A    between atoms: C3_3  and  C8_8 
REMARK    2  A    between atoms: C6_6  and  C7_7 
REMARK    3  A    between atoms: C7_7  and  C8_8 
ROOT
HETATM    1  C1  UNL     1     -32.998   9.671   1.175  1.00 20.00     0.197 C 
HETATM    2  C2  UNL     1     -31.781   9.107   0.496  1.00 20.00     0.197 C 
HETATM    3  C3  UNL     1     -31.828   8.395   2.635  1.00 20.00     0.263 C 
HETATM    4  O9  UNL     1     -32.700   9.531   2.564  1.00 20.00    -0.359 OA
HETATM    5  O10 UNL     1     -31.442   7.991   1.316  1.00 20.00    -0.359 OA
ENDROOT
BRANCH   3   6
HETATM    6  C8  UNL     1     -32.534   7.245   3.328  1.00 20.00     0.037 C 
HETATM    7  C5  UNL     1     -33.023   6.238   2.286  1.00 20.00     0.015 C 
BRANCH   6   8
HETATM    8  C7  UNL     1     -33.678   7.787   4.206  1.00 20.00     0.009 C 
BRANCH   8   9
HETATM    9  C6  UNL     1     -33.679   7.215   5.626  1.00 20.00    -0.004 C 
HETATM   10  C4  UNL     1     -34.440   5.899   5.692  1.00 20.00     0.005 C 
ENDBRANCH   8   9
ENDBRANCH   6   8
ENDBRANCH   3   6
TORSDOF 3
ENDMDL
MODEL 7
REMARK VINA RESULT:      -4.0      1.094      2.249
REMARK  3 active torsions:
REMARK  status: ('A' for Active; 'I' for Inactive)
REMARK    1  A    between atoms: C3_3  and  C8_8 
REMARK    2  A    between atoms: C6_6  and  C7_7 
REMARK    3  A    between atoms: C7_7  and  C8_8 
ROOT
HETATM    1  C1  UNL     1     -31.669   8.105   1.847  1.00 20.00     0.197 C 
HETATM    2  C2  UNL     1     -31.531   8.733   3.206  1.00 20.00     0.197 C 
HETATM    3  C3  UNL     1     -33.282   7.311   3.226  1.00 20.00     0.263 C 
HETATM    4  O9  UNL     1     -33.004   7.597   1.849  1.00 20.00    -0.359 OA
HETATM    5  O10 UNL     1     -32.232   7.826   4.054  1.00 20.00    -0.359 OA
ENDROOT
BRANCH   3   6
HETATM    6  C8  UNL     1     -33.395   5.812   3.430  1.00 20.00     0.037 C 
HETATM    7  C5  UNL     1     -33.125   5.091   2.109  1.00 20.00     0.015 C 
BRANCH   6   8
HETATM    8  C7  UNL     1     -34.778   5.469   4.017  1.00 20.00     0.009 C 
BRANCH   8   9
HETATM    9  C6  UNL     1     -34.754   5.221   5.528  1.00 20.00    -0.004 C 
HETATM   10  C4  UNL     1     -34.331   6.470   6.287  1.00 20.00     0.005 C 
ENDBRANCH   8   9
ENDBRANCH   6   8
ENDBRANCH   3   6
TORSDOF 3
ENDMDL
MODEL 8
REMARK VINA RESULT:      -3.9     11.518     12.355
REMARK  3 active torsions:
REMARK  status: ('A' for Active; 'I' for Inactive)
REMARK    1  A    between atoms: C3_3  and  C8_8 
REMARK    2  A    between atoms: C6_6  and  C7_7 
REMARK    3  A    between atoms: C7_7  and  C8_8 
ROOT
HETATM    1  C1  UNL     1     -33.890  15.345  -7.042  1.00 20.00     0.197 C 
HETATM    2  C2  UNL     1     -34.277  13.892  -7.073  1.00 20.00     0.197 C 
HETATM    3  C3  UNL     1     -33.654  14.444  -4.977  1.00 20.00     0.263 C 
HETATM    4  O9  UNL     1     -33.128  15.461  -5.840  1.00 20.00    -0.359 OA
HETATM    5  O10 UNL     1     -34.556  13.602  -5.705  1.00 20.00    -0.359 OA
ENDROOT
BRANCH   3   6
HETATM    6  C8  UNL     1     -34.387  15.082  -3.813  1.00 20.00     0.037 C 
HETATM    7  C5  UNL     1     -35.861  15.273  -4.176  1.00 20.00     0.015 C 
BRANCH   6   8
HETATM    8  C7  UNL     1     -33.699  16.405  -3.425  1.00 20.00     0.009 C 
BRANCH   8   9
HETATM    9  C6  UNL     1     -34.086  16.907  -2.032  1.00 20.00    -0.004 C 
HETATM   10  C4  UNL     1     -33.038  17.859  -1.475  1.00 20.00     0.005 C 
ENDBRANCH   8   9
ENDBRANCH   6   8
ENDBRANCH   3   6
TORSDOF 3
ENDMDL
MODEL 9
REMARK VINA RESULT:      -3.8     11.409     12.327
REMARK  3 active torsions:
REMARK  status: ('A' for Active; 'I' for Inactive)
REMARK    1  A    between atoms: C3_3  and  C8_8 
REMARK    2  A    between atoms: C6_6  and  C7_7 
REMARK    3  A    between atoms: C7_7  and  C8_8 
ROOT
HETATM    1  C1  UNL     1     -34.762  13.609  -7.505  1.00 20.00     0.197 C 
HETATM    2  C2  UNL     1     -36.178  14.090  -7.354  1.00 20.00     0.197 C 
HETATM    3  C3  UNL     1     -35.176  14.104  -5.333  1.00 20.00     0.263 C 
HETATM    4  O9  UNL     1     -34.388  13.251  -6.174  1.00 20.00    -0.359 OA
HETATM    5  O10 UNL     1     -36.147  14.804  -6.120  1.00 20.00    -0.359 OA
ENDROOT
BRANCH   3   6
HETATM    6  C8  UNL     1     -34.281  15.105  -4.629  1.00 20.00     0.037 C 
HETATM    7  C5  UNL     1     -32.943  14.449  -4.286  1.00 20.00     0.015 C 
BRANCH   6   8
HETATM    8  C7  UNL     1     -35.000  15.663  -3.385  1.00 20.00     0.009 C 
BRANCH   8   9
HETATM    9  C6  UNL     1     -34.130  16.606  -2.551  1.00 20.00    -0.004 C 
HETATM   10  C4  UNL     1     -34.850  17.051  -1.286  1.00 20.00     0.005 C 
ENDBRANCH   8   9
ENDBRANCH   6   8
ENDBRANCH   3   6
TORSDOF 3
ENDMDL
