MODEL 1
REMARK VINA RESULT:      -6.3      0.000      0.000
REMARK  1 active torsions:
REMARK  status: ('A' for Active; 'I' for Inactive)
REMARK    1  A    between atoms: C1_1  and  C7_7 
ROOT
HETATM    1  C2  UNL     1     -34.013   5.873   6.079  1.00 20.00     0.001 C 
HETATM    2  C3  UNL     1     -32.832   5.806   2.267  1.00 20.00     0.016 C 
HETATM    3  C4  UNL     1     -35.048   5.220   5.174  1.00 20.00     0.005 C 
HETATM    4  C5  UNL     1     -33.869   7.271   5.494  1.00 20.00     0.006 C 
HETATM    5  C6  UNL     1     -33.719   4.830   3.019  1.00 20.00     0.006 C 
HETATM    6  C7  UNL     1     -32.607   6.916   3.286  1.00 20.00     0.091 C 
HETATM    7  C8  UNL     1     -34.700   5.728   3.777  1.00 20.00    -0.010 C 
HETATM    8  C9  UNL     1     -33.969   7.073   3.979  1.00 20.00     0.004 C 
ENDROOT
BRANCH   6   9
HETATM    9  C1  UNL     1     -32.184   8.178   2.605  1.00 20.00     0.177 C 
HETATM   10  O10 UNL     1     -32.739   8.404   1.494  1.00 20.00    -0.648 OA
HETATM   11  O11 UNL     1     -31.322   8.855   3.233  1.00 20.00    -0.648 OA
ENDBRANCH   6   9
TORSDOF 1
ENDMDL
MODEL 2
REMARK VINA RESULT:      -5.1      0.893      2.178
REMARK  1 active torsions:
REMARK  status: ('A' for Active; 'I' for Inactive)
REMARK    1  A    between atoms: C1_1  and  C7_7 
ROOT
HETATM    1  C2  UNL     1     -35.486   5.568   3.849  1.00 20.00     0.001 C 
HETATM    2  C3  UNL     1     -32.800   8.235   5.113  1.00 20.00     0.016 C 
HETATM    3  C4  UNL     1     -34.848   5.152   5.167  1.00 20.00     0.005 C 
HETATM    4  C5  UNL     1     -34.298   5.683   2.905  1.00 20.00     0.006 C 
HETATM    5  C6  UNL     1     -33.695   7.312   5.920  1.00 20.00     0.006 C 
HETATM    6  C7  UNL     1     -33.066   7.799   3.678  1.00 20.00     0.091 C 
HETATM    7  C8  UNL     1     -33.551   5.955   5.227  1.00 20.00    -0.010 C 
HETATM    8  C9  UNL     1     -33.173   6.270   3.762  1.00 20.00     0.004 C 
ENDROOT
BRANCH   6   9
HETATM    9  C1  UNL     1     -31.949   8.228   2.781  1.00 20.00     0.177 C 
HETATM   10  O10 UNL     1     -32.288   8.533   1.604  1.00 20.00    -0.648 OA
HETATM   11  O11 UNL     1     -30.807   8.228   3.321  1.00 20.00    -0.648 OA
ENDBRANCH   6   9
TORSDOF 1
ENDMDL
MODEL 3
REMARK VINA RESULT:      -5.0     11.541     12.301
REMARK  1 active torsions:
REMARK  status: ('A' for Active; 'I' for Inactive)
REMARK    1  A    between atoms: C1_1  and  C7_7 
ROOT
HETATM    1  C2  UNL     1     -35.092  17.568  -3.250  1.00 20.00     0.001 C 
HETATM    2  C3  UNL     1     -34.059  14.704  -5.831  1.00 20.00     0.016 C 
HETATM    3  C4  UNL     1     -33.650  17.120  -3.056  1.00 20.00     0.005 C 
HETATM    4  C5  UNL     1     -35.888  16.287  -3.040  1.00 20.00     0.006 C 
HETATM    5  C6  UNL     1     -33.202  15.784  -5.195  1.00 20.00     0.006 C 
HETATM    6  C7  UNL     1     -35.402  14.880  -5.133  1.00 20.00     0.091 C 
HETATM    7  C8  UNL     1     -33.592  15.745  -3.716  1.00 20.00    -0.010 C 
HETATM    8  C9  UNL     1     -35.032  15.188  -3.675  1.00 20.00     0.004 C 
ENDROOT
BRANCH   6   9
HETATM    9  C1  UNL     1     -36.222  13.635  -5.246  1.00 20.00     0.177 C 
HETATM   10  O10 UNL     1     -37.448  13.771  -4.980  1.00 20.00    -0.648 OA
HETATM   11  O11 UNL     1     -35.577  12.606  -5.594  1.00 20.00    -0.648 OA
ENDBRANCH   6   9
TORSDOF 1
ENDMDL
MODEL 4
REMARK VINA RESULT:      -4.7     11.431     12.399
REMARK  1 active torsions:
REMARK  status: ('A' for Active; 'I' for Inactive)
REMARK    1  A    between atoms: C1_1  and  C7_7 
ROOT
HETATM    1  C2  UNL     1     -35.876  18.122  -3.893  1.00 20.00     0.001 C 
HETATM    2  C3  UNL     1     -34.221  14.515  -4.319  1.00 20.00     0.016 C 
HETATM    3  C4  UNL     1     -34.993  17.757  -2.707  1.00 20.00     0.005 C 
HETATM    4  C5  UNL     1     -36.914  17.009  -3.912  1.00 20.00     0.006 C 
HETATM    5  C6  UNL     1     -33.689  15.741  -3.600  1.00 20.00     0.006 C 
HETATM    6  C7  UNL     1     -35.625  14.943  -4.728  1.00 20.00     0.091 C 
HETATM    7  C8  UNL     1     -34.880  16.236  -2.777  1.00 20.00    -0.010 C 
HETATM    8  C9  UNL     1     -36.140  15.746  -3.525  1.00 20.00     0.004 C 
ENDROOT
BRANCH   6   9
HETATM    9  C1  UNL     1     -36.481  13.749  -5.004  1.00 20.00     0.177 C 
HETATM   10  O10 UNL     1     -35.855  12.689  -5.282  1.00 20.00    -0.648 OA
HETATM   11  O11 UNL     1     -37.724  13.958  -4.923  1.00 20.00    -0.648 OA
ENDBRANCH   6   9
TORSDOF 1
ENDMDL
MODEL 5
REMARK VINA RESULT:      -4.7     11.238     11.931
REMARK  1 active torsions:
REMARK  status: ('A' for Active; 'I' for Inactive)
REMARK    1  A    between atoms: C1_1  and  C7_7 
ROOT
HETATM    1  C2  UNL     1     -35.239  17.002  -1.141  1.00 20.00     0.001 C 
HETATM    2  C3  UNL     1     -35.598  14.874  -4.499  1.00 20.00     0.016 C 
HETATM    3  C4  UNL     1     -36.222  17.636  -2.114  1.00 20.00     0.005 C 
HETATM    4  C5  UNL     1     -33.941  16.954  -1.936  1.00 20.00     0.006 C 
HETATM    5  C6  UNL     1     -36.623  15.744  -3.794  1.00 20.00     0.006 C 
HETATM    6  C7  UNL     1     -34.330  15.117  -3.689  1.00 20.00     0.091 C 
HETATM    7  C8  UNL     1     -35.858  17.029  -3.466  1.00 20.00    -0.010 C 
HETATM    8  C9  UNL     1     -34.372  16.618  -3.366  1.00 20.00     0.004 C 
ENDROOT
BRANCH   6   9
HETATM    9  C1  UNL     1     -33.118  14.755  -4.485  1.00 20.00     0.177 C 
HETATM   10  O10 UNL     1     -32.600  13.640  -4.202  1.00 20.00    -0.648 OA
HETATM   11  O11 UNL     1     -32.770  15.617  -5.341  1.00 20.00    -0.648 OA
ENDBRANCH   6   9
TORSDOF 1
ENDMDL
MODEL 6
REMARK VINA RESULT:      -4.5     11.282     12.652
REMARK  1 active torsions:
REMARK  status: ('A' for Active; 'I' for Inactive)
REMARK    1  A    between atoms: C1_1  and  C7_7 
ROOT
HETATM    1  C2  UNL     1     -35.732  18.148  -4.758  1.00 20.00     0.001 C 
HETATM    2  C3  UNL     1     -34.281  14.507  -4.002  1.00 20.00     0.016 C 
HETATM    3  C4  UNL     1     -35.276  18.006  -3.313  1.00 20.00     0.005 C 
HETATM    4  C5  UNL     1     -36.791  17.063  -4.899  1.00 20.00     0.006 C 
HETATM    5  C6  UNL     1     -33.906  15.843  -3.384  1.00 20.00     0.006 C 
HETATM    6  C7  UNL     1     -35.462  14.865  -4.895  1.00 20.00     0.091 C 
HETATM    7  C8  UNL     1     -35.253  16.499  -3.072  1.00 20.00    -0.010 C 
HETATM    8  C9  UNL     1     -36.259  15.889  -4.073  1.00 20.00     0.004 C 
ENDROOT
BRANCH   6   9
HETATM    9  C1  UNL     1     -36.276  13.649  -5.204  1.00 20.00     0.177 C 
HETATM   10  O10 UNL     1     -37.505  13.739  -4.932  1.00 20.00    -0.648 OA
HETATM   11  O11 UNL     1     -35.623  12.688  -5.700  1.00 20.00    -0.648 OA
ENDBRANCH   6   9
TORSDOF 1
ENDMDL
MODEL 7
REMARK VINA RESULT:      -4.5     11.660     12.516
REMARK  1 active torsions:
REMARK  status: ('A' for Active; 'I' for Inactive)
REMARK    1  A    between atoms: C1_1  and  C7_7 
ROOT
HETATM    1  C2  UNL     1     -34.980  18.040  -3.429  1.00 20.00     0.001 C 
HETATM    2  C3  UNL     1     -34.592  18.126   0.543  1.00 20.00     0.016 C 
HETATM    3  C4  UNL     1     -35.693  16.872  -2.762  1.00 20.00     0.005 C 
HETATM    4  C5  UNL     1     -33.534  17.866  -2.986  1.00 20.00     0.006 C 
HETATM    5  C6  UNL     1     -35.733  17.591  -0.303  1.00 20.00     0.006 C 
HETATM    6  C7  UNL     1     -33.544  18.502  -0.497  1.00 20.00     0.091 C 
HETATM    7  C8  UNL     1     -35.036  16.766  -1.388  1.00 20.00    -0.010 C 
HETATM    8  C9  UNL     1     -33.625  17.375  -1.538  1.00 20.00     0.004 C 
ENDROOT
BRANCH   6   9
HETATM    9  C1  UNL     1     -32.188  18.583   0.126  1.00 20.00     0.177 C 
HETATM   10  O10 UNL     1     -32.170  18.951   1.334  1.00 20.00    -0.648 OA
HETATM   11  O11 UNL     1     -31.233  18.273  -0.640  1.00 20.00    -0.648 OA
ENDBRANCH   6   9
TORSDOF 1
ENDMDL
MODEL 8
REMARK VINA RESULT:      -4.5     11.806     13.036
REMARK  1 active torsions:
REMARK  status: ('A' for Active; 'I' for Inactive)
REMARK    1  A    between atoms: C1_1  and  C7_7 
ROOT
HETATM    1  C2  UNL     1     -35.005  17.967  -4.762  1.00 20.00     0.001 C 
HETATM    2  C3  UNL     1     -34.531  14.470  -6.629  1.00 20.00     0.016 C 
HETATM    3  C4  UNL     1     -33.544  17.540  -4.808  1.00 20.00     0.005 C 
HETATM    4  C5  UNL     1     -35.681  16.821  -4.023  1.00 20.00     0.006 C 
HETATM    5  C6  UNL     1     -33.583  15.653  -6.541  1.00 20.00     0.006 C 
HETATM    6  C7  UNL     1     -35.670  14.878  -5.702  1.00 20.00     0.091 C 
HETATM    7  C8  UNL     1     -33.600  16.035  -5.059  1.00 20.00    -0.010 C 
HETATM    8  C9  UNL     1     -34.968  15.561  -4.519  1.00 20.00     0.004 C 
ENDROOT
BRANCH   6   9
HETATM    9  C1  UNL     1     -36.450  13.679  -5.267  1.00 20.00     0.177 C 
HETATM   10  O10 UNL     1     -35.802  12.596  -5.235  1.00 20.00    -0.648 OA
HETATM   11  O11 UNL     1     -37.660  13.908  -4.987  1.00 20.00    -0.648 OA
ENDBRANCH   6   9
TORSDOF 1
ENDMDL
MODEL 9
REMARK VINA RESULT:      -4.4      2.218      3.701
REMARK  1 active torsions:
REMARK  status: ('A' for Active; 'I' for Inactive)
REMARK    1  A    between atoms: C1_1  and  C7_7 
ROOT
HETATM    1  C2  UNL     1     -32.249   9.037   2.217  1.00 20.00     0.001 C 
HETATM    2  C3  UNL     1     -34.608   6.050   3.420  1.00 20.00     0.016 C 
HETATM    3  C4  UNL     1     -31.979   7.753   1.446  1.00 20.00     0.005 C 
HETATM    4  C5  UNL     1     -31.985   8.639   3.663  1.00 20.00     0.006 C 
HETATM    5  C6  UNL     1     -34.013   6.318   2.049  1.00 20.00     0.006 C 
HETATM    6  C7  UNL     1     -33.967   7.129   4.285  1.00 20.00     0.091 C 
HETATM    7  C8  UNL     1     -32.548   6.652   2.337  1.00 20.00    -0.010 C 
HETATM    8  C9  UNL     1     -32.520   7.209   3.777  1.00 20.00     0.004 C 
ENDROOT
BRANCH   6   9
HETATM    9  C1  UNL     1     -34.028   6.751   5.730  1.00 20.00     0.177 C 
HETATM   10  O10 UNL     1     -34.462   5.590   5.966  1.00 20.00    -0.648 OA
HETATM   11  O11 UNL     1     -33.636   7.648   6.528  1.00 20.00    -0.648 OA
ENDBRANCH   6   9
TORSDOF 1
ENDMDL
