MODEL 1
REMARK VINA RESULT:      -5.9      0.000      0.000
REMARK  3 active torsions:
REMARK  status: ('A' for Active; 'I' for Inactive)
REMARK    1  A    between atoms: C3_3  and  C9_9 
REMARK    2  A    between atoms: C8_8  and  O11_11 
REMARK    3  A    between atoms: N10_10  and  O11_11 
ROOT
HETATM    1  C1  UNL     1     -33.020   9.470  -0.392  1.00 20.00     0.014 C 
HETATM    2  C2  UNL     1     -32.538   9.254   0.686  1.00 20.00    -0.089 C 
HETATM    3  C8  UNL     1     -31.950   8.993   2.000  1.00 20.00     0.296 C 
ENDROOT
BRANCH   3   4
HETATM    4  O11 UNL     1     -31.994   7.606   2.298  1.00 20.00    -0.244 OA
BRANCH   4   5
HETATM    5  N10 UNL     1     -32.938   7.409   3.313  1.00 20.00    -0.142 NA
HETATM    6  C3  UNL     1     -33.364   6.180   3.335  1.00 20.00     0.043 C 
HETATM    7  C4  UNL     1     -32.865   5.132   2.357  1.00 20.00     0.069 C 
BRANCH   6   8
HETATM    8  C9  UNL     1     -34.420   5.772   4.390  1.00 20.00    -0.009 C 
HETATM    9  C5  UNL     1     -35.826   6.041   3.836  1.00 20.00     0.021 C 
HETATM   10  C6  UNL     1     -34.189   6.574   5.680  1.00 20.00     0.021 C 
HETATM   11  C7  UNL     1     -34.315   4.272   4.731  1.00 20.00     0.021 C 
ENDBRANCH   6   8
ENDBRANCH   4   5
ENDBRANCH   3   4
TORSDOF 3
ENDMDL
MODEL 2
REMARK VINA RESULT:      -5.8      0.058      1.304
REMARK  3 active torsions:
REMARK  status: ('A' for Active; 'I' for Inactive)
REMARK    1  A    between atoms: C3_3  and  C9_9 
REMARK    2  A    between atoms: C8_8  and  O11_11 
REMARK    3  A    between atoms: N10_10  and  O11_11 
ROOT
HETATM    1  C1  UNL     1     -32.948   9.478  -0.360  1.00 20.00     0.014 C 
HETATM    2  C2  UNL     1     -32.491   9.248   0.726  1.00 20.00    -0.089 C 
HETATM    3  C8  UNL     1     -31.933   8.970   2.049  1.00 20.00     0.296 C 
ENDROOT
BRANCH   3   4
HETATM    4  O11 UNL     1     -31.984   7.579   2.327  1.00 20.00    -0.244 OA
BRANCH   4   5
HETATM    5  N10 UNL     1     -32.934   7.370   3.334  1.00 20.00    -0.142 NA
HETATM    6  C3  UNL     1     -33.362   6.141   3.338  1.00 20.00     0.043 C 
HETATM    7  C4  UNL     1     -32.858   5.106   2.349  1.00 20.00     0.069 C 
BRANCH   6   8
HETATM    8  C9  UNL     1     -34.424   5.722   4.381  1.00 20.00    -0.009 C 
HETATM    9  C5  UNL     1     -34.283   4.223   4.680  1.00 20.00     0.021 C 
HETATM   10  C6  UNL     1     -35.826   6.031   3.834  1.00 20.00     0.021 C 
HETATM   11  C7  UNL     1     -34.243   6.496   5.702  1.00 20.00     0.021 C 
ENDBRANCH   6   8
ENDBRANCH   4   5
ENDBRANCH   3   4
TORSDOF 3
ENDMDL
MODEL 3
REMARK VINA RESULT:      -5.8      1.089      1.566
REMARK  3 active torsions:
REMARK  status: ('A' for Active; 'I' for Inactive)
REMARK    1  A    between atoms: C3_3  and  C9_9 
REMARK    2  A    between atoms: C8_8  and  O11_11 
REMARK    3  A    between atoms: N10_10  and  O11_11 
ROOT
HETATM    1  C1  UNL     1     -32.932  10.323   0.864  1.00 20.00     0.014 C 
HETATM    2  C2  UNL     1     -32.261   9.491   1.411  1.00 20.00    -0.089 C 
HETATM    3  C8  UNL     1     -31.443   8.477   2.075  1.00 20.00     0.296 C 
ENDROOT
BRANCH   3   4
HETATM    4  O11 UNL     1     -31.977   8.165   3.352  1.00 20.00    -0.244 OA
BRANCH   4   5
HETATM    5  N10 UNL     1     -32.794   7.035   3.218  1.00 20.00    -0.142 NA
HETATM    6  C3  UNL     1     -33.448   6.788   4.315  1.00 20.00     0.043 C 
HETATM    7  C4  UNL     1     -33.304   7.650   5.556  1.00 20.00     0.069 C 
BRANCH   6   8
HETATM    8  C9  UNL     1     -34.401   5.570   4.359  1.00 20.00    -0.009 C 
HETATM    9  C5  UNL     1     -35.723   5.930   3.669  1.00 20.00     0.021 C 
HETATM   10  C6  UNL     1     -34.650   5.170   5.822  1.00 20.00     0.021 C 
HETATM   11  C7  UNL     1     -33.789   4.358   3.627  1.00 20.00     0.021 C 
ENDBRANCH   6   8
ENDBRANCH   4   5
ENDBRANCH   3   4
TORSDOF 3
ENDMDL
MODEL 4
REMARK VINA RESULT:      -5.7      0.960      1.820
REMARK  3 active torsions:
REMARK  status: ('A' for Active; 'I' for Inactive)
REMARK    1  A    between atoms: C3_3  and  C9_9 
REMARK    2  A    between atoms: C8_8  and  O11_11 
REMARK    3  A    between atoms: N10_10  and  O11_11 
ROOT
HETATM    1  C1  UNL     1     -32.909   9.890   0.264  1.00 20.00     0.014 C 
HETATM    2  C2  UNL     1     -32.229   9.301   1.059  1.00 20.00    -0.089 C 
HETATM    3  C8  UNL     1     -31.399   8.584   2.025  1.00 20.00     0.296 C 
ENDROOT
BRANCH   3   4
HETATM    4  O11 UNL     1     -32.115   8.367   3.232  1.00 20.00    -0.244 OA
BRANCH   4   5
HETATM    5  N10 UNL     1     -32.876   7.201   3.082  1.00 20.00    -0.142 NA
HETATM    6  C3  UNL     1     -33.476   6.878   4.191  1.00 20.00     0.043 C 
HETATM    7  C4  UNL     1     -33.331   7.701   5.459  1.00 20.00     0.069 C 
BRANCH   6   8
HETATM    8  C9  UNL     1     -34.362   5.611   4.222  1.00 20.00    -0.009 C 
HETATM    9  C5  UNL     1     -33.684   4.494   3.416  1.00 20.00     0.021 C 
HETATM   10  C6  UNL     1     -35.741   5.938   3.630  1.00 20.00     0.021 C 
HETATM   11  C7  UNL     1     -34.564   5.108   5.665  1.00 20.00     0.021 C 
ENDBRANCH   6   8
ENDBRANCH   4   5
ENDBRANCH   3   4
TORSDOF 3
ENDMDL
MODEL 5
REMARK VINA RESULT:      -5.7      0.975      1.956
REMARK  3 active torsions:
REMARK  status: ('A' for Active; 'I' for Inactive)
REMARK    1  A    between atoms: C3_3  and  C9_9 
REMARK    2  A    between atoms: C8_8  and  O11_11 
REMARK    3  A    between atoms: N10_10  and  O11_11 
ROOT
HETATM    1  C1  UNL     1     -32.878   9.886   0.271  1.00 20.00     0.014 C 
HETATM    2  C2  UNL     1     -32.201   9.301   1.072  1.00 20.00    -0.089 C 
HETATM    3  C8  UNL     1     -31.375   8.588   2.046  1.00 20.00     0.296 C 
ENDROOT
BRANCH   3   4
HETATM    4  O11 UNL     1     -32.097   8.377   3.250  1.00 20.00    -0.244 OA
BRANCH   4   5
HETATM    5  N10 UNL     1     -32.893   7.236   3.086  1.00 20.00    -0.142 NA
HETATM    6  C3  UNL     1     -33.458   6.886   4.205  1.00 20.00     0.043 C 
HETATM    7  C4  UNL     1     -33.245   7.655   5.495  1.00 20.00     0.069 C 
BRANCH   6   8
HETATM    8  C9  UNL     1     -34.374   5.639   4.222  1.00 20.00    -0.009 C 
HETATM    9  C5  UNL     1     -34.591   5.185   5.672  1.00 20.00     0.021 C 
HETATM   10  C6  UNL     1     -33.724   4.517   3.399  1.00 20.00     0.021 C 
HETATM   11  C7  UNL     1     -35.751   5.953   3.603  1.00 20.00     0.021 C 
ENDBRANCH   6   8
ENDBRANCH   4   5
ENDBRANCH   3   4
TORSDOF 3
ENDMDL
MODEL 6
REMARK VINA RESULT:      -4.9      1.323      5.222
REMARK  3 active torsions:
REMARK  status: ('A' for Active; 'I' for Inactive)
REMARK    1  A    between atoms: C3_3  and  C9_9 
REMARK    2  A    between atoms: C8_8  and  O11_11 
REMARK    3  A    between atoms: N10_10  and  O11_11 
ROOT
HETATM    1  C1  UNL     1     -34.739   4.952   6.004  1.00 20.00     0.014 C 
HETATM    2  C2  UNL     1     -34.648   5.385   4.888  1.00 20.00    -0.089 C 
HETATM    3  C8  UNL     1     -34.540   5.912   3.528  1.00 20.00     0.296 C 
ENDROOT
BRANCH   3   4
HETATM    4  O11 UNL     1     -33.252   6.468   3.311  1.00 20.00    -0.244 OA
BRANCH   4   5
HETATM    5  N10 UNL     1     -33.298   7.228   2.135  1.00 20.00    -0.142 NA
HETATM    6  C3  UNL     1     -32.422   8.189   2.155  1.00 20.00     0.043 C 
HETATM    7  C4  UNL     1     -31.492   8.413   3.334  1.00 20.00     0.069 C 
BRANCH   6   8
HETATM    8  C9  UNL     1     -32.328   9.141   0.939  1.00 20.00    -0.009 C 
HETATM    9  C5  UNL     1     -30.960   8.972   0.263  1.00 20.00     0.021 C 
HETATM   10  C6  UNL     1     -32.518  10.591   1.410  1.00 20.00     0.021 C 
HETATM   11  C7  UNL     1     -33.421   8.825  -0.100  1.00 20.00     0.021 C 
ENDBRANCH   6   8
ENDBRANCH   4   5
ENDBRANCH   3   4
TORSDOF 3
ENDMDL
MODEL 7
REMARK VINA RESULT:      -4.1     10.921     11.705
REMARK  3 active torsions:
REMARK  status: ('A' for Active; 'I' for Inactive)
REMARK    1  A    between atoms: C3_3  and  C9_9 
REMARK    2  A    between atoms: C8_8  and  O11_11 
REMARK    3  A    between atoms: N10_10  and  O11_11 
ROOT
HETATM    1  C1  UNL     1     -34.524  13.997  -7.918  1.00 20.00     0.014 C 
HETATM    2  C2  UNL     1     -35.155  13.667  -6.952  1.00 20.00    -0.089 C 
HETATM    3  C8  UNL     1     -35.927  13.265  -5.776  1.00 20.00     0.296 C 
ENDROOT
BRANCH   3   4
HETATM    4  O11 UNL     1     -35.148  13.406  -4.598  1.00 20.00    -0.244 OA
BRANCH   4   5
HETATM    5  N10 UNL     1     -35.466  14.636  -4.010  1.00 20.00    -0.142 NA
HETATM    6  C3  UNL     1     -34.403  15.360  -3.814  1.00 20.00     0.043 C 
HETATM    7  C4  UNL     1     -33.015  14.879  -4.197  1.00 20.00     0.069 C 
BRANCH   6   8
HETATM    8  C9  UNL     1     -34.557  16.756  -3.166  1.00 20.00    -0.009 C 
HETATM    9  C5  UNL     1     -35.820  16.777  -2.294  1.00 20.00     0.021 C 
HETATM   10  C6  UNL     1     -34.647  17.823  -4.267  1.00 20.00     0.021 C 
HETATM   11  C7  UNL     1     -33.347  17.090  -2.271  1.00 20.00     0.021 C 
ENDBRANCH   6   8
ENDBRANCH   4   5
ENDBRANCH   3   4
TORSDOF 3
ENDMDL
MODEL 8
REMARK VINA RESULT:      -4.0     11.037     12.049
REMARK  3 active torsions:
REMARK  status: ('A' for Active; 'I' for Inactive)
REMARK    1  A    between atoms: C3_3  and  C9_9 
REMARK    2  A    between atoms: C8_8  and  O11_11 
REMARK    3  A    between atoms: N10_10  and  O11_11 
ROOT
HETATM    1  C1  UNL     1     -32.581  18.220  -1.011  1.00 20.00     0.014 C 
HETATM    2  C2  UNL     1     -33.336  17.529  -1.638  1.00 20.00    -0.089 C 
HETATM    3  C8  UNL     1     -34.258  16.687  -2.401  1.00 20.00     0.296 C 
ENDROOT
BRANCH   3   4
HETATM    4  O11 UNL     1     -33.554  15.940  -3.381  1.00 20.00    -0.244 OA
BRANCH   4   5
HETATM    5  N10 UNL     1     -34.470  15.104  -4.032  1.00 20.00    -0.142 NA
HETATM    6  C3  UNL     1     -34.360  15.193  -5.325  1.00 20.00     0.043 C 
HETATM    7  C4  UNL     1     -33.348  16.108  -5.991  1.00 20.00     0.069 C 
BRANCH   6   8
HETATM    8  C9  UNL     1     -35.297  14.344  -6.216  1.00 20.00    -0.009 C 
HETATM    9  C5  UNL     1     -34.458  13.549  -7.227  1.00 20.00     0.021 C 
HETATM   10  C6  UNL     1     -36.284  15.267  -6.945  1.00 20.00     0.021 C 
HETATM   11  C7  UNL     1     -36.110  13.342  -5.372  1.00 20.00     0.021 C 
ENDBRANCH   6   8
ENDBRANCH   4   5
ENDBRANCH   3   4
TORSDOF 3
ENDMDL
MODEL 9
REMARK VINA RESULT:      -3.9      1.389      4.899
REMARK  3 active torsions:
REMARK  status: ('A' for Active; 'I' for Inactive)
REMARK    1  A    between atoms: C3_3  and  C9_9 
REMARK    2  A    between atoms: C8_8  and  O11_11 
REMARK    3  A    between atoms: N10_10  and  O11_11 
ROOT
HETATM    1  C1  UNL     1     -34.769   5.367   5.585  1.00 20.00     0.014 C 
HETATM    2  C2  UNL     1     -34.206   6.399   5.345  1.00 20.00    -0.089 C 
HETATM    3  C8  UNL     1     -33.522   7.659   5.053  1.00 20.00     0.296 C 
ENDROOT
BRANCH   3   4
HETATM    4  O11 UNL     1     -32.314   7.417   4.348  1.00 20.00    -0.244 OA
BRANCH   4   5
HETATM    5  N10 UNL     1     -32.146   8.441   3.408  1.00 20.00    -0.142 NA
HETATM    6  C3  UNL     1     -32.507   8.060   2.217  1.00 20.00     0.043 C 
HETATM    7  C4  UNL     1     -33.037   6.664   1.941  1.00 20.00     0.069 C 
BRANCH   6   8
HETATM    8  C9  UNL     1     -32.388   9.059   1.043  1.00 20.00    -0.009 C 
HETATM    9  C5  UNL     1     -31.004   8.920   0.394  1.00 20.00     0.021 C 
HETATM   10  C6  UNL     1     -32.596  10.488   1.565  1.00 20.00     0.021 C 
HETATM   11  C7  UNL     1     -33.455   8.781  -0.035  1.00 20.00     0.021 C 
ENDBRANCH   6   8
ENDBRANCH   4   5
ENDBRANCH   3   4
TORSDOF 3
ENDMDL
