MODEL 1
REMARK VINA RESULT:      -5.0      0.000      0.000
REMARK  2 active torsions:
REMARK  status: ('A' for Active; 'I' for Inactive)
REMARK    1  A    between atoms: C1_1  and  C7_7 
REMARK    2  A    between atoms: C7_7  and  C8_8 
ROOT
HETATM    1  C3  UNL     1     -33.051   4.911   2.385  1.00 20.00     0.018 C 
HETATM    2  C7  UNL     1     -32.966   5.907   3.546  1.00 20.00     0.058 C 
ENDROOT
BRANCH   2   3
HETATM    3  C1  UNL     1     -32.643   7.284   2.958  1.00 20.00     0.127 C 
HETATM    4  C2  UNL     1     -31.567   8.084   3.646  1.00 20.00     0.091 C 
HETATM    5  O9  UNL     1     -33.212   7.722   1.957  1.00 20.00    -0.298 OA
ENDBRANCH   2   3
BRANCH   2   6
HETATM    6  C8  UNL     1     -34.203   5.920   4.503  1.00 20.00    -0.041 C 
HETATM    7  C4  UNL     1     -34.363   4.545   5.185  1.00 20.00     0.015 C 
HETATM    8  C5  UNL     1     -34.106   6.998   5.600  1.00 20.00     0.015 C 
HETATM    9  C6  UNL     1     -35.488   6.185   3.688  1.00 20.00     0.015 C 
ENDBRANCH   2   6
TORSDOF 2
ENDMDL
MODEL 2
REMARK VINA RESULT:      -4.9      0.038      1.437
REMARK  2 active torsions:
REMARK  status: ('A' for Active; 'I' for Inactive)
REMARK    1  A    between atoms: C1_1  and  C7_7 
REMARK    2  A    between atoms: C7_7  and  C8_8 
ROOT
HETATM    1  C3  UNL     1     -33.006   4.908   2.392  1.00 20.00     0.018 C 
HETATM    2  C7  UNL     1     -32.971   5.916   3.545  1.00 20.00     0.058 C 
ENDROOT
BRANCH   2   3
HETATM    3  C1  UNL     1     -32.662   7.294   2.953  1.00 20.00     0.127 C 
HETATM    4  C2  UNL     1     -31.571   8.093   3.620  1.00 20.00     0.091 C 
HETATM    5  O9  UNL     1     -33.251   7.733   1.965  1.00 20.00    -0.298 OA
ENDBRANCH   2   3
BRANCH   2   6
HETATM    6  C8  UNL     1     -34.232   5.911   4.470  1.00 20.00    -0.041 C 
HETATM    7  C4  UNL     1     -34.082   6.972   5.582  1.00 20.00     0.015 C 
HETATM    8  C5  UNL     1     -35.542   6.189   3.707  1.00 20.00     0.015 C 
HETATM    9  C6  UNL     1     -34.367   4.535   5.160  1.00 20.00     0.015 C 
ENDBRANCH   2   6
TORSDOF 2
ENDMDL
MODEL 3
REMARK VINA RESULT:      -4.8      0.749      2.211
REMARK  2 active torsions:
REMARK  status: ('A' for Active; 'I' for Inactive)
REMARK    1  A    between atoms: C1_1  and  C7_7 
REMARK    2  A    between atoms: C7_7  and  C8_8 
ROOT
HETATM    1  C3  UNL     1     -33.197   7.556   5.726  1.00 20.00     0.018 C 
HETATM    2  C7  UNL     1     -33.821   7.283   4.353  1.00 20.00     0.058 C 
ENDROOT
BRANCH   2   3
HETATM    3  C1  UNL     1     -32.806   7.704   3.287  1.00 20.00     0.127 C 
HETATM    4  C2  UNL     1     -31.441   8.122   3.772  1.00 20.00     0.091 C 
HETATM    5  O9  UNL     1     -33.070   7.687   2.084  1.00 20.00    -0.298 OA
ENDBRANCH   2   3
BRANCH   2   6
HETATM    6  C8  UNL     1     -34.366   5.832   4.148  1.00 20.00    -0.041 C 
HETATM    7  C4  UNL     1     -35.763   5.874   3.492  1.00 20.00     0.015 C 
HETATM    8  C5  UNL     1     -33.445   4.960   3.272  1.00 20.00     0.015 C 
HETATM    9  C6  UNL     1     -34.519   5.134   5.518  1.00 20.00     0.015 C 
ENDBRANCH   2   6
TORSDOF 2
ENDMDL
MODEL 4
REMARK VINA RESULT:      -4.1      1.660      3.451
REMARK  2 active torsions:
REMARK  status: ('A' for Active; 'I' for Inactive)
REMARK    1  A    between atoms: C1_1  and  C7_7 
REMARK    2  A    between atoms: C7_7  and  C8_8 
ROOT
HETATM    1  C3  UNL     1     -35.356   6.157   3.394  1.00 20.00     0.018 C 
HETATM    2  C7  UNL     1     -34.296   7.109   3.956  1.00 20.00     0.058 C 
ENDROOT
BRANCH   2   3
HETATM    3  C1  UNL     1     -34.052   6.724   5.419  1.00 20.00     0.127 C 
HETATM    4  C2  UNL     1     -34.435   5.325   5.828  1.00 20.00     0.091 C 
HETATM    5  O9  UNL     1     -33.547   7.502   6.228  1.00 20.00    -0.298 OA
ENDBRANCH   2   3
BRANCH   2   6
HETATM    6  C8  UNL     1     -32.980   7.209   3.117  1.00 20.00    -0.041 C 
HETATM    7  C4  UNL     1     -33.229   8.025   1.831  1.00 20.00     0.015 C 
HETATM    8  C5  UNL     1     -31.819   7.863   3.890  1.00 20.00     0.015 C 
HETATM    9  C6  UNL     1     -32.528   5.795   2.688  1.00 20.00     0.015 C 
ENDBRANCH   2   6
TORSDOF 2
ENDMDL
MODEL 5
REMARK VINA RESULT:      -4.0     11.555     12.643
REMARK  2 active torsions:
REMARK  status: ('A' for Active; 'I' for Inactive)
REMARK    1  A    between atoms: C1_1  and  C7_7 
REMARK    2  A    between atoms: C7_7  and  C8_8 
ROOT
HETATM    1  C3  UNL     1     -34.318  14.176  -7.047  1.00 20.00     0.018 C 
HETATM    2  C7  UNL     1     -35.068  14.838  -5.887  1.00 20.00     0.058 C 
ENDROOT
BRANCH   2   3
HETATM    3  C1  UNL     1     -36.132  13.853  -5.395  1.00 20.00     0.127 C 
HETATM    4  C2  UNL     1     -37.539  14.378  -5.264  1.00 20.00     0.091 C 
HETATM    5  O9  UNL     1     -35.871  12.678  -5.136  1.00 20.00    -0.298 OA
ENDBRANCH   2   3
BRANCH   2   6
HETATM    6  C8  UNL     1     -34.161  15.391  -4.738  1.00 20.00    -0.041 C 
HETATM    7  C4  UNL     1     -33.476  16.700  -5.184  1.00 20.00     0.015 C 
HETATM    8  C5  UNL     1     -34.938  15.668  -3.437  1.00 20.00     0.015 C 
HETATM    9  C6  UNL     1     -33.047  14.370  -4.419  1.00 20.00     0.015 C 
ENDBRANCH   2   6
TORSDOF 2
ENDMDL
MODEL 6
REMARK VINA RESULT:      -4.0      1.659      3.443
REMARK  2 active torsions:
REMARK  status: ('A' for Active; 'I' for Inactive)
REMARK    1  A    between atoms: C1_1  and  C7_7 
REMARK    2  A    between atoms: C7_7  and  C8_8 
ROOT
HETATM    1  C3  UNL     1     -35.413   6.147   3.413  1.00 20.00     0.018 C 
HETATM    2  C7  UNL     1     -34.335   7.090   3.957  1.00 20.00     0.058 C 
ENDROOT
BRANCH   2   3
HETATM    3  C1  UNL     1     -34.072   6.707   5.416  1.00 20.00     0.127 C 
HETATM    4  C2  UNL     1     -34.432   5.301   5.826  1.00 20.00     0.091 C 
HETATM    5  O9  UNL     1     -33.570   7.490   6.222  1.00 20.00    -0.298 OA
ENDBRANCH   2   3
BRANCH   2   6
HETATM    6  C8  UNL     1     -33.031   7.176   3.097  1.00 20.00    -0.041 C 
HETATM    7  C4  UNL     1     -32.577   5.762   2.676  1.00 20.00     0.015 C 
HETATM    8  C5  UNL     1     -33.202   8.030   1.826  1.00 20.00     0.015 C 
HETATM    9  C6  UNL     1     -31.893   7.796   3.938  1.00 20.00     0.015 C 
ENDBRANCH   2   6
TORSDOF 2
ENDMDL
MODEL 7
REMARK VINA RESULT:      -3.9     11.420     12.718
REMARK  2 active torsions:
REMARK  status: ('A' for Active; 'I' for Inactive)
REMARK    1  A    between atoms: C1_1  and  C7_7 
REMARK    2  A    between atoms: C7_7  and  C8_8 
ROOT
HETATM    1  C3  UNL     1     -36.033  16.075  -6.150  1.00 20.00     0.018 C 
HETATM    2  C7  UNL     1     -35.495  15.081  -5.115  1.00 20.00     0.058 C 
ENDROOT
BRANCH   2   3
HETATM    3  C1  UNL     1     -35.452  13.698  -5.773  1.00 20.00     0.127 C 
HETATM    4  C2  UNL     1     -34.840  13.617  -7.149  1.00 20.00     0.091 C 
HETATM    5  O9  UNL     1     -35.873  12.688  -5.209  1.00 20.00    -0.298 OA
ENDBRANCH   2   3
BRANCH   2   6
HETATM    6  C8  UNL     1     -34.141  15.487  -4.445  1.00 20.00    -0.041 C 
HETATM    7  C4  UNL     1     -34.400  16.109  -3.056  1.00 20.00     0.015 C 
HETATM    8  C5  UNL     1     -33.173  14.301  -4.273  1.00 20.00     0.015 C 
HETATM    9  C6  UNL     1     -33.435  16.557  -5.307  1.00 20.00     0.015 C 
ENDBRANCH   2   6
TORSDOF 2
ENDMDL
MODEL 8
REMARK VINA RESULT:      -3.9      1.491      3.561
REMARK  2 active torsions:
REMARK  status: ('A' for Active; 'I' for Inactive)
REMARK    1  A    between atoms: C1_1  and  C7_7 
REMARK    2  A    between atoms: C7_7  and  C8_8 
ROOT
HETATM    1  C3  UNL     1     -33.891   7.424   5.854  1.00 20.00     0.018 C 
HETATM    2  C7  UNL     1     -33.437   6.540   4.687  1.00 20.00     0.058 C 
ENDROOT
BRANCH   2   3
HETATM    3  C1  UNL     1     -34.573   5.562   4.373  1.00 20.00     0.127 C 
HETATM    4  C2  UNL     1     -34.330   4.109   4.695  1.00 20.00     0.091 C 
HETATM    5  O9  UNL     1     -35.648   5.931   3.900  1.00 20.00    -0.298 OA
ENDBRANCH   2   3
BRANCH   2   6
HETATM    6  C8  UNL     1     -32.923   7.313   3.429  1.00 20.00    -0.041 C 
HETATM    7  C4  UNL     1     -32.640   6.326   2.276  1.00 20.00     0.015 C 
HETATM    8  C5  UNL     1     -33.918   8.376   2.925  1.00 20.00     0.015 C 
HETATM    9  C6  UNL     1     -31.594   8.026   3.764  1.00 20.00     0.015 C 
ENDBRANCH   2   6
TORSDOF 2
ENDMDL
MODEL 9
REMARK VINA RESULT:      -3.9      1.477      3.533
REMARK  2 active torsions:
REMARK  status: ('A' for Active; 'I' for Inactive)
REMARK    1  A    between atoms: C1_1  and  C7_7 
REMARK    2  A    between atoms: C7_7  and  C8_8 
ROOT
HETATM    1  C3  UNL     1     -33.893   7.449   5.837  1.00 20.00     0.018 C 
HETATM    2  C7  UNL     1     -33.426   6.552   4.686  1.00 20.00     0.058 C 
ENDROOT
BRANCH   2   3
HETATM    3  C1  UNL     1     -34.564   5.580   4.360  1.00 20.00     0.127 C 
HETATM    4  C2  UNL     1     -34.330   4.125   4.681  1.00 20.00     0.091 C 
HETATM    5  O9  UNL     1     -35.633   5.956   3.879  1.00 20.00    -0.298 OA
ENDBRANCH   2   3
BRANCH   2   6
HETATM    6  C8  UNL     1     -32.884   7.310   3.430  1.00 20.00    -0.041 C 
HETATM    7  C4  UNL     1     -33.925   8.338   2.938  1.00 20.00     0.015 C 
HETATM    8  C5  UNL     1     -31.559   8.050   3.696  1.00 20.00     0.015 C 
HETATM    9  C6  UNL     1     -32.645   6.306   2.280  1.00 20.00     0.015 C 
ENDBRANCH   2   6
TORSDOF 2
ENDMDL
