MODEL 1
REMARK VINA RESULT:      -4.5      0.000      0.000
REMARK  2 active torsions:
REMARK  status: ('A' for Active; 'I' for Inactive)
REMARK    1  A    between atoms: C3_3  and  C6_6 
REMARK    2  A    between atoms: C6_6  and  C7_7 
ROOT
HETATM    1  C1  UNL     1     -34.212   4.350   4.491  1.00 20.00     0.281 C 
HETATM    2  C2  UNL     1     -34.825   5.259   5.547  1.00 20.00     0.106 C 
HETATM    3  C3  UNL     1     -33.278   6.374   3.729  1.00 20.00     0.282 C 
HETATM    4  N8  UNL     1     -33.986   5.166   3.298  1.00 20.00     0.098 N 
HETATM    5  S9  UNL     1     -33.890   6.799   5.391  1.00 20.00    -0.132 SA
HETATM    6  H24 UNL     1     -33.432   4.654   2.611  1.00 20.00     0.317 HD
ENDROOT
BRANCH   3   7
HETATM    7  C6  UNL     1     -33.525   7.510   2.750  1.00 20.00     0.050 C 
BRANCH   7   8
HETATM    8  C7  UNL     1     -32.233   8.124   2.182  1.00 20.00    -0.020 C 
HETATM    9  C4  UNL     1     -32.497   9.398   1.379  1.00 20.00     0.009 C 
HETATM   10  C5  UNL     1     -31.256   8.425   3.322  1.00 20.00     0.009 C 
ENDBRANCH   7   8
ENDBRANCH   3   7
TORSDOF 2
ENDMDL
MODEL 2
REMARK VINA RESULT:      -4.4      1.666      2.031
REMARK  2 active torsions:
REMARK  status: ('A' for Active; 'I' for Inactive)
REMARK    1  A    between atoms: C3_3  and  C6_6 
REMARK    2  A    between atoms: C6_6  and  C7_7 
ROOT
HETATM    1  C1  UNL     1     -34.010   6.897   5.832  1.00 20.00     0.281 C 
HETATM    2  C2  UNL     1     -34.273   5.612   5.060  1.00 20.00     0.106 C 
HETATM    3  C3  UNL     1     -33.381   7.687   3.704  1.00 20.00     0.282 C 
HETATM    4  N8  UNL     1     -32.970   7.630   5.109  1.00 20.00     0.098 N 
HETATM    5  S9  UNL     1     -34.254   6.134   3.328  1.00 20.00    -0.132 SA
HETATM    6  H24 UNL     1     -32.862   8.570   5.488  1.00 20.00     0.317 HD
ENDROOT
BRANCH   3   7
HETATM    7  C6  UNL     1     -32.169   7.862   2.805  1.00 20.00     0.050 C 
BRANCH   7   8
HETATM    8  C7  UNL     1     -32.470   8.638   1.510  1.00 20.00    -0.020 C 
HETATM    9  C4  UNL     1     -32.793  10.109   1.773  1.00 20.00     0.009 C 
HETATM   10  C5  UNL     1     -31.280   8.535   0.553  1.00 20.00     0.009 C 
ENDBRANCH   7   8
ENDBRANCH   3   7
TORSDOF 2
ENDMDL
MODEL 3
REMARK VINA RESULT:      -4.3      1.298      1.698
REMARK  2 active torsions:
REMARK  status: ('A' for Active; 'I' for Inactive)
REMARK    1  A    between atoms: C3_3  and  C6_6 
REMARK    2  A    between atoms: C6_6  and  C7_7 
ROOT
HETATM    1  C1  UNL     1     -34.019   5.636   3.217  1.00 20.00     0.281 C 
HETATM    2  C2  UNL     1     -34.587   6.330   4.447  1.00 20.00     0.106 C 
HETATM    3  C3  UNL     1     -32.386   7.326   3.396  1.00 20.00     0.282 C 
HETATM    4  N8  UNL     1     -33.280   6.645   2.456  1.00 20.00     0.098 N 
HETATM    5  S9  UNL     1     -33.243   7.405   5.001  1.00 20.00    -0.132 SA
HETATM    6  H24 UNL     1     -32.744   6.209   1.706  1.00 20.00     0.317 HD
ENDROOT
BRANCH   3   7
HETATM    7  C6  UNL     1     -32.048   8.718   2.890  1.00 20.00     0.050 C 
BRANCH   7   8
HETATM    8  C7  UNL     1     -32.431   8.947   1.416  1.00 20.00    -0.020 C 
HETATM    9  C4  UNL     1     -32.922  10.371   1.156  1.00 20.00     0.009 C 
HETATM   10  C5  UNL     1     -31.233   8.639   0.514  1.00 20.00     0.009 C 
ENDBRANCH   7   8
ENDBRANCH   3   7
TORSDOF 2
ENDMDL
MODEL 4
REMARK VINA RESULT:      -4.0      1.791      4.335
REMARK  2 active torsions:
REMARK  status: ('A' for Active; 'I' for Inactive)
REMARK    1  A    between atoms: C3_3  and  C6_6 
REMARK    2  A    between atoms: C6_6  and  C7_7 
ROOT
HETATM    1  C1  UNL     1     -31.450   8.275   3.630  1.00 20.00     0.281 C 
HETATM    2  C2  UNL     1     -31.869   8.707   2.233  1.00 20.00     0.106 C 
HETATM    3  C3  UNL     1     -33.124   6.651   3.298  1.00 20.00     0.282 C 
HETATM    4  N8  UNL     1     -32.612   7.638   4.251  1.00 20.00     0.098 N 
HETATM    5  S9  UNL     1     -32.857   7.320   1.626  1.00 20.00    -0.132 SA
HETATM    6  H24 UNL     1     -32.351   7.187   5.127  1.00 20.00     0.317 HD
ENDROOT
BRANCH   3   7
HETATM    7  C6  UNL     1     -34.599   6.387   3.550  1.00 20.00     0.050 C 
BRANCH   7   8
HETATM    8  C7  UNL     1     -34.858   5.202   4.499  1.00 20.00    -0.020 C 
HETATM    9  C4  UNL     1     -34.007   3.980   4.151  1.00 20.00     0.009 C 
HETATM   10  C5  UNL     1     -34.589   5.625   5.945  1.00 20.00     0.009 C 
ENDBRANCH   7   8
ENDBRANCH   3   7
TORSDOF 2
ENDMDL
MODEL 5
REMARK VINA RESULT:      -3.9      1.827      4.389
REMARK  2 active torsions:
REMARK  status: ('A' for Active; 'I' for Inactive)
REMARK    1  A    between atoms: C3_3  and  C6_6 
REMARK    2  A    between atoms: C6_6  and  C7_7 
ROOT
HETATM    1  C1  UNL     1     -32.754   9.100   1.335  1.00 20.00     0.281 C 
HETATM    2  C2  UNL     1     -31.316   8.781   1.720  1.00 20.00     0.106 C 
HETATM    3  C3  UNL     1     -33.233   7.723   3.185  1.00 20.00     0.282 C 
HETATM    4  N8  UNL     1     -33.580   7.979   1.785  1.00 20.00     0.098 N 
HETATM    5  S9  UNL     1     -31.457   8.074   3.378  1.00 20.00    -0.132 SA
HETATM    6  H24 UNL     1     -34.571   8.204   1.699  1.00 20.00     0.317 HD
ENDROOT
BRANCH   3   7
HETATM    7  C6  UNL     1     -33.546   6.282   3.552  1.00 20.00     0.050 C 
BRANCH   7   8
HETATM    8  C7  UNL     1     -34.469   6.146   4.777  1.00 20.00    -0.020 C 
HETATM    9  C4  UNL     1     -34.576   4.703   5.270  1.00 20.00     0.009 C 
HETATM   10  C5  UNL     1     -33.964   7.043   5.910  1.00 20.00     0.009 C 
ENDBRANCH   7   8
ENDBRANCH   3   7
TORSDOF 2
ENDMDL
MODEL 6
REMARK VINA RESULT:      -3.8     11.629     12.026
REMARK  2 active torsions:
REMARK  status: ('A' for Active; 'I' for Inactive)
REMARK    1  A    between atoms: C3_3  and  C6_6 
REMARK    2  A    between atoms: C6_6  and  C7_7 
ROOT
HETATM    1  C1  UNL     1     -35.904  13.385  -5.267  1.00 20.00     0.281 C 
HETATM    2  C2  UNL     1     -35.909  14.397  -6.404  1.00 20.00     0.106 C 
HETATM    3  C3  UNL     1     -34.994  15.196  -4.066  1.00 20.00     0.282 C 
HETATM    4  N8  UNL     1     -34.829  13.769  -4.352  1.00 20.00     0.098 N 
HETATM    5  S9  UNL     1     -35.640  15.982  -5.576  1.00 20.00    -0.132 SA
HETATM    6  H24 UNL     1     -34.876  13.225  -3.491  1.00 20.00     0.317 HD
ENDROOT
BRANCH   3   7
HETATM    7  C6  UNL     1     -33.667  15.811  -3.656  1.00 20.00     0.050 C 
BRANCH   7   8
HETATM    8  C7  UNL     1     -33.764  16.712  -2.412  1.00 20.00    -0.020 C 
HETATM    9  C4  UNL     1     -33.337  18.151  -2.699  1.00 20.00     0.009 C 
HETATM   10  C5  UNL     1     -35.196  16.696  -1.869  1.00 20.00     0.009 C 
ENDBRANCH   7   8
ENDBRANCH   3   7
TORSDOF 2
ENDMDL
MODEL 7
REMARK VINA RESULT:      -3.8      2.697      4.707
REMARK  2 active torsions:
REMARK  status: ('A' for Active; 'I' for Inactive)
REMARK    1  A    between atoms: C3_3  and  C6_6 
REMARK    2  A    between atoms: C6_6  and  C7_7 
ROOT
HETATM    1  C1  UNL     1     -33.019  10.398   1.202  1.00 20.00     0.281 C 
HETATM    2  C2  UNL     1     -32.608   9.597  -0.024  1.00 20.00     0.106 C 
HETATM    3  C3  UNL     1     -32.011   8.597   2.339  1.00 20.00     0.282 C 
HETATM    4  N8  UNL     1     -33.205   9.446   2.298  1.00 20.00     0.098 N 
HETATM    5  S9  UNL     1     -31.441   8.377   0.624  1.00 20.00    -0.132 SA
HETATM    6  H24 UNL     1     -33.325   9.935   3.184  1.00 20.00     0.317 HD
ENDROOT
BRANCH   3   7
HETATM    7  C6  UNL     1     -32.335   7.259   2.982  1.00 20.00     0.050 C 
BRANCH   7   8
HETATM    8  C7  UNL     1     -33.687   7.242   3.717  1.00 20.00    -0.020 C 
HETATM    9  C4  UNL     1     -34.506   5.990   3.403  1.00 20.00     0.009 C 
HETATM   10  C5  UNL     1     -33.458   7.343   5.228  1.00 20.00     0.009 C 
ENDBRANCH   7   8
ENDBRANCH   3   7
TORSDOF 2
ENDMDL
MODEL 8
REMARK VINA RESULT:      -3.7     11.925     12.594
REMARK  2 active torsions:
REMARK  status: ('A' for Active; 'I' for Inactive)
REMARK    1  A    between atoms: C3_3  and  C6_6 
REMARK    2  A    between atoms: C6_6  and  C7_7 
ROOT
HETATM    1  C1  UNL     1     -33.383  15.551  -6.476  1.00 20.00     0.281 C 
HETATM    2  C2  UNL     1     -34.593  14.731  -6.053  1.00 20.00     0.106 C 
HETATM    3  C3  UNL     1     -33.449  16.246  -4.226  1.00 20.00     0.282 C 
HETATM    4  N8  UNL     1     -33.331  16.726  -5.605  1.00 20.00     0.098 N 
HETATM    5  S9  UNL     1     -34.553  14.798  -4.246  1.00 20.00    -0.132 SA
HETATM    6  H24 UNL     1     -32.456  17.232  -5.733  1.00 20.00     0.317 HD
ENDROOT
BRANCH   3   7
HETATM    7  C6  UNL     1     -34.002  17.341  -3.330  1.00 20.00     0.050 C 
BRANCH   7   8
HETATM    8  C7  UNL     1     -33.741  17.101  -1.832  1.00 20.00    -0.020 C 
HETATM    9  C4  UNL     1     -32.774  18.124  -1.237  1.00 20.00     0.009 C 
HETATM   10  C5  UNL     1     -35.064  17.131  -1.062  1.00 20.00     0.009 C 
ENDBRANCH   7   8
ENDBRANCH   3   7
TORSDOF 2
ENDMDL
MODEL 9
REMARK VINA RESULT:      -3.6     11.510     12.227
REMARK  2 active torsions:
REMARK  status: ('A' for Active; 'I' for Inactive)
REMARK    1  A    between atoms: C3_3  and  C6_6 
REMARK    2  A    between atoms: C6_6  and  C7_7 
ROOT
HETATM    1  C1  UNL     1     -35.180  13.298  -6.830  1.00 20.00     0.281 C 
HETATM    2  C2  UNL     1     -36.287  14.293  -6.515  1.00 20.00     0.106 C 
HETATM    3  C3  UNL     1     -34.307  14.087  -4.790  1.00 20.00     0.282 C 
HETATM    4  N8  UNL     1     -33.963  13.787  -6.182  1.00 20.00     0.098 N 
HETATM    5  S9  UNL     1     -36.020  14.703  -4.774  1.00 20.00    -0.132 SA
HETATM    6  H24 UNL     1     -33.225  13.084  -6.223  1.00 20.00     0.317 HD
ENDROOT
BRANCH   3   7
HETATM    7  C6  UNL     1     -33.350  15.122  -4.220  1.00 20.00     0.050 C 
BRANCH   7   8
HETATM    8  C7  UNL     1     -34.036  16.444  -3.829  1.00 20.00    -0.020 C 
HETATM    9  C4  UNL     1     -33.807  16.807  -2.362  1.00 20.00     0.009 C 
HETATM   10  C5  UNL     1     -33.532  17.576  -4.727  1.00 20.00     0.009 C 
ENDBRANCH   7   8
ENDBRANCH   3   7
TORSDOF 2
ENDMDL
