MODEL 1
REMARK VINA RESULT:      -5.5      0.000      0.000
REMARK  0 active torsions:
REMARK  status: ('A' for Active; 'I' for Inactive)
ROOT
HETATM    1  C1  UNL     1     -33.140   7.147   4.078  1.00 20.00    -0.014 A 
HETATM    2  C2  UNL     1     -33.785   6.146   3.462  1.00 20.00    -0.070 A 
HETATM    3  C3  UNL     1     -33.608   7.124   5.478  1.00 20.00     0.156 A 
HETATM    4  C4  UNL     1     -34.645   6.066   5.706  1.00 20.00     0.092 A 
HETATM    5  C5  UNL     1     -34.710   5.349   4.355  1.00 20.00     0.018 A 
HETATM    6  C6  UNL     1     -32.157   8.143   3.594  1.00 20.00     0.052 C 
HETATM    7  C7  UNL     1     -33.683   5.782   2.016  1.00 20.00     0.044 C 
HETATM    8  C8  UNL     1     -34.296   3.885   4.480  1.00 20.00     0.015 C 
HETATM    9  O9  UNL     1     -33.205   7.893   6.339  1.00 20.00    -0.293 OA
ENDROOT
TORSDOF 0
ENDMDL
MODEL 2
REMARK VINA RESULT:      -5.5      1.297      2.163
REMARK  0 active torsions:
REMARK  status: ('A' for Active; 'I' for Inactive)
ROOT
HETATM    1  C1  UNL     1     -33.744   6.862   4.993  1.00 20.00    -0.014 A 
HETATM    2  C2  UNL     1     -33.462   6.820   3.684  1.00 20.00    -0.070 A 
HETATM    3  C3  UNL     1     -34.537   5.649   5.273  1.00 20.00     0.156 A 
HETATM    4  C4  UNL     1     -34.792   4.847   4.032  1.00 20.00     0.092 A 
HETATM    5  C5  UNL     1     -33.997   5.602   2.964  1.00 20.00     0.018 A 
HETATM    6  C6  UNL     1     -33.412   7.845   6.051  1.00 20.00     0.052 C 
HETATM    7  C7  UNL     1     -32.712   7.850   2.904  1.00 20.00     0.044 C 
HETATM    8  C8  UNL     1     -32.890   4.731   2.374  1.00 20.00     0.015 C 
HETATM    9  O9  UNL     1     -34.948   5.350   6.385  1.00 20.00    -0.293 OA
ENDROOT
TORSDOF 0
ENDMDL
MODEL 3
REMARK VINA RESULT:      -5.4      0.978      2.811
REMARK  0 active torsions:
REMARK  status: ('A' for Active; 'I' for Inactive)
ROOT
HETATM    1  C1  UNL     1     -33.941   5.986   4.421  1.00 20.00    -0.014 A 
HETATM    2  C2  UNL     1     -33.210   6.068   3.300  1.00 20.00    -0.070 A 
HETATM    3  C3  UNL     1     -33.604   7.187   5.209  1.00 20.00     0.156 A 
HETATM    4  C4  UNL     1     -32.558   8.025   4.536  1.00 20.00     0.092 A 
HETATM    5  C5  UNL     1     -32.345   7.305   3.202  1.00 20.00     0.018 A 
HETATM    6  C6  UNL     1     -34.908   4.974   4.906  1.00 20.00     0.052 C 
HETATM    7  C7  UNL     1     -33.166   5.064   2.194  1.00 20.00     0.044 C 
HETATM    8  C8  UNL     1     -32.722   8.197   2.021  1.00 20.00     0.015 C 
HETATM    9  O9  UNL     1     -34.110   7.452   6.290  1.00 20.00    -0.293 OA
ENDROOT
TORSDOF 0
ENDMDL
MODEL 4
REMARK VINA RESULT:      -5.2      2.008      3.843
REMARK  0 active torsions:
REMARK  status: ('A' for Active; 'I' for Inactive)
ROOT
HETATM    1  C1  UNL     1     -33.885   5.613   4.288  1.00 20.00    -0.014 A 
HETATM    2  C2  UNL     1     -33.612   6.880   4.630  1.00 20.00    -0.070 A 
HETATM    3  C3  UNL     1     -33.475   5.481   2.877  1.00 20.00     0.156 A 
HETATM    4  C4  UNL     1     -32.967   6.776   2.317  1.00 20.00     0.092 A 
HETATM    5  C5  UNL     1     -32.988   7.709   3.530  1.00 20.00     0.018 A 
HETATM    6  C6  UNL     1     -34.473   4.483   5.045  1.00 20.00     0.052 C 
HETATM    7  C7  UNL     1     -33.887   7.521   5.952  1.00 20.00     0.044 C 
HETATM    8  C8  UNL     1     -31.585   8.198   3.882  1.00 20.00     0.015 C 
HETATM    9  O9  UNL     1     -33.559   4.440   2.242  1.00 20.00    -0.293 OA
ENDROOT
TORSDOF 0
ENDMDL
MODEL 5
REMARK VINA RESULT:      -5.1      1.823      3.069
REMARK  0 active torsions:
REMARK  status: ('A' for Active; 'I' for Inactive)
ROOT
HETATM    1  C1  UNL     1     -33.330   5.676   3.054  1.00 20.00    -0.014 A 
HETATM    2  C2  UNL     1     -34.096   5.704   4.154  1.00 20.00    -0.070 A 
HETATM    3  C3  UNL     1     -32.952   7.078   2.793  1.00 20.00     0.156 A 
HETATM    4  C4  UNL     1     -33.576   8.021   3.777  1.00 20.00     0.092 A 
HETATM    5  C5  UNL     1     -34.293   7.081   4.749  1.00 20.00     0.018 A 
HETATM    6  C6  UNL     1     -32.883   4.565   2.182  1.00 20.00     0.052 C 
HETATM    7  C7  UNL     1     -34.764   4.534   4.801  1.00 20.00     0.044 C 
HETATM    8  C8  UNL     1     -33.726   7.201   6.161  1.00 20.00     0.015 C 
HETATM    9  O9  UNL     1     -32.227   7.422   1.870  1.00 20.00    -0.293 OA
ENDROOT
TORSDOF 0
ENDMDL
MODEL 6
REMARK VINA RESULT:      -4.6      1.279      2.661
REMARK  0 active torsions:
REMARK  status: ('A' for Active; 'I' for Inactive)
ROOT
HETATM    1  C1  UNL     1     -33.443   7.036   4.803  1.00 20.00    -0.014 A 
HETATM    2  C2  UNL     1     -34.038   6.032   4.143  1.00 20.00    -0.070 A 
HETATM    3  C3  UNL     1     -32.458   7.605   3.863  1.00 20.00     0.156 A 
HETATM    4  C4  UNL     1     -32.424   6.857   2.564  1.00 20.00     0.092 A 
HETATM    5  C5  UNL     1     -33.551   5.835   2.725  1.00 20.00     0.018 A 
HETATM    6  C6  UNL     1     -33.621   7.568   6.173  1.00 20.00     0.052 C 
HETATM    7  C7  UNL     1     -35.086   5.113   4.683  1.00 20.00     0.044 C 
HETATM    8  C8  UNL     1     -34.651   6.050   1.687  1.00 20.00     0.015 C 
HETATM    9  O9  UNL     1     -31.746   8.564   4.127  1.00 20.00    -0.293 OA
ENDROOT
TORSDOF 0
ENDMDL
MODEL 7
REMARK VINA RESULT:      -4.4      1.902      2.889
REMARK  0 active torsions:
REMARK  status: ('A' for Active; 'I' for Inactive)
ROOT
HETATM    1  C1  UNL     1     -32.603   7.730   3.958  1.00 20.00    -0.014 A 
HETATM    2  C2  UNL     1     -33.467   6.960   4.634  1.00 20.00    -0.070 A 
HETATM    3  C3  UNL     1     -32.570   7.188   2.586  1.00 20.00     0.156 A 
HETATM    4  C4  UNL     1     -33.439   5.975   2.441  1.00 20.00     0.092 A 
HETATM    5  C5  UNL     1     -34.109   5.864   3.813  1.00 20.00     0.018 A 
HETATM    6  C6  UNL     1     -31.781   8.894   4.363  1.00 20.00     0.052 C 
HETATM    7  C7  UNL     1     -33.816   7.078   6.082  1.00 20.00     0.044 C 
HETATM    8  C8  UNL     1     -35.625   6.016   3.706  1.00 20.00     0.015 C 
HETATM    9  O9  UNL     1     -31.898   7.668   1.684  1.00 20.00    -0.293 OA
ENDROOT
TORSDOF 0
ENDMDL
MODEL 8
REMARK VINA RESULT:      -4.2     12.290     12.830
REMARK  0 active torsions:
REMARK  status: ('A' for Active; 'I' for Inactive)
ROOT
HETATM    1  C1  UNL     1     -33.789  18.348   0.179  1.00 20.00    -0.014 A 
HETATM    2  C2  UNL     1     -34.967  17.730   0.021  1.00 20.00    -0.070 A 
HETATM    3  C3  UNL     1     -33.006  18.035  -1.032  1.00 20.00     0.156 A 
HETATM    4  C4  UNL     1     -33.749  17.120  -1.960  1.00 20.00     0.092 A 
HETATM    5  C5  UNL     1     -35.113  16.974  -1.281  1.00 20.00     0.018 A 
HETATM    6  C6  UNL     1     -33.244  19.187   1.271  1.00 20.00     0.052 C 
HETATM    7  C7  UNL     1     -36.096  17.708   1.001  1.00 20.00     0.044 C 
HETATM    8  C8  UNL     1     -36.234  17.522  -2.160  1.00 20.00     0.015 C 
HETATM    9  O9  UNL     1     -31.878  18.460  -1.238  1.00 20.00    -0.293 OA
ENDROOT
TORSDOF 0
ENDMDL
MODEL 9
REMARK VINA RESULT:      -4.2     11.981     12.613
REMARK  0 active torsions:
REMARK  status: ('A' for Active; 'I' for Inactive)
ROOT
HETATM    1  C1  UNL     1     -35.422  14.549  -4.491  1.00 20.00    -0.014 A 
HETATM    2  C2  UNL     1     -35.984  15.656  -3.988  1.00 20.00    -0.070 A 
HETATM    3  C3  UNL     1     -33.990  14.632  -4.144  1.00 20.00     0.156 A 
HETATM    4  C4  UNL     1     -33.660  15.907  -3.426  1.00 20.00     0.092 A 
HETATM    5  C5  UNL     1     -35.029  16.569  -3.251  1.00 20.00     0.018 A 
HETATM    6  C6  UNL     1     -35.980  13.408  -5.254  1.00 20.00     0.052 C 
HETATM    7  C7  UNL     1     -37.418  16.058  -4.112  1.00 20.00     0.044 C 
HETATM    8  C8  UNL     1     -35.385  16.730  -1.775  1.00 20.00     0.015 C 
HETATM    9  O9  UNL     1     -33.172  13.768  -4.428  1.00 20.00    -0.293 OA
ENDROOT
TORSDOF 0
ENDMDL
