MODEL 1
REMARK VINA RESULT:      -4.7      0.000      0.000
REMARK  4 active torsions:
REMARK  status: ('A' for Active; 'I' for Inactive)
REMARK    1  A    between atoms: C2_2  and  C7_7 
REMARK    2  A    between atoms: C7_7  and  C9_9 
REMARK    3  A    between atoms: C8_8  and  C9_9 
REMARK    4  A    between atoms: C9_9  and  O10_10 
ROOT
HETATM    1  C6  UNL     1     -34.222   6.462   1.712  1.00 20.00     0.047 C 
HETATM    2  C9  UNL     1     -33.408   6.846   2.964  1.00 20.00     0.064 C 
ENDROOT
BRANCH   2   3
HETATM    3  C7  UNL     1     -34.324   6.823   4.243  1.00 20.00     0.037 C 
HETATM    4  C3  UNL     1     -33.613   7.283   5.526  1.00 20.00     0.017 C 
BRANCH   3   5
HETATM    5  C2  UNL     1     -34.899   5.448   4.520  1.00 20.00    -0.030 C 
HETATM    6  C1  UNL     1     -34.610   4.717   5.603  1.00 20.00     0.007 C 
ENDBRANCH   3   5
ENDBRANCH   2   3
BRANCH   2   7
HETATM    7  C8  UNL     1     -32.674   8.220   2.771  1.00 20.00     0.012 C 
HETATM    8  C4  UNL     1     -31.267   8.249   3.391  1.00 20.00     0.012 C 
HETATM    9  C5  UNL     1     -32.580   8.675   1.310  1.00 20.00     0.012 C 
ENDBRANCH   2   7
BRANCH   2  10
HETATM   10  O10 UNL     1     -32.384   5.850   3.121  1.00 20.00    -0.389 OA
HETATM   11  H28 UNL     1     -31.562   6.268   2.832  1.00 20.00     0.210 HD
ENDBRANCH   2  10
TORSDOF 4
ENDMDL
MODEL 2
REMARK VINA RESULT:      -4.5      1.225      4.270
REMARK  4 active torsions:
REMARK  status: ('A' for Active; 'I' for Inactive)
REMARK    1  A    between atoms: C2_2  and  C7_7 
REMARK    2  A    between atoms: C7_7  and  C9_9 
REMARK    3  A    between atoms: C8_8  and  C9_9 
REMARK    4  A    between atoms: C9_9  and  O10_10 
ROOT
HETATM    1  C6  UNL     1     -31.395   8.163   3.808  1.00 20.00     0.047 C 
HETATM    2  C9  UNL     1     -32.532   7.523   2.987  1.00 20.00     0.064 C 
ENDROOT
BRANCH   2   3
HETATM    3  C7  UNL     1     -32.754   8.313   1.645  1.00 20.00     0.037 C 
HETATM    4  C3  UNL     1     -31.504   8.389   0.753  1.00 20.00     0.017 C 
BRANCH   3   5
HETATM    5  C2  UNL     1     -33.222   9.736   1.881  1.00 20.00    -0.030 C 
HETATM    6  C1  UNL     1     -32.627  10.817   1.364  1.00 20.00     0.007 C 
ENDBRANCH   3   5
ENDBRANCH   2   3
BRANCH   2   7
HETATM    7  C8  UNL     1     -33.846   7.390   3.835  1.00 20.00     0.012 C 
HETATM    8  C4  UNL     1     -34.676   6.144   3.479  1.00 20.00     0.012 C 
HETATM    9  C5  UNL     1     -33.614   7.411   5.350  1.00 20.00     0.012 C 
ENDBRANCH   2   7
BRANCH   2  10
HETATM   10  O10 UNL     1     -32.115   6.186   2.661  1.00 20.00    -0.389 OA
HETATM   11  H28 UNL     1     -32.560   5.965   1.832  1.00 20.00     0.210 HD
ENDBRANCH   2  10
TORSDOF 4
ENDMDL
MODEL 3
REMARK VINA RESULT:      -4.4      1.236      3.831
REMARK  4 active torsions:
REMARK  status: ('A' for Active; 'I' for Inactive)
REMARK    1  A    between atoms: C2_2  and  C7_7 
REMARK    2  A    between atoms: C7_7  and  C9_9 
REMARK    3  A    between atoms: C8_8  and  C9_9 
REMARK    4  A    between atoms: C9_9  and  O10_10 
ROOT
HETATM    1  C6  UNL     1     -34.177   5.816   2.554  1.00 20.00     0.047 C 
HETATM    2  C9  UNL     1     -33.605   6.863   3.530  1.00 20.00     0.064 C 
ENDROOT
BRANCH   2   3
HETATM    3  C7  UNL     1     -32.206   7.378   3.026  1.00 20.00     0.037 C 
HETATM    4  C3  UNL     1     -31.535   8.385   3.974  1.00 20.00     0.017 C 
BRANCH   3   5
HETATM    5  C2  UNL     1     -32.286   8.034   1.662  1.00 20.00    -0.030 C 
HETATM    6  C1  UNL     1     -32.193   9.352   1.456  1.00 20.00     0.007 C 
ENDBRANCH   3   5
ENDBRANCH   2   3
BRANCH   2   7
HETATM    7  C8  UNL     1     -33.551   6.309   4.998  1.00 20.00     0.012 C 
HETATM    8  C4  UNL     1     -33.834   7.382   6.063  1.00 20.00     0.012 C 
HETATM    9  C5  UNL     1     -34.477   5.112   5.245  1.00 20.00     0.012 C 
ENDBRANCH   2   7
BRANCH   2  10
HETATM   10  O10 UNL     1     -34.519   7.972   3.541  1.00 20.00    -0.389 OA
HETATM   11  H28 UNL     1     -34.723   8.137   4.471  1.00 20.00     0.210 HD
ENDBRANCH   2  10
TORSDOF 4
ENDMDL
MODEL 4
REMARK VINA RESULT:      -4.3      1.297      2.353
REMARK  4 active torsions:
REMARK  status: ('A' for Active; 'I' for Inactive)
REMARK    1  A    between atoms: C2_2  and  C7_7 
REMARK    2  A    between atoms: C7_7  and  C9_9 
REMARK    3  A    between atoms: C8_8  and  C9_9 
REMARK    4  A    between atoms: C9_9  and  O10_10 
ROOT
HETATM    1  C6  UNL     1     -33.234   7.636   5.252  1.00 20.00     0.047 C 
HETATM    2  C9  UNL     1     -33.301   7.089   3.812  1.00 20.00     0.064 C 
ENDROOT
BRANCH   2   3
HETATM    3  C7  UNL     1     -33.322   5.516   3.821  1.00 20.00     0.037 C 
HETATM    4  C3  UNL     1     -33.109   4.882   2.437  1.00 20.00     0.017 C 
BRANCH   3   5
HETATM    5  C2  UNL     1     -34.617   4.956   4.375  1.00 20.00    -0.030 C 
HETATM    6  C1  UNL     1     -34.808   4.635   5.659  1.00 20.00     0.007 C 
ENDBRANCH   3   5
ENDBRANCH   2   3
BRANCH   2   7
HETATM    7  C8  UNL     1     -32.145   7.673   2.924  1.00 20.00     0.012 C 
HETATM    8  C4  UNL     1     -32.652   8.558   1.773  1.00 20.00     0.012 C 
HETATM    9  C5  UNL     1     -31.085   8.449   3.714  1.00 20.00     0.012 C 
ENDBRANCH   2   7
BRANCH   2  10
HETATM   10  O10 UNL     1     -34.535   7.556   3.241  1.00 20.00    -0.389 OA
HETATM   11  H28 UNL     1     -35.019   6.763   2.974  1.00 20.00     0.210 HD
ENDBRANCH   2  10
TORSDOF 4
ENDMDL
MODEL 5
REMARK VINA RESULT:      -4.3     10.929     12.030
REMARK  4 active torsions:
REMARK  status: ('A' for Active; 'I' for Inactive)
REMARK    1  A    between atoms: C2_2  and  C7_7 
REMARK    2  A    between atoms: C7_7  and  C9_9 
REMARK    3  A    between atoms: C8_8  and  C9_9 
REMARK    4  A    between atoms: C9_9  and  O10_10 
ROOT
HETATM    1  C6  UNL     1     -37.429  14.497  -4.925  1.00 20.00     0.047 C 
HETATM    2  C9  UNL     1     -35.963  14.067  -5.133  1.00 20.00     0.064 C 
ENDROOT
BRANCH   2   3
HETATM    3  C7  UNL     1     -35.043  14.694  -4.022  1.00 20.00     0.037 C 
HETATM    4  C3  UNL     1     -35.584  16.009  -3.435  1.00 20.00     0.017 C 
BRANCH   3   5
HETATM    5  C2  UNL     1     -33.639  14.971  -4.519  1.00 20.00    -0.030 C 
HETATM    6  C1  UNL     1     -32.579  14.204  -4.240  1.00 20.00     0.007 C 
ENDBRANCH   3   5
ENDBRANCH   2   3
BRANCH   2   7
HETATM    7  C8  UNL     1     -35.470  14.400  -6.585  1.00 20.00     0.012 C 
HETATM    8  C4  UNL     1     -35.135  13.149  -7.415  1.00 20.00     0.012 C 
HETATM    9  C5  UNL     1     -36.439  15.278  -7.385  1.00 20.00     0.012 C 
ENDBRANCH   2   7
BRANCH   2  10
HETATM   10  O10 UNL     1     -35.921  12.636  -5.001  1.00 20.00    -0.389 OA
HETATM   11  H28 UNL     1     -35.914  12.288  -5.903  1.00 20.00     0.210 HD
ENDBRANCH   2  10
TORSDOF 4
ENDMDL
MODEL 6
REMARK VINA RESULT:      -4.3     10.834     12.184
REMARK  4 active torsions:
REMARK  status: ('A' for Active; 'I' for Inactive)
REMARK    1  A    between atoms: C2_2  and  C7_7 
REMARK    2  A    between atoms: C7_7  and  C9_9 
REMARK    3  A    between atoms: C8_8  and  C9_9 
REMARK    4  A    between atoms: C9_9  and  O10_10 
ROOT
HETATM    1  C6  UNL     1     -37.686  14.444  -4.942  1.00 20.00     0.047 C 
HETATM    2  C9  UNL     1     -36.255  14.089  -5.391  1.00 20.00     0.064 C 
ENDROOT
BRANCH   2   3
HETATM    3  C7  UNL     1     -35.208  15.025  -4.682  1.00 20.00     0.037 C 
HETATM    4  C3  UNL     1     -34.025  14.272  -4.053  1.00 20.00     0.017 C 
BRANCH   3   5
HETATM    5  C2  UNL     1     -35.831  15.870  -3.590  1.00 20.00    -0.030 C 
HETATM    6  C1  UNL     1     -35.152  16.385  -2.558  1.00 20.00     0.007 C 
ENDBRANCH   3   5
ENDBRANCH   2   3
BRANCH   2   7
HETATM    7  C8  UNL     1     -36.123  14.111  -6.956  1.00 20.00     0.012 C 
HETATM    8  C4  UNL     1     -36.063  15.533  -7.540  1.00 20.00     0.012 C 
HETATM    9  C5  UNL     1     -34.934  13.306  -7.492  1.00 20.00     0.012 C 
ENDBRANCH   2   7
BRANCH   2  10
HETATM   10  O10 UNL     1     -36.007  12.736  -4.976  1.00 20.00    -0.389 OA
HETATM   11  H28 UNL     1     -36.707  12.521  -4.345  1.00 20.00     0.210 HD
ENDBRANCH   2  10
TORSDOF 4
ENDMDL
MODEL 7
REMARK VINA RESULT:      -4.3     10.855     12.699
REMARK  4 active torsions:
REMARK  status: ('A' for Active; 'I' for Inactive)
REMARK    1  A    between atoms: C2_2  and  C7_7 
REMARK    2  A    between atoms: C7_7  and  C9_9 
REMARK    3  A    between atoms: C8_8  and  C9_9 
REMARK    4  A    between atoms: C9_9  and  O10_10 
ROOT
HETATM    1  C6  UNL     1     -34.448  14.249  -4.079  1.00 20.00     0.047 C 
HETATM    2  C9  UNL     1     -35.617  14.015  -5.056  1.00 20.00     0.064 C 
ENDROOT
BRANCH   2   3
HETATM    3  C7  UNL     1     -35.196  14.406  -6.520  1.00 20.00     0.037 C 
HETATM    4  C3  UNL     1     -35.010  13.202  -7.457  1.00 20.00     0.017 C 
BRANCH   3   5
HETATM    5  C2  UNL     1     -33.909  15.206  -6.560  1.00 20.00    -0.030 C 
HETATM    6  C1  UNL     1     -33.821  16.466  -7.000  1.00 20.00     0.007 C 
ENDBRANCH   3   5
ENDBRANCH   2   3
BRANCH   2   7
HETATM    7  C8  UNL     1     -36.917  14.758  -4.582  1.00 20.00     0.012 C 
HETATM    8  C4  UNL     1     -36.639  16.151  -3.992  1.00 20.00     0.012 C 
HETATM    9  C5  UNL     1     -37.990  14.887  -5.669  1.00 20.00     0.012 C 
ENDBRANCH   2   7
BRANCH   2  10
HETATM   10  O10 UNL     1     -35.913  12.609  -5.030  1.00 20.00    -0.389 OA
HETATM   11  H28 UNL     1     -35.446  12.227  -5.785  1.00 20.00     0.210 HD
ENDBRANCH   2  10
TORSDOF 4
ENDMDL
MODEL 8
REMARK VINA RESULT:      -4.3     11.144     11.935
REMARK  4 active torsions:
REMARK  status: ('A' for Active; 'I' for Inactive)
REMARK    1  A    between atoms: C2_2  and  C7_7 
REMARK    2  A    between atoms: C7_7  and  C9_9 
REMARK    3  A    between atoms: C8_8  and  C9_9 
REMARK    4  A    between atoms: C9_9  and  O10_10 
ROOT
HETATM    1  C6  UNL     1     -34.914  17.083  -4.561  1.00 20.00     0.047 C 
HETATM    2  C9  UNL     1     -35.162  16.043  -3.451  1.00 20.00     0.064 C 
ENDROOT
BRANCH   2   3
HETATM    3  C7  UNL     1     -34.509  16.516  -2.100  1.00 20.00     0.037 C 
HETATM    4  C3  UNL     1     -35.515  17.097  -1.093  1.00 20.00     0.017 C 
BRANCH   3   5
HETATM    5  C2  UNL     1     -33.432  17.560  -2.309  1.00 20.00    -0.030 C 
HETATM    6  C1  UNL     1     -32.729  18.123  -1.320  1.00 20.00     0.007 C 
ENDBRANCH   3   5
ENDBRANCH   2   3
BRANCH   2   7
HETATM    7  C8  UNL     1     -34.681  14.614  -3.887  1.00 20.00     0.012 C 
HETATM    8  C4  UNL     1     -35.636  13.930  -4.881  1.00 20.00     0.012 C 
HETATM    9  C5  UNL     1     -33.262  14.585  -4.466  1.00 20.00     0.012 C 
ENDBRANCH   2   7
BRANCH   2  10
HETATM   10  O10 UNL     1     -36.585  15.960  -3.262  1.00 20.00    -0.389 OA
HETATM   11  H28 UNL     1     -36.736  16.122  -2.321  1.00 20.00     0.210 HD
ENDBRANCH   2  10
TORSDOF 4
ENDMDL
MODEL 9
REMARK VINA RESULT:      -4.2     10.940     12.425
REMARK  4 active torsions:
REMARK  status: ('A' for Active; 'I' for Inactive)
REMARK    1  A    between atoms: C2_2  and  C7_7 
REMARK    2  A    between atoms: C7_7  and  C9_9 
REMARK    3  A    between atoms: C8_8  and  C9_9 
REMARK    4  A    between atoms: C9_9  and  O10_10 
ROOT
HETATM    1  C6  UNL     1     -34.585  13.846  -6.604  1.00 20.00     0.047 C 
HETATM    2  C9  UNL     1     -35.384  13.992  -5.294  1.00 20.00     0.064 C 
ENDROOT
BRANCH   2   3
HETATM    3  C7  UNL     1     -36.567  15.012  -5.482  1.00 20.00     0.037 C 
HETATM    4  C3  UNL     1     -37.961  14.389  -5.298  1.00 20.00     0.017 C 
BRANCH   3   5
HETATM    5  C2  UNL     1     -36.551  15.675  -6.845  1.00 20.00    -0.030 C 
HETATM    6  C1  UNL     1     -36.546  16.999  -7.036  1.00 20.00     0.007 C 
ENDBRANCH   3   5
ENDBRANCH   2   3
BRANCH   2   7
HETATM    7  C8  UNL     1     -34.447  14.369  -4.092  1.00 20.00     0.012 C 
HETATM    8  C4  UNL     1     -32.965  14.479  -4.489  1.00 20.00     0.012 C 
HETATM    9  C5  UNL     1     -34.858  15.652  -3.361  1.00 20.00     0.012 C 
ENDBRANCH   2   7
BRANCH   2  10
HETATM   10  O10 UNL     1     -35.941  12.702  -4.993  1.00 20.00    -0.389 OA
HETATM   11  H28 UNL     1     -35.915  12.621  -4.030  1.00 20.00     0.210 HD
ENDBRANCH   2  10
TORSDOF 4
ENDMDL
