MODEL 1
REMARK VINA RESULT:      -4.2      0.000      0.000
REMARK  1 active torsions:
REMARK  status: ('A' for Active; 'I' for Inactive)
REMARK    1  A    between atoms: C2_2  and  O3_3 
ROOT
HETATM    1  C2  UNL     1     -34.701   5.488   4.559  1.00 20.00     0.524 C 
HETATM    2  F4  UNL     1     -35.005   5.200   5.842  1.00 20.00    -0.144 F 
HETATM    3  F5  UNL     1     -35.844   5.778   3.902  1.00 20.00    -0.144 F 
HETATM    4  F6  UNL     1     -34.130   4.400   4.001  1.00 20.00    -0.144 F 
ENDROOT
BRANCH   1   5
HETATM    5  O3  UNL     1     -33.812   6.591   4.529  1.00 20.00    -0.303 OA
HETATM    6  C1  UNL     1     -33.736   7.252   5.785  1.00 20.00     0.211 C 
ENDBRANCH   1   5
TORSDOF 1
ENDMDL
MODEL 2
REMARK VINA RESULT:      -4.2      0.019      1.548
REMARK  1 active torsions:
REMARK  status: ('A' for Active; 'I' for Inactive)
REMARK    1  A    between atoms: C2_2  and  O3_3 
ROOT
HETATM    1  C2  UNL     1     -34.693   5.474   4.576  1.00 20.00     0.524 C 
HETATM    2  F4  UNL     1     -35.831   5.774   3.914  1.00 20.00    -0.144 F 
HETATM    3  F5  UNL     1     -34.125   4.401   3.989  1.00 20.00    -0.144 F 
HETATM    4  F6  UNL     1     -35.009   5.170   5.853  1.00 20.00    -0.144 F 
ENDROOT
BRANCH   1   5
HETATM    5  O3  UNL     1     -33.822   6.591   4.529  1.00 20.00    -0.303 OA
HETATM    6  C1  UNL     1     -33.732   7.255   5.782  1.00 20.00     0.211 C 
ENDBRANCH   1   5
TORSDOF 1
ENDMDL
MODEL 3
REMARK VINA RESULT:      -4.2      1.036      1.150
REMARK  1 active torsions:
REMARK  status: ('A' for Active; 'I' for Inactive)
REMARK    1  A    between atoms: C2_2  and  O3_3 
ROOT
HETATM    1  C2  UNL     1     -34.629   5.365   4.464  1.00 20.00     0.524 C 
HETATM    2  F4  UNL     1     -34.647   4.017   4.527  1.00 20.00    -0.144 F 
HETATM    3  F5  UNL     1     -35.795   5.786   3.933  1.00 20.00    -0.144 F 
HETATM    4  F6  UNL     1     -33.611   5.741   3.661  1.00 20.00    -0.144 F 
ENDROOT
BRANCH   1   5
HETATM    5  O3  UNL     1     -34.455   5.887   5.771  1.00 20.00    -0.303 OA
HETATM    6  C1  UNL     1     -33.806   7.151   5.761  1.00 20.00     0.211 C 
ENDBRANCH   1   5
TORSDOF 1
ENDMDL
MODEL 4
REMARK VINA RESULT:      -4.2      0.022      1.555
REMARK  1 active torsions:
REMARK  status: ('A' for Active; 'I' for Inactive)
REMARK    1  A    between atoms: C2_2  and  O3_3 
ROOT
HETATM    1  C2  UNL     1     -34.705   5.495   4.571  1.00 20.00     0.524 C 
HETATM    2  F4  UNL     1     -34.115   4.431   3.985  1.00 20.00    -0.144 F 
HETATM    3  F5  UNL     1     -35.006   5.170   5.846  1.00 20.00    -0.144 F 
HETATM    4  F6  UNL     1     -35.842   5.776   3.901  1.00 20.00    -0.144 F 
ENDROOT
BRANCH   1   5
HETATM    5  O3  UNL     1     -33.814   6.597   4.532  1.00 20.00    -0.303 OA
HETATM    6  C1  UNL     1     -33.727   7.261   5.786  1.00 20.00     0.211 C 
ENDBRANCH   1   5
TORSDOF 1
ENDMDL
MODEL 5
REMARK VINA RESULT:      -4.2      1.044      1.783
REMARK  1 active torsions:
REMARK  status: ('A' for Active; 'I' for Inactive)
REMARK    1  A    between atoms: C2_2  and  O3_3 
ROOT
HETATM    1  C2  UNL     1     -34.630   5.356   4.471  1.00 20.00     0.524 C 
HETATM    2  F4  UNL     1     -33.612   5.774   3.689  1.00 20.00    -0.144 F 
HETATM    3  F5  UNL     1     -34.624   4.007   4.498  1.00 20.00    -0.144 F 
HETATM    4  F6  UNL     1     -35.789   5.787   3.930  1.00 20.00    -0.144 F 
ENDROOT
BRANCH   1   5
HETATM    5  O3  UNL     1     -34.458   5.884   5.775  1.00 20.00    -0.303 OA
HETATM    6  C1  UNL     1     -33.813   7.150   5.760  1.00 20.00     0.211 C 
ENDBRANCH   1   5
TORSDOF 1
ENDMDL
MODEL 6
REMARK VINA RESULT:      -4.0      1.021      1.998
REMARK  1 active torsions:
REMARK  status: ('A' for Active; 'I' for Inactive)
REMARK    1  A    between atoms: C2_2  and  O3_3 
ROOT
HETATM    1  C2  UNL     1     -34.724   5.391   4.530  1.00 20.00     0.524 C 
HETATM    2  F4  UNL     1     -35.865   5.754   3.906  1.00 20.00    -0.144 F 
HETATM    3  F5  UNL     1     -34.343   4.185   4.061  1.00 20.00    -0.144 F 
HETATM    4  F6  UNL     1     -34.972   5.298   5.853  1.00 20.00    -0.144 F 
ENDROOT
BRANCH   1   5
HETATM    5  O3  UNL     1     -33.727   6.366   4.274  1.00 20.00    -0.303 OA
HETATM    6  C1  UNL     1     -33.254   6.309   2.935  1.00 20.00     0.211 C 
ENDBRANCH   1   5
TORSDOF 1
ENDMDL
MODEL 7
REMARK VINA RESULT:      -4.0      1.148      1.753
REMARK  1 active torsions:
REMARK  status: ('A' for Active; 'I' for Inactive)
REMARK    1  A    between atoms: C2_2  and  O3_3 
ROOT
HETATM    1  C2  UNL     1     -34.776   5.512   4.398  1.00 20.00     0.524 C 
HETATM    2  F4  UNL     1     -34.788   4.177   4.596  1.00 20.00    -0.144 F 
HETATM    3  F5  UNL     1     -34.687   6.124   5.597  1.00 20.00    -0.144 F 
HETATM    4  F6  UNL     1     -35.935   5.865   3.802  1.00 20.00    -0.144 F 
ENDROOT
BRANCH   1   5
HETATM    5  O3  UNL     1     -33.669   5.849   3.580  1.00 20.00    -0.303 OA
HETATM    6  C1  UNL     1     -33.307   7.217   3.704  1.00 20.00     0.211 C 
ENDBRANCH   1   5
TORSDOF 1
ENDMDL
MODEL 8
REMARK VINA RESULT:      -3.7      1.948      2.209
REMARK  1 active torsions:
REMARK  status: ('A' for Active; 'I' for Inactive)
REMARK    1  A    between atoms: C2_2  and  O3_3 
ROOT
HETATM    1  C2  UNL     1     -34.686   5.942   3.596  1.00 20.00     0.524 C 
HETATM    2  F4  UNL     1     -34.201   7.016   4.254  1.00 20.00    -0.144 F 
HETATM    3  F5  UNL     1     -34.165   5.931   2.351  1.00 20.00    -0.144 F 
HETATM    4  F6  UNL     1     -36.028   6.060   3.517  1.00 20.00    -0.144 F 
ENDROOT
BRANCH   1   5
HETATM    5  O3  UNL     1     -34.327   4.766   4.300  1.00 20.00    -0.303 OA
HETATM    6  C1  UNL     1     -34.531   4.897   5.701  1.00 20.00     0.211 C 
ENDBRANCH   1   5
TORSDOF 1
ENDMDL
MODEL 9
REMARK VINA RESULT:      -3.7      2.488      2.844
REMARK  1 active torsions:
REMARK  status: ('A' for Active; 'I' for Inactive)
REMARK    1  A    between atoms: C2_2  and  O3_3 
ROOT
HETATM    1  C2  UNL     1     -33.423   5.749   2.934  1.00 20.00     0.524 C 
HETATM    2  F4  UNL     1     -34.294   6.074   1.955  1.00 20.00    -0.144 F 
HETATM    3  F5  UNL     1     -32.440   6.673   2.957  1.00 20.00    -0.144 F 
HETATM    4  F6  UNL     1     -32.894   4.540   2.651  1.00 20.00    -0.144 F 
ENDROOT
BRANCH   1   5
HETATM    5  O3  UNL     1     -34.110   5.718   4.173  1.00 20.00    -0.303 OA
HETATM    6  C1  UNL     1     -34.463   4.395   4.557  1.00 20.00     0.211 C 
ENDBRANCH   1   5
TORSDOF 1
ENDMDL
