MODEL 1
REMARK VINA RESULT:      -5.0      0.000      0.000
REMARK  2 active torsions:
REMARK  status: ('A' for Active; 'I' for Inactive)
REMARK    1  A    between atoms: C1_1  and  C5_5 
REMARK    2  A    between atoms: C2_2  and  C6_6 
ROOT
HETATM    1  C1  UNL     1     -33.364   7.431   3.134  1.00 20.00    -0.063 C 
HETATM    2  C2  UNL     1     -32.893   8.143   2.289  1.00 20.00    -0.063 C 
ENDROOT
BRANCH   1   3
HETATM    3  C5  UNL     1     -33.925   6.583   4.142  1.00 20.00     0.141 A 
HETATM    4  C3  UNL     1     -34.132   5.120   3.833  1.00 20.00     0.221 A 
HETATM    5  O9  UNL     1     -35.212   6.061   3.783  1.00 20.00    -0.362 OA
HETATM    6  C7  UNL     1     -33.837   7.033   5.563  1.00 20.00     0.063 C 
ENDBRANCH   1   3
BRANCH   2   7
HETATM    7  C6  UNL     1     -32.320   9.008   1.259  1.00 20.00     0.141 A 
HETATM    8  C4  UNL     1     -32.768  10.434   1.215  1.00 20.00     0.221 A 
HETATM    9  O10 UNL     1     -33.302   9.444   0.326  1.00 20.00    -0.362 OA
HETATM   10  C8  UNL     1     -31.033   8.581   0.667  1.00 20.00     0.063 C 
ENDBRANCH   2   7
TORSDOF 2
ENDMDL
MODEL 2
REMARK VINA RESULT:      -5.0      0.039      4.829
REMARK  2 active torsions:
REMARK  status: ('A' for Active; 'I' for Inactive)
REMARK    1  A    between atoms: C1_1  and  C5_5 
REMARK    2  A    between atoms: C2_2  and  C6_6 
ROOT
HETATM    1  C1  UNL     1     -32.870   8.164   2.288  1.00 20.00    -0.063 C 
HETATM    2  C2  UNL     1     -33.340   7.454   3.134  1.00 20.00    -0.063 C 
ENDROOT
BRANCH   1   3
HETATM    3  C5  UNL     1     -32.310   9.012   1.279  1.00 20.00     0.141 A 
HETATM    4  C3  UNL     1     -32.729  10.461   1.228  1.00 20.00     0.221 A 
HETATM    5  O9  UNL     1     -33.284   9.483   0.339  1.00 20.00    -0.362 OA
HETATM    6  C7  UNL     1     -31.022   8.591   0.650  1.00 20.00     0.063 C 
ENDBRANCH   1   3
BRANCH   2   7
HETATM    7  C6  UNL     1     -33.912   6.588   4.166  1.00 20.00     0.141 A 
HETATM    8  C4  UNL     1     -34.076   5.136   3.849  1.00 20.00     0.221 A 
HETATM    9  O10 UNL     1     -35.172   6.057   3.772  1.00 20.00    -0.362 OA
HETATM   10  C8  UNL     1     -33.840   7.074   5.561  1.00 20.00     0.063 C 
ENDBRANCH   2   7
TORSDOF 2
ENDMDL
MODEL 3
REMARK VINA RESULT:      -4.9      0.891      1.309
REMARK  2 active torsions:
REMARK  status: ('A' for Active; 'I' for Inactive)
REMARK    1  A    between atoms: C1_1  and  C5_5 
REMARK    2  A    between atoms: C2_2  and  C6_6 
ROOT
HETATM    1  C1  UNL     1     -33.365   7.587   3.001  1.00 20.00    -0.063 C 
HETATM    2  C2  UNL     1     -32.984   8.362   2.167  1.00 20.00    -0.063 C 
ENDROOT
BRANCH   1   3
HETATM    3  C5  UNL     1     -33.817   6.661   3.996  1.00 20.00     0.141 A 
HETATM    4  C3  UNL     1     -33.883   5.193   3.651  1.00 20.00     0.221 A 
HETATM    5  O9  UNL     1     -35.052   6.022   3.646  1.00 20.00    -0.362 OA
HETATM    6  C7  UNL     1     -33.745   7.083   5.427  1.00 20.00     0.063 C 
ENDBRANCH   1   3
BRANCH   2   7
HETATM    7  C6  UNL     1     -32.522   9.308   1.152  1.00 20.00     0.141 A 
HETATM    8  C4  UNL     1     -32.532   8.863  -0.276  1.00 20.00     0.221 A 
HETATM    9  O10 UNL     1     -31.333   8.859   0.512  1.00 20.00    -0.362 OA
HETATM   10  C8  UNL     1     -32.539  10.742   1.517  1.00 20.00     0.063 C 
ENDBRANCH   2   7
TORSDOF 2
ENDMDL
MODEL 4
REMARK VINA RESULT:      -4.9      0.892      4.775
REMARK  2 active torsions:
REMARK  status: ('A' for Active; 'I' for Inactive)
REMARK    1  A    between atoms: C1_1  and  C5_5 
REMARK    2  A    between atoms: C2_2  and  C6_6 
ROOT
HETATM    1  C1  UNL     1     -32.981   8.382   2.151  1.00 20.00    -0.063 C 
HETATM    2  C2  UNL     1     -33.356   7.600   2.981  1.00 20.00    -0.063 C 
ENDROOT
BRANCH   1   3
HETATM    3  C5  UNL     1     -32.533   9.314   1.160  1.00 20.00     0.141 A 
HETATM    4  C3  UNL     1     -32.578   8.913  -0.294  1.00 20.00     0.221 A 
HETATM    5  O9  UNL     1     -31.361   8.872   0.463  1.00 20.00    -0.362 OA
HETATM    6  C7  UNL     1     -32.502  10.762   1.527  1.00 20.00     0.063 C 
ENDBRANCH   1   3
BRANCH   2   7
HETATM    7  C6  UNL     1     -33.814   6.647   3.992  1.00 20.00     0.141 A 
HETATM    8  C4  UNL     1     -33.867   5.201   3.618  1.00 20.00     0.221 A 
HETATM    9  O10 UNL     1     -35.039   6.027   3.619  1.00 20.00    -0.362 OA
HETATM   10  C8  UNL     1     -33.730   7.081   5.404  1.00 20.00     0.063 C 
ENDBRANCH   2   7
TORSDOF 2
ENDMDL
MODEL 5
REMARK VINA RESULT:      -4.4      1.361      4.719
REMARK  2 active torsions:
REMARK  status: ('A' for Active; 'I' for Inactive)
REMARK    1  A    between atoms: C1_1  and  C5_5 
REMARK    2  A    between atoms: C2_2  and  C6_6 
ROOT
HETATM    1  C1  UNL     1     -33.013   8.204   1.847  1.00 20.00    -0.063 C 
HETATM    2  C2  UNL     1     -33.319   7.230   2.478  1.00 20.00    -0.063 C 
ENDROOT
BRANCH   1   3
HETATM    3  C5  UNL     1     -32.647   9.366   1.095  1.00 20.00     0.141 A 
HETATM    4  C3  UNL     1     -32.711   9.310  -0.413  1.00 20.00     0.221 A 
HETATM    5  O9  UNL     1     -31.473   9.170   0.296  1.00 20.00    -0.362 OA
HETATM    6  C7  UNL     1     -32.687  10.689   1.788  1.00 20.00     0.063 C 
ENDBRANCH   1   3
BRANCH   2   7
HETATM    7  C6  UNL     1     -33.694   6.042   3.246  1.00 20.00     0.141 A 
HETATM    8  C4  UNL     1     -35.021   6.043   3.934  1.00 20.00     0.221 A 
HETATM    9  O10 UNL     1     -33.803   6.324   4.637  1.00 20.00    -0.362 OA
HETATM   10  C8  UNL     1     -32.995   4.782   2.911  1.00 20.00     0.063 C 
ENDBRANCH   2   7
TORSDOF 2
ENDMDL
MODEL 6
REMARK VINA RESULT:      -4.4      1.365      1.875
REMARK  2 active torsions:
REMARK  status: ('A' for Active; 'I' for Inactive)
REMARK    1  A    between atoms: C1_1  and  C5_5 
REMARK    2  A    between atoms: C2_2  and  C6_6 
ROOT
HETATM    1  C1  UNL     1     -33.318   7.231   2.479  1.00 20.00    -0.063 C 
HETATM    2  C2  UNL     1     -33.014   8.206   1.847  1.00 20.00    -0.063 C 
ENDROOT
BRANCH   1   3
HETATM    3  C5  UNL     1     -33.679   6.069   3.233  1.00 20.00     0.141 A 
HETATM    4  C3  UNL     1     -35.015   6.041   3.935  1.00 20.00     0.221 A 
HETATM    5  O9  UNL     1     -33.799   6.327   4.638  1.00 20.00    -0.362 OA
HETATM    6  C7  UNL     1     -32.983   4.786   2.916  1.00 20.00     0.063 C 
ENDBRANCH   1   3
BRANCH   2   7
HETATM    7  C6  UNL     1     -32.644   9.393   1.076  1.00 20.00     0.141 A 
HETATM    8  C4  UNL     1     -32.713   9.309  -0.415  1.00 20.00     0.221 A 
HETATM    9  O10 UNL     1     -31.475   9.174   0.296  1.00 20.00    -0.362 OA
HETATM   10  C8  UNL     1     -32.697  10.692   1.784  1.00 20.00     0.063 C 
ENDBRANCH   2   7
TORSDOF 2
ENDMDL
MODEL 7
REMARK VINA RESULT:      -4.1      9.874     10.990
REMARK  2 active torsions:
REMARK  status: ('A' for Active; 'I' for Inactive)
REMARK    1  A    between atoms: C1_1  and  C5_5 
REMARK    2  A    between atoms: C2_2  and  C6_6 
ROOT
HETATM    1  C1  UNL     1     -33.637  16.947  -2.598  1.00 20.00    -0.063 C 
HETATM    2  C2  UNL     1     -33.711  16.153  -3.496  1.00 20.00    -0.063 C 
ENDROOT
BRANCH   1   3
HETATM    3  C5  UNL     1     -33.549  17.894  -1.528  1.00 20.00     0.141 A 
HETATM    4  C3  UNL     1     -32.979  19.263  -1.809  1.00 20.00     0.221 A 
HETATM    5  O9  UNL     1     -32.198  18.233  -1.189  1.00 20.00    -0.362 OA
HETATM    6  C7  UNL     1     -34.432  17.691  -0.340  1.00 20.00     0.063 C 
ENDBRANCH   1   3
BRANCH   2   7
HETATM    7  C6  UNL     1     -33.801  15.186  -4.590  1.00 20.00     0.141 A 
HETATM    8  C4  UNL     1     -34.827  14.104  -4.484  1.00 20.00     0.221 A 
HETATM    9  O10 UNL     1     -33.448  13.874  -4.167  1.00 20.00    -0.362 OA
HETATM   10  C8  UNL     1     -33.243  15.601  -5.896  1.00 20.00     0.063 C 
ENDBRANCH   2   7
TORSDOF 2
ENDMDL
MODEL 8
REMARK VINA RESULT:      -4.1      9.862     10.970
REMARK  2 active torsions:
REMARK  status: ('A' for Active; 'I' for Inactive)
REMARK    1  A    between atoms: C1_1  and  C5_5 
REMARK    2  A    between atoms: C2_2  and  C6_6 
ROOT
HETATM    1  C1  UNL     1     -33.744  16.121  -3.510  1.00 20.00    -0.063 C 
HETATM    2  C2  UNL     1     -33.666  16.920  -2.617  1.00 20.00    -0.063 C 
ENDROOT
BRANCH   1   3
HETATM    3  C5  UNL     1     -33.837  15.169  -4.575  1.00 20.00     0.141 A 
HETATM    4  C3  UNL     1     -34.870  14.073  -4.486  1.00 20.00     0.221 A 
HETATM    5  O9  UNL     1     -33.492  13.838  -4.169  1.00 20.00    -0.362 OA
HETATM    6  C7  UNL     1     -33.278  15.552  -5.906  1.00 20.00     0.063 C 
ENDBRANCH   1   3
BRANCH   2   7
HETATM    7  C6  UNL     1     -33.571  17.893  -1.529  1.00 20.00     0.141 A 
HETATM    8  C4  UNL     1     -32.994  19.237  -1.841  1.00 20.00     0.221 A 
HETATM    9  O10 UNL     1     -32.219  18.205  -1.215  1.00 20.00    -0.362 OA
HETATM   10  C8  UNL     1     -34.457  17.681  -0.363  1.00 20.00     0.063 C 
ENDBRANCH   2   7
TORSDOF 2
ENDMDL
MODEL 9
REMARK VINA RESULT:      -4.0      9.931     10.661
REMARK  2 active torsions:
REMARK  status: ('A' for Active; 'I' for Inactive)
REMARK    1  A    between atoms: C1_1  and  C5_5 
REMARK    2  A    between atoms: C2_2  and  C6_6 
ROOT
HETATM    1  C1  UNL     1     -34.114  16.668  -2.441  1.00 20.00    -0.063 C 
HETATM    2  C2  UNL     1     -34.110  15.926  -3.385  1.00 20.00    -0.063 C 
ENDROOT
BRANCH   1   3
HETATM    3  C5  UNL     1     -34.118  17.554  -1.315  1.00 20.00     0.141 A 
HETATM    4  C3  UNL     1     -35.239  17.450  -0.309  1.00 20.00     0.221 A 
HETATM    5  O9  UNL     1     -35.226  18.464  -1.323  1.00 20.00    -0.362 OA
HETATM    6  C7  UNL     1     -32.825  18.187  -0.919  1.00 20.00     0.063 C 
ENDBRANCH   1   3
BRANCH   2   7
HETATM    7  C6  UNL     1     -34.105  15.021  -4.534  1.00 20.00     0.141 A 
HETATM    8  C4  UNL     1     -35.224  14.037  -4.654  1.00 20.00     0.221 A 
HETATM    9  O10 UNL     1     -33.939  13.664  -4.139  1.00 20.00    -0.362 OA
HETATM   10  C8  UNL     1     -33.309  15.438  -5.709  1.00 20.00     0.063 C 
ENDBRANCH   2   7
TORSDOF 2
ENDMDL
