MODEL 1
REMARK VINA RESULT:      -5.5      0.000      0.000
REMARK  0 active torsions:
REMARK  status: ('A' for Active; 'I' for Inactive)
ROOT
HETATM    1  C1  UNL     1     -34.106  18.922   3.672  1.00 20.00     0.002 A 
HETATM    2  C2  UNL     1     -32.814  19.102   3.166  1.00 20.00     0.016 A 
HETATM    3  C3  UNL     1     -35.162  18.501   2.836  1.00 20.00     0.007 A 
HETATM    4  C4  UNL     1     -32.633  18.888   1.816  1.00 20.00     0.017 A 
HETATM    5  C5  UNL     1     -34.951  18.289   1.470  1.00 20.00    -0.051 A 
HETATM    6  C6  UNL     1     -33.679  18.534   0.981  1.00 20.00    -0.033 A 
HETATM    7  C7  UNL     1     -31.414  18.835   1.015  1.00 20.00     0.160 C 
HETATM    8  C8  UNL     1     -35.991  17.691   0.562  1.00 20.00     0.039 C 
HETATM    9  C9  UNL     1     -31.749  18.260  -0.354  1.00 20.00     0.093 C 
HETATM   10  C10 UNL     1     -35.577  17.632  -0.925  1.00 20.00     0.005 C 
HETATM   11  C11 UNL     1     -34.079  17.335  -1.129  1.00 20.00     0.010 C 
HETATM   12  C12 UNL     1     -33.271  18.436  -0.454  1.00 20.00     0.027 C 
HETATM   13  O13 UNL     1     -30.310  19.144   1.422  1.00 20.00    -0.292 OA
ENDROOT
TORSDOF 0
ENDMDL
MODEL 2
REMARK VINA RESULT:      -5.5      1.793      3.354
REMARK  0 active torsions:
REMARK  status: ('A' for Active; 'I' for Inactive)
ROOT
HETATM    1  C1  UNL     1     -31.777  19.087   0.866  1.00 20.00     0.002 A 
HETATM    2  C2  UNL     1     -32.845  19.150   1.767  1.00 20.00     0.016 A 
HETATM    3  C3  UNL     1     -31.929  18.489  -0.403  1.00 20.00     0.007 A 
HETATM    4  C4  UNL     1     -34.032  18.570   1.375  1.00 20.00     0.017 A 
HETATM    5  C5  UNL     1     -33.145  17.909  -0.777  1.00 20.00    -0.051 A 
HETATM    6  C6  UNL     1     -34.169  17.928   0.155  1.00 20.00    -0.033 A 
HETATM    7  C7  UNL     1     -35.354  18.594   1.991  1.00 20.00     0.160 C 
HETATM    8  C8  UNL     1     -33.418  17.399  -2.166  1.00 20.00     0.039 C 
HETATM    9  C9  UNL     1     -36.374  18.063   0.994  1.00 20.00     0.093 C 
HETATM   10  C10 UNL     1     -34.793  16.716  -2.333  1.00 20.00     0.005 C 
HETATM   11  C11 UNL     1     -35.906  17.375  -1.495  1.00 20.00     0.010 C 
HETATM   12  C12 UNL     1     -35.514  17.301  -0.025  1.00 20.00     0.027 C 
HETATM   13  O13 UNL     1     -35.587  19.036   3.101  1.00 20.00    -0.292 OA
ENDROOT
TORSDOF 0
ENDMDL
MODEL 3
REMARK VINA RESULT:      -5.4      2.053      4.477
REMARK  0 active torsions:
REMARK  status: ('A' for Active; 'I' for Inactive)
ROOT
HETATM    1  C1  UNL     1     -34.718  17.054  -1.887  1.00 20.00     0.002 A 
HETATM    2  C2  UNL     1     -35.671  17.296  -0.891  1.00 20.00     0.016 A 
HETATM    3  C3  UNL     1     -33.364  17.404  -1.700  1.00 20.00     0.007 A 
HETATM    4  C4  UNL     1     -35.234  17.922   0.256  1.00 20.00     0.017 A 
HETATM    5  C5  UNL     1     -32.947  18.038  -0.525  1.00 20.00    -0.051 A 
HETATM    6  C6  UNL     1     -33.919  18.323   0.420  1.00 20.00    -0.033 A 
HETATM    7  C7  UNL     1     -35.914  18.175   1.522  1.00 20.00     0.160 C 
HETATM    8  C8  UNL     1     -31.501  18.293  -0.200  1.00 20.00     0.039 C 
HETATM    9  C9  UNL     1     -34.887  18.615   2.555  1.00 20.00     0.093 C 
HETATM   10  C10 UNL     1     -31.274  19.086   1.106  1.00 20.00     0.005 C 
HETATM   11  C11 UNL     1     -32.288  18.740   2.213  1.00 20.00     0.010 C 
HETATM   12  C12 UNL     1     -33.689  19.056   1.702  1.00 20.00     0.027 C 
HETATM   13  O13 UNL     1     -37.102  17.990   1.713  1.00 20.00    -0.292 OA
ENDROOT
TORSDOF 0
ENDMDL
MODEL 4
REMARK VINA RESULT:      -5.3      1.270      3.421
REMARK  0 active torsions:
REMARK  status: ('A' for Active; 'I' for Inactive)
ROOT
HETATM    1  C1  UNL     1     -34.607  16.942  -2.591  1.00 20.00     0.002 A 
HETATM    2  C2  UNL     1     -33.344  17.282  -2.092  1.00 20.00     0.016 A 
HETATM    3  C3  UNL     1     -35.771  17.135  -1.817  1.00 20.00     0.007 A 
HETATM    4  C4  UNL     1     -33.289  17.774  -0.806  1.00 20.00     0.017 A 
HETATM    5  C5  UNL     1     -35.686  17.638  -0.514  1.00 20.00    -0.051 A 
HETATM    6  C6  UNL     1     -34.421  17.908  -0.020  1.00 20.00    -0.033 A 
HETATM    7  C7  UNL     1     -32.181  18.357  -0.056  1.00 20.00     0.160 C 
HETATM    8  C8  UNL     1     -36.895  18.012   0.300  1.00 20.00     0.039 C 
HETATM    9  C9  UNL     1     -32.731  19.021   1.199  1.00 20.00     0.093 C 
HETATM   10  C10 UNL     1     -36.573  18.460   1.743  1.00 20.00     0.005 C 
HETATM   11  C11 UNL     1     -35.260  19.258   1.856  1.00 20.00     0.010 C 
HETATM   12  C12 UNL     1     -34.116  18.380   1.365  1.00 20.00     0.027 C 
HETATM   13  O13 UNL     1     -31.023  18.359  -0.430  1.00 20.00    -0.292 OA
ENDROOT
TORSDOF 0
ENDMDL
MODEL 5
REMARK VINA RESULT:      -5.2      5.146      7.503
REMARK  0 active torsions:
REMARK  status: ('A' for Active; 'I' for Inactive)
ROOT
HETATM    1  C1  UNL     1     -37.985  14.829  -5.257  1.00 20.00     0.002 A 
HETATM    2  C2  UNL     1     -36.922  14.197  -5.911  1.00 20.00     0.016 A 
HETATM    3  C3  UNL     1     -37.761  15.656  -4.136  1.00 20.00     0.007 A 
HETATM    4  C4  UNL     1     -35.661  14.388  -5.389  1.00 20.00     0.017 A 
HETATM    5  C5  UNL     1     -36.471  15.835  -3.627  1.00 20.00    -0.051 A 
HETATM    6  C6  UNL     1     -35.443  15.149  -4.253  1.00 20.00    -0.033 A 
HETATM    7  C7  UNL     1     -34.348  14.013  -5.905  1.00 20.00     0.160 C 
HETATM    8  C8  UNL     1     -36.148  16.822  -2.539  1.00 20.00     0.039 C 
HETATM    9  C9  UNL     1     -33.277  14.733  -5.099  1.00 20.00     0.093 C 
HETATM   10  C10 UNL     1     -34.677  16.789  -2.067  1.00 20.00     0.005 C 
HETATM   11  C11 UNL     1     -33.679  16.506  -3.206  1.00 20.00     0.010 C 
HETATM   12  C12 UNL     1     -34.013  15.151  -3.818  1.00 20.00     0.027 C 
HETATM   13  O13 UNL     1     -34.169  13.291  -6.868  1.00 20.00    -0.292 OA
ENDROOT
TORSDOF 0
ENDMDL
MODEL 6
REMARK VINA RESULT:      -5.0      5.040      7.167
REMARK  0 active torsions:
REMARK  status: ('A' for Active; 'I' for Inactive)
ROOT
HETATM    1  C1  UNL     1     -38.574  15.985  -4.551  1.00 20.00     0.002 A 
HETATM    2  C2  UNL     1     -37.866  14.828  -4.894  1.00 20.00     0.016 A 
HETATM    3  C3  UNL     1     -37.944  17.048  -3.870  1.00 20.00     0.007 A 
HETATM    4  C4  UNL     1     -36.546  14.761  -4.504  1.00 20.00     0.017 A 
HETATM    5  C5  UNL     1     -36.602  16.955  -3.487  1.00 20.00    -0.051 A 
HETATM    6  C6  UNL     1     -35.940  15.775  -3.782  1.00 20.00    -0.033 A 
HETATM    7  C7  UNL     1     -35.505  13.791  -4.828  1.00 20.00     0.160 C 
HETATM    8  C8  UNL     1     -35.834  18.109  -2.902  1.00 20.00     0.039 C 
HETATM    9  C9  UNL     1     -34.157  14.352  -4.396  1.00 20.00     0.093 C 
HETATM   10  C10 UNL     1     -34.394  17.758  -2.467  1.00 20.00     0.005 C 
HETATM   11  C11 UNL     1     -33.710  16.736  -3.395  1.00 20.00     0.010 C 
HETATM   12  C12 UNL     1     -34.533  15.454  -3.395  1.00 20.00     0.027 C 
HETATM   13  O13 UNL     1     -35.701  12.741  -5.411  1.00 20.00    -0.292 OA
ENDROOT
TORSDOF 0
ENDMDL
MODEL 7
REMARK VINA RESULT:      -4.9      1.108      1.917
REMARK  0 active torsions:
REMARK  status: ('A' for Active; 'I' for Inactive)
ROOT
HETATM    1  C1  UNL     1     -35.847  18.171   2.243  1.00 20.00     0.002 A 
HETATM    2  C2  UNL     1     -34.670  18.574   2.885  1.00 20.00     0.016 A 
HETATM    3  C3  UNL     1     -35.867  17.913   0.856  1.00 20.00     0.007 A 
HETATM    4  C4  UNL     1     -33.552  18.742   2.097  1.00 20.00     0.017 A 
HETATM    5  C5  UNL     1     -34.717  18.090   0.080  1.00 20.00    -0.051 A 
HETATM    6  C6  UNL     1     -33.582  18.549   0.726  1.00 20.00    -0.033 A 
HETATM    7  C7  UNL     1     -32.161  18.995   2.459  1.00 20.00     0.160 C 
HETATM    8  C8  UNL     1     -34.633  17.683  -1.366  1.00 20.00     0.039 C 
HETATM    9  C9  UNL     1     -31.286  18.783   1.231  1.00 20.00     0.093 C 
HETATM   10  C10 UNL     1     -33.300  18.053  -2.053  1.00 20.00     0.005 C 
HETATM   11  C11 UNL     1     -32.079  17.932  -1.120  1.00 20.00     0.010 C 
HETATM   12  C12 UNL     1     -32.280  18.868   0.064  1.00 20.00     0.027 C 
HETATM   13  O13 UNL     1     -31.781  19.263   3.583  1.00 20.00    -0.292 OA
ENDROOT
TORSDOF 0
ENDMDL
MODEL 8
REMARK VINA RESULT:      -4.8      4.599      6.471
REMARK  0 active torsions:
REMARK  status: ('A' for Active; 'I' for Inactive)
ROOT
HETATM    1  C1  UNL     1     -34.708  17.371  -2.186  1.00 20.00     0.002 A 
HETATM    2  C2  UNL     1     -34.060  16.263  -2.743  1.00 20.00     0.016 A 
HETATM    3  C3  UNL     1     -36.051  17.664  -2.506  1.00 20.00     0.007 A 
HETATM    4  C4  UNL     1     -34.778  15.500  -3.639  1.00 20.00     0.017 A 
HETATM    5  C5  UNL     1     -36.758  16.872  -3.417  1.00 20.00    -0.051 A 
HETATM    6  C6  UNL     1     -36.075  15.819  -4.002  1.00 20.00    -0.033 A 
HETATM    7  C7  UNL     1     -34.464  14.220  -4.266  1.00 20.00     0.160 C 
HETATM    8  C8  UNL     1     -38.230  17.037  -3.678  1.00 20.00     0.039 C 
HETATM    9  C9  UNL     1     -35.723  13.671  -4.921  1.00 20.00     0.093 C 
HETATM   10  C10 UNL     1     -38.784  16.118  -4.789  1.00 20.00     0.005 C 
HETATM   11  C11 UNL     1     -38.123  14.727  -4.815  1.00 20.00     0.010 C 
HETATM   12  C12 UNL     1     -36.628  14.905  -5.048  1.00 20.00     0.027 C 
HETATM   13  O13 UNL     1     -33.380  13.671  -4.202  1.00 20.00    -0.292 OA
ENDROOT
TORSDOF 0
ENDMDL
MODEL 9
REMARK VINA RESULT:      -4.7      5.570      7.316
REMARK  0 active torsions:
REMARK  status: ('A' for Active; 'I' for Inactive)
ROOT
HETATM    1  C1  UNL     1     -33.747  15.854  -3.225  1.00 20.00     0.002 A 
HETATM    2  C2  UNL     1     -34.081  14.756  -4.025  1.00 20.00     0.016 A 
HETATM    3  C3  UNL     1     -34.698  16.853  -2.928  1.00 20.00     0.007 A 
HETATM    4  C4  UNL     1     -35.360  14.717  -4.537  1.00 20.00     0.017 A 
HETATM    5  C5  UNL     1     -35.991  16.789  -3.460  1.00 20.00    -0.051 A 
HETATM    6  C6  UNL     1     -36.278  15.726  -4.300  1.00 20.00    -0.033 A 
HETATM    7  C7  UNL     1     -36.066  13.665  -5.260  1.00 20.00     0.160 C 
HETATM    8  C8  UNL     1     -37.090  17.733  -3.057  1.00 20.00     0.039 C 
HETATM    9  C9  UNL     1     -37.546  14.013  -5.318  1.00 20.00     0.093 C 
HETATM   10  C10 UNL     1     -38.410  17.539  -3.836  1.00 20.00     0.005 C 
HETATM   11  C11 UNL     1     -38.710  16.064  -4.168  1.00 20.00     0.010 C 
HETATM   12  C12 UNL     1     -37.571  15.519  -5.020  1.00 20.00     0.027 C 
HETATM   13  O13 UNL     1     -35.542  12.649  -5.680  1.00 20.00    -0.292 OA
ENDROOT
TORSDOF 0
ENDMDL
