MODEL 1
REMARK VINA RESULT:      -4.7      0.000      0.000
REMARK  0 active torsions:
REMARK  status: ('A' for Active; 'I' for Inactive)
ROOT
HETATM    1  C1  UNL     1     -33.431   5.601   3.329  1.00 20.00    -0.002 A 
HETATM    2  C2  UNL     1     -33.131   6.879   3.617  1.00 20.00    -0.064 A 
HETATM    3  C3  UNL     1     -34.215   4.960   4.411  1.00 20.00     0.215 A 
HETATM    4  C4  UNL     1     -33.615   7.428   4.926  1.00 20.00     0.117 A 
HETATM    5  C5  UNL     1     -33.093   4.791   2.125  1.00 20.00     0.053 C 
HETATM    6  C6  UNL     1     -32.354   7.826   2.754  1.00 20.00     0.045 C 
HETATM    7  O7  UNL     1     -34.614   3.807   4.396  1.00 20.00    -0.280 OA
HETATM    8  S8  UNL     1     -34.503   6.073   5.729  1.00 20.00    -0.083 SA
ENDROOT
TORSDOF 0
ENDMDL
MODEL 2
REMARK VINA RESULT:      -4.4      1.521      2.440
REMARK  0 active torsions:
REMARK  status: ('A' for Active; 'I' for Inactive)
ROOT
HETATM    1  C1  UNL     1     -33.302   6.608   3.923  1.00 20.00    -0.002 A 
HETATM    2  C2  UNL     1     -33.806   6.667   5.168  1.00 20.00    -0.064 A 
HETATM    3  C3  UNL     1     -33.549   5.292   3.289  1.00 20.00     0.215 A 
HETATM    4  C4  UNL     1     -34.506   5.448   5.692  1.00 20.00     0.117 A 
HETATM    5  C5  UNL     1     -32.566   7.642   3.144  1.00 20.00     0.053 C 
HETATM    6  C6  UNL     1     -33.742   7.839   6.098  1.00 20.00     0.045 C 
HETATM    7  O7  UNL     1     -33.196   4.981   2.163  1.00 20.00    -0.280 OA
HETATM    8  S8  UNL     1     -34.422   4.223   4.365  1.00 20.00    -0.083 SA
ENDROOT
TORSDOF 0
ENDMDL
MODEL 3
REMARK VINA RESULT:      -4.4      1.605      2.678
REMARK  0 active torsions:
REMARK  status: ('A' for Active; 'I' for Inactive)
ROOT
HETATM    1  C1  UNL     1     -33.358   6.483   3.826  1.00 20.00    -0.002 A 
HETATM    2  C2  UNL     1     -33.557   5.232   3.379  1.00 20.00    -0.064 A 
HETATM    3  C3  UNL     1     -33.919   6.682   5.183  1.00 20.00     0.215 A 
HETATM    4  C4  UNL     1     -34.281   4.279   4.283  1.00 20.00     0.117 A 
HETATM    5  C5  UNL     1     -32.682   7.635   3.164  1.00 20.00     0.053 C 
HETATM    6  C6  UNL     1     -33.124   4.681   2.056  1.00 20.00     0.045 C 
HETATM    7  O7  UNL     1     -33.871   7.725   5.814  1.00 20.00    -0.280 OA
HETATM    8  S8  UNL     1     -34.668   5.218   5.779  1.00 20.00    -0.083 SA
ENDROOT
TORSDOF 0
ENDMDL
MODEL 4
REMARK VINA RESULT:      -4.3      1.367      2.460
REMARK  0 active torsions:
REMARK  status: ('A' for Active; 'I' for Inactive)
ROOT
HETATM    1  C1  UNL     1     -33.690   6.685   4.850  1.00 20.00    -0.002 A 
HETATM    2  C2  UNL     1     -33.209   6.695   3.595  1.00 20.00    -0.064 A 
HETATM    3  C3  UNL     1     -34.329   5.392   5.188  1.00 20.00     0.215 A 
HETATM    4  C4  UNL     1     -33.388   5.453   2.774  1.00 20.00     0.117 A 
HETATM    5  C5  UNL     1     -33.663   7.753   5.888  1.00 20.00     0.053 C 
HETATM    6  C6  UNL     1     -32.504   7.832   2.922  1.00 20.00     0.045 C 
HETATM    7  O7  UNL     1     -34.841   5.124   6.262  1.00 20.00    -0.280 OA
HETATM    8  S8  UNL     1     -34.258   4.279   3.839  1.00 20.00    -0.083 SA
ENDROOT
TORSDOF 0
ENDMDL
MODEL 5
REMARK VINA RESULT:      -4.2      2.662      3.802
REMARK  0 active torsions:
REMARK  status: ('A' for Active; 'I' for Inactive)
ROOT
HETATM    1  C1  UNL     1     -33.449   7.060   4.678  1.00 20.00    -0.002 A 
HETATM    2  C2  UNL     1     -34.121   6.141   3.965  1.00 20.00    -0.064 A 
HETATM    3  C3  UNL     1     -32.452   7.781   3.852  1.00 20.00     0.215 A 
HETATM    4  C4  UNL     1     -33.773   5.999   2.513  1.00 20.00     0.117 A 
HETATM    5  C5  UNL     1     -33.571   7.425   6.118  1.00 20.00     0.053 C 
HETATM    6  C6  UNL     1     -35.198   5.234   4.475  1.00 20.00     0.045 C 
HETATM    7  O7  UNL     1     -31.714   8.664   4.258  1.00 20.00    -0.280 OA
HETATM    8  S8  UNL     1     -32.464   7.206   2.200  1.00 20.00    -0.083 SA
ENDROOT
TORSDOF 0
ENDMDL
MODEL 6
REMARK VINA RESULT:      -4.0      1.905      2.650
REMARK  0 active torsions:
REMARK  status: ('A' for Active; 'I' for Inactive)
ROOT
HETATM    1  C1  UNL     1     -33.876   5.767   4.293  1.00 20.00    -0.002 A 
HETATM    2  C2  UNL     1     -33.597   6.933   4.900  1.00 20.00    -0.064 A 
HETATM    3  C3  UNL     1     -33.291   5.698   2.933  1.00 20.00     0.215 A 
HETATM    4  C4  UNL     1     -32.775   7.932   4.140  1.00 20.00     0.117 A 
HETATM    5  C5  UNL     1     -34.658   4.599   4.787  1.00 20.00     0.053 C 
HETATM    6  C6  UNL     1     -34.025   7.344   6.275  1.00 20.00     0.045 C 
HETATM    7  O7  UNL     1     -33.396   4.748   2.174  1.00 20.00    -0.280 OA
HETATM    8  S8  UNL     1     -32.417   7.163   2.543  1.00 20.00    -0.083 SA
ENDROOT
TORSDOF 0
ENDMDL
MODEL 7
REMARK VINA RESULT:      -4.0      1.943      2.853
REMARK  0 active torsions:
REMARK  status: ('A' for Active; 'I' for Inactive)
ROOT
HETATM    1  C1  UNL     1     -33.918   5.831   4.436  1.00 20.00    -0.002 A 
HETATM    2  C2  UNL     1     -33.320   5.759   3.235  1.00 20.00    -0.064 A 
HETATM    3  C3  UNL     1     -33.620   7.107   5.128  1.00 20.00     0.215 A 
HETATM    4  C4  UNL     1     -32.486   6.929   2.804  1.00 20.00     0.117 A 
HETATM    5  C5  UNL     1     -34.794   4.841   5.125  1.00 20.00     0.053 C 
HETATM    6  C6  UNL     1     -33.403   4.619   2.268  1.00 20.00     0.045 C 
HETATM    7  O7  UNL     1     -34.040   7.421   6.229  1.00 20.00    -0.280 OA
HETATM    8  S8  UNL     1     -32.578   8.125   4.158  1.00 20.00    -0.083 SA
ENDROOT
TORSDOF 0
ENDMDL
MODEL 8
REMARK VINA RESULT:      -3.9      2.205      2.947
REMARK  0 active torsions:
REMARK  status: ('A' for Active; 'I' for Inactive)
ROOT
HETATM    1  C1  UNL     1     -33.510   6.113   3.625  1.00 20.00    -0.002 A 
HETATM    2  C2  UNL     1     -34.025   6.028   4.863  1.00 20.00    -0.064 A 
HETATM    3  C3  UNL     1     -32.738   7.362   3.431  1.00 20.00     0.215 A 
HETATM    4  C4  UNL     1     -33.747   7.159   5.808  1.00 20.00     0.117 A 
HETATM    5  C5  UNL     1     -33.614   5.161   2.483  1.00 20.00     0.053 C 
HETATM    6  C6  UNL     1     -34.856   4.907   5.406  1.00 20.00     0.045 C 
HETATM    7  O7  UNL     1     -32.169   7.680   2.399  1.00 20.00    -0.280 OA
HETATM    8  S8  UNL     1     -32.739   8.340   4.882  1.00 20.00    -0.083 SA
ENDROOT
TORSDOF 0
ENDMDL
MODEL 9
REMARK VINA RESULT:      -3.9     11.839     12.325
REMARK  0 active torsions:
REMARK  status: ('A' for Active; 'I' for Inactive)
ROOT
HETATM    1  C1  UNL     1     -34.720  14.497  -4.299  1.00 20.00    -0.002 A 
HETATM    2  C2  UNL     1     -35.307  15.535  -3.680  1.00 20.00    -0.064 A 
HETATM    3  C3  UNL     1     -35.680  13.735  -5.132  1.00 20.00     0.215 A 
HETATM    4  C4  UNL     1     -36.771  15.749  -3.920  1.00 20.00     0.117 A 
HETATM    5  C5  UNL     1     -33.303  14.038  -4.255  1.00 20.00     0.053 C 
HETATM    6  C6  UNL     1     -34.640  16.516  -2.765  1.00 20.00     0.045 C 
HETATM    7  O7  UNL     1     -35.403  12.750  -5.796  1.00 20.00    -0.280 OA
HETATM    8  S8  UNL     1     -37.284  14.430  -5.046  1.00 20.00    -0.083 SA
ENDROOT
TORSDOF 0
ENDMDL
