MODEL 1
REMARK VINA RESULT:      -3.9      0.000      0.000
REMARK  2 active torsions:
REMARK  status: ('A' for Active; 'I' for Inactive)
REMARK    1  A    between atoms: C2_2  and  C3_3 
REMARK    2  A    between atoms: C3_3  and  N4_4 
ROOT
HETATM    1  C1  UNL     1     -33.947   7.026   5.330  1.00 20.00     0.055 C 
HETATM    2  C3  UNL     1     -34.260   5.895   4.345  1.00 20.00     0.145 C 
HETATM    3 CL7  UNL     1     -35.870   6.249   3.605  1.00 20.00    -0.097 Cl
ENDROOT
BRANCH   2   4
HETATM    4  C2  UNL     1     -33.238   5.802   3.200  1.00 20.00     0.160 C 
HETATM    5 CL6  UNL     1     -32.447   7.361   2.831  1.00 20.00    -0.127 Cl
ENDBRANCH   2   4
BRANCH   2   6
HETATM    6  N4  UNL     1     -34.396   4.544   5.004  1.00 20.00    -0.036 NA
HETATM    7  O5  UNL     1     -34.225   3.588   4.240  1.00 20.00    -0.099 OA
ENDBRANCH   2   6
TORSDOF 2
ENDMDL
MODEL 2
REMARK VINA RESULT:      -3.8      1.943      2.081
REMARK  2 active torsions:
REMARK  status: ('A' for Active; 'I' for Inactive)
REMARK    1  A    between atoms: C2_2  and  C3_3 
REMARK    2  A    between atoms: C3_3  and  N4_4 
ROOT
HETATM    1  C1  UNL     1     -34.620   5.018   5.662  1.00 20.00     0.055 C 
HETATM    2  C3  UNL     1     -34.314   5.647   4.298  1.00 20.00     0.145 C 
HETATM    3 CL7  UNL     1     -35.895   6.015   3.504  1.00 20.00    -0.097 Cl
ENDROOT
BRANCH   2   4
HETATM    4  C2  UNL     1     -33.537   6.967   4.411  1.00 20.00     0.160 C 
HETATM    5 CL6  UNL     1     -33.440   7.589   6.083  1.00 20.00    -0.127 Cl
ENDBRANCH   2   4
BRANCH   2   6
HETATM    6  N4  UNL     1     -33.586   4.717   3.357  1.00 20.00    -0.036 NA
HETATM    7  O5  UNL     1     -32.840   5.290   2.557  1.00 20.00    -0.099 OA
ENDBRANCH   2   6
TORSDOF 2
ENDMDL
MODEL 3
REMARK VINA RESULT:      -3.8      1.643      2.290
REMARK  2 active torsions:
REMARK  status: ('A' for Active; 'I' for Inactive)
REMARK    1  A    between atoms: C2_2  and  C3_3 
REMARK    2  A    between atoms: C3_3  and  N4_4 
ROOT
HETATM    1  C1  UNL     1     -35.621   6.222   3.402  1.00 20.00     0.055 C 
HETATM    2  C3  UNL     1     -34.273   5.878   4.045  1.00 20.00     0.145 C 
HETATM    3 CL7  UNL     1     -33.045   7.024   3.376  1.00 20.00    -0.097 Cl
ENDROOT
BRANCH   2   4
HETATM    4  C2  UNL     1     -34.280   6.052   5.572  1.00 20.00     0.160 C 
HETATM    5 CL6  UNL     1     -33.512   7.571   6.115  1.00 20.00    -0.127 Cl
ENDBRANCH   2   4
BRANCH   2   6
HETATM    6  N4  UNL     1     -33.778   4.495   3.701  1.00 20.00    -0.036 NA
HETATM    7  O5  UNL     1     -34.317   3.590   4.346  1.00 20.00    -0.099 OA
ENDBRANCH   2   6
TORSDOF 2
ENDMDL
MODEL 4
REMARK VINA RESULT:      -3.7      2.084      2.199
REMARK  2 active torsions:
REMARK  status: ('A' for Active; 'I' for Inactive)
REMARK    1  A    between atoms: C2_2  and  C3_3 
REMARK    2  A    between atoms: C3_3  and  N4_4 
ROOT
HETATM    1  C1  UNL     1     -35.642   6.126   3.603  1.00 20.00     0.055 C 
HETATM    2  C3  UNL     1     -34.200   5.822   4.025  1.00 20.00     0.145 C 
HETATM    3 CL7  UNL     1     -34.173   4.143   4.690  1.00 20.00    -0.097 Cl
ENDROOT
BRANCH   2   4
HETATM    4  C2  UNL     1     -33.213   5.868   2.848  1.00 20.00     0.160 C 
HETATM    5 CL6  UNL     1     -32.387   7.443   2.679  1.00 20.00    -0.127 Cl
ENDBRANCH   2   4
BRANCH   2   6
HETATM    6  N4  UNL     1     -33.698   6.714   5.134  1.00 20.00    -0.036 NA
HETATM    7  O5  UNL     1     -34.370   6.662   6.169  1.00 20.00    -0.099 OA
ENDBRANCH   2   6
TORSDOF 2
ENDMDL
MODEL 5
REMARK VINA RESULT:      -3.7      1.844      2.281
REMARK  2 active torsions:
REMARK  status: ('A' for Active; 'I' for Inactive)
REMARK    1  A    between atoms: C2_2  and  C3_3 
REMARK    2  A    between atoms: C3_3  and  N4_4 
ROOT
HETATM    1  C1  UNL     1     -35.143   6.345   2.628  1.00 20.00     0.055 C 
HETATM    2  C3  UNL     1     -34.079   5.882   3.629  1.00 20.00     0.145 C 
HETATM    3 CL7  UNL     1     -32.861   4.909   2.716  1.00 20.00    -0.097 Cl
ENDROOT
BRANCH   2   4
HETATM    4  C2  UNL     1     -33.332   7.053   4.288  1.00 20.00     0.160 C 
HETATM    5 CL6  UNL     1     -33.778   7.302   6.000  1.00 20.00    -0.127 Cl
ENDBRANCH   2   4
BRANCH   2   6
HETATM    6  N4  UNL     1     -34.619   4.968   4.701  1.00 20.00    -0.036 NA
HETATM    7  O5  UNL     1     -34.335   3.776   4.541  1.00 20.00    -0.099 OA
ENDBRANCH   2   6
TORSDOF 2
ENDMDL
MODEL 6
REMARK VINA RESULT:      -3.6      2.445      2.559
REMARK  2 active torsions:
REMARK  status: ('A' for Active; 'I' for Inactive)
REMARK    1  A    between atoms: C2_2  and  C3_3 
REMARK    2  A    between atoms: C3_3  and  N4_4 
ROOT
HETATM    1  C1  UNL     1     -35.688   6.138   3.684  1.00 20.00     0.055 C 
HETATM    2  C3  UNL     1     -34.341   5.893   4.371  1.00 20.00     0.145 C 
HETATM    3 CL7  UNL     1     -34.308   4.164   4.898  1.00 20.00    -0.097 Cl
ENDROOT
BRANCH   2   4
HETATM    4  C2  UNL     1     -33.144   6.110   3.432  1.00 20.00     0.160 C 
HETATM    5 CL6  UNL     1     -32.817   4.712   2.368  1.00 20.00    -0.127 Cl
ENDBRANCH   2   4
BRANCH   2   6
HETATM    6  N4  UNL     1     -34.148   6.711   5.625  1.00 20.00    -0.036 NA
HETATM    7  O5  UNL     1     -33.210   7.513   5.566  1.00 20.00    -0.099 OA
ENDBRANCH   2   6
TORSDOF 2
ENDMDL
MODEL 7
REMARK VINA RESULT:      -3.5     12.354     12.653
REMARK  2 active torsions:
REMARK  status: ('A' for Active; 'I' for Inactive)
REMARK    1  A    between atoms: C2_2  and  C3_3 
REMARK    2  A    between atoms: C3_3  and  N4_4 
ROOT
HETATM    1  C1  UNL     1     -36.909  15.006  -4.451  1.00 20.00     0.055 C 
HETATM    2  C3  UNL     1     -35.656  14.308  -4.990  1.00 20.00     0.145 C 
HETATM    3 CL7  UNL     1     -35.222  15.105  -6.553  1.00 20.00    -0.097 Cl
ENDROOT
BRANCH   2   4
HETATM    4  C2  UNL     1     -34.447  14.445  -4.052  1.00 20.00     0.160 C 
HETATM    5 CL6  UNL     1     -34.479  15.939  -3.073  1.00 20.00    -0.127 Cl
ENDBRANCH   2   4
BRANCH   2   6
HETATM    6  N4  UNL     1     -35.873  12.850  -5.316  1.00 20.00    -0.036 NA
HETATM    7  O5  UNL     1     -35.279  12.464  -6.328  1.00 20.00    -0.099 OA
ENDBRANCH   2   6
TORSDOF 2
ENDMDL
MODEL 8
REMARK VINA RESULT:      -3.5     12.623     12.848
REMARK  2 active torsions:
REMARK  status: ('A' for Active; 'I' for Inactive)
REMARK    1  A    between atoms: C2_2  and  C3_3 
REMARK    2  A    between atoms: C3_3  and  N4_4 
ROOT
HETATM    1  C1  UNL     1     -34.412  14.484  -4.042  1.00 20.00     0.055 C 
HETATM    2  C3  UNL     1     -35.477  14.260  -5.122  1.00 20.00     0.145 C 
HETATM    3 CL7  UNL     1     -37.030  14.945  -4.503  1.00 20.00    -0.097 Cl
ENDROOT
BRANCH   2   4
HETATM    4  C2  UNL     1     -35.149  14.980  -6.440  1.00 20.00     0.160 C 
HETATM    5 CL6  UNL     1     -33.493  15.651  -6.486  1.00 20.00    -0.127 Cl
ENDBRANCH   2   4
BRANCH   2   6
HETATM    6  N4  UNL     1     -35.750  12.803  -5.403  1.00 20.00    -0.036 NA
HETATM    7  O5  UNL     1     -35.224  12.379  -6.437  1.00 20.00    -0.099 OA
ENDBRANCH   2   6
TORSDOF 2
ENDMDL
MODEL 9
REMARK VINA RESULT:      -3.4     12.564     12.922
REMARK  2 active torsions:
REMARK  status: ('A' for Active; 'I' for Inactive)
REMARK    1  A    between atoms: C2_2  and  C3_3 
REMARK    2  A    between atoms: C3_3  and  N4_4 
ROOT
HETATM    1  C1  UNL     1     -35.192  15.078  -6.389  1.00 20.00     0.055 C 
HETATM    2  C3  UNL     1     -35.637  14.355  -5.113  1.00 20.00     0.145 C 
HETATM    3 CL7  UNL     1     -34.286  14.483  -3.919  1.00 20.00    -0.097 Cl
ENDROOT
BRANCH   2   4
HETATM    4  C2  UNL     1     -36.880  14.990  -4.471  1.00 20.00     0.160 C 
HETATM    5 CL6  UNL     1     -38.413  14.440  -5.205  1.00 20.00    -0.127 Cl
ENDBRANCH   2   4
BRANCH   2   6
HETATM    6  N4  UNL     1     -35.875  12.878  -5.311  1.00 20.00    -0.036 NA
HETATM    7  O5  UNL     1     -35.333  12.408  -6.317  1.00 20.00    -0.099 OA
ENDBRANCH   2   6
TORSDOF 2
ENDMDL
