MODEL 1
REMARK VINA RESULT:      -5.3      0.000      0.000
REMARK  3 active torsions:
REMARK  status: ('A' for Active; 'I' for Inactive)
REMARK    1  A    between atoms: C4_4  and  C11_11 
REMARK    2  A    between atoms: C5_5  and  C9_9 
REMARK    3  A    between atoms: C8_8  and  C11_11 
ROOT
HETATM    1  C1  UNL     1     -33.658  16.970  -5.502  1.00 20.00    -0.030 C 
HETATM    2  C2  UNL     1     -34.510  17.218  -4.499  1.00 20.00    -0.025 C 
HETATM    3  C6  UNL     1     -33.004  15.642  -5.718  1.00 20.00     0.027 C 
HETATM    4  C7  UNL     1     -33.134  14.695  -4.521  1.00 20.00     0.016 C 
HETATM    5  C8  UNL     1     -34.936  16.189  -3.483  1.00 20.00     0.025 C 
HETATM    6  C9  UNL     1     -34.517  14.751  -3.865  1.00 20.00     0.055 C 
ENDROOT
BRANCH   5   7
HETATM    7  C11 UNL     1     -34.378  16.575  -2.109  1.00 20.00     0.011 C 
HETATM    8  C10 UNL     1     -35.512  16.979  -1.170  1.00 20.00     0.015 C 
BRANCH   7   9
HETATM    9  C4  UNL     1     -33.388  17.699  -2.253  1.00 20.00    -0.032 C 
HETATM   10  C3  UNL     1     -32.635  18.161  -1.248  1.00 20.00     0.007 C 
ENDBRANCH   7   9
ENDBRANCH   5   7
BRANCH   6  11
HETATM   11  C5  UNL     1     -35.533  14.126  -4.778  1.00 20.00     0.236 C 
HETATM   12  O12 UNL     1     -35.557  12.928  -5.045  1.00 20.00    -0.306 OA
ENDBRANCH   6  11
TORSDOF 3
ENDMDL
MODEL 2
REMARK VINA RESULT:      -4.9     10.262     11.315
REMARK  3 active torsions:
REMARK  status: ('A' for Active; 'I' for Inactive)
REMARK    1  A    between atoms: C4_4  and  C11_11 
REMARK    2  A    between atoms: C5_5  and  C9_9 
REMARK    3  A    between atoms: C8_8  and  C11_11 
ROOT
HETATM    1  C1  UNL     1     -32.708   7.883   4.915  1.00 20.00    -0.030 C 
HETATM    2  C2  UNL     1     -31.930   7.936   3.825  1.00 20.00    -0.025 C 
HETATM    3  C6  UNL     1     -34.029   7.181   4.951  1.00 20.00     0.027 C 
HETATM    4  C7  UNL     1     -34.563   6.812   3.564  1.00 20.00     0.016 C 
HETATM    5  C8  UNL     1     -32.274   7.276   2.514  1.00 20.00     0.025 C 
HETATM    6  C9  UNL     1     -33.469   6.302   2.621  1.00 20.00     0.055 C 
ENDROOT
BRANCH   5   7
HETATM    7  C11 UNL     1     -32.541   8.356   1.460  1.00 20.00     0.011 C 
HETATM    8  C10 UNL     1     -31.387   8.421   0.462  1.00 20.00     0.015 C 
BRANCH   7   9
HETATM    9  C4  UNL     1     -32.734   9.691   2.128  1.00 20.00    -0.032 C 
HETATM   10  C3  UNL     1     -32.728  10.858   1.475  1.00 20.00     0.007 C 
ENDBRANCH   7   9
ENDBRANCH   5   7
BRANCH   6  11
HETATM   11  C5  UNL     1     -33.010   4.944   3.071  1.00 20.00     0.236 C 
HETATM   12  O12 UNL     1     -33.744   4.129   3.621  1.00 20.00    -0.306 OA
ENDBRANCH   6  11
TORSDOF 3
ENDMDL
MODEL 3
REMARK VINA RESULT:      -4.7      1.017      1.118
REMARK  3 active torsions:
REMARK  status: ('A' for Active; 'I' for Inactive)
REMARK    1  A    between atoms: C4_4  and  C11_11 
REMARK    2  A    between atoms: C5_5  and  C9_9 
REMARK    3  A    between atoms: C8_8  and  C11_11 
ROOT
HETATM    1  C1  UNL     1     -33.247  16.181  -5.290  1.00 20.00    -0.030 C 
HETATM    2  C2  UNL     1     -33.756  17.052  -4.408  1.00 20.00    -0.025 C 
HETATM    3  C6  UNL     1     -33.638  14.738  -5.343  1.00 20.00     0.027 C 
HETATM    4  C7  UNL     1     -34.416  14.270  -4.109  1.00 20.00     0.016 C 
HETATM    5  C8  UNL     1     -34.801  16.695  -3.382  1.00 20.00     0.025 C 
HETATM    6  C9  UNL     1     -35.433  15.305  -3.618  1.00 20.00     0.055 C 
ENDROOT
BRANCH   5   7
HETATM    7  C11 UNL     1     -34.184  16.785  -1.982  1.00 20.00     0.011 C 
HETATM    8  C10 UNL     1     -35.256  17.125  -0.950  1.00 20.00     0.015 C 
BRANCH   7   9
HETATM    9  C4  UNL     1     -33.092  17.820  -1.966  1.00 20.00    -0.032 C 
HETATM   10  C3  UNL     1     -32.612  18.379  -0.850  1.00 20.00     0.007 C 
ENDBRANCH   7   9
ENDBRANCH   5   7
BRANCH   6  11
HETATM   11  C5  UNL     1     -36.569  15.396  -4.598  1.00 20.00     0.236 C 
HETATM   12  O12 UNL     1     -37.295  14.449  -4.883  1.00 20.00    -0.306 OA
ENDBRANCH   6  11
TORSDOF 3
ENDMDL
MODEL 4
REMARK VINA RESULT:      -4.6      1.243      2.234
REMARK  3 active torsions:
REMARK  status: ('A' for Active; 'I' for Inactive)
REMARK    1  A    between atoms: C4_4  and  C11_11 
REMARK    2  A    between atoms: C5_5  and  C9_9 
REMARK    3  A    between atoms: C8_8  and  C11_11 
ROOT
HETATM    1  C1  UNL     1     -36.141  16.018  -5.062  1.00 20.00    -0.030 C 
HETATM    2  C2  UNL     1     -35.940  15.868  -3.746  1.00 20.00    -0.025 C 
HETATM    3  C6  UNL     1     -35.048  16.350  -6.029  1.00 20.00     0.027 C 
HETATM    4  C7  UNL     1     -33.757  16.822  -5.354  1.00 20.00     0.016 C 
HETATM    5  C8  UNL     1     -34.592  15.988  -3.082  1.00 20.00     0.025 C 
HETATM    6  C9  UNL     1     -33.421  16.026  -4.089  1.00 20.00     0.055 C 
ENDROOT
BRANCH   5   7
HETATM    7  C11 UNL     1     -34.581  17.228  -2.183  1.00 20.00     0.011 C 
HETATM    8  C10 UNL     1     -33.158  17.545  -1.731  1.00 20.00     0.015 C 
BRANCH   7   9
HETATM    9  C4  UNL     1     -35.475  17.009  -0.991  1.00 20.00    -0.032 C 
HETATM   10  C3  UNL     1     -35.334  17.651   0.173  1.00 20.00     0.007 C 
ENDBRANCH   7   9
ENDBRANCH   5   7
BRANCH   6  11
HETATM   11  C5  UNL     1     -33.000  14.634  -4.468  1.00 20.00     0.236 C 
HETATM   12  O12 UNL     1     -33.596  13.624  -4.105  1.00 20.00    -0.306 OA
ENDBRANCH   6  11
TORSDOF 3
ENDMDL
MODEL 5
REMARK VINA RESULT:      -4.5      2.383      4.610
REMARK  3 active torsions:
REMARK  status: ('A' for Active; 'I' for Inactive)
REMARK    1  A    between atoms: C4_4  and  C11_11 
REMARK    2  A    between atoms: C5_5  and  C9_9 
REMARK    3  A    between atoms: C8_8  and  C11_11 
ROOT
HETATM    1  C1  UNL     1     -36.377  17.864  -3.111  1.00 20.00    -0.030 C 
HETATM    2  C2  UNL     1     -35.571  17.220  -3.967  1.00 20.00    -0.025 C 
HETATM    3  C6  UNL     1     -36.099  17.977  -1.645  1.00 20.00     0.027 C 
HETATM    4  C7  UNL     1     -35.001  17.028  -1.156  1.00 20.00     0.016 C 
HETATM    5  C8  UNL     1     -34.278  16.556  -3.566  1.00 20.00     0.025 C 
HETATM    6  C9  UNL     1     -33.827  16.920  -2.134  1.00 20.00     0.055 C 
ENDROOT
BRANCH   5   7
HETATM    7  C11 UNL     1     -34.420  15.039  -3.726  1.00 20.00     0.011 C 
HETATM    8  C10 UNL     1     -33.171  14.454  -4.381  1.00 20.00     0.015 C 
BRANCH   7   9
HETATM    9  C4  UNL     1     -35.642  14.719  -4.545  1.00 20.00    -0.032 C 
HETATM   10  C3  UNL     1     -35.835  13.553  -5.171  1.00 20.00     0.007 C 
ENDBRANCH   7   9
ENDBRANCH   5   7
BRANCH   6  11
HETATM   11  C5  UNL     1     -33.051  18.208  -2.132  1.00 20.00     0.236 C 
HETATM   12  O12 UNL     1     -32.168  18.465  -1.320  1.00 20.00    -0.306 OA
ENDBRANCH   6  11
TORSDOF 3
ENDMDL
MODEL 6
REMARK VINA RESULT:      -4.5      2.095      4.500
REMARK  3 active torsions:
REMARK  status: ('A' for Active; 'I' for Inactive)
REMARK    1  A    between atoms: C4_4  and  C11_11 
REMARK    2  A    between atoms: C5_5  and  C9_9 
REMARK    3  A    between atoms: C8_8  and  C11_11 
ROOT
HETATM    1  C1  UNL     1     -35.213  16.951  -1.152  1.00 20.00    -0.030 C 
HETATM    2  C2  UNL     1     -35.442  16.407  -2.355  1.00 20.00    -0.025 C 
HETATM    3  C6  UNL     1     -34.045  17.839  -0.859  1.00 20.00     0.027 C 
HETATM    4  C7  UNL     1     -32.967  17.811  -1.947  1.00 20.00     0.016 C 
HETATM    5  C8  UNL     1     -34.572  16.643  -3.564  1.00 20.00     0.025 C 
HETATM    6  C9  UNL     1     -33.550  17.784  -3.363  1.00 20.00     0.055 C 
ENDROOT
BRANCH   5   7
HETATM    7  C11 UNL     1     -33.865  15.336  -3.938  1.00 20.00     0.011 C 
HETATM    8  C10 UNL     1     -32.983  15.542  -5.168  1.00 20.00     0.015 C 
BRANCH   7   9
HETATM    9  C4  UNL     1     -34.882  14.256  -4.195  1.00 20.00    -0.032 C 
HETATM   10  C3  UNL     1     -35.215  13.822  -5.416  1.00 20.00     0.007 C 
ENDBRANCH   7   9
ENDBRANCH   5   7
BRANCH   6  11
HETATM   11  C5  UNL     1     -34.173  19.116  -3.675  1.00 20.00     0.236 C 
HETATM   12  O12 UNL     1     -35.091  19.263  -4.476  1.00 20.00    -0.306 OA
ENDBRANCH   6  11
TORSDOF 3
ENDMDL
MODEL 7
REMARK VINA RESULT:      -4.4      1.372      1.921
REMARK  3 active torsions:
REMARK  status: ('A' for Active; 'I' for Inactive)
REMARK    1  A    between atoms: C4_4  and  C11_11 
REMARK    2  A    between atoms: C5_5  and  C9_9 
REMARK    3  A    between atoms: C8_8  and  C11_11 
ROOT
HETATM    1  C1  UNL     1     -33.497  16.433  -5.198  1.00 20.00    -0.030 C 
HETATM    2  C2  UNL     1     -34.789  16.788  -5.199  1.00 20.00    -0.025 C 
HETATM    3  C6  UNL     1     -33.017  15.072  -4.803  1.00 20.00     0.027 C 
HETATM    4  C7  UNL     1     -34.083  14.231  -4.094  1.00 20.00     0.016 C 
HETATM    5  C8  UNL     1     -35.916  15.858  -4.830  1.00 20.00     0.025 C 
HETATM    6  C9  UNL     1     -35.474  14.382  -4.718  1.00 20.00     0.055 C 
ENDROOT
BRANCH   5   7
HETATM    7  C11 UNL     1     -36.559  16.338  -3.525  1.00 20.00     0.011 C 
HETATM    8  C10 UNL     1     -37.825  17.140  -3.818  1.00 20.00     0.015 C 
BRANCH   7   9
HETATM    9  C4  UNL     1     -35.579  17.171  -2.743  1.00 20.00    -0.032 C 
HETATM   10  C3  UNL     1     -35.123  16.841  -1.530  1.00 20.00     0.007 C 
ENDBRANCH   7   9
ENDBRANCH   5   7
BRANCH   6  11
HETATM   11  C5  UNL     1     -35.496  13.716  -6.065  1.00 20.00     0.236 C 
HETATM   12  O12 UNL     1     -35.303  12.515  -6.229  1.00 20.00    -0.306 OA
ENDBRANCH   6  11
TORSDOF 3
ENDMDL
MODEL 8
REMARK VINA RESULT:      -4.3      1.921      2.683
REMARK  3 active torsions:
REMARK  status: ('A' for Active; 'I' for Inactive)
REMARK    1  A    between atoms: C4_4  and  C11_11 
REMARK    2  A    between atoms: C5_5  and  C9_9 
REMARK    3  A    between atoms: C8_8  and  C11_11 
ROOT
HETATM    1  C1  UNL     1     -37.890  16.876  -5.018  1.00 20.00    -0.030 C 
HETATM    2  C2  UNL     1     -37.293  16.480  -3.885  1.00 20.00    -0.025 C 
HETATM    3  C6  UNL     1     -37.359  16.561  -6.382  1.00 20.00     0.027 C 
HETATM    4  C7  UNL     1     -35.920  16.036  -6.371  1.00 20.00     0.016 C 
HETATM    5  C8  UNL     1     -36.035  15.650  -3.843  1.00 20.00     0.025 C 
HETATM    6  C9  UNL     1     -35.648  15.064  -5.220  1.00 20.00     0.055 C 
ENDROOT
BRANCH   5   7
HETATM    7  C11 UNL     1     -34.894  16.494  -3.268  1.00 20.00     0.011 C 
HETATM    8  C10 UNL     1     -33.547  15.838  -3.560  1.00 20.00     0.015 C 
BRANCH   7   9
HETATM    9  C4  UNL     1     -35.081  16.672  -1.784  1.00 20.00    -0.032 C 
HETATM   10  C3  UNL     1     -34.292  17.435  -1.020  1.00 20.00     0.007 C 
ENDBRANCH   7   9
ENDBRANCH   5   7
BRANCH   6  11
HETATM   11  C5  UNL     1     -36.374  13.772  -5.470  1.00 20.00     0.236 C 
HETATM   12  O12 UNL     1     -35.895  12.668  -5.226  1.00 20.00    -0.306 OA
ENDBRANCH   6  11
TORSDOF 3
ENDMDL
MODEL 9
REMARK VINA RESULT:      -4.2      1.717      2.733
REMARK  3 active torsions:
REMARK  status: ('A' for Active; 'I' for Inactive)
REMARK    1  A    between atoms: C4_4  and  C11_11 
REMARK    2  A    between atoms: C5_5  and  C9_9 
REMARK    3  A    between atoms: C8_8  and  C11_11 
ROOT
HETATM    1  C1  UNL     1     -34.938  14.638  -7.178  1.00 20.00    -0.030 C 
HETATM    2  C2  UNL     1     -34.829  15.777  -6.479  1.00 20.00    -0.025 C 
HETATM    3  C6  UNL     1     -35.523  13.381  -6.617  1.00 20.00     0.027 C 
HETATM    4  C7  UNL     1     -35.686  13.408  -5.095  1.00 20.00     0.016 C 
HETATM    5  C8  UNL     1     -35.306  15.939  -5.058  1.00 20.00     0.025 C 
HETATM    6  C9  UNL     1     -36.179  14.761  -4.572  1.00 20.00     0.055 C 
ENDROOT
BRANCH   5   7
HETATM    7  C11 UNL     1     -34.095  16.138  -4.140  1.00 20.00     0.011 C 
HETATM    8  C10 UNL     1     -33.073  15.026  -4.358  1.00 20.00     0.015 C 
BRANCH   7   9
HETATM    9  C4  UNL     1     -34.539  16.169  -2.701  1.00 20.00    -0.032 C 
HETATM   10  C3  UNL     1     -34.138  17.091  -1.818  1.00 20.00     0.007 C 
ENDBRANCH   7   9
ENDBRANCH   5   7
BRANCH   6  11
HETATM   11  C5  UNL     1     -37.614  14.962  -4.971  1.00 20.00     0.236 C 
HETATM   12  O12 UNL     1     -38.477  14.098  -4.852  1.00 20.00    -0.306 OA
ENDBRANCH   6  11
TORSDOF 3
ENDMDL
