MODEL 1
REMARK VINA RESULT:      -4.7      0.000      0.000
REMARK  2 active torsions:
REMARK  status: ('A' for Active; 'I' for Inactive)
REMARK    1  A    between atoms: C1_1  and  C5_5 
REMARK    2  A    between atoms: C2_2  and  C6_6 
ROOT
HETATM    1  C1  UNL     1     -33.407   7.627   3.201  1.00 20.00    -0.063 C 
HETATM    2  C2  UNL     1     -32.961   8.364   2.363  1.00 20.00    -0.063 C 
ENDROOT
BRANCH   1   3
HETATM    3  C5  UNL     1     -33.939   6.750   4.199  1.00 20.00     0.141 A 
HETATM    4  C3  UNL     1     -35.084   5.836   3.832  1.00 20.00     0.221 A 
HETATM    5  O9  UNL     1     -33.732   5.363   3.893  1.00 20.00    -0.362 OA
HETATM    6  C7  UNL     1     -33.694   7.090   5.633  1.00 20.00     0.063 C 
ENDBRANCH   1   3
BRANCH   2   7
HETATM    7  C6  UNL     1     -32.419   9.260   1.343  1.00 20.00     0.141 A 
HETATM    8  C4  UNL     1     -31.296   8.755   0.494  1.00 20.00     0.221 A 
HETATM    9  O10 UNL     1     -32.652   8.767   0.028  1.00 20.00    -0.362 OA
HETATM   10  C8  UNL     1     -32.662  10.707   1.527  1.00 20.00     0.063 C 
ENDBRANCH   2   7
TORSDOF 2
ENDMDL
MODEL 2
REMARK VINA RESULT:      -4.7      0.032      4.710
REMARK  2 active torsions:
REMARK  status: ('A' for Active; 'I' for Inactive)
REMARK    1  A    between atoms: C1_1  and  C5_5 
REMARK    2  A    between atoms: C2_2  and  C6_6 
ROOT
HETATM    1  C1  UNL     1     -32.944   8.384   2.342  1.00 20.00    -0.063 C 
HETATM    2  C2  UNL     1     -33.393   7.646   3.178  1.00 20.00    -0.063 C 
ENDROOT
BRANCH   1   3
HETATM    3  C5  UNL     1     -32.411   9.264   1.347  1.00 20.00     0.141 A 
HETATM    4  C3  UNL     1     -31.279   8.779   0.474  1.00 20.00     0.221 A 
HETATM    5  O9  UNL     1     -32.634   8.797   0.009  1.00 20.00    -0.362 OA
HETATM    6  C7  UNL     1     -32.639  10.731   1.516  1.00 20.00     0.063 C 
ENDBRANCH   1   3
BRANCH   2   7
HETATM    7  C6  UNL     1     -33.938   6.748   4.194  1.00 20.00     0.141 A 
HETATM    8  C4  UNL     1     -35.073   5.856   3.803  1.00 20.00     0.221 A 
HETATM    9  O10 UNL     1     -33.721   5.381   3.861  1.00 20.00    -0.362 OA
HETATM   10  C8  UNL     1     -33.681   7.102   5.607  1.00 20.00     0.063 C 
ENDBRANCH   2   7
TORSDOF 2
ENDMDL
MODEL 3
REMARK VINA RESULT:      -4.7      0.870      1.320
REMARK  2 active torsions:
REMARK  status: ('A' for Active; 'I' for Inactive)
REMARK    1  A    between atoms: C1_1  and  C5_5 
REMARK    2  A    between atoms: C2_2  and  C6_6 
ROOT
HETATM    1  C1  UNL     1     -33.364   7.535   3.097  1.00 20.00    -0.063 C 
HETATM    2  C2  UNL     1     -32.888   8.191   2.211  1.00 20.00    -0.063 C 
ENDROOT
BRANCH   1   3
HETATM    3  C5  UNL     1     -33.935   6.754   4.153  1.00 20.00     0.141 A 
HETATM    4  C3  UNL     1     -35.118   5.868   3.847  1.00 20.00     0.221 A 
HETATM    5  O9  UNL     1     -33.788   5.341   3.944  1.00 20.00    -0.362 OA
HETATM    6  C7  UNL     1     -33.674   7.182   5.560  1.00 20.00     0.063 C 
ENDBRANCH   1   3
BRANCH   2   7
HETATM    7  C6  UNL     1     -32.307   8.989   1.133  1.00 20.00     0.141 A 
HETATM    8  C4  UNL     1     -33.237   9.764   0.256  1.00 20.00     0.221 A 
HETATM    9  O10 UNL     1     -32.520  10.382   1.332  1.00 20.00    -0.362 OA
HETATM   10  C8  UNL     1     -30.947   8.617   0.683  1.00 20.00     0.063 C 
ENDBRANCH   2   7
TORSDOF 2
ENDMDL
MODEL 4
REMARK VINA RESULT:      -4.4      1.028      4.831
REMARK  2 active torsions:
REMARK  status: ('A' for Active; 'I' for Inactive)
REMARK    1  A    between atoms: C1_1  and  C5_5 
REMARK    2  A    between atoms: C2_2  and  C6_6 
ROOT
HETATM    1  C1  UNL     1     -32.924   8.113   2.024  1.00 20.00    -0.063 C 
HETATM    2  C2  UNL     1     -33.304   7.177   2.674  1.00 20.00    -0.063 C 
ENDROOT
BRANCH   1   3
HETATM    3  C5  UNL     1     -32.472   9.228   1.248  1.00 20.00     0.141 A 
HETATM    4  C3  UNL     1     -31.293   9.042   0.323  1.00 20.00     0.221 A 
HETATM    5  O9  UNL     1     -32.641   9.032  -0.163  1.00 20.00    -0.362 OA
HETATM    6  C7  UNL     1     -32.840  10.599   1.711  1.00 20.00     0.063 C 
ENDBRANCH   1   3
BRANCH   2   7
HETATM    7  C6  UNL     1     -33.767   6.038   3.466  1.00 20.00     0.141 A 
HETATM    8  C4  UNL     1     -34.274   6.306   4.847  1.00 20.00     0.221 A 
HETATM    9  O10 UNL     1     -35.162   6.115   3.737  1.00 20.00    -0.362 OA
HETATM   10  C8  UNL     1     -33.275   4.702   3.066  1.00 20.00     0.063 C 
ENDBRANCH   2   7
TORSDOF 2
ENDMDL
MODEL 5
REMARK VINA RESULT:      -4.3      1.347      1.991
REMARK  2 active torsions:
REMARK  status: ('A' for Active; 'I' for Inactive)
REMARK    1  A    between atoms: C1_1  and  C5_5 
REMARK    2  A    between atoms: C2_2  and  C6_6 
ROOT
HETATM    1  C1  UNL     1     -33.289   6.995   2.806  1.00 20.00    -0.063 C 
HETATM    2  C2  UNL     1     -32.825   7.897   2.164  1.00 20.00    -0.063 C 
ENDROOT
BRANCH   1   3
HETATM    3  C5  UNL     1     -33.841   5.917   3.571  1.00 20.00     0.141 A 
HETATM    4  C3  UNL     1     -34.364   6.201   4.959  1.00 20.00     0.221 A 
HETATM    5  O9  UNL     1     -35.243   6.078   3.833  1.00 20.00    -0.362 OA
HETATM    6  C7  UNL     1     -33.458   4.524   3.194  1.00 20.00     0.063 C 
ENDBRANCH   1   3
BRANCH   2   7
HETATM    7  C6  UNL     1     -32.261   8.997   1.382  1.00 20.00     0.141 A 
HETATM    8  C4  UNL     1     -33.112  10.205   1.159  1.00 20.00     0.221 A 
HETATM    9  O10 UNL     1     -32.095  10.172   2.168  1.00 20.00    -0.362 OA
HETATM   10  C8  UNL     1     -31.129   8.670   0.489  1.00 20.00     0.063 C 
ENDBRANCH   2   7
TORSDOF 2
ENDMDL
MODEL 6
REMARK VINA RESULT:      -4.3      1.357      4.880
REMARK  2 active torsions:
REMARK  status: ('A' for Active; 'I' for Inactive)
REMARK    1  A    between atoms: C1_1  and  C5_5 
REMARK    2  A    between atoms: C2_2  and  C6_6 
ROOT
HETATM    1  C1  UNL     1     -32.837   7.866   2.146  1.00 20.00    -0.063 C 
HETATM    2  C2  UNL     1     -33.302   6.962   2.786  1.00 20.00    -0.063 C 
ENDROOT
BRANCH   1   3
HETATM    3  C5  UNL     1     -32.281   8.944   1.385  1.00 20.00     0.141 A 
HETATM    4  C3  UNL     1     -33.114  10.182   1.158  1.00 20.00     0.221 A 
HETATM    5  O9  UNL     1     -32.090  10.136   2.160  1.00 20.00    -0.362 OA
HETATM    6  C7  UNL     1     -31.144   8.638   0.466  1.00 20.00     0.063 C 
ENDBRANCH   1   3
BRANCH   2   7
HETATM    7  C6  UNL     1     -33.868   5.861   3.564  1.00 20.00     0.141 A 
HETATM    8  C4  UNL     1     -34.412   6.171   4.921  1.00 20.00     0.221 A 
HETATM    9  O10 UNL     1     -35.265   6.030   3.778  1.00 20.00    -0.362 OA
HETATM   10  C8  UNL     1     -33.448   4.493   3.191  1.00 20.00     0.063 C 
ENDBRANCH   2   7
TORSDOF 2
ENDMDL
MODEL 7
REMARK VINA RESULT:      -4.0      9.987     10.656
REMARK  2 active torsions:
REMARK  status: ('A' for Active; 'I' for Inactive)
REMARK    1  A    between atoms: C1_1  and  C5_5 
REMARK    2  A    between atoms: C2_2  and  C6_6 
ROOT
HETATM    1  C1  UNL     1     -34.653  15.848  -3.190  1.00 20.00    -0.063 C 
HETATM    2  C2  UNL     1     -34.396  16.643  -2.327  1.00 20.00    -0.063 C 
ENDROOT
BRANCH   1   3
HETATM    3  C5  UNL     1     -34.960  14.899  -4.217  1.00 20.00     0.141 A 
HETATM    4  C3  UNL     1     -33.856  14.440  -5.139  1.00 20.00     0.221 A 
HETATM    5  O9  UNL     1     -34.294  13.641  -4.032  1.00 20.00    -0.362 OA
HETATM    6  C7  UNL     1     -36.385  14.765  -4.643  1.00 20.00     0.063 C 
ENDBRANCH   1   3
BRANCH   2   7
HETATM    7  C6  UNL     1     -34.083  17.612  -1.277  1.00 20.00     0.141 A 
HETATM    8  C4  UNL     1     -32.683  18.132  -1.200  1.00 20.00     0.221 A 
HETATM    9  O10 UNL     1     -33.737  18.883  -1.817  1.00 20.00    -0.362 OA
HETATM   10  C8  UNL     1     -34.990  17.648  -0.109  1.00 20.00     0.063 C 
ENDBRANCH   2   7
TORSDOF 2
ENDMDL
MODEL 8
REMARK VINA RESULT:      -4.0      9.990     10.706
REMARK  2 active torsions:
REMARK  status: ('A' for Active; 'I' for Inactive)
REMARK    1  A    between atoms: C1_1  and  C5_5 
REMARK    2  A    between atoms: C2_2  and  C6_6 
ROOT
HETATM    1  C1  UNL     1     -34.423  16.640  -2.330  1.00 20.00    -0.063 C 
HETATM    2  C2  UNL     1     -34.687  15.844  -3.189  1.00 20.00    -0.063 C 
ENDROOT
BRANCH   1   3
HETATM    3  C5  UNL     1     -34.111  17.591  -1.306  1.00 20.00     0.141 A 
HETATM    4  C3  UNL     1     -32.703  18.130  -1.216  1.00 20.00     0.221 A 
HETATM    5  O9  UNL     1     -33.760  18.881  -1.828  1.00 20.00    -0.362 OA
HETATM    6  C7  UNL     1     -35.004  17.651  -0.110  1.00 20.00     0.063 C 
ENDBRANCH   1   3
BRANCH   2   7
HETATM    7  C6  UNL     1     -35.008  14.874  -4.235  1.00 20.00     0.141 A 
HETATM    8  C4  UNL     1     -33.905  14.436  -5.145  1.00 20.00     0.221 A 
HETATM    9  O10 UNL     1     -34.331  13.637  -4.034  1.00 20.00    -0.362 OA
HETATM   10  C8  UNL     1     -36.429  14.758  -4.628  1.00 20.00     0.063 C 
ENDBRANCH   2   7
TORSDOF 2
ENDMDL
MODEL 9
REMARK VINA RESULT:      -3.9     10.133     10.712
REMARK  2 active torsions:
REMARK  status: ('A' for Active; 'I' for Inactive)
REMARK    1  A    between atoms: C1_1  and  C5_5 
REMARK    2  A    between atoms: C2_2  and  C6_6 
ROOT
HETATM    1  C1  UNL     1     -34.805  15.441  -3.691  1.00 20.00    -0.063 C 
HETATM    2  C2  UNL     1     -34.807  16.214  -2.772  1.00 20.00    -0.063 C 
ENDROOT
BRANCH   1   3
HETATM    3  C5  UNL     1     -34.805  14.519  -4.787  1.00 20.00     0.141 A 
HETATM    4  C3  UNL     1     -33.876  14.768  -5.950  1.00 20.00     0.221 A 
HETATM    5  O9  UNL     1     -33.561  13.816  -4.926  1.00 20.00    -0.362 OA
HETATM    6  C7  UNL     1     -36.007  13.651  -4.972  1.00 20.00     0.063 C 
ENDBRANCH   1   3
BRANCH   2   7
HETATM    7  C6  UNL     1     -34.809  17.156  -1.654  1.00 20.00     0.141 A 
HETATM    8  C4  UNL     1     -36.073  17.902  -1.369  1.00 20.00     0.221 A 
HETATM    9  O10 UNL     1     -35.693  16.743  -0.617  1.00 20.00    -0.362 OA
HETATM   10  C8  UNL     1     -33.494  17.657  -1.200  1.00 20.00     0.063 C 
ENDBRANCH   2   7
TORSDOF 2
ENDMDL
