MODEL 1
REMARK VINA RESULT:      -4.4      0.000      0.000
REMARK  2 active torsions:
REMARK  status: ('A' for Active; 'I' for Inactive)
REMARK    1  A    between atoms: C3_3  and  C6_6 
REMARK    2  A    between atoms: C6_6  and  C7_7 
ROOT
HETATM    1  C1  UNL     1     -34.904   5.524   4.091  1.00 20.00     0.281 C 
HETATM    2  C2  UNL     1     -34.237   5.740   5.442  1.00 20.00     0.106 C 
HETATM    3  C3  UNL     1     -33.679   7.448   3.514  1.00 20.00     0.282 C 
HETATM    4  N8  UNL     1     -34.027   6.093   3.060  1.00 20.00     0.098 N 
HETATM    5  S9  UNL     1     -33.576   7.417   5.331  1.00 20.00    -0.132 SA
HETATM    6  H24 UNL     1     -33.176   5.529   3.018  1.00 20.00     0.317 HD
ENDROOT
BRANCH   3   7
HETATM    7  C6  UNL     1     -32.362   7.910   2.907  1.00 20.00     0.050 C 
BRANCH   7   8
HETATM    8  C7  UNL     1     -32.528   8.654   1.570  1.00 20.00    -0.020 C 
HETATM    9  C4  UNL     1     -32.810  10.144   1.765  1.00 20.00     0.009 C 
HETATM   10  C5  UNL     1     -31.272   8.473   0.715  1.00 20.00     0.009 C 
ENDBRANCH   7   8
ENDBRANCH   3   7
TORSDOF 2
ENDMDL
MODEL 2
REMARK VINA RESULT:      -4.3      1.543      1.815
REMARK  2 active torsions:
REMARK  status: ('A' for Active; 'I' for Inactive)
REMARK    1  A    between atoms: C3_3  and  C6_6 
REMARK    2  A    between atoms: C6_6  and  C7_7 
ROOT
HETATM    1  C1  UNL     1     -34.393   5.837   5.610  1.00 20.00     0.281 C 
HETATM    2  C2  UNL     1     -34.723   4.652   4.714  1.00 20.00     0.106 C 
HETATM    3  C3  UNL     1     -33.241   6.579   3.697  1.00 20.00     0.282 C 
HETATM    4  N8  UNL     1     -34.178   7.006   4.748  1.00 20.00     0.098 N 
HETATM    5  S9  UNL     1     -33.578   4.828   3.328  1.00 20.00    -0.132 SA
HETATM    6  H24 UNL     1     -35.069   7.252   4.316  1.00 20.00     0.317 HD
ENDROOT
BRANCH   3   7
HETATM    7  C6  UNL     1     -33.392   7.433   2.446  1.00 20.00     0.050 C 
BRANCH   7   8
HETATM    8  C7  UNL     1     -32.117   8.210   2.074  1.00 20.00    -0.020 C 
HETATM    9  C4  UNL     1     -32.424   9.530   1.367  1.00 20.00     0.009 C 
HETATM   10  C5  UNL     1     -31.286   8.477   3.331  1.00 20.00     0.009 C 
ENDBRANCH   7   8
ENDBRANCH   3   7
TORSDOF 2
ENDMDL
MODEL 3
REMARK VINA RESULT:      -4.1      1.471      1.636
REMARK  2 active torsions:
REMARK  status: ('A' for Active; 'I' for Inactive)
REMARK    1  A    between atoms: C3_3  and  C6_6 
REMARK    2  A    between atoms: C6_6  and  C7_7 
ROOT
HETATM    1  C1  UNL     1     -34.057   6.531   5.103  1.00 20.00     0.281 C 
HETATM    2  C2  UNL     1     -34.715   6.174   3.779  1.00 20.00     0.106 C 
HETATM    3  C3  UNL     1     -32.351   7.336   3.697  1.00 20.00     0.282 C 
HETATM    4  N8  UNL     1     -33.170   7.678   4.870  1.00 20.00     0.098 N 
HETATM    5  S9  UNL     1     -33.375   6.329   2.578  1.00 20.00    -0.132 SA
HETATM    6  H24 UNL     1     -33.748   8.488   4.645  1.00 20.00     0.317 HD
ENDROOT
BRANCH   3   7
HETATM    7  C6  UNL     1     -31.851   8.588   2.992  1.00 20.00     0.050 C 
BRANCH   7   8
HETATM    8  C7  UNL     1     -32.416   8.762   1.571  1.00 20.00    -0.020 C 
HETATM    9  C4  UNL     1     -33.039  10.141   1.356  1.00 20.00     0.009 C 
HETATM   10  C5  UNL     1     -31.310   8.527   0.539  1.00 20.00     0.009 C 
ENDBRANCH   7   8
ENDBRANCH   3   7
TORSDOF 2
ENDMDL
MODEL 4
REMARK VINA RESULT:      -3.7     10.813     11.723
REMARK  2 active torsions:
REMARK  status: ('A' for Active; 'I' for Inactive)
REMARK    1  A    between atoms: C3_3  and  C6_6 
REMARK    2  A    between atoms: C6_6  and  C7_7 
ROOT
HETATM    1  C1  UNL     1     -34.436  13.650  -7.268  1.00 20.00     0.281 C 
HETATM    2  C2  UNL     1     -35.941  13.678  -7.048  1.00 20.00     0.106 C 
HETATM    3  C3  UNL     1     -34.426  14.962  -5.315  1.00 20.00     0.282 C 
HETATM    4  N8  UNL     1     -33.787  13.805  -5.959  1.00 20.00     0.098 N 
HETATM    5  S9  UNL     1     -36.173  14.991  -5.829  1.00 20.00    -0.132 SA
HETATM    6  H24 UNL     1     -33.981  12.969  -5.406  1.00 20.00     0.317 HD
ENDROOT
BRANCH   3   7
HETATM    7  C6  UNL     1     -34.312  14.880  -3.799  1.00 20.00     0.050 C 
BRANCH   7   8
HETATM    8  C7  UNL     1     -33.914  16.212  -3.139  1.00 20.00    -0.020 C 
HETATM    9  C4  UNL     1     -33.644  17.313  -4.165  1.00 20.00     0.009 C 
HETATM   10  C5  UNL     1     -35.013  16.662  -2.174  1.00 20.00     0.009 C 
ENDBRANCH   7   8
ENDBRANCH   3   7
TORSDOF 2
ENDMDL
MODEL 5
REMARK VINA RESULT:      -3.7     11.153     12.002
REMARK  2 active torsions:
REMARK  status: ('A' for Active; 'I' for Inactive)
REMARK    1  A    between atoms: C3_3  and  C6_6 
REMARK    2  A    between atoms: C6_6  and  C7_7 
ROOT
HETATM    1  C1  UNL     1     -33.708  16.062  -6.756  1.00 20.00     0.281 C 
HETATM    2  C2  UNL     1     -34.147  14.627  -6.507  1.00 20.00     0.106 C 
HETATM    3  C3  UNL     1     -34.240  16.305  -4.478  1.00 20.00     0.282 C 
HETATM    4  N8  UNL     1     -33.214  16.608  -5.486  1.00 20.00     0.098 N 
HETATM    5  S9  UNL     1     -34.996  14.707  -4.915  1.00 20.00    -0.132 SA
HETATM    6  H24 UNL     1     -32.354  16.116  -5.240  1.00 20.00     0.317 HD
ENDROOT
BRANCH   3   7
HETATM    7  C6  UNL     1     -33.641  16.254  -3.080  1.00 20.00     0.050 C 
BRANCH   7   8
HETATM    8  C7  UNL     1     -34.121  17.392  -2.162  1.00 20.00    -0.020 C 
HETATM    9  C4  UNL     1     -35.248  16.951  -1.228  1.00 20.00     0.009 C 
HETATM   10  C5  UNL     1     -32.946  17.926  -1.339  1.00 20.00     0.009 C 
ENDBRANCH   7   8
ENDBRANCH   3   7
TORSDOF 2
ENDMDL
MODEL 6
REMARK VINA RESULT:      -3.7     10.945     11.394
REMARK  2 active torsions:
REMARK  status: ('A' for Active; 'I' for Inactive)
REMARK    1  A    between atoms: C3_3  and  C6_6 
REMARK    2  A    between atoms: C6_6  and  C7_7 
ROOT
HETATM    1  C1  UNL     1     -35.350  14.013  -5.052  1.00 20.00     0.281 C 
HETATM    2  C2  UNL     1     -34.464  14.553  -6.164  1.00 20.00     0.106 C 
HETATM    3  C3  UNL     1     -34.108  15.518  -3.738  1.00 20.00     0.282 C 
HETATM    4  N8  UNL     1     -35.475  15.058  -4.028  1.00 20.00     0.098 N 
HETATM    5  S9  UNL     1     -33.149  15.422  -5.283  1.00 20.00    -0.132 SA
HETATM    6  H24 UNL     1     -36.007  15.832  -4.426  1.00 20.00     0.317 HD
ENDROOT
BRANCH   3   7
HETATM    7  C6  UNL     1     -34.111  16.939  -3.193  1.00 20.00     0.050 C 
BRANCH   7   8
HETATM    8  C7  UNL     1     -33.954  17.012  -1.664  1.00 20.00    -0.020 C 
HETATM    9  C4  UNL     1     -33.019  18.139  -1.227  1.00 20.00     0.009 C 
HETATM   10  C5  UNL     1     -35.325  17.194  -1.009  1.00 20.00     0.009 C 
ENDBRANCH   7   8
ENDBRANCH   3   7
TORSDOF 2
ENDMDL
MODEL 7
REMARK VINA RESULT:      -3.6     10.773     11.952
REMARK  2 active torsions:
REMARK  status: ('A' for Active; 'I' for Inactive)
REMARK    1  A    between atoms: C3_3  and  C6_6 
REMARK    2  A    between atoms: C6_6  and  C7_7 
ROOT
HETATM    1  C1  UNL     1     -34.337  13.830  -7.584  1.00 20.00     0.281 C 
HETATM    2  C2  UNL     1     -34.326  15.348  -7.684  1.00 20.00     0.106 C 
HETATM    3  C3  UNL     1     -33.818  14.273  -5.333  1.00 20.00     0.282 C 
HETATM    4  N8  UNL     1     -34.691  13.472  -6.205  1.00 20.00     0.098 N 
HETATM    5  S9  UNL     1     -33.532  15.875  -6.150  1.00 20.00    -0.132 SA
HETATM    6  H24 UNL     1     -35.660  13.746  -6.043  1.00 20.00     0.317 HD
ENDROOT
BRANCH   3   7
HETATM    7  C6  UNL     1     -34.445  14.472  -3.960  1.00 20.00     0.050 C 
BRANCH   7   8
HETATM    8  C7  UNL     1     -35.195  15.807  -3.814  1.00 20.00    -0.020 C 
HETATM    9  C4  UNL     1     -36.710  15.641  -3.941  1.00 20.00     0.009 C 
HETATM   10  C5  UNL     1     -34.856  16.449  -2.467  1.00 20.00     0.009 C 
ENDBRANCH   7   8
ENDBRANCH   3   7
TORSDOF 2
ENDMDL
MODEL 8
REMARK VINA RESULT:      -3.6      1.451      4.402
REMARK  2 active torsions:
REMARK  status: ('A' for Active; 'I' for Inactive)
REMARK    1  A    between atoms: C3_3  and  C6_6 
REMARK    2  A    between atoms: C6_6  and  C7_7 
ROOT
HETATM    1  C1  UNL     1     -32.506   8.442   1.227  1.00 20.00     0.281 C 
HETATM    2  C2  UNL     1     -31.695   9.335   2.153  1.00 20.00     0.106 C 
HETATM    3  C3  UNL     1     -32.822   7.194   3.196  1.00 20.00     0.282 C 
HETATM    4  N8  UNL     1     -33.526   7.762   2.036  1.00 20.00     0.098 N 
HETATM    5  S9  UNL     1     -31.463   8.323   3.631  1.00 20.00    -0.132 SA
HETATM    6  H24 UNL     1     -34.192   8.463   2.364  1.00 20.00     0.317 HD
ENDROOT
BRANCH   3   7
HETATM    7  C6  UNL     1     -33.767   7.007   4.374  1.00 20.00     0.050 C 
BRANCH   7   8
HETATM    8  C7  UNL     1     -34.517   5.663   4.355  1.00 20.00    -0.020 C 
HETATM    9  C4  UNL     1     -33.814   4.616   3.490  1.00 20.00     0.009 C 
HETATM   10  C5  UNL     1     -34.672   5.134   5.783  1.00 20.00     0.009 C 
ENDBRANCH   7   8
ENDBRANCH   3   7
TORSDOF 2
ENDMDL
MODEL 9
REMARK VINA RESULT:      -3.6     10.782     11.225
REMARK  2 active torsions:
REMARK  status: ('A' for Active; 'I' for Inactive)
REMARK    1  A    between atoms: C3_3  and  C6_6 
REMARK    2  A    between atoms: C6_6  and  C7_7 
ROOT
HETATM    1  C1  UNL     1     -36.004  13.376  -5.370  1.00 20.00     0.281 C 
HETATM    2  C2  UNL     1     -37.114  14.366  -5.052  1.00 20.00     0.106 C 
HETATM    3  C3  UNL     1     -34.632  15.120  -4.588  1.00 20.00     0.282 C 
HETATM    4  N8  UNL     1     -34.869  13.673  -4.485  1.00 20.00     0.098 N 
HETATM    5  S9  UNL     1     -36.243  15.933  -4.832  1.00 20.00    -0.132 SA
HETATM    6  H24 UNL     1     -35.145  13.450  -3.528  1.00 20.00     0.317 HD
ENDROOT
BRANCH   3   7
HETATM    7  C6  UNL     1     -33.941  15.654  -3.341  1.00 20.00     0.050 C 
BRANCH   7   8
HETATM    8  C7  UNL     1     -34.521  16.988  -2.840  1.00 20.00    -0.020 C 
HETATM    9  C4  UNL     1     -35.046  16.894  -1.407  1.00 20.00     0.009 C 
HETATM   10  C5  UNL     1     -33.456  18.084  -2.930  1.00 20.00     0.009 C 
ENDBRANCH   7   8
ENDBRANCH   3   7
TORSDOF 2
ENDMDL
