MODEL 1
REMARK VINA RESULT:      -5.0      0.000      0.000
REMARK  1 active torsions:
REMARK  status: ('A' for Active; 'I' for Inactive)
REMARK    1  A    between atoms: C6_6  and  O11_11 
ROOT
HETATM    1  C1  UNL     1     -34.105   6.272   2.756  1.00 20.00     0.011 A 
HETATM    2  C2  UNL     1     -34.746   5.404   3.642  1.00 20.00     0.037 A 
HETATM    3  C3  UNL     1     -33.752   6.539   5.548  1.00 20.00     0.044 A 
HETATM    4  C4  UNL     1     -33.282   7.259   3.277  1.00 20.00    -0.048 A 
HETATM    5  C5  UNL     1     -33.110   7.388   4.662  1.00 20.00    -0.049 A 
HETATM    6  C6  UNL     1     -34.570   5.535   5.029  1.00 20.00     0.066 A 
HETATM    7  C7  UNL     1     -32.220   8.547   4.987  1.00 20.00     0.040 C 
HETATM    8  C8  UNL     1     -31.517   8.763   3.640  1.00 20.00     0.014 C 
HETATM    9  C9  UNL     1     -32.521   8.334   2.550  1.00 20.00     0.015 C 
HETATM   10  C10 UNL     1     -31.827   7.884   1.274  1.00 20.00     0.015 C 
ENDROOT
BRANCH   6  11
HETATM   11  O11 UNL     1     -35.212   4.680   5.873  1.00 20.00    -0.361 OA
HETATM   12  H23 UNL     1     -34.685   3.875   5.998  1.00 20.00     0.217 HD
ENDBRANCH   6  11
TORSDOF 1
ENDMDL
MODEL 2
REMARK VINA RESULT:      -5.0     11.681     12.425
REMARK  1 active torsions:
REMARK  status: ('A' for Active; 'I' for Inactive)
REMARK    1  A    between atoms: C6_6  and  O11_11 
ROOT
HETATM    1  C1  UNL     1     -33.520  18.705   2.384  1.00 20.00     0.011 A 
HETATM    2  C2  UNL     1     -32.301  18.888   3.040  1.00 20.00     0.037 A 
HETATM    3  C3  UNL     1     -31.089  18.709   0.940  1.00 20.00     0.044 A 
HETATM    4  C4  UNL     1     -33.509  18.513   1.010  1.00 20.00    -0.048 A 
HETATM    5  C5  UNL     1     -32.302  18.516   0.298  1.00 20.00    -0.049 A 
HETATM    6  C6  UNL     1     -31.094  18.889   2.324  1.00 20.00     0.066 A 
HETATM    7  C7  UNL     1     -32.542  18.338  -1.168  1.00 20.00     0.040 C 
HETATM    8  C8  UNL     1     -33.960  17.749  -1.163  1.00 20.00     0.014 C 
HETATM    9  C9  UNL     1     -34.672  18.337   0.073  1.00 20.00     0.015 C 
HETATM   10  C10 UNL     1     -35.783  17.432   0.582  1.00 20.00     0.015 C 
ENDROOT
BRANCH   6  11
HETATM   11  O11 UNL     1     -29.918  19.077   2.986  1.00 20.00    -0.361 OA
HETATM   12  H23 UNL     1     -30.074  19.555   3.816  1.00 20.00     0.217 HD
ENDBRANCH   6  11
TORSDOF 1
ENDMDL
MODEL 3
REMARK VINA RESULT:      -5.0     11.607     12.045
REMARK  1 active torsions:
REMARK  status: ('A' for Active; 'I' for Inactive)
REMARK    1  A    between atoms: C6_6  and  O11_11 
ROOT
HETATM    1  C1  UNL     1     -32.840  17.874  -1.623  1.00 20.00     0.011 A 
HETATM    2  C2  UNL     1     -33.595  17.113  -2.519  1.00 20.00     0.037 A 
HETATM    3  C3  UNL     1     -35.455  17.032  -0.957  1.00 20.00     0.044 A 
HETATM    4  C4  UNL     1     -33.399  18.195  -0.395  1.00 20.00    -0.048 A 
HETATM    5  C5  UNL     1     -34.696  17.776  -0.069  1.00 20.00    -0.049 A 
HETATM    6  C6  UNL     1     -34.893  16.694  -2.188  1.00 20.00     0.066 A 
HETATM    7  C7  UNL     1     -35.099  18.280   1.281  1.00 20.00     0.040 C 
HETATM    8  C8  UNL     1     -33.730  18.614   1.890  1.00 20.00     0.014 C 
HETATM    9  C9  UNL     1     -32.820  19.028   0.715  1.00 20.00     0.015 C 
HETATM   10  C10 UNL     1     -31.350  18.779   1.012  1.00 20.00     0.015 C 
ENDROOT
BRANCH   6  11
HETATM   11  O11 UNL     1     -35.611  15.958  -3.082  1.00 20.00    -0.361 OA
HETATM   12  H23 UNL     1     -35.482  15.011  -2.916  1.00 20.00     0.217 HD
ENDBRANCH   6  11
TORSDOF 1
ENDMDL
MODEL 4
REMARK VINA RESULT:      -4.9      2.387      4.432
REMARK  1 active torsions:
REMARK  status: ('A' for Active; 'I' for Inactive)
REMARK    1  A    between atoms: C6_6  and  O11_11 
ROOT
HETATM    1  C1  UNL     1     -33.912   7.529   4.401  1.00 20.00     0.011 A 
HETATM    2  C2  UNL     1     -33.154   8.425   3.642  1.00 20.00     0.037 A 
HETATM    3  C3  UNL     1     -32.495   6.650   2.118  1.00 20.00     0.044 A 
HETATM    4  C4  UNL     1     -33.942   6.197   4.015  1.00 20.00    -0.048 A 
HETATM    5  C5  UNL     1     -33.240   5.766   2.882  1.00 20.00    -0.049 A 
HETATM    6  C6  UNL     1     -32.450   7.988   2.509  1.00 20.00     0.066 A 
HETATM    7  C7  UNL     1     -33.460   4.306   2.637  1.00 20.00     0.040 C 
HETATM    8  C8  UNL     1     -33.962   3.851   4.015  1.00 20.00     0.014 C 
HETATM    9  C9  UNL     1     -34.706   5.055   4.628  1.00 20.00     0.015 C 
HETATM   10  C10 UNL     1     -34.706   5.019   6.148  1.00 20.00     0.015 C 
ENDROOT
BRANCH   6  11
HETATM   11  O11 UNL     1     -31.724   8.883   1.782  1.00 20.00    -0.361 OA
HETATM   12  H23 UNL     1     -31.060   9.311   2.345  1.00 20.00     0.217 HD
ENDBRANCH   6  11
TORSDOF 1
ENDMDL
MODEL 5
REMARK VINA RESULT:      -4.9      2.352      3.873
REMARK  1 active torsions:
REMARK  status: ('A' for Active; 'I' for Inactive)
REMARK    1  A    between atoms: C6_6  and  O11_11 
ROOT
HETATM    1  C1  UNL     1     -33.353   5.958   2.582  1.00 20.00     0.011 A 
HETATM    2  C2  UNL     1     -32.780   6.901   1.725  1.00 20.00     0.037 A 
HETATM    3  C3  UNL     1     -32.494   8.466   3.563  1.00 20.00     0.044 A 
HETATM    4  C4  UNL     1     -33.502   6.286   3.921  1.00 20.00    -0.048 A 
HETATM    5  C5  UNL     1     -33.074   7.530   4.404  1.00 20.00    -0.049 A 
HETATM    6  C6  UNL     1     -32.355   8.147   2.212  1.00 20.00     0.066 A 
HETATM    7  C7  UNL     1     -33.293   7.638   5.880  1.00 20.00     0.040 C 
HETATM    8  C8  UNL     1     -34.328   6.527   6.105  1.00 20.00     0.014 C 
HETATM    9  C9  UNL     1     -34.043   5.444   5.044  1.00 20.00     0.015 C 
HETATM   10  C10 UNL     1     -35.281   4.630   4.705  1.00 20.00     0.015 C 
ENDROOT
BRANCH   6  11
HETATM   11  O11 UNL     1     -31.792   9.047   1.357  1.00 20.00    -0.361 OA
HETATM   12  H23 UNL     1     -31.126   8.611   0.803  1.00 20.00     0.217 HD
ENDBRANCH   6  11
TORSDOF 1
ENDMDL
MODEL 6
REMARK VINA RESULT:      -4.8      0.830      2.251
REMARK  1 active torsions:
REMARK  status: ('A' for Active; 'I' for Inactive)
REMARK    1  A    between atoms: C6_6  and  O11_11 
ROOT
HETATM    1  C1  UNL     1     -33.108   7.723   5.149  1.00 20.00     0.011 A 
HETATM    2  C2  UNL     1     -33.910   6.934   5.977  1.00 20.00     0.037 A 
HETATM    3  C3  UNL     1     -34.314   5.362   4.167  1.00 20.00     0.044 A 
HETATM    4  C4  UNL     1     -32.928   7.328   3.831  1.00 20.00    -0.048 A 
HETATM    5  C5  UNL     1     -33.527   6.157   3.349  1.00 20.00    -0.049 A 
HETATM    6  C6  UNL     1     -34.509   5.762   5.489  1.00 20.00     0.066 A 
HETATM    7  C7  UNL     1     -33.153   5.911   1.921  1.00 20.00     0.040 C 
HETATM    8  C8  UNL     1     -32.679   7.309   1.498  1.00 20.00     0.014 C 
HETATM    9  C9  UNL     1     -32.089   7.970   2.760  1.00 20.00     0.015 C 
HETATM   10  C10 UNL     1     -32.163   9.488   2.703  1.00 20.00     0.015 C 
ENDROOT
BRANCH   6  11
HETATM   11  O11 UNL     1     -35.282   5.006   6.318  1.00 20.00    -0.361 OA
HETATM   12  H23 UNL     1     -34.787   4.227   6.618  1.00 20.00     0.217 HD
ENDBRANCH   6  11
TORSDOF 1
ENDMDL
MODEL 7
REMARK VINA RESULT:      -4.8     11.124     12.020
REMARK  1 active torsions:
REMARK  status: ('A' for Active; 'I' for Inactive)
REMARK    1  A    between atoms: C6_6  and  O11_11 
ROOT
HETATM    1  C1  UNL     1     -33.709  15.246  -3.681  1.00 20.00     0.011 A 
HETATM    2  C2  UNL     1     -34.162  14.081  -4.305  1.00 20.00     0.037 A 
HETATM    3  C3  UNL     1     -36.451  14.903  -4.283  1.00 20.00     0.044 A 
HETATM    4  C4  UNL     1     -34.637  16.223  -3.353  1.00 20.00    -0.048 A 
HETATM    5  C5  UNL     1     -35.995  16.050  -3.653  1.00 20.00    -0.049 A 
HETATM    6  C6  UNL     1     -35.523  13.910  -4.603  1.00 20.00     0.066 A 
HETATM    7  C7  UNL     1     -36.792  17.250  -3.250  1.00 20.00     0.040 C 
HETATM    8  C8  UNL     1     -35.834  17.917  -2.254  1.00 20.00     0.014 C 
HETATM    9  C9  UNL     1     -34.406  17.570  -2.723  1.00 20.00     0.015 C 
HETATM   10  C10 UNL     1     -33.405  17.585  -1.578  1.00 20.00     0.015 C 
ENDROOT
BRANCH   6  11
HETATM   11  O11 UNL     1     -35.940  12.768  -5.219  1.00 20.00    -0.361 OA
HETATM   12  H23 UNL     1     -35.442  12.006  -4.882  1.00 20.00     0.217 HD
ENDBRANCH   6  11
TORSDOF 1
ENDMDL
MODEL 8
REMARK VINA RESULT:      -4.7     11.763     12.164
REMARK  1 active torsions:
REMARK  status: ('A' for Active; 'I' for Inactive)
REMARK    1  A    between atoms: C6_6  and  O11_11 
ROOT
HETATM    1  C1  UNL     1     -36.237  15.436  -3.912  1.00 20.00     0.011 A 
HETATM    2  C2  UNL     1     -35.604  14.599  -4.835  1.00 20.00     0.037 A 
HETATM    3  C3  UNL     1     -33.416  15.326  -4.066  1.00 20.00     0.044 A 
HETATM    4  C4  UNL     1     -35.449  16.220  -3.083  1.00 20.00    -0.048 A 
HETATM    5  C5  UNL     1     -34.051  16.162  -3.162  1.00 20.00    -0.049 A 
HETATM    6  C6  UNL     1     -34.204  14.546  -4.913  1.00 20.00     0.066 A 
HETATM    7  C7  UNL     1     -33.418  17.056  -2.142  1.00 20.00     0.040 C 
HETATM    8  C8  UNL     1     -34.588  17.990  -1.805  1.00 20.00     0.014 C 
HETATM    9  C9  UNL     1     -35.876  17.161  -1.990  1.00 20.00     0.015 C 
HETATM   10  C10 UNL     1     -37.079  18.031  -2.318  1.00 20.00     0.015 C 
ENDROOT
BRANCH   6  11
HETATM   11  O11 UNL     1     -33.611  13.716  -5.816  1.00 20.00    -0.361 OA
HETATM   12  H23 UNL     1     -34.266  13.106  -6.191  1.00 20.00     0.217 HD
ENDBRANCH   6  11
TORSDOF 1
ENDMDL
MODEL 9
REMARK VINA RESULT:      -4.6     11.488     11.854
REMARK  1 active torsions:
REMARK  status: ('A' for Active; 'I' for Inactive)
REMARK    1  A    between atoms: C6_6  and  O11_11 
ROOT
HETATM    1  C1  UNL     1     -35.928  17.479   0.114  1.00 20.00     0.011 A 
HETATM    2  C2  UNL     1     -36.023  17.778   1.476  1.00 20.00     0.037 A 
HETATM    3  C3  UNL     1     -33.743  18.623   1.497  1.00 20.00     0.044 A 
HETATM    4  C4  UNL     1     -34.734  17.745  -0.539  1.00 20.00    -0.048 A 
HETATM    5  C5  UNL     1     -33.654  18.312   0.149  1.00 20.00    -0.049 A 
HETATM    6  C6  UNL     1     -34.938  18.345   2.163  1.00 20.00     0.066 A 
HETATM    7  C7  UNL     1     -32.496  18.550  -0.769  1.00 20.00     0.040 C 
HETATM    8  C8  UNL     1     -32.852  17.617  -1.936  1.00 20.00     0.014 C 
HETATM    9  C9  UNL     1     -34.393  17.558  -1.992  1.00 20.00     0.015 C 
HETATM   10  C10 UNL     1     -34.896  16.265  -2.614  1.00 20.00     0.015 C 
ENDROOT
BRANCH   6  11
HETATM   11  O11 UNL     1     -35.056  18.634   3.489  1.00 20.00    -0.361 OA
HETATM   12  H23 UNL     1     -34.485  19.383   3.720  1.00 20.00     0.217 HD
ENDBRANCH   6  11
TORSDOF 1
ENDMDL
