MODEL 1
REMARK VINA RESULT:      -4.4      0.000      0.000
REMARK  3 active torsions:
REMARK  status: ('A' for Active; 'I' for Inactive)
REMARK    1  A    between atoms: C3_3  and  C10_10 
REMARK    2  A    between atoms: C7_7  and  C11_11 
REMARK    3  A    between atoms: C10_10  and  C11_11 
ROOT
HETATM    1  C1  UNL     1     -33.705  15.447  -3.506  1.00 20.00    -0.024 C 
HETATM    2  C2  UNL     1     -34.497  16.506  -3.261  1.00 20.00    -0.087 C 
HETATM    3  C4  UNL     1     -32.975  15.234  -4.801  1.00 20.00     0.032 C 
HETATM    4  C5  UNL     1     -34.701  17.603  -4.275  1.00 20.00     0.034 C 
HETATM    5  C6  UNL     1     -33.717  17.549  -5.448  1.00 20.00     0.009 C 
HETATM    6  C7  UNL     1     -33.474  16.122  -5.954  1.00 20.00    -0.007 C 
HETATM    7  C8  UNL     1     -35.234  16.660  -1.963  1.00 20.00     0.043 C 
ENDROOT
BRANCH   6   8
HETATM    8  C11 UNL     1     -34.726  15.535  -6.615  1.00 20.00    -0.008 C 
HETATM    9  C9  UNL     1     -35.022  16.284  -7.918  1.00 20.00     0.011 C 
BRANCH   8  10
HETATM   10  C10 UNL     1     -34.537  14.032  -6.865  1.00 20.00     0.074 C 
BRANCH  10  11
HETATM   11  C3  UNL     1     -35.695  13.179  -6.398  1.00 20.00     0.231 C 
HETATM   12  O12 UNL     1     -35.865  12.793  -5.247  1.00 20.00    -0.307 OA
ENDBRANCH  10  11
ENDBRANCH   8  10
ENDBRANCH   6   8
TORSDOF 3
ENDMDL
MODEL 2
REMARK VINA RESULT:      -4.4     10.780     12.335
REMARK  3 active torsions:
REMARK  status: ('A' for Active; 'I' for Inactive)
REMARK    1  A    between atoms: C3_3  and  C10_10 
REMARK    2  A    between atoms: C7_7  and  C11_11 
REMARK    3  A    between atoms: C10_10  and  C11_11 
ROOT
HETATM    1  C1  UNL     1     -31.744   9.234   2.788  1.00 20.00    -0.024 C 
HETATM    2  C2  UNL     1     -32.415   9.235   1.623  1.00 20.00    -0.087 C 
HETATM    3  C4  UNL     1     -31.618   8.031   3.677  1.00 20.00     0.032 C 
HETATM    4  C5  UNL     1     -33.087   7.996   1.086  1.00 20.00     0.034 C 
HETATM    5  C6  UNL     1     -32.688   6.712   1.820  1.00 20.00     0.009 C 
HETATM    6  C7  UNL     1     -32.604   6.899   3.340  1.00 20.00    -0.007 C 
HETATM    7  C8  UNL     1     -32.542  10.472   0.782  1.00 20.00     0.043 C 
ENDROOT
BRANCH   6   8
HETATM    8  C11 UNL     1     -33.984   7.153   3.956  1.00 20.00    -0.008 C 
HETATM    9  C9  UNL     1     -35.016   6.219   3.317  1.00 20.00     0.011 C 
BRANCH   8  10
HETATM   10  C10 UNL     1     -33.927   6.964   5.479  1.00 20.00     0.074 C 
BRANCH  10  11
HETATM   11  C3  UNL     1     -34.645   5.728   5.974  1.00 20.00     0.231 C 
HETATM   12  O12 UNL     1     -34.206   4.586   5.908  1.00 20.00    -0.307 OA
ENDBRANCH  10  11
ENDBRANCH   8  10
ENDBRANCH   6   8
TORSDOF 3
ENDMDL
MODEL 3
REMARK VINA RESULT:      -4.4      1.927      2.786
REMARK  3 active torsions:
REMARK  status: ('A' for Active; 'I' for Inactive)
REMARK    1  A    between atoms: C3_3  and  C10_10 
REMARK    2  A    between atoms: C7_7  and  C11_11 
REMARK    3  A    between atoms: C10_10  and  C11_11 
ROOT
HETATM    1  C1  UNL     1     -34.117  17.105  -1.374  1.00 20.00    -0.024 C 
HETATM    2  C2  UNL     1     -35.280  17.505  -0.831  1.00 20.00    -0.087 C 
HETATM    3  C4  UNL     1     -33.870  17.028  -2.853  1.00 20.00     0.032 C 
HETATM    4  C5  UNL     1     -36.448  17.945  -1.677  1.00 20.00     0.034 C 
HETATM    5  C6  UNL     1     -36.092  18.171  -3.150  1.00 20.00     0.009 C 
HETATM    6  C7  UNL     1     -35.149  17.096  -3.705  1.00 20.00    -0.007 C 
HETATM    7  C8  UNL     1     -35.493  17.535   0.654  1.00 20.00     0.043 C 
ENDROOT
BRANCH   6   8
HETATM    8  C11 UNL     1     -35.840  15.731  -3.794  1.00 20.00    -0.008 C 
HETATM    9  C9  UNL     1     -37.106  15.846  -4.648  1.00 20.00     0.011 C 
BRANCH   8  10
HETATM   10  C10 UNL     1     -34.873  14.685  -4.369  1.00 20.00     0.074 C 
BRANCH  10  11
HETATM   11  C3  UNL     1     -35.494  13.773  -5.403  1.00 20.00     0.231 C 
HETATM   12  O12 UNL     1     -35.880  12.629  -5.190  1.00 20.00    -0.307 OA
ENDBRANCH  10  11
ENDBRANCH   8  10
ENDBRANCH   6   8
TORSDOF 3
ENDMDL
MODEL 4
REMARK VINA RESULT:      -4.3      1.993      3.244
REMARK  3 active torsions:
REMARK  status: ('A' for Active; 'I' for Inactive)
REMARK    1  A    between atoms: C3_3  and  C10_10 
REMARK    2  A    between atoms: C7_7  and  C11_11 
REMARK    3  A    between atoms: C10_10  and  C11_11 
ROOT
HETATM    1  C1  UNL     1     -33.219  18.536  -3.001  1.00 20.00    -0.024 C 
HETATM    2  C2  UNL     1     -33.296  18.081  -1.739  1.00 20.00    -0.087 C 
HETATM    3  C4  UNL     1     -34.068  18.019  -4.127  1.00 20.00     0.032 C 
HETATM    4  C5  UNL     1     -34.278  17.011  -1.333  1.00 20.00     0.034 C 
HETATM    5  C6  UNL     1     -35.346  16.721  -2.392  1.00 20.00     0.009 C 
HETATM    6  C7  UNL     1     -34.778  16.690  -3.816  1.00 20.00    -0.007 C 
HETATM    7  C8  UNL     1     -32.404  18.605  -0.652  1.00 20.00     0.043 C 
ENDROOT
BRANCH   6   8
HETATM    8  C11 UNL     1     -33.846  15.492  -4.027  1.00 20.00    -0.008 C 
HETATM    9  C9  UNL     1     -34.671  14.203  -4.102  1.00 20.00     0.011 C 
BRANCH   8  10
HETATM   10  C10 UNL     1     -33.005  15.691  -5.296  1.00 20.00     0.074 C 
BRANCH  10  11
HETATM   11  C3  UNL     1     -33.696  15.254  -6.569  1.00 20.00     0.231 C 
HETATM   12  O12 UNL     1     -34.412  15.967  -7.262  1.00 20.00    -0.307 OA
ENDBRANCH  10  11
ENDBRANCH   8  10
ENDBRANCH   6   8
TORSDOF 3
ENDMDL
MODEL 5
REMARK VINA RESULT:      -4.2      2.791      4.866
REMARK  3 active torsions:
REMARK  status: ('A' for Active; 'I' for Inactive)
REMARK    1  A    between atoms: C3_3  and  C10_10 
REMARK    2  A    between atoms: C7_7  and  C11_11 
REMARK    3  A    between atoms: C10_10  and  C11_11 
ROOT
HETATM    1  C1  UNL     1     -33.183  15.734  -5.528  1.00 20.00    -0.024 C 
HETATM    2  C2  UNL     1     -34.171  16.346  -6.205  1.00 20.00    -0.087 C 
HETATM    3  C4  UNL     1     -33.369  15.081  -4.189  1.00 20.00     0.032 C 
HETATM    4  C5  UNL     1     -35.582  16.405  -5.678  1.00 20.00     0.034 C 
HETATM    5  C6  UNL     1     -35.836  15.473  -4.489  1.00 20.00     0.009 C 
HETATM    6  C7  UNL     1     -34.679  15.467  -3.482  1.00 20.00    -0.007 C 
HETATM    7  C8  UNL     1     -33.931  17.015  -7.526  1.00 20.00     0.043 C 
ENDROOT
BRANCH   6   8
HETATM    8  C11 UNL     1     -34.553  16.812  -2.758  1.00 20.00    -0.008 C 
HETATM    9  C9  UNL     1     -35.492  16.838  -1.548  1.00 20.00     0.011 C 
BRANCH   8  10
HETATM   10  C10 UNL     1     -33.095  17.053  -2.339  1.00 20.00     0.074 C 
BRANCH  10  11
HETATM   11  C3  UNL     1     -32.909  18.222  -1.398  1.00 20.00     0.231 C 
HETATM   12  O12 UNL     1     -31.870  18.489  -0.805  1.00 20.00    -0.307 OA
ENDBRANCH  10  11
ENDBRANCH   8  10
ENDBRANCH   6   8
TORSDOF 3
ENDMDL
MODEL 6
REMARK VINA RESULT:      -4.2      1.463      2.004
REMARK  3 active torsions:
REMARK  status: ('A' for Active; 'I' for Inactive)
REMARK    1  A    between atoms: C3_3  and  C10_10 
REMARK    2  A    between atoms: C7_7  and  C11_11 
REMARK    3  A    between atoms: C10_10  and  C11_11 
ROOT
HETATM    1  C1  UNL     1     -34.594  15.838  -3.338  1.00 20.00    -0.024 C 
HETATM    2  C2  UNL     1     -34.395  16.977  -4.025  1.00 20.00    -0.087 C 
HETATM    3  C4  UNL     1     -34.156  14.486  -3.821  1.00 20.00     0.032 C 
HETATM    4  C5  UNL     1     -33.678  16.995  -5.351  1.00 20.00     0.034 C 
HETATM    5  C6  UNL     1     -32.958  15.684  -5.682  1.00 20.00     0.009 C 
HETATM    6  C7  UNL     1     -33.783  14.445  -5.313  1.00 20.00    -0.007 C 
HETATM    7  C8  UNL     1     -34.880  18.303  -3.518  1.00 20.00     0.043 C 
ENDROOT
BRANCH   6   8
HETATM    8  C11 UNL     1     -35.026  14.309  -6.200  1.00 20.00    -0.008 C 
HETATM    9  C9  UNL     1     -34.664  13.564  -7.488  1.00 20.00     0.011 C 
BRANCH   8  10
HETATM   10  C10 UNL     1     -36.146  13.589  -5.434  1.00 20.00     0.074 C 
BRANCH  10  11
HETATM   11  C3  UNL     1     -37.431  14.380  -5.334  1.00 20.00     0.231 C 
HETATM   12  O12 UNL     1     -38.519  13.916  -5.009  1.00 20.00    -0.307 OA
ENDBRANCH  10  11
ENDBRANCH   8  10
ENDBRANCH   6   8
TORSDOF 3
ENDMDL
MODEL 7
REMARK VINA RESULT:      -4.2      2.575      4.780
REMARK  3 active torsions:
REMARK  status: ('A' for Active; 'I' for Inactive)
REMARK    1  A    between atoms: C3_3  and  C10_10 
REMARK    2  A    between atoms: C7_7  and  C11_11 
REMARK    3  A    between atoms: C10_10  and  C11_11 
ROOT
HETATM    1  C1  UNL     1     -33.821  15.176  -6.590  1.00 20.00    -0.024 C 
HETATM    2  C2  UNL     1     -34.968  14.482  -6.497  1.00 20.00    -0.087 C 
HETATM    3  C4  UNL     1     -32.967  15.538  -5.410  1.00 20.00     0.032 C 
HETATM    4  C5  UNL     1     -35.490  13.973  -5.176  1.00 20.00     0.034 C 
HETATM    5  C6  UNL     1     -34.469  14.059  -4.036  1.00 20.00     0.009 C 
HETATM    6  C7  UNL     1     -33.671  15.368  -4.052  1.00 20.00    -0.007 C 
HETATM    7  C8  UNL     1     -35.808  14.172  -7.701  1.00 20.00     0.043 C 
ENDROOT
BRANCH   6   8
HETATM    8  C11 UNL     1     -34.556  16.575  -3.723  1.00 20.00    -0.008 C 
HETATM    9  C9  UNL     1     -35.228  16.368  -2.363  1.00 20.00     0.011 C 
BRANCH   8  10
HETATM   10  C10 UNL     1     -33.723  17.865  -3.744  1.00 20.00     0.074 C 
BRANCH  10  11
HETATM   11  C3  UNL     1     -33.162  18.258  -2.396  1.00 20.00     0.231 C 
HETATM   12  O12 UNL     1     -32.493  19.262  -2.179  1.00 20.00    -0.307 OA
ENDBRANCH  10  11
ENDBRANCH   8  10
ENDBRANCH   6   8
TORSDOF 3
ENDMDL
MODEL 8
REMARK VINA RESULT:      -4.1      1.667      1.845
REMARK  3 active torsions:
REMARK  status: ('A' for Active; 'I' for Inactive)
REMARK    1  A    between atoms: C3_3  and  C10_10 
REMARK    2  A    between atoms: C7_7  and  C11_11 
REMARK    3  A    between atoms: C10_10  and  C11_11 
ROOT
HETATM    1  C1  UNL     1     -33.597  16.614  -2.681  1.00 20.00    -0.024 C 
HETATM    2  C2  UNL     1     -33.492  17.896  -3.073  1.00 20.00    -0.087 C 
HETATM    3  C4  UNL     1     -33.829  15.470  -3.624  1.00 20.00     0.032 C 
HETATM    4  C5  UNL     1     -33.574  18.296  -4.525  1.00 20.00     0.034 C 
HETATM    5  C6  UNL     1     -33.486  17.115  -5.496  1.00 20.00     0.009 C 
HETATM    6  C7  UNL     1     -34.294  15.899  -5.027  1.00 20.00    -0.007 C 
HETATM    7  C8  UNL     1     -33.292  19.012  -2.091  1.00 20.00     0.043 C 
ENDROOT
BRANCH   6   8
HETATM    8  C11 UNL     1     -35.801  16.174  -5.060  1.00 20.00    -0.008 C 
HETATM    9  C9  UNL     1     -36.244  16.455  -6.499  1.00 20.00     0.011 C 
BRANCH   8  10
HETATM   10  C10 UNL     1     -36.570  14.987  -4.461  1.00 20.00     0.074 C 
BRANCH  10  11
HETATM   11  C3  UNL     1     -36.654  13.783  -5.373  1.00 20.00     0.231 C 
HETATM   12  O12 UNL     1     -35.968  12.773  -5.269  1.00 20.00    -0.307 OA
ENDBRANCH  10  11
ENDBRANCH   8  10
ENDBRANCH   6   8
TORSDOF 3
ENDMDL
MODEL 9
REMARK VINA RESULT:      -4.0      9.895     11.351
REMARK  3 active torsions:
REMARK  status: ('A' for Active; 'I' for Inactive)
REMARK    1  A    between atoms: C3_3  and  C10_10 
REMARK    2  A    between atoms: C7_7  and  C11_11 
REMARK    3  A    between atoms: C10_10  and  C11_11 
ROOT
HETATM    1  C1  UNL     1     -33.254   5.812   2.862  1.00 20.00    -0.024 C 
HETATM    2  C2  UNL     1     -34.104   6.307   3.779  1.00 20.00    -0.087 C 
HETATM    3  C4  UNL     1     -31.963   6.474   2.479  1.00 20.00     0.032 C 
HETATM    4  C5  UNL     1     -33.813   7.579   4.534  1.00 20.00     0.034 C 
HETATM    5  C6  UNL     1     -32.370   8.072   4.379  1.00 20.00     0.009 C 
HETATM    6  C7  UNL     1     -31.847   7.936   2.944  1.00 20.00    -0.007 C 
HETATM    7  C8  UNL     1     -35.400   5.627   4.107  1.00 20.00     0.043 C 
ENDROOT
BRANCH   6   8
HETATM    8  C11 UNL     1     -32.569   8.890   1.987  1.00 20.00    -0.008 C 
HETATM    9  C9  UNL     1     -32.381  10.336   2.458  1.00 20.00     0.011 C 
BRANCH   8  10
HETATM   10  C10 UNL     1     -32.049   8.698   0.555  1.00 20.00     0.074 C 
BRANCH  10  11
HETATM   11  C3  UNL     1     -32.710   9.595  -0.467  1.00 20.00     0.231 C 
HETATM   12  O12 UNL     1     -33.882   9.518  -0.817  1.00 20.00    -0.307 OA
ENDBRANCH  10  11
ENDBRANCH   8  10
ENDBRANCH   6   8
TORSDOF 3
ENDMDL
