MODEL 1
REMARK VINA RESULT:      -5.2      0.000      0.000
REMARK  1 active torsions:
REMARK  status: ('A' for Active; 'I' for Inactive)
REMARK    1  A    between atoms: C4_4  and  C11_11 
ROOT
HETATM    1  C1  UNL     1     -33.499   6.894   5.832  1.00 20.00     0.053 C 
HETATM    2  C2  UNL     1     -34.139   5.987   5.087  1.00 20.00    -0.072 C 
HETATM    3  C3  UNL     1     -32.947   7.880   4.897  1.00 20.00     0.155 C 
HETATM    4  C4  UNL     1     -33.444   7.647   3.492  1.00 20.00     0.075 C 
HETATM    5  C5  UNL     1     -34.054   6.216   3.583  1.00 20.00    -0.013 C 
HETATM    6  C6  UNL     1     -34.854   4.807   5.663  1.00 20.00     0.044 C 
HETATM    7  C7  UNL     1     -35.442   6.207   2.923  1.00 20.00     0.020 C 
HETATM    8  C8  UNL     1     -33.180   5.126   2.940  1.00 20.00     0.020 C 
HETATM    9  O12 UNL     1     -32.215   8.792   5.253  1.00 20.00    -0.293 OA
ENDROOT
BRANCH   4  10
HETATM   10  C11 UNL     1     -32.353   7.876   2.459  1.00 20.00    -0.010 C 
HETATM   11  C9  UNL     1     -32.704   9.056   1.550  1.00 20.00     0.010 C 
HETATM   12  C10 UNL     1     -31.003   8.112   3.138  1.00 20.00     0.010 C 
ENDBRANCH   4  10
TORSDOF 1
ENDMDL
MODEL 2
REMARK VINA RESULT:      -4.6     11.403     12.829
REMARK  1 active torsions:
REMARK  status: ('A' for Active; 'I' for Inactive)
REMARK    1  A    between atoms: C4_4  and  C11_11 
ROOT
HETATM    1  C1  UNL     1     -33.891  17.295  -5.823  1.00 20.00     0.053 C 
HETATM    2  C2  UNL     1     -33.830  15.959  -5.852  1.00 20.00    -0.072 C 
HETATM    3  C3  UNL     1     -33.974  17.673  -4.409  1.00 20.00     0.155 C 
HETATM    4  C4  UNL     1     -33.766  16.482  -3.506  1.00 20.00     0.075 C 
HETATM    5  C5  UNL     1     -33.917  15.283  -4.489  1.00 20.00    -0.013 C 
HETATM    6  C6  UNL     1     -33.729  15.168  -7.117  1.00 20.00     0.044 C 
HETATM    7  C7  UNL     1     -32.764  14.290  -4.268  1.00 20.00     0.020 C 
HETATM    8  C8  UNL     1     -35.257  14.538  -4.362  1.00 20.00     0.020 C 
HETATM    9  O12 UNL     1     -34.144  18.826  -4.041  1.00 20.00    -0.293 OA
ENDROOT
BRANCH   4  10
HETATM   10  C11 UNL     1     -34.692  16.516  -2.301  1.00 20.00    -0.010 C 
HETATM   11  C9  UNL     1     -34.069  17.322  -1.159  1.00 20.00     0.010 C 
HETATM   12  C10 UNL     1     -36.055  17.098  -2.679  1.00 20.00     0.010 C 
ENDBRANCH   4  10
TORSDOF 1
ENDMDL
MODEL 3
REMARK VINA RESULT:      -4.6     11.090     12.379
REMARK  1 active torsions:
REMARK  status: ('A' for Active; 'I' for Inactive)
REMARK    1  A    between atoms: C4_4  and  C11_11 
ROOT
HETATM    1  C1  UNL     1     -37.257  14.444  -4.904  1.00 20.00     0.053 C 
HETATM    2  C2  UNL     1     -37.213  15.657  -4.342  1.00 20.00    -0.072 C 
HETATM    3  C3  UNL     1     -35.876  13.949  -4.924  1.00 20.00     0.155 C 
HETATM    4  C4  UNL     1     -34.952  14.859  -4.153  1.00 20.00     0.075 C 
HETATM    5  C5  UNL     1     -35.817  16.142  -3.971  1.00 20.00    -0.013 C 
HETATM    6  C6  UNL     1     -38.424  16.506  -4.126  1.00 20.00     0.044 C 
HETATM    7  C7  UNL     1     -35.743  16.607  -2.508  1.00 20.00     0.020 C 
HETATM    8  C8  UNL     1     -35.408  17.304  -4.892  1.00 20.00     0.020 C 
HETATM    9  O12 UNL     1     -35.556  12.903  -5.469  1.00 20.00    -0.293 OA
ENDROOT
BRANCH   4  10
HETATM   10  C11 UNL     1     -33.607  15.017  -4.841  1.00 20.00    -0.010 C 
HETATM   11  C9  UNL     1     -32.575  14.057  -4.245  1.00 20.00     0.010 C 
HETATM   12  C10 UNL     1     -33.737  14.787  -6.348  1.00 20.00     0.010 C 
ENDBRANCH   4  10
TORSDOF 1
ENDMDL
MODEL 4
REMARK VINA RESULT:      -4.6     11.291     12.486
REMARK  1 active torsions:
REMARK  status: ('A' for Active; 'I' for Inactive)
REMARK    1  A    between atoms: C4_4  and  C11_11 
ROOT
HETATM    1  C1  UNL     1     -35.877  15.719  -3.414  1.00 20.00     0.053 C 
HETATM    2  C2  UNL     1     -34.551  15.896  -3.456  1.00 20.00    -0.072 C 
HETATM    3  C3  UNL     1     -36.213  14.854  -4.549  1.00 20.00     0.155 C 
HETATM    4  C4  UNL     1     -34.974  14.322  -5.225  1.00 20.00     0.075 C 
HETATM    5  C5  UNL     1     -33.853  15.228  -4.634  1.00 20.00    -0.013 C 
HETATM    6  C6  UNL     1     -33.800  16.718  -2.459  1.00 20.00     0.044 C 
HETATM    7  C7  UNL     1     -32.673  14.355  -4.180  1.00 20.00     0.020 C 
HETATM    8  C8  UNL     1     -33.341  16.301  -5.611  1.00 20.00     0.020 C 
HETATM    9  O12 UNL     1     -37.365  14.582  -4.855  1.00 20.00    -0.293 OA
ENDROOT
BRANCH   4  10
HETATM   10  C11 UNL     1     -35.121  14.291  -6.737  1.00 20.00    -0.010 C 
HETATM   11  C9  UNL     1     -35.345  12.860  -7.232  1.00 20.00     0.010 C 
HETATM   12  C10 UNL     1     -36.269  15.195  -7.190  1.00 20.00     0.010 C 
ENDBRANCH   4  10
TORSDOF 1
ENDMDL
MODEL 5
REMARK VINA RESULT:      -4.5     11.045     12.961
REMARK  1 active torsions:
REMARK  status: ('A' for Active; 'I' for Inactive)
REMARK    1  A    between atoms: C4_4  and  C11_11 
ROOT
HETATM    1  C1  UNL     1     -34.446  14.474  -3.796  1.00 20.00     0.053 C 
HETATM    2  C2  UNL     1     -34.367  15.808  -3.857  1.00 20.00    -0.072 C 
HETATM    3  C3  UNL     1     -35.200  14.052  -4.981  1.00 20.00     0.155 C 
HETATM    4  C4  UNL     1     -35.441  15.206  -5.923  1.00 20.00     0.075 C 
HETATM    5  C5  UNL     1     -35.091  16.440  -5.039  1.00 20.00    -0.013 C 
HETATM    6  C6  UNL     1     -33.664  16.636  -2.831  1.00 20.00     0.044 C 
HETATM    7  C7  UNL     1     -34.176  17.392  -5.828  1.00 20.00     0.020 C 
HETATM    8  C8  UNL     1     -36.320  17.218  -4.540  1.00 20.00     0.020 C 
HETATM    9  O12 UNL     1     -35.537  12.892  -5.173  1.00 20.00    -0.293 OA
ENDROOT
BRANCH   4  10
HETATM   10  C11 UNL     1     -36.832  15.158  -6.534  1.00 20.00    -0.010 C 
HETATM   11  C9  UNL     1     -36.795  14.506  -7.918  1.00 20.00     0.010 C 
HETATM   12  C10 UNL     1     -37.802  14.408  -5.620  1.00 20.00     0.010 C 
ENDBRANCH   4  10
TORSDOF 1
ENDMDL
MODEL 6
REMARK VINA RESULT:      -4.3     11.321     12.373
REMARK  1 active torsions:
REMARK  status: ('A' for Active; 'I' for Inactive)
REMARK    1  A    between atoms: C4_4  and  C11_11 
ROOT
HETATM    1  C1  UNL     1     -36.565  15.308  -4.124  1.00 20.00     0.053 C 
HETATM    2  C2  UNL     1     -35.637  14.699  -4.870  1.00 20.00    -0.072 C 
HETATM    3  C3  UNL     1     -35.937  16.523  -3.595  1.00 20.00     0.155 C 
HETATM    4  C4  UNL     1     -34.581  16.759  -4.215  1.00 20.00     0.075 C 
HETATM    5  C5  UNL     1     -34.278  15.389  -4.892  1.00 20.00    -0.013 C 
HETATM    6  C6  UNL     1     -35.879  13.418  -5.600  1.00 20.00     0.044 C 
HETATM    7  C7  UNL     1     -33.779  15.625  -6.326  1.00 20.00     0.020 C 
HETATM    8  C8  UNL     1     -33.249  14.533  -4.133  1.00 20.00     0.020 C 
HETATM    9  O12 UNL     1     -36.489  17.256  -2.789  1.00 20.00    -0.293 OA
ENDROOT
BRANCH   4  10
HETATM   10  C11 UNL     1     -33.575  17.272  -3.198  1.00 20.00    -0.010 C 
HETATM   11  C9  UNL     1     -33.330  18.771  -3.384  1.00 20.00     0.010 C 
HETATM   12  C10 UNL     1     -34.048  16.985  -1.772  1.00 20.00     0.010 C 
ENDBRANCH   4  10
TORSDOF 1
ENDMDL
MODEL 7
REMARK VINA RESULT:      -4.2     11.638     12.787
REMARK  1 active torsions:
REMARK  status: ('A' for Active; 'I' for Inactive)
REMARK    1  A    between atoms: C4_4  and  C11_11 
ROOT
HETATM    1  C1  UNL     1     -33.650  16.086  -3.291  1.00 20.00     0.053 C 
HETATM    2  C2  UNL     1     -34.920  16.417  -3.035  1.00 20.00    -0.072 C 
HETATM    3  C3  UNL     1     -33.553  15.914  -4.744  1.00 20.00     0.155 C 
HETATM    4  C4  UNL     1     -34.820  16.350  -5.438  1.00 20.00     0.075 C 
HETATM    5  C5  UNL     1     -35.831  16.456  -4.257  1.00 20.00    -0.013 C 
HETATM    6  C6  UNL     1     -35.438  16.690  -1.660  1.00 20.00     0.044 C 
HETATM    7  C7  UNL     1     -36.599  17.784  -4.356  1.00 20.00     0.020 C 
HETATM    8  C8  UNL     1     -36.837  15.295  -4.192  1.00 20.00     0.020 C 
HETATM    9  O12 UNL     1     -32.541  15.509  -5.297  1.00 20.00    -0.293 OA
ENDROOT
BRANCH   4  10
HETATM   10  C11 UNL     1     -35.185  15.425  -6.587  1.00 20.00    -0.010 C 
HETATM   11  C9  UNL     1     -34.683  15.987  -7.918  1.00 20.00     0.010 C 
HETATM   12  C10 UNL     1     -34.620  14.023  -6.356  1.00 20.00     0.010 C 
ENDBRANCH   4  10
TORSDOF 1
ENDMDL
MODEL 8
REMARK VINA RESULT:      -4.2     11.550     13.007
REMARK  1 active torsions:
REMARK  status: ('A' for Active; 'I' for Inactive)
REMARK    1  A    between atoms: C4_4  and  C11_11 
ROOT
HETATM    1  C1  UNL     1     -33.343  15.822  -6.242  1.00 20.00     0.053 C 
HETATM    2  C2  UNL     1     -34.295  14.937  -6.561  1.00 20.00    -0.072 C 
HETATM    3  C3  UNL     1     -33.716  16.373  -4.935  1.00 20.00     0.155 C 
HETATM    4  C4  UNL     1     -34.888  15.635  -4.337  1.00 20.00     0.075 C 
HETATM    5  C5  UNL     1     -35.432  14.827  -5.553  1.00 20.00    -0.013 C 
HETATM    6  C6  UNL     1     -34.285  14.141  -7.826  1.00 20.00     0.044 C 
HETATM    7  C7  UNL     1     -35.681  13.370  -5.129  1.00 20.00     0.020 C 
HETATM    8  C8  UNL     1     -36.722  15.405  -6.158  1.00 20.00     0.020 C 
HETATM    9  O12 UNL     1     -33.103  17.288  -4.404  1.00 20.00    -0.293 OA
ENDROOT
BRANCH   4  10
HETATM   10  C11 UNL     1     -35.854  16.578  -3.638  1.00 20.00    -0.010 C 
HETATM   11  C9  UNL     1     -35.541  16.666  -2.143  1.00 20.00     0.010 C 
HETATM   12  C10 UNL     1     -35.812  17.969  -4.272  1.00 20.00     0.010 C 
ENDBRANCH   4  10
TORSDOF 1
ENDMDL
MODEL 9
REMARK VINA RESULT:      -4.1     11.512     13.037
REMARK  1 active torsions:
REMARK  status: ('A' for Active; 'I' for Inactive)
REMARK    1  A    between atoms: C4_4  and  C11_11 
ROOT
HETATM    1  C1  UNL     1     -36.154  13.812  -6.119  1.00 20.00     0.053 C 
HETATM    2  C2  UNL     1     -36.506  14.980  -6.667  1.00 20.00    -0.072 C 
HETATM    3  C3  UNL     1     -35.357  14.137  -4.932  1.00 20.00     0.155 C 
HETATM    4  C4  UNL     1     -35.378  15.617  -4.640  1.00 20.00     0.075 C 
HETATM    5  C5  UNL     1     -35.954  16.212  -5.960  1.00 20.00    -0.013 C 
HETATM    6  C6  UNL     1     -37.340  15.090  -7.903  1.00 20.00     0.044 C 
HETATM    7  C7  UNL     1     -37.061  17.225  -5.627  1.00 20.00     0.020 C 
HETATM    8  C8  UNL     1     -34.898  16.891  -6.849  1.00 20.00     0.020 C 
HETATM    9  O12 UNL     1     -34.795  13.285  -4.259  1.00 20.00    -0.293 OA
ENDROOT
BRANCH   4  10
HETATM   10  C11 UNL     1     -34.021  16.124  -4.180  1.00 20.00    -0.010 C 
HETATM   11  C9  UNL     1     -34.026  16.398  -2.675  1.00 20.00     0.010 C 
HETATM   12  C10 UNL     1     -32.919  15.124  -4.534  1.00 20.00     0.010 C 
ENDBRANCH   4  10
TORSDOF 1
ENDMDL
