MODEL 1
REMARK VINA RESULT:      -4.5      0.000      0.000
REMARK  2 active torsions:
REMARK  status: ('A' for Active; 'I' for Inactive)
REMARK    1  A    between atoms: C5_5  and  O12_12 
REMARK    2  A    between atoms: C11_11  and  O12_12 
ROOT
HETATM    1  C1  UNL     1     -32.399   8.068   4.437  1.00 20.00     0.036 C 
HETATM    2  C2  UNL     1     -33.689   5.900   4.322  1.00 20.00     0.013 C 
HETATM    3  C3  UNL     1     -32.139   6.554   2.420  1.00 20.00     0.040 C 
HETATM    4  C4  UNL     1     -33.710   7.360   4.805  1.00 20.00    -0.015 C 
HETATM    5  C5  UNL     1     -32.095   7.992   2.943  1.00 20.00     0.122 C 
HETATM    6  C6  UNL     1     -33.408   5.754   2.808  1.00 20.00    -0.045 C 
HETATM    7  C7  UNL     1     -33.942   7.416   6.316  1.00 20.00     0.010 C 
HETATM    8  C8  UNL     1     -33.165   4.264   2.490  1.00 20.00     0.015 C 
HETATM    9  C9  UNL     1     -34.633   6.205   1.986  1.00 20.00     0.015 C 
ENDROOT
BRANCH   5  10
HETATM   10  O12 UNL     1     -33.011   8.799   2.211  1.00 20.00    -0.386 OA
BRANCH  10  11
HETATM   11  C11 UNL     1     -32.340   9.635   1.280  1.00 20.00     0.163 C 
HETATM   12  C10 UNL     1     -32.930   9.415  -0.096  1.00 20.00     0.033 C 
ENDBRANCH  10  11
ENDBRANCH   5  10
TORSDOF 2
ENDMDL
MODEL 2
REMARK VINA RESULT:      -4.4     10.306     11.704
REMARK  2 active torsions:
REMARK  status: ('A' for Active; 'I' for Inactive)
REMARK    1  A    between atoms: C5_5  and  O12_12 
REMARK    2  A    between atoms: C11_11  and  O12_12 
ROOT
HETATM    1  C1  UNL     1     -36.502  17.053  -2.995  1.00 20.00     0.036 C 
HETATM    2  C2  UNL     1     -34.080  16.342  -3.085  1.00 20.00     0.013 C 
HETATM    3  C3  UNL     1     -35.538  16.137  -5.155  1.00 20.00     0.040 C 
HETATM    4  C4  UNL     1     -35.340  16.432  -2.208  1.00 20.00    -0.015 C 
HETATM    5  C5  UNL     1     -36.793  16.304  -4.293  1.00 20.00     0.122 C 
HETATM    6  C6  UNL     1     -34.303  15.572  -4.408  1.00 20.00    -0.045 C 
HETATM    7  C7  UNL     1     -35.053  17.248  -0.946  1.00 20.00     0.010 C 
HETATM    8  C8  UNL     1     -33.062  15.759  -5.305  1.00 20.00     0.015 C 
HETATM    9  C9  UNL     1     -34.449  14.062  -4.136  1.00 20.00     0.015 C 
ENDROOT
BRANCH   5  10
HETATM   10  O12 UNL     1     -37.357  15.028  -4.011  1.00 20.00    -0.386 OA
BRANCH  10  11
HETATM   11  C11 UNL     1     -38.054  14.508  -5.133  1.00 20.00     0.163 C 
HETATM   12  C10 UNL     1     -39.361  15.255  -5.291  1.00 20.00     0.033 C 
ENDBRANCH  10  11
ENDBRANCH   5  10
TORSDOF 2
ENDMDL
MODEL 3
REMARK VINA RESULT:      -4.1     10.628     12.340
REMARK  2 active torsions:
REMARK  status: ('A' for Active; 'I' for Inactive)
REMARK    1  A    between atoms: C5_5  and  O12_12 
REMARK    2  A    between atoms: C11_11  and  O12_12 
ROOT
HETATM    1  C1  UNL     1     -33.344  15.774  -6.132  1.00 20.00     0.036 C 
HETATM    2  C2  UNL     1     -34.720  17.249  -4.611  1.00 20.00     0.013 C 
HETATM    3  C3  UNL     1     -33.966  14.959  -3.811  1.00 20.00     0.040 C 
HETATM    4  C4  UNL     1     -34.461  16.824  -6.066  1.00 20.00    -0.015 C 
HETATM    5  C5  UNL     1     -33.634  14.560  -5.252  1.00 20.00     0.122 C 
HETATM    6  C6  UNL     1     -35.043  16.064  -3.671  1.00 20.00    -0.045 C 
HETATM    7  C7  UNL     1     -34.101  18.042  -6.919  1.00 20.00     0.010 C 
HETATM    8  C8  UNL     1     -35.036  16.572  -2.214  1.00 20.00     0.015 C 
HETATM    9  C9  UNL     1     -36.455  15.516  -3.958  1.00 20.00     0.015 C 
ENDROOT
BRANCH   5  10
HETATM   10  O12 UNL     1     -34.704  13.798  -5.799  1.00 20.00    -0.386 OA
BRANCH  10  11
HETATM   11  C11 UNL     1     -34.487  13.508  -7.172  1.00 20.00     0.163 C 
HETATM   12  C10 UNL     1     -35.798  13.641  -7.918  1.00 20.00     0.033 C 
ENDBRANCH  10  11
ENDBRANCH   5  10
TORSDOF 2
ENDMDL
MODEL 4
REMARK VINA RESULT:      -4.1     10.833     12.220
REMARK  2 active torsions:
REMARK  status: ('A' for Active; 'I' for Inactive)
REMARK    1  A    between atoms: C5_5  and  O12_12 
REMARK    2  A    between atoms: C11_11  and  O12_12 
ROOT
HETATM    1  C1  UNL     1     -35.421  16.242  -2.883  1.00 20.00     0.036 C 
HETATM    2  C2  UNL     1     -33.703  17.635  -4.103  1.00 20.00     0.013 C 
HETATM    3  C3  UNL     1     -35.618  16.573  -5.391  1.00 20.00     0.040 C 
HETATM    4  C4  UNL     1     -33.945  16.659  -2.940  1.00 20.00    -0.015 C 
HETATM    5  C5  UNL     1     -35.911  15.651  -4.204  1.00 20.00     0.122 C 
HETATM    6  C6  UNL     1     -34.158  17.086  -5.476  1.00 20.00    -0.045 C 
HETATM    7  C7  UNL     1     -33.518  17.293  -1.615  1.00 20.00     0.010 C 
HETATM    8  C8  UNL     1     -34.100  18.228  -6.511  1.00 20.00     0.015 C 
HETATM    9  C9  UNL     1     -33.198  15.980  -5.959  1.00 20.00     0.015 C 
ENDROOT
BRANCH   5  10
HETATM   10  O12 UNL     1     -35.316  14.377  -4.425  1.00 20.00    -0.386 OA
BRANCH  10  11
HETATM   11  C11 UNL     1     -36.156  13.540  -5.207  1.00 20.00     0.163 C 
HETATM   12  C10 UNL     1     -35.436  13.180  -6.489  1.00 20.00     0.033 C 
ENDBRANCH  10  11
ENDBRANCH   5  10
TORSDOF 2
ENDMDL
MODEL 5
REMARK VINA RESULT:      -3.9     10.459     12.214
REMARK  2 active torsions:
REMARK  status: ('A' for Active; 'I' for Inactive)
REMARK    1  A    between atoms: C5_5  and  O12_12 
REMARK    2  A    between atoms: C11_11  and  O12_12 
ROOT
HETATM    1  C1  UNL     1     -34.176  14.398  -4.201  1.00 20.00     0.036 C 
HETATM    2  C2  UNL     1     -35.308  15.599  -6.113  1.00 20.00     0.013 C 
HETATM    3  C3  UNL     1     -33.426  16.736  -4.841  1.00 20.00     0.040 C 
HETATM    4  C4  UNL     1     -35.499  14.614  -4.948  1.00 20.00    -0.015 C 
HETATM    5  C5  UNL     1     -33.562  15.709  -3.713  1.00 20.00     0.122 C 
HETATM    6  C6  UNL     1     -34.710  16.958  -5.681  1.00 20.00    -0.045 C 
HETATM    7  C7  UNL     1     -36.045  13.281  -5.462  1.00 20.00     0.010 C 
HETATM    8  C8  UNL     1     -34.334  17.759  -6.945  1.00 20.00     0.015 C 
HETATM    9  C9  UNL     1     -35.755  17.786  -4.907  1.00 20.00     0.015 C 
ENDROOT
BRANCH   5  10
HETATM   10  O12 UNL     1     -34.342  16.256  -2.656  1.00 20.00    -0.386 OA
BRANCH  10  11
HETATM   11  C11 UNL     1     -33.589  17.171  -1.873  1.00 20.00     0.163 C 
HETATM   12  C10 UNL     1     -34.437  17.640  -0.710  1.00 20.00     0.033 C 
ENDBRANCH  10  11
ENDBRANCH   5  10
TORSDOF 2
ENDMDL
MODEL 6
REMARK VINA RESULT:      -3.9     10.751     12.162
REMARK  2 active torsions:
REMARK  status: ('A' for Active; 'I' for Inactive)
REMARK    1  A    between atoms: C5_5  and  O12_12 
REMARK    2  A    between atoms: C11_11  and  O12_12 
ROOT
HETATM    1  C1  UNL     1     -35.180  14.147  -4.440  1.00 20.00     0.036 C 
HETATM    2  C2  UNL     1     -36.393  16.293  -3.892  1.00 20.00     0.013 C 
HETATM    3  C3  UNL     1     -37.632  14.397  -5.040  1.00 20.00     0.040 C 
HETATM    4  C4  UNL     1     -35.052  15.671  -4.313  1.00 20.00    -0.015 C 
HETATM    5  C5  UNL     1     -36.298  13.734  -5.395  1.00 20.00     0.122 C 
HETATM    6  C6  UNL     1     -37.565  15.931  -4.834  1.00 20.00    -0.045 C 
HETATM    7  C7  UNL     1     -33.958  16.033  -3.307  1.00 20.00     0.010 C 
HETATM    8  C8  UNL     1     -38.885  16.395  -4.184  1.00 20.00     0.015 C 
HETATM    9  C9  UNL     1     -37.428  16.676  -6.176  1.00 20.00     0.015 C 
ENDROOT
BRANCH   5  10
HETATM   10  O12 UNL     1     -35.944  14.052  -6.737  1.00 20.00    -0.386 OA
BRANCH  10  11
HETATM   11  C11 UNL     1     -34.796  13.329  -7.157  1.00 20.00     0.163 C 
HETATM   12  C10 UNL     1     -33.877  14.260  -7.918  1.00 20.00     0.033 C 
ENDBRANCH  10  11
ENDBRANCH   5  10
TORSDOF 2
ENDMDL
MODEL 7
REMARK VINA RESULT:      -3.9     10.500     12.121
REMARK  2 active torsions:
REMARK  status: ('A' for Active; 'I' for Inactive)
REMARK    1  A    between atoms: C5_5  and  O12_12 
REMARK    2  A    between atoms: C11_11  and  O12_12 
ROOT
HETATM    1  C1  UNL     1     -34.634  17.916  -4.385  1.00 20.00     0.036 C 
HETATM    2  C2  UNL     1     -34.633  15.858  -5.850  1.00 20.00     0.013 C 
HETATM    3  C3  UNL     1     -35.227  15.660  -3.389  1.00 20.00     0.040 C 
HETATM    4  C4  UNL     1     -33.968  17.218  -5.578  1.00 20.00    -0.015 C 
HETATM    5  C5  UNL     1     -34.635  17.048  -3.128  1.00 20.00     0.122 C 
HETATM    6  C6  UNL     1     -34.645  14.920  -4.620  1.00 20.00    -0.045 C 
HETATM    7  C7  UNL     1     -34.041  18.104  -6.824  1.00 20.00     0.010 C 
HETATM    8  C8  UNL     1     -35.544  13.706  -4.931  1.00 20.00     0.015 C 
HETATM    9  C9  UNL     1     -33.228  14.382  -4.338  1.00 20.00     0.015 C 
ENDROOT
BRANCH   5  10
HETATM   10  O12 UNL     1     -33.313  16.919  -2.617  1.00 20.00    -0.386 OA
BRANCH  10  11
HETATM   11  C11 UNL     1     -33.084  17.814  -1.538  1.00 20.00     0.163 C 
HETATM   12  C10 UNL     1     -34.277  17.779  -0.607  1.00 20.00     0.033 C 
ENDBRANCH  10  11
ENDBRANCH   5  10
TORSDOF 2
ENDMDL
MODEL 8
REMARK VINA RESULT:      -3.8     10.549     12.424
REMARK  2 active torsions:
REMARK  status: ('A' for Active; 'I' for Inactive)
REMARK    1  A    between atoms: C5_5  and  O12_12 
REMARK    2  A    between atoms: C11_11  and  O12_12 
ROOT
HETATM    1  C1  UNL     1     -36.707  14.785  -6.646  1.00 20.00     0.036 C 
HETATM    2  C2  UNL     1     -34.486  15.750  -5.926  1.00 20.00     0.013 C 
HETATM    3  C3  UNL     1     -35.396  13.675  -4.779  1.00 20.00     0.040 C 
HETATM    4  C4  UNL     1     -35.893  16.072  -6.457  1.00 20.00    -0.015 C 
HETATM    5  C5  UNL     1     -36.782  13.950  -5.369  1.00 20.00     0.122 C 
HETATM    6  C6  UNL     1     -34.493  14.924  -4.619  1.00 20.00    -0.045 C 
HETATM    7  C7  UNL     1     -35.801  16.845  -7.774  1.00 20.00     0.010 C 
HETATM    8  C8  UNL     1     -33.054  14.453  -4.322  1.00 20.00     0.015 C 
HETATM    9  C9  UNL     1     -34.944  15.798  -3.431  1.00 20.00     0.015 C 
ENDROOT
BRANCH   5  10
HETATM   10  O12 UNL     1     -37.596  14.602  -4.401  1.00 20.00    -0.386 OA
BRANCH  10  11
HETATM   11  C11 UNL     1     -38.893  14.876  -4.912  1.00 20.00     0.163 C 
HETATM   12  C10 UNL     1     -39.379  16.193  -4.345  1.00 20.00     0.033 C 
ENDBRANCH  10  11
ENDBRANCH   5  10
TORSDOF 2
ENDMDL
MODEL 9
REMARK VINA RESULT:      -3.8     10.800     12.351
REMARK  2 active torsions:
REMARK  status: ('A' for Active; 'I' for Inactive)
REMARK    1  A    between atoms: C5_5  and  O12_12 
REMARK    2  A    between atoms: C11_11  and  O12_12 
ROOT
HETATM    1  C1  UNL     1     -34.982  16.896  -5.267  1.00 20.00     0.036 C 
HETATM    2  C2  UNL     1     -34.574  18.469  -3.334  1.00 20.00     0.013 C 
HETATM    3  C3  UNL     1     -33.689  16.090  -3.239  1.00 20.00     0.040 C 
HETATM    4  C4  UNL     1     -35.554  18.059  -4.446  1.00 20.00    -0.015 C 
HETATM    5  C5  UNL     1     -34.608  15.696  -4.399  1.00 20.00     0.122 C 
HETATM    6  C6  UNL     1     -34.173  17.301  -2.402  1.00 20.00    -0.045 C 
HETATM    7  C7  UNL     1     -35.861  19.253  -5.351  1.00 20.00     0.010 C 
HETATM    8  C8  UNL     1     -33.014  17.765  -1.496  1.00 20.00     0.015 C 
HETATM    9  C9  UNL     1     -35.349  16.917  -1.482  1.00 20.00     0.015 C 
ENDROOT
BRANCH   5  10
HETATM   10  O12 UNL     1     -35.781  15.070  -3.892  1.00 20.00    -0.386 OA
BRANCH  10  11
HETATM   11  C11 UNL     1     -36.592  14.559  -4.940  1.00 20.00     0.163 C 
HETATM   12  C10 UNL     1     -35.892  13.374  -5.571  1.00 20.00     0.033 C 
ENDBRANCH  10  11
ENDBRANCH   5  10
TORSDOF 2
ENDMDL
