MODEL 1
REMARK VINA RESULT:      -3.3      0.000      0.000
REMARK  4 active torsions:
REMARK  status: ('A' for Active; 'I' for Inactive)
REMARK    1  A    between atoms: C1_1  and  C3_3 
REMARK    2  A    between atoms: C1_1  and  S4_4 
REMARK    3  A    between atoms: C2_2  and  C3_3 
REMARK    4  A    between atoms: C3_3  and  S5_5 
ROOT
HETATM    1  C3  UNL     1     -33.658   7.120   3.861  1.00 20.00     0.067 C 
ENDROOT
BRANCH   1   2
HETATM    2  C1  UNL     1     -32.284   7.593   3.355  1.00 20.00     0.086 C 
BRANCH   2   3
HETATM    3  S4  UNL     1     -32.309   8.628   1.855  1.00 20.00    -0.181 SA
HETATM    4  H12 UNL     1     -33.307   7.969   1.253  1.00 20.00     0.101 HD
ENDBRANCH   2   3
ENDBRANCH   1   2
BRANCH   1   5
HETATM    5  C2  UNL     1     -34.090   5.718   3.420  1.00 20.00     0.130 C 
HETATM    6 CL6  UNL     1     -34.648   4.735   4.799  1.00 20.00    -0.129 Cl
ENDBRANCH   1   5
BRANCH   1   7
HETATM    7  S5  UNL     1     -33.737   7.201   5.692  1.00 20.00    -0.176 SA
HETATM    8  H13 UNL     1     -32.765   8.112   5.818  1.00 20.00     0.102 HD
ENDBRANCH   1   7
TORSDOF 4
ENDMDL
MODEL 2
REMARK VINA RESULT:      -3.0      2.869      3.780
REMARK  4 active torsions:
REMARK  status: ('A' for Active; 'I' for Inactive)
REMARK    1  A    between atoms: C1_1  and  C3_3 
REMARK    2  A    between atoms: C1_1  and  S4_4 
REMARK    3  A    between atoms: C2_2  and  C3_3 
REMARK    4  A    between atoms: C3_3  and  S5_5 
ROOT
HETATM    1  C3  UNL     1     -33.358   7.268   3.664  1.00 20.00     0.067 C 
ENDROOT
BRANCH   1   2
HETATM    2  C1  UNL     1     -33.731   7.131   5.150  1.00 20.00     0.086 C 
BRANCH   2   3
HETATM    3  S4  UNL     1     -34.551   5.571   5.617  1.00 20.00    -0.181 SA
HETATM    4  H12 UNL     1     -34.354   5.704   6.935  1.00 20.00     0.101 HD
ENDBRANCH   2   3
ENDBRANCH   1   2
BRANCH   1   5
HETATM    5  C2  UNL     1     -31.992   7.895   3.369  1.00 20.00     0.130 C 
HETATM    6 CL6  UNL     1     -31.913   8.558   1.715  1.00 20.00    -0.129 Cl
ENDBRANCH   1   5
BRANCH   1   7
HETATM    7  S5  UNL     1     -33.441   5.640   2.822  1.00 20.00    -0.176 SA
HETATM    8  H13 UNL     1     -34.672   5.341   3.253  1.00 20.00     0.102 HD
ENDBRANCH   1   7
TORSDOF 4
ENDMDL
MODEL 3
REMARK VINA RESULT:      -2.8      1.949      2.594
REMARK  4 active torsions:
REMARK  status: ('A' for Active; 'I' for Inactive)
REMARK    1  A    between atoms: C1_1  and  C3_3 
REMARK    2  A    between atoms: C1_1  and  S4_4 
REMARK    3  A    between atoms: C2_2  and  C3_3 
REMARK    4  A    between atoms: C3_3  and  S5_5 
ROOT
HETATM    1  C3  UNL     1     -33.809   7.293   3.847  1.00 20.00     0.067 C 
ENDROOT
BRANCH   1   2
HETATM    2  C1  UNL     1     -34.330   6.033   3.134  1.00 20.00     0.086 C 
BRANCH   2   3
HETATM    3  S4  UNL     1     -33.064   4.805   2.675  1.00 20.00    -0.181 SA
HETATM    4  H12 UNL     1     -33.103   5.056   1.360  1.00 20.00     0.101 HD
ENDBRANCH   2   3
ENDBRANCH   1   2
BRANCH   1   5
HETATM    5  C2  UNL     1     -33.689   7.201   5.372  1.00 20.00     0.130 C 
HETATM    6 CL6  UNL     1     -34.467   5.728   6.008  1.00 20.00    -0.129 Cl
ENDBRANCH   1   5
BRANCH   1   7
HETATM    7  S5  UNL     1     -32.179   7.794   3.168  1.00 20.00    -0.176 SA
HETATM    8  H13 UNL     1     -32.322   9.094   3.453  1.00 20.00     0.102 HD
ENDBRANCH   1   7
TORSDOF 4
ENDMDL
MODEL 4
REMARK VINA RESULT:      -2.8      2.750      3.617
REMARK  4 active torsions:
REMARK  status: ('A' for Active; 'I' for Inactive)
REMARK    1  A    between atoms: C1_1  and  C3_3 
REMARK    2  A    between atoms: C1_1  and  S4_4 
REMARK    3  A    between atoms: C2_2  and  C3_3 
REMARK    4  A    between atoms: C3_3  and  S5_5 
ROOT
HETATM    1  C3  UNL     1     -33.637   6.764   3.183  1.00 20.00     0.067 C 
ENDROOT
BRANCH   1   2
HETATM    2  C1  UNL     1     -33.806   6.960   4.700  1.00 20.00     0.086 C 
BRANCH   2   3
HETATM    3  S4  UNL     1     -34.550   5.560   5.599  1.00 20.00    -0.181 SA
HETATM    4  H12 UNL     1     -35.818   5.957   5.441  1.00 20.00     0.101 HD
ENDBRANCH   2   3
ENDBRANCH   1   2
BRANCH   1   5
HETATM    5  C2  UNL     1     -32.647   7.705   2.490  1.00 20.00     0.130 C 
HETATM    6 CL6  UNL     1     -31.397   8.295   3.616  1.00 20.00    -0.129 Cl
ENDBRANCH   1   5
BRANCH   1   7
HETATM    7  S5  UNL     1     -33.154   5.035   2.803  1.00 20.00    -0.176 SA
HETATM    8  H13 UNL     1     -34.332   4.693   2.268  1.00 20.00     0.102 HD
ENDBRANCH   1   7
TORSDOF 4
ENDMDL
MODEL 5
REMARK VINA RESULT:      -2.8      1.324      2.886
REMARK  4 active torsions:
REMARK  status: ('A' for Active; 'I' for Inactive)
REMARK    1  A    between atoms: C1_1  and  C3_3 
REMARK    2  A    between atoms: C1_1  and  S4_4 
REMARK    3  A    between atoms: C2_2  and  C3_3 
REMARK    4  A    between atoms: C3_3  and  S5_5 
ROOT
HETATM    1  C3  UNL     1     -32.491   7.269   3.209  1.00 20.00     0.067 C 
ENDROOT
BRANCH   1   2
HETATM    2  C1  UNL     1     -32.684   7.915   4.592  1.00 20.00     0.086 C 
BRANCH   2   3
HETATM    3  S4  UNL     1     -33.843   7.057   5.708  1.00 20.00    -0.181 SA
HETATM    4  H12 UNL     1     -33.140   5.921   5.785  1.00 20.00     0.101 HD
ENDBRANCH   2   3
ENDBRANCH   1   2
BRANCH   1   5
HETATM    5  C2  UNL     1     -33.599   6.315   2.752  1.00 20.00     0.130 C 
HETATM    6 CL6  UNL     1     -33.011   4.636   2.618  1.00 20.00    -0.129 Cl
ENDBRANCH   1   5
BRANCH   1   7
HETATM    7  S5  UNL     1     -32.267   8.555   1.919  1.00 20.00    -0.176 SA
HETATM    8  H13 UNL     1     -33.528   8.504   1.474  1.00 20.00     0.102 HD
ENDBRANCH   1   7
TORSDOF 4
ENDMDL
MODEL 6
REMARK VINA RESULT:      -2.7      1.726      1.826
REMARK  4 active torsions:
REMARK  status: ('A' for Active; 'I' for Inactive)
REMARK    1  A    between atoms: C1_1  and  C3_3 
REMARK    2  A    between atoms: C1_1  and  S4_4 
REMARK    3  A    between atoms: C2_2  and  C3_3 
REMARK    4  A    between atoms: C3_3  and  S5_5 
ROOT
HETATM    1  C3  UNL     1     -32.724   6.989   4.010  1.00 20.00     0.067 C 
ENDROOT
BRANCH   1   2
HETATM    2  C1  UNL     1     -31.878   8.132   3.425  1.00 20.00     0.086 C 
BRANCH   2   3
HETATM    3  S4  UNL     1     -32.318   8.654   1.734  1.00 20.00    -0.181 SA
HETATM    4  H12 UNL     1     -31.373   9.597   1.634  1.00 20.00     0.101 HD
ENDBRANCH   2   3
ENDBRANCH   1   2
BRANCH   1   5
HETATM    5  C2  UNL     1     -33.657   7.367   5.165  1.00 20.00     0.130 C 
HETATM    6 CL6  UNL     1     -34.430   5.931   5.887  1.00 20.00    -0.129 Cl
ENDBRANCH   1   5
BRANCH   1   7
HETATM    7  S5  UNL     1     -33.724   6.186   2.699  1.00 20.00    -0.176 SA
HETATM    8  H13 UNL     1     -32.741   6.163   1.791  1.00 20.00     0.102 HD
ENDBRANCH   1   7
TORSDOF 4
ENDMDL
MODEL 7
REMARK VINA RESULT:      -2.6      2.839      3.495
REMARK  4 active torsions:
REMARK  status: ('A' for Active; 'I' for Inactive)
REMARK    1  A    between atoms: C1_1  and  C3_3 
REMARK    2  A    between atoms: C1_1  and  S4_4 
REMARK    3  A    between atoms: C2_2  and  C3_3 
REMARK    4  A    between atoms: C3_3  and  S5_5 
ROOT
HETATM    1  C3  UNL     1     -33.037   6.832   3.632  1.00 20.00     0.067 C 
ENDROOT
BRANCH   1   2
HETATM    2  C1  UNL     1     -33.763   5.555   3.175  1.00 20.00     0.086 C 
BRANCH   2   3
HETATM    3  S4  UNL     1     -34.482   4.538   4.507  1.00 20.00    -0.181 SA
HETATM    4  H12 UNL     1     -34.023   5.291   5.514  1.00 20.00     0.101 HD
ENDBRANCH   2   3
ENDBRANCH   1   2
BRANCH   1   5
HETATM    5  C2  UNL     1     -33.169   8.047   2.707  1.00 20.00     0.130 C 
HETATM    6 CL6  UNL     1     -31.673   8.337   1.780  1.00 20.00    -0.129 Cl
ENDBRANCH   1   5
BRANCH   1   7
HETATM    7  S5  UNL     1     -33.583   7.323   5.313  1.00 20.00    -0.176 SA
HETATM    8  H13 UNL     1     -34.303   8.374   4.906  1.00 20.00     0.102 HD
ENDBRANCH   1   7
TORSDOF 4
ENDMDL
MODEL 8
REMARK VINA RESULT:      -2.6      2.701      3.131
REMARK  4 active torsions:
REMARK  status: ('A' for Active; 'I' for Inactive)
REMARK    1  A    between atoms: C1_1  and  C3_3 
REMARK    2  A    between atoms: C1_1  and  S4_4 
REMARK    3  A    between atoms: C2_2  and  C3_3 
REMARK    4  A    between atoms: C3_3  and  S5_5 
ROOT
HETATM    1  C3  UNL     1     -34.292   5.846   3.465  1.00 20.00     0.067 C 
ENDROOT
BRANCH   1   2
HETATM    2  C1  UNL     1     -34.568   7.112   4.295  1.00 20.00     0.086 C 
BRANCH   2   3
HETATM    3  S4  UNL     1     -33.702   7.210   5.896  1.00 20.00    -0.181 SA
HETATM    4  H12 UNL     1     -34.809   7.280   6.645  1.00 20.00     0.101 HD
ENDBRANCH   2   3
ENDBRANCH   1   2
BRANCH   1   5
HETATM    5  C2  UNL     1     -32.971   5.827   2.689  1.00 20.00     0.130 C 
HETATM    6 CL6  UNL     1     -32.300   7.467   2.486  1.00 20.00    -0.129 Cl
ENDBRANCH   1   5
BRANCH   1   7
HETATM    7  S5  UNL     1     -34.363   4.349   4.523  1.00 20.00    -0.176 SA
HETATM    8  H13 UNL     1     -33.285   3.767   3.985  1.00 20.00     0.102 HD
ENDBRANCH   1   7
TORSDOF 4
ENDMDL
MODEL 9
REMARK VINA RESULT:      -2.3      1.874      2.086
REMARK  4 active torsions:
REMARK  status: ('A' for Active; 'I' for Inactive)
REMARK    1  A    between atoms: C1_1  and  C3_3 
REMARK    2  A    between atoms: C1_1  and  S4_4 
REMARK    3  A    between atoms: C2_2  and  C3_3 
REMARK    4  A    between atoms: C3_3  and  S5_5 
ROOT
HETATM    1  C3  UNL     1     -32.829   7.890   2.645  1.00 20.00     0.067 C 
ENDROOT
BRANCH   1   2
HETATM    2  C1  UNL     1     -32.480   8.407   1.239  1.00 20.00     0.086 C 
BRANCH   2   3
HETATM    3  S4  UNL     1     -32.683  10.200   0.984  1.00 20.00    -0.181 SA
HETATM    4  H12 UNL     1     -32.413  10.548   2.249  1.00 20.00     0.101 HD
ENDBRANCH   2   3
ENDBRANCH   1   2
BRANCH   1   5
HETATM    5  C2  UNL     1     -33.165   6.399   2.750  1.00 20.00     0.130 C 
HETATM    6 CL6  UNL     1     -34.694   6.127   3.627  1.00 20.00    -0.129 Cl
ENDBRANCH   1   5
BRANCH   1   7
HETATM    7  S5  UNL     1     -31.474   8.262   3.827  1.00 20.00    -0.176 SA
HETATM    8  H13 UNL     1     -32.088   7.728   4.889  1.00 20.00     0.102 HD
ENDBRANCH   1   7
TORSDOF 4
ENDMDL
