MODEL 1
REMARK VINA RESULT:      -4.4      0.000      0.000
REMARK  2 active torsions:
REMARK  status: ('A' for Active; 'I' for Inactive)
REMARK    1  A    between atoms: C1_1  and  C4_4 
REMARK    2  A    between atoms: C4_4  and  C5_5 
ROOT
HETATM    1  C1  UNL     1     -33.502   7.309   3.464  1.00 20.00     0.244 A 
HETATM    2  C3  UNL     1     -31.925   8.603   2.149  1.00 20.00     0.147 C 
HETATM    3  N6  UNL     1     -32.121   7.731   3.302  1.00 20.00    -0.168 NA
HETATM    4  O7  UNL     1     -32.592   6.480   2.737  1.00 20.00    -0.279 OA
ENDROOT
BRANCH   1   5
HETATM    5  C4  UNL     1     -33.951   6.749   4.764  1.00 20.00     0.051 C 
BRANCH   5   6
HETATM    6  C5  UNL     1     -34.995   5.652   4.569  1.00 20.00    -0.001 C 
HETATM    7  C2  UNL     1     -34.391   4.269   4.751  1.00 20.00     0.005 C 
ENDBRANCH   5   6
ENDBRANCH   1   5
TORSDOF 2
ENDMDL
MODEL 2
REMARK VINA RESULT:      -4.2      1.684      4.272
REMARK  2 active torsions:
REMARK  status: ('A' for Active; 'I' for Inactive)
REMARK    1  A    between atoms: C1_1  and  C4_4 
REMARK    2  A    between atoms: C4_4  and  C5_5 
ROOT
HETATM    1  C1  UNL     1     -32.901   7.913   2.521  1.00 20.00     0.244 A 
HETATM    2  C3  UNL     1     -34.038   5.925   3.326  1.00 20.00     0.147 C 
HETATM    3  N6  UNL     1     -32.790   6.499   2.836  1.00 20.00    -0.168 NA
HETATM    4  O7  UNL     1     -32.444   7.512   3.815  1.00 20.00    -0.279 OA
ENDROOT
BRANCH   1   5
HETATM    5  C4  UNL     1     -31.871   8.560   1.670  1.00 20.00     0.051 C 
BRANCH   5   6
HETATM    6  C5  UNL     1     -32.421   9.802   0.972  1.00 20.00    -0.001 C 
HETATM    7  C2  UNL     1     -33.069   9.452  -0.358  1.00 20.00     0.005 C 
ENDBRANCH   5   6
ENDBRANCH   1   5
TORSDOF 2
ENDMDL
MODEL 3
REMARK VINA RESULT:      -4.2      1.274      1.343
REMARK  2 active torsions:
REMARK  status: ('A' for Active; 'I' for Inactive)
REMARK    1  A    between atoms: C1_1  and  C4_4 
REMARK    2  A    between atoms: C4_4  and  C5_5 
ROOT
HETATM    1  C1  UNL     1     -32.529   7.406   2.906  1.00 20.00     0.244 A 
HETATM    2  C3  UNL     1     -31.740   8.711   1.018  1.00 20.00     0.147 C 
HETATM    3  N6  UNL     1     -32.420   8.726   2.308  1.00 20.00    -0.168 NA
HETATM    4  O7  UNL     1     -31.426   8.248   3.250  1.00 20.00    -0.279 OA
ENDROOT
BRANCH   1   5
HETATM    5  C4  UNL     1     -33.502   7.176   4.004  1.00 20.00     0.051 C 
BRANCH   5   6
HETATM    6  C5  UNL     1     -34.378   5.955   3.728  1.00 20.00    -0.001 C 
HETATM    7  C2  UNL     1     -34.726   5.219   5.011  1.00 20.00     0.005 C 
ENDBRANCH   5   6
ENDBRANCH   1   5
TORSDOF 2
ENDMDL
MODEL 4
REMARK VINA RESULT:      -4.1      1.984      2.403
REMARK  2 active torsions:
REMARK  status: ('A' for Active; 'I' for Inactive)
REMARK    1  A    between atoms: C1_1  and  C4_4 
REMARK    2  A    between atoms: C4_4  and  C5_5 
ROOT
HETATM    1  C1  UNL     1     -32.606   8.152   2.077  1.00 20.00     0.244 A 
HETATM    2  C3  UNL     1     -32.820   9.990   0.507  1.00 20.00     0.147 C 
HETATM    3  N6  UNL     1     -32.215   9.511   1.745  1.00 20.00    -0.168 NA
HETATM    4  O7  UNL     1     -31.403   8.380   1.340  1.00 20.00    -0.279 OA
ENDROOT
BRANCH   1   5
HETATM    5  C4  UNL     1     -32.403   7.646   3.458  1.00 20.00     0.051 C 
BRANCH   5   6
HETATM    6  C5  UNL     1     -33.707   7.125   4.060  1.00 20.00    -0.001 C 
HETATM    7  C2  UNL     1     -33.706   7.242   5.575  1.00 20.00     0.005 C 
ENDBRANCH   5   6
ENDBRANCH   1   5
TORSDOF 2
ENDMDL
MODEL 5
REMARK VINA RESULT:      -3.9      1.857      3.921
REMARK  2 active torsions:
REMARK  status: ('A' for Active; 'I' for Inactive)
REMARK    1  A    between atoms: C1_1  and  C4_4 
REMARK    2  A    between atoms: C4_4  and  C5_5 
ROOT
HETATM    1  C1  UNL     1     -33.791   6.214   3.448  1.00 20.00     0.244 A 
HETATM    2  C3  UNL     1     -34.418   4.178   4.611  1.00 20.00     0.147 C 
HETATM    3  N6  UNL     1     -34.416   5.636   4.626  1.00 20.00    -0.168 NA
HETATM    4  O7  UNL     1     -35.207   6.015   3.470  1.00 20.00    -0.279 OA
ENDROOT
BRANCH   1   5
HETATM    5  C4  UNL     1     -33.363   7.635   3.466  1.00 20.00     0.051 C 
BRANCH   5   6
HETATM    6  C5  UNL     1     -32.048   7.833   2.715  1.00 20.00    -0.001 C 
HETATM    7  C2  UNL     1     -32.195   8.851   1.596  1.00 20.00     0.005 C 
ENDBRANCH   5   6
ENDBRANCH   1   5
TORSDOF 2
ENDMDL
MODEL 6
REMARK VINA RESULT:      -3.6     11.295     11.963
REMARK  2 active torsions:
REMARK  status: ('A' for Active; 'I' for Inactive)
REMARK    1  A    between atoms: C1_1  and  C4_4 
REMARK    2  A    between atoms: C4_4  and  C5_5 
ROOT
HETATM    1  C1  UNL     1     -35.284  14.071  -5.262  1.00 20.00     0.244 A 
HETATM    2  C3  UNL     1     -35.446  13.193  -7.519  1.00 20.00     0.147 C 
HETATM    3  N6  UNL     1     -34.785  13.101  -6.222  1.00 20.00    -0.168 NA
HETATM    4  O7  UNL     1     -35.846  12.756  -5.295  1.00 20.00    -0.279 OA
ENDROOT
BRANCH   1   5
HETATM    5  C4  UNL     1     -34.488  14.376  -4.046  1.00 20.00     0.051 C 
BRANCH   5   6
HETATM    6  C5  UNL     1     -34.923  15.695  -3.410  1.00 20.00    -0.001 C 
HETATM    7  C2  UNL     1     -33.731  16.484  -2.895  1.00 20.00     0.005 C 
ENDBRANCH   5   6
ENDBRANCH   1   5
TORSDOF 2
ENDMDL
MODEL 7
REMARK VINA RESULT:      -3.3     11.625     11.886
REMARK  2 active torsions:
REMARK  status: ('A' for Active; 'I' for Inactive)
REMARK    1  A    between atoms: C1_1  and  C4_4 
REMARK    2  A    between atoms: C4_4  and  C5_5 
ROOT
HETATM    1  C1  UNL     1     -34.741  14.780  -4.830  1.00 20.00     0.244 A 
HETATM    2  C3  UNL     1     -34.971  13.437  -6.839  1.00 20.00     0.147 C 
HETATM    3  N6  UNL     1     -34.173  13.726  -5.653  1.00 20.00    -0.168 NA
HETATM    4  O7  UNL     1     -35.049  13.415  -4.538  1.00 20.00    -0.279 OA
ENDROOT
BRANCH   1   5
HETATM    5  C4  UNL     1     -33.895  15.458  -3.816  1.00 20.00     0.051 C 
BRANCH   5   6
HETATM    6  C5  UNL     1     -34.742  16.222  -2.801  1.00 20.00    -0.001 C 
HETATM    7  C2  UNL     1     -33.875  17.020  -1.841  1.00 20.00     0.005 C 
ENDBRANCH   5   6
ENDBRANCH   1   5
TORSDOF 2
ENDMDL
MODEL 8
REMARK VINA RESULT:      -3.1      2.174      3.677
REMARK  2 active torsions:
REMARK  status: ('A' for Active; 'I' for Inactive)
REMARK    1  A    between atoms: C1_1  and  C4_4 
REMARK    2  A    between atoms: C4_4  and  C5_5 
ROOT
HETATM    1  C1  UNL     1     -34.043   6.594   4.713  1.00 20.00     0.244 A 
HETATM    2  C3  UNL     1     -34.557   4.229   4.520  1.00 20.00     0.147 C 
HETATM    3  N6  UNL     1     -33.819   5.259   5.242  1.00 20.00    -0.168 NA
HETATM    4  O7  UNL     1     -34.844   6.121   5.800  1.00 20.00    -0.279 OA
ENDROOT
BRANCH   1   5
HETATM    5  C4  UNL     1     -33.105   7.690   5.063  1.00 20.00     0.051 C 
BRANCH   5   6
HETATM    6  C5  UNL     1     -32.160   8.008   3.906  1.00 20.00    -0.001 C 
HETATM    7  C2  UNL     1     -32.666   7.424   2.598  1.00 20.00     0.005 C 
ENDBRANCH   5   6
ENDBRANCH   1   5
TORSDOF 2
ENDMDL
MODEL 9
REMARK VINA RESULT:      -3.1      1.814      2.433
REMARK  2 active torsions:
REMARK  status: ('A' for Active; 'I' for Inactive)
REMARK    1  A    between atoms: C1_1  and  C4_4 
REMARK    2  A    between atoms: C4_4  and  C5_5 
ROOT
HETATM    1  C1  UNL     1     -33.962   6.552   3.850  1.00 20.00     0.244 A 
HETATM    2  C3  UNL     1     -33.724   7.583   6.034  1.00 20.00     0.147 C 
HETATM    3  N6  UNL     1     -33.082   7.257   4.766  1.00 20.00    -0.168 NA
HETATM    4  O7  UNL     1     -33.853   7.976   3.769  1.00 20.00    -0.279 OA
ENDROOT
BRANCH   1   5
HETATM    5  C4  UNL     1     -33.385   5.819   2.695  1.00 20.00     0.051 C 
BRANCH   5   6
HETATM    6  C5  UNL     1     -33.412   4.309   2.922  1.00 20.00    -0.001 C 
HETATM    7  C2  UNL     1     -34.110   3.954   4.225  1.00 20.00     0.005 C 
ENDBRANCH   5   6
ENDBRANCH   1   5
TORSDOF 2
ENDMDL
