MODEL 1
REMARK VINA RESULT:      -4.8      0.000      0.000
REMARK  4 active torsions:
REMARK  status: ('A' for Active; 'I' for Inactive)
REMARK    1  A    between atoms: C4_4  and  C5_5 
REMARK    2  A    between atoms: C5_5  and  C7_7 
REMARK    3  A    between atoms: C6_6  and  O8_8 
REMARK    4  A    between atoms: C7_7  and  O8_8 
ROOT
HETATM    1  C3  UNL     1     -33.453   7.400   5.519  1.00 20.00     0.039 C 
HETATM    2  C7  UNL     1     -33.742   7.285   4.029  1.00 20.00     0.117 C 
ENDROOT
BRANCH   2   3
HETATM    3  C5  UNL     1     -34.790   6.205   3.740  1.00 20.00     0.031 C 
BRANCH   3   4
HETATM    4  C4  UNL     1     -34.837   5.140   4.839  1.00 20.00    -0.002 C 
HETATM    5  C1  UNL     1     -34.087   3.883   4.427  1.00 20.00     0.005 C 
ENDBRANCH   3   4
ENDBRANCH   2   3
BRANCH   2   6
HETATM    6  O8  UNL     1     -32.526   6.982   3.349  1.00 20.00    -0.387 OA
BRANCH   6   7
HETATM    7  C6  UNL     1     -31.762   8.154   3.110  1.00 20.00     0.163 C 
HETATM    8  C2  UNL     1     -32.071   8.669   1.720  1.00 20.00     0.033 C 
ENDBRANCH   6   7
ENDBRANCH   2   6
TORSDOF 4
ENDMDL
MODEL 2
REMARK VINA RESULT:      -4.8      1.226      2.126
REMARK  4 active torsions:
REMARK  status: ('A' for Active; 'I' for Inactive)
REMARK    1  A    between atoms: C4_4  and  C5_5 
REMARK    2  A    between atoms: C5_5  and  C7_7 
REMARK    3  A    between atoms: C6_6  and  O8_8 
REMARK    4  A    between atoms: C7_7  and  O8_8 
ROOT
HETATM    1  C3  UNL     1     -33.007   4.743   2.526  1.00 20.00     0.039 C 
HETATM    2  C7  UNL     1     -33.323   6.038   3.264  1.00 20.00     0.117 C 
ENDROOT
BRANCH   2   3
HETATM    3  C5  UNL     1     -34.676   5.962   3.978  1.00 20.00     0.031 C 
BRANCH   3   4
HETATM    4  C4  UNL     1     -34.528   6.026   5.501  1.00 20.00    -0.002 C 
HETATM    5  C1  UNL     1     -33.729   7.247   5.931  1.00 20.00     0.005 C 
ENDBRANCH   3   4
ENDBRANCH   2   3
BRANCH   2   6
HETATM    6  O8  UNL     1     -33.324   7.110   2.325  1.00 20.00    -0.387 OA
BRANCH   6   7
HETATM    7  C6  UNL     1     -32.226   7.985   2.537  1.00 20.00     0.163 C 
HETATM    8  C2  UNL     1     -32.117   8.933   1.362  1.00 20.00     0.033 C 
ENDBRANCH   6   7
ENDBRANCH   2   6
TORSDOF 4
ENDMDL
MODEL 3
REMARK VINA RESULT:      -4.7      1.237      1.773
REMARK  4 active torsions:
REMARK  status: ('A' for Active; 'I' for Inactive)
REMARK    1  A    between atoms: C4_4  and  C5_5 
REMARK    2  A    between atoms: C5_5  and  C7_7 
REMARK    3  A    between atoms: C6_6  and  O8_8 
REMARK    4  A    between atoms: C7_7  and  O8_8 
ROOT
HETATM    1  C3  UNL     1     -32.972   5.854   2.567  1.00 20.00     0.039 C 
HETATM    2  C7  UNL     1     -32.830   7.106   3.423  1.00 20.00     0.117 C 
ENDROOT
BRANCH   2   3
HETATM    3  C5  UNL     1     -33.816   7.100   4.595  1.00 20.00     0.031 C 
BRANCH   3   4
HETATM    4  C4  UNL     1     -34.770   5.904   4.541  1.00 20.00    -0.002 C 
HETATM    5  C1  UNL     1     -34.594   4.997   5.749  1.00 20.00     0.005 C 
ENDBRANCH   3   4
ENDBRANCH   2   3
BRANCH   2   6
HETATM    6  O8  UNL     1     -33.053   8.249   2.601  1.00 20.00    -0.387 OA
BRANCH   6   7
HETATM    7  C6  UNL     1     -31.927   8.525   1.782  1.00 20.00     0.163 C 
HETATM    8  C2  UNL     1     -32.297   9.597   0.779  1.00 20.00     0.033 C 
ENDBRANCH   6   7
ENDBRANCH   2   6
TORSDOF 4
ENDMDL
MODEL 4
REMARK VINA RESULT:      -4.6      1.389      4.407
REMARK  4 active torsions:
REMARK  status: ('A' for Active; 'I' for Inactive)
REMARK    1  A    between atoms: C4_4  and  C5_5 
REMARK    2  A    between atoms: C5_5  and  C7_7 
REMARK    3  A    between atoms: C6_6  and  O8_8 
REMARK    4  A    between atoms: C7_7  and  O8_8 
ROOT
HETATM    1  C3  UNL     1     -32.958   5.539   2.597  1.00 20.00     0.039 C 
HETATM    2  C7  UNL     1     -33.371   6.958   2.961  1.00 20.00     0.117 C 
ENDROOT
BRANCH   2   3
HETATM    3  C5  UNL     1     -32.167   7.905   2.989  1.00 20.00     0.031 C 
BRANCH   3   4
HETATM    4  C4  UNL     1     -31.825   8.444   1.597  1.00 20.00    -0.002 C 
HETATM    5  C1  UNL     1     -32.549   9.751   1.314  1.00 20.00     0.005 C 
ENDBRANCH   3   4
ENDBRANCH   2   3
BRANCH   2   6
HETATM    6  O8  UNL     1     -34.007   6.937   4.236  1.00 20.00    -0.387 OA
BRANCH   6   7
HETATM    7  C6  UNL     1     -34.848   5.801   4.376  1.00 20.00     0.163 C 
HETATM    8  C2  UNL     1     -34.615   5.179   5.736  1.00 20.00     0.033 C 
ENDBRANCH   6   7
ENDBRANCH   2   6
TORSDOF 4
ENDMDL
MODEL 5
REMARK VINA RESULT:      -4.5      1.443      3.687
REMARK  4 active torsions:
REMARK  status: ('A' for Active; 'I' for Inactive)
REMARK    1  A    between atoms: C4_4  and  C5_5 
REMARK    2  A    between atoms: C5_5  and  C7_7 
REMARK    3  A    between atoms: C6_6  and  O8_8 
REMARK    4  A    between atoms: C7_7  and  O8_8 
ROOT
HETATM    1  C3  UNL     1     -34.179   4.059   4.173  1.00 20.00     0.039 C 
HETATM    2  C7  UNL     1     -34.325   5.377   3.424  1.00 20.00     0.117 C 
ENDROOT
BRANCH   2   3
HETATM    3  C5  UNL     1     -32.982   5.861   2.869  1.00 20.00     0.031 C 
BRANCH   3   4
HETATM    4  C4  UNL     1     -33.007   7.350   2.513  1.00 20.00    -0.002 C 
HETATM    5  C1  UNL     1     -31.748   8.057   2.990  1.00 20.00     0.005 C 
ENDBRANCH   3   4
ENDBRANCH   2   3
BRANCH   2   6
HETATM    6  O8  UNL     1     -34.868   6.350   4.312  1.00 20.00    -0.387 OA
BRANCH   6   7
HETATM    7  C6  UNL     1     -34.434   6.132   5.646  1.00 20.00     0.163 C 
HETATM    8  C2  UNL     1     -33.667   7.348   6.120  1.00 20.00     0.033 C 
ENDBRANCH   6   7
ENDBRANCH   2   6
TORSDOF 4
ENDMDL
MODEL 6
REMARK VINA RESULT:      -4.5      1.402      1.903
REMARK  4 active torsions:
REMARK  status: ('A' for Active; 'I' for Inactive)
REMARK    1  A    between atoms: C4_4  and  C5_5 
REMARK    2  A    between atoms: C5_5  and  C7_7 
REMARK    3  A    between atoms: C6_6  and  O8_8 
REMARK    4  A    between atoms: C7_7  and  O8_8 
ROOT
HETATM    1  C3  UNL     1     -31.721   7.950   3.674  1.00 20.00     0.039 C 
HETATM    2  C7  UNL     1     -33.048   7.631   2.999  1.00 20.00     0.117 C 
ENDROOT
BRANCH   2   3
HETATM    3  C5  UNL     1     -33.360   6.133   3.052  1.00 20.00     0.031 C 
BRANCH   3   4
HETATM    4  C4  UNL     1     -34.683   5.845   3.768  1.00 20.00    -0.002 C 
HETATM    5  C1  UNL     1     -34.510   5.848   5.279  1.00 20.00     0.005 C 
ENDBRANCH   3   4
ENDBRANCH   2   3
BRANCH   2   6
HETATM    6  O8  UNL     1     -32.989   8.071   1.645  1.00 20.00    -0.387 OA
BRANCH   6   7
HETATM    7  C6  UNL     1     -32.002   9.076   1.469  1.00 20.00     0.163 C 
HETATM    8  C2  UNL     1     -32.650  10.306   0.870  1.00 20.00     0.033 C 
ENDBRANCH   6   7
ENDBRANCH   2   6
TORSDOF 4
ENDMDL
MODEL 7
REMARK VINA RESULT:      -4.4      0.944      3.940
REMARK  4 active torsions:
REMARK  status: ('A' for Active; 'I' for Inactive)
REMARK    1  A    between atoms: C4_4  and  C5_5 
REMARK    2  A    between atoms: C5_5  and  C7_7 
REMARK    3  A    between atoms: C6_6  and  O8_8 
REMARK    4  A    between atoms: C7_7  and  O8_8 
ROOT
HETATM    1  C3  UNL     1     -33.664   7.448   5.807  1.00 20.00     0.039 C 
HETATM    2  C7  UNL     1     -33.179   6.909   4.468  1.00 20.00     0.117 C 
ENDROOT
BRANCH   2   3
HETATM    3  C5  UNL     1     -32.334   7.943   3.718  1.00 20.00     0.031 C 
BRANCH   3   4
HETATM    4  C4  UNL     1     -32.515   7.844   2.200  1.00 20.00    -0.002 C 
HETATM    5  C1  UNL     1     -32.149   9.149   1.511  1.00 20.00     0.005 C 
ENDBRANCH   3   4
ENDBRANCH   2   3
BRANCH   2   6
HETATM    6  O8  UNL     1     -34.312   6.542   3.686  1.00 20.00    -0.387 OA
BRANCH   6   7
HETATM    7  C6  UNL     1     -35.109   5.574   4.352  1.00 20.00     0.163 C 
HETATM    8  C2  UNL     1     -34.358   4.260   4.392  1.00 20.00     0.033 C 
ENDBRANCH   6   7
ENDBRANCH   2   6
TORSDOF 4
ENDMDL
MODEL 8
REMARK VINA RESULT:      -4.3      1.287      4.387
REMARK  4 active torsions:
REMARK  status: ('A' for Active; 'I' for Inactive)
REMARK    1  A    between atoms: C4_4  and  C5_5 
REMARK    2  A    between atoms: C5_5  and  C7_7 
REMARK    3  A    between atoms: C6_6  and  O8_8 
REMARK    4  A    between atoms: C7_7  and  O8_8 
ROOT
HETATM    1  C3  UNL     1     -31.406   8.251   3.768  1.00 20.00     0.039 C 
HETATM    2  C7  UNL     1     -32.484   7.381   3.134  1.00 20.00     0.117 C 
ENDROOT
BRANCH   2   3
HETATM    3  C5  UNL     1     -33.013   7.999   1.836  1.00 20.00     0.031 C 
BRANCH   3   4
HETATM    4  C4  UNL     1     -31.999   8.951   1.195  1.00 20.00    -0.002 C 
HETATM    5  C1  UNL     1     -32.632  10.291   0.856  1.00 20.00     0.005 C 
ENDBRANCH   3   4
ENDBRANCH   2   3
BRANCH   2   6
HETATM    6  O8  UNL     1     -33.548   7.218   4.068  1.00 20.00    -0.387 OA
BRANCH   6   7
HETATM    7  C6  UNL     1     -34.332   6.074   3.764  1.00 20.00     0.163 C 
HETATM    8  C2  UNL     1     -34.663   5.347   5.050  1.00 20.00     0.033 C 
ENDBRANCH   6   7
ENDBRANCH   2   6
TORSDOF 4
ENDMDL
MODEL 9
REMARK VINA RESULT:      -3.6      1.195      3.025
REMARK  4 active torsions:
REMARK  status: ('A' for Active; 'I' for Inactive)
REMARK    1  A    between atoms: C4_4  and  C5_5 
REMARK    2  A    between atoms: C5_5  and  C7_7 
REMARK    3  A    between atoms: C6_6  and  O8_8 
REMARK    4  A    between atoms: C7_7  and  O8_8 
ROOT
HETATM    1  C3  UNL     1     -31.569   8.113   3.332  1.00 20.00     0.039 C 
HETATM    2  C7  UNL     1     -32.841   7.365   2.957  1.00 20.00     0.117 C 
ENDROOT
BRANCH   2   3
HETATM    3  C5  UNL     1     -33.969   7.638   3.956  1.00 20.00     0.031 C 
BRANCH   3   4
HETATM    4  C4  UNL     1     -33.492   7.530   5.408  1.00 20.00    -0.002 C 
HETATM    5  C1  UNL     1     -34.293   6.493   6.180  1.00 20.00     0.005 C 
ENDBRANCH   3   4
ENDBRANCH   2   3
BRANCH   2   6
HETATM    6  O8  UNL     1     -32.555   5.969   2.911  1.00 20.00    -0.387 OA
BRANCH   6   7
HETATM    7  C6  UNL     1     -33.733   5.206   2.702  1.00 20.00     0.163 C 
HETATM    8  C2  UNL     1     -33.797   4.103   3.738  1.00 20.00     0.033 C 
ENDBRANCH   6   7
ENDBRANCH   2   6
TORSDOF 4
ENDMDL
