MODEL 1
REMARK VINA RESULT:      -4.9      0.000      0.000
REMARK  0 active torsions:
REMARK  status: ('A' for Active; 'I' for Inactive)
ROOT
HETATM    1  C1  UNL     1     -33.168  18.609   3.474  1.00 20.00     0.095 C 
HETATM    2  C2  UNL     1     -33.897  17.038  -2.017  1.00 20.00     0.095 C 
HETATM    3  C3  UNL     1     -31.874  18.494   1.431  1.00 20.00    -0.007 C 
HETATM    4  C4  UNL     1     -35.232  17.325  -0.016  1.00 20.00    -0.007 C 
HETATM    5  C5  UNL     1     -33.030  18.704   2.068  1.00 20.00     0.024 C 
HETATM    6  C6  UNL     1     -34.215  17.691  -0.801  1.00 20.00     0.024 C 
HETATM    7  C7  UNL     1     -31.990  18.719  -0.040  1.00 20.00     0.039 C 
HETATM    8  C8  UNL     1     -35.383  18.217   1.171  1.00 20.00     0.039 C 
HETATM    9  C9  UNL     1     -34.133  19.107   1.128  1.00 20.00     0.042 C 
HETATM   10  C10 UNL     1     -33.497  18.903  -0.271  1.00 20.00     0.042 C 
HETATM   11  N11 UNL     1     -33.282  18.532   4.627  1.00 20.00    -0.192 NA
HETATM   12  N12 UNL     1     -33.639  16.503  -3.013  1.00 20.00    -0.192 NA
ENDROOT
TORSDOF 0
ENDMDL
MODEL 2
REMARK VINA RESULT:      -4.9      0.062      4.775
REMARK  0 active torsions:
REMARK  status: ('A' for Active; 'I' for Inactive)
ROOT
HETATM    1  C1  UNL     1     -33.879  17.064  -1.988  1.00 20.00     0.095 C 
HETATM    2  C2  UNL     1     -33.110  18.602   3.507  1.00 20.00     0.095 C 
HETATM    3  C3  UNL     1     -35.204  17.367   0.017  1.00 20.00    -0.007 C 
HETATM    4  C4  UNL     1     -31.823  18.472   1.460  1.00 20.00    -0.007 C 
HETATM    5  C5  UNL     1     -34.182  17.719  -0.768  1.00 20.00     0.024 C 
HETATM    6  C6  UNL     1     -32.973  18.699   2.101  1.00 20.00     0.024 C 
HETATM    7  C7  UNL     1     -35.337  18.257   1.207  1.00 20.00     0.039 C 
HETATM    8  C8  UNL     1     -31.939  18.704  -0.010  1.00 20.00     0.039 C 
HETATM    9  C9  UNL     1     -33.442  18.916  -0.237  1.00 20.00     0.042 C 
HETATM   10  C10 UNL     1     -34.071  19.126   1.165  1.00 20.00     0.042 C 
HETATM   11  N11 UNL     1     -33.631  16.529  -2.987  1.00 20.00    -0.192 NA
HETATM   12  N12 UNL     1     -33.222  18.523   4.659  1.00 20.00    -0.192 NA
ENDROOT
TORSDOF 0
ENDMDL
MODEL 3
REMARK VINA RESULT:      -4.7      3.930      5.980
REMARK  0 active torsions:
REMARK  status: ('A' for Active; 'I' for Inactive)
ROOT
HETATM    1  C1  UNL     1     -35.183  16.780  -1.754  1.00 20.00     0.095 C 
HETATM    2  C2  UNL     1     -35.426  13.268  -6.310  1.00 20.00     0.095 C 
HETATM    3  C3  UNL     1     -33.675  15.802  -3.376  1.00 20.00    -0.007 C 
HETATM    4  C4  UNL     1     -36.950  14.391  -4.798  1.00 20.00    -0.007 C 
HETATM    5  C5  UNL     1     -34.865  16.317  -3.054  1.00 20.00     0.024 C 
HETATM    6  C6  UNL     1     -35.807  14.358  -5.490  1.00 20.00     0.024 C 
HETATM    7  C7  UNL     1     -33.583  15.449  -4.823  1.00 20.00     0.039 C 
HETATM    8  C8  UNL     1     -37.133  15.679  -4.067  1.00 20.00     0.039 C 
HETATM    9  C9  UNL     1     -35.788  16.400  -4.238  1.00 20.00     0.042 C 
HETATM   10  C10 UNL     1     -35.017  15.630  -5.342  1.00 20.00     0.042 C 
HETATM   11  N11 UNL     1     -35.445  17.161  -0.689  1.00 20.00    -0.192 NA
HETATM   12  N12 UNL     1     -35.116  12.375  -6.982  1.00 20.00    -0.192 NA
ENDROOT
TORSDOF 0
ENDMDL
MODEL 4
REMARK VINA RESULT:      -4.7      3.931      7.549
REMARK  0 active torsions:
REMARK  status: ('A' for Active; 'I' for Inactive)
ROOT
HETATM    1  C1  UNL     1     -35.442  13.285  -6.296  1.00 20.00     0.095 C 
HETATM    2  C2  UNL     1     -35.221  16.790  -1.734  1.00 20.00     0.095 C 
HETATM    3  C3  UNL     1     -36.971  14.390  -4.779  1.00 20.00    -0.007 C 
HETATM    4  C4  UNL     1     -33.707  15.829  -3.361  1.00 20.00    -0.007 C 
HETATM    5  C5  UNL     1     -35.830  14.370  -5.474  1.00 20.00     0.024 C 
HETATM    6  C6  UNL     1     -34.900  16.332  -3.035  1.00 20.00     0.024 C 
HETATM    7  C7  UNL     1     -37.165  15.676  -4.046  1.00 20.00     0.039 C 
HETATM    8  C8  UNL     1     -33.615  15.480  -4.810  1.00 20.00     0.039 C 
HETATM    9  C9  UNL     1     -35.051  15.649  -5.325  1.00 20.00     0.042 C 
HETATM   10  C10 UNL     1     -35.827  16.409  -4.218  1.00 20.00     0.042 C 
HETATM   11  N11 UNL     1     -35.123  12.396  -6.971  1.00 20.00    -0.192 NA
HETATM   12  N12 UNL     1     -35.482  17.166  -0.668  1.00 20.00    -0.192 NA
ENDROOT
TORSDOF 0
ENDMDL
MODEL 5
REMARK VINA RESULT:      -4.6      3.895      6.323
REMARK  0 active torsions:
REMARK  status: ('A' for Active; 'I' for Inactive)
ROOT
HETATM    1  C1  UNL     1     -33.612  17.079  -2.288  1.00 20.00     0.095 C 
HETATM    2  C2  UNL     1     -35.903  14.785  -7.046  1.00 20.00     0.095 C 
HETATM    3  C3  UNL     1     -35.783  16.388  -3.108  1.00 20.00    -0.007 C 
HETATM    4  C4  UNL     1     -33.713  15.309  -6.155  1.00 20.00    -0.007 C 
HETATM    5  C5  UNL     1     -34.458  16.229  -3.041  1.00 20.00     0.024 C 
HETATM    6  C6  UNL     1     -34.976  14.910  -5.983  1.00 20.00     0.024 C 
HETATM    7  C7  UNL     1     -36.442  15.321  -3.917  1.00 20.00     0.039 C 
HETATM    8  C8  UNL     1     -32.935  15.295  -4.881  1.00 20.00     0.039 C 
HETATM    9  C9  UNL     1     -33.992  15.018  -3.802  1.00 20.00     0.042 C 
HETATM   10  C10 UNL     1     -35.270  14.557  -4.550  1.00 20.00     0.042 C 
HETATM   11  N11 UNL     1     -32.918  17.775  -1.671  1.00 20.00    -0.192 NA
HETATM   12  N12 UNL     1     -36.661  14.681  -7.918  1.00 20.00    -0.192 NA
ENDROOT
TORSDOF 0
ENDMDL
MODEL 6
REMARK VINA RESULT:      -4.6      3.945      7.390
REMARK  0 active torsions:
REMARK  status: ('A' for Active; 'I' for Inactive)
ROOT
HETATM    1  C1  UNL     1     -35.885  14.585  -7.047  1.00 20.00     0.095 C 
HETATM    2  C2  UNL     1     -33.649  17.040  -2.343  1.00 20.00     0.095 C 
HETATM    3  C3  UNL     1     -33.707  15.165  -6.161  1.00 20.00    -0.007 C 
HETATM    4  C4  UNL     1     -35.807  16.295  -3.152  1.00 20.00    -0.007 C 
HETATM    5  C5  UNL     1     -34.966  14.753  -5.982  1.00 20.00     0.024 C 
HETATM    6  C6  UNL     1     -34.480  16.158  -3.076  1.00 20.00     0.024 C 
HETATM    7  C7  UNL     1     -32.935  15.196  -4.884  1.00 20.00     0.039 C 
HETATM    8  C8  UNL     1     -36.446  15.197  -3.936  1.00 20.00     0.039 C 
HETATM    9  C9  UNL     1     -35.261  14.433  -4.542  1.00 20.00     0.042 C 
HETATM   10  C10 UNL     1     -33.993  14.934  -3.802  1.00 20.00     0.042 C 
HETATM   11  N11 UNL     1     -36.639  14.447  -7.918  1.00 20.00    -0.192 NA
HETATM   12  N12 UNL     1     -32.969  17.762  -1.741  1.00 20.00    -0.192 NA
ENDROOT
TORSDOF 0
ENDMDL
MODEL 7
REMARK VINA RESULT:      -4.6      4.067      5.328
REMARK  0 active torsions:
REMARK  status: ('A' for Active; 'I' for Inactive)
ROOT
HETATM    1  C1  UNL     1     -36.613  18.081  -1.121  1.00 20.00     0.095 C 
HETATM    2  C2  UNL     1     -36.121  13.838  -4.981  1.00 20.00     0.095 C 
HETATM    3  C3  UNL     1     -34.925  16.541  -1.922  1.00 20.00    -0.007 C 
HETATM    4  C4  UNL     1     -37.750  15.498  -4.304  1.00 20.00    -0.007 C 
HETATM    5  C5  UNL     1     -35.990  17.318  -2.139  1.00 20.00     0.024 C 
HETATM    6  C6  UNL     1     -36.483  15.120  -4.502  1.00 20.00     0.024 C 
HETATM    7  C7  UNL     1     -34.430  15.897  -3.175  1.00 20.00     0.039 C 
HETATM    8  C8  UNL     1     -37.854  16.917  -3.854  1.00 20.00     0.039 C 
HETATM    9  C9  UNL     1     -36.400  17.331  -3.586  1.00 20.00     0.042 C 
HETATM   10  C10 UNL     1     -35.508  16.230  -4.216  1.00 20.00     0.042 C 
HETATM   11  N11 UNL     1     -37.124  18.707  -0.288  1.00 20.00    -0.192 NA
HETATM   12  N12 UNL     1     -35.826  12.787  -5.375  1.00 20.00    -0.192 NA
ENDROOT
TORSDOF 0
ENDMDL
MODEL 8
REMARK VINA RESULT:      -4.6      4.179      6.923
REMARK  0 active torsions:
REMARK  status: ('A' for Active; 'I' for Inactive)
ROOT
HETATM    1  C1  UNL     1     -36.055  13.830  -5.025  1.00 20.00     0.095 C 
HETATM    2  C2  UNL     1     -36.754  18.133  -1.264  1.00 20.00     0.095 C 
HETATM    3  C3  UNL     1     -37.723  15.489  -4.452  1.00 20.00    -0.007 C 
HETATM    4  C4  UNL     1     -35.020  16.592  -1.959  1.00 20.00    -0.007 C 
HETATM    5  C5  UNL     1     -36.446  15.118  -4.584  1.00 20.00     0.024 C 
HETATM    6  C6  UNL     1     -36.079  17.357  -2.238  1.00 20.00     0.024 C 
HETATM    7  C7  UNL     1     -37.858  16.915  -4.032  1.00 20.00     0.039 C 
HETATM    8  C8  UNL     1     -34.463  15.931  -3.176  1.00 20.00     0.039 C 
HETATM    9  C9  UNL     1     -35.493  16.238  -4.272  1.00 20.00     0.042 C 
HETATM   10  C10 UNL     1     -36.421  17.343  -3.703  1.00 20.00     0.042 C 
HETATM   11  N11 UNL     1     -35.733  12.775  -5.386  1.00 20.00    -0.192 NA
HETATM   12  N12 UNL     1     -37.306  18.768  -0.465  1.00 20.00    -0.192 NA
ENDROOT
TORSDOF 0
ENDMDL
MODEL 9
REMARK VINA RESULT:      -4.5      2.400      5.365
REMARK  0 active torsions:
REMARK  status: ('A' for Active; 'I' for Inactive)
ROOT
HETATM    1  C1  UNL     1     -33.802  17.853  -5.239  1.00 20.00     0.095 C 
HETATM    2  C2  UNL     1     -34.931  18.200   0.397  1.00 20.00     0.095 C 
HETATM    3  C3  UNL     1     -33.175  19.221  -3.341  1.00 20.00    -0.007 C 
HETATM    4  C4  UNL     1     -35.412  16.728  -1.466  1.00 20.00    -0.007 C 
HETATM    5  C5  UNL     1     -33.509  18.038  -3.865  1.00 20.00     0.024 C 
HETATM    6  C6  UNL     1     -34.592  17.563  -0.822  1.00 20.00     0.024 C 
HETATM    7  C7  UNL     1     -32.857  19.126  -1.886  1.00 20.00     0.039 C 
HETATM    8  C8  UNL     1     -34.786  16.149  -2.690  1.00 20.00     0.039 C 
HETATM    9  C9  UNL     1     -33.475  16.934  -2.845  1.00 20.00     0.042 C 
HETATM   10  C10 UNL     1     -33.260  17.693  -1.510  1.00 20.00     0.042 C 
HETATM   11  N11 UNL     1     -34.042  17.701  -6.364  1.00 20.00    -0.192 NA
HETATM   12  N12 UNL     1     -35.209  18.720   1.395  1.00 20.00    -0.192 NA
ENDROOT
TORSDOF 0
ENDMDL
