MODEL 1
REMARK VINA RESULT:      -5.5      0.000      0.000
REMARK  5 active torsions:
REMARK  status: ('A' for Active; 'I' for Inactive)
REMARK    1  A    between atoms: C1_1  and  C6_6 
REMARK    2  A    between atoms: C1_1  and  S11_11 
REMARK    3  A    between atoms: C6_6  and  C8_8 
REMARK    4  A    between atoms: C7_7  and  C9_9 
REMARK    5  A    between atoms: C9_9  and  S11_11 
ROOT
HETATM    1  C1  UNL     1     -31.939   7.937   2.917  1.00 20.00     0.186 C 
HETATM    2  O10 UNL     1     -31.504   8.462   3.934  1.00 20.00    -0.285 OA
ENDROOT
BRANCH   1   3
HETATM    3  C6  UNL     1     -31.736   8.491   1.518  1.00 20.00     0.094 C 
BRANCH   3   4
HETATM    4  C8  UNL     1     -32.879   9.412   1.060  1.00 20.00    -0.015 C 
HETATM    5  C3  UNL     1     -32.599  10.851   1.499  1.00 20.00     0.010 C 
HETATM    6  C4  UNL     1     -33.064   9.361  -0.458  1.00 20.00     0.010 C 
ENDBRANCH   3   4
ENDBRANCH   1   3
BRANCH   1   7
HETATM    7  S11 UNL     1     -32.830   6.410   2.941  1.00 20.00    -0.088 SA
BRANCH   7   8
HETATM    8  C9  UNL     1     -34.230   6.863   3.989  1.00 20.00     0.051 C 
HETATM    9  C5  UNL     1     -35.477   6.151   3.473  1.00 20.00     0.022 C 
BRANCH   8  10
HETATM   10  C7  UNL     1     -33.975   6.518   5.464  1.00 20.00     0.011 C 
HETATM   11  C2  UNL     1     -34.534   5.165   5.886  1.00 20.00     0.006 C 
ENDBRANCH   8  10
ENDBRANCH   7   8
ENDBRANCH   1   7
TORSDOF 5
ENDMDL
MODEL 2
REMARK VINA RESULT:      -5.5      1.123      1.670
REMARK  5 active torsions:
REMARK  status: ('A' for Active; 'I' for Inactive)
REMARK    1  A    between atoms: C1_1  and  C6_6 
REMARK    2  A    between atoms: C1_1  and  S11_11 
REMARK    3  A    between atoms: C6_6  and  C8_8 
REMARK    4  A    between atoms: C7_7  and  C9_9 
REMARK    5  A    between atoms: C9_9  and  S11_11 
ROOT
HETATM    1  C1  UNL     1     -32.151   8.044   2.969  1.00 20.00     0.186 C 
HETATM    2  O10 UNL     1     -30.956   8.279   3.096  1.00 20.00    -0.285 OA
ENDROOT
BRANCH   1   3
HETATM    3  C6  UNL     1     -32.932   8.268   1.687  1.00 20.00     0.094 C 
BRANCH   3   4
HETATM    4  C8  UNL     1     -32.395   9.439   0.848  1.00 20.00    -0.015 C 
HETATM    5  C3  UNL     1     -33.010   9.405  -0.554  1.00 20.00     0.010 C 
HETATM    6  C4  UNL     1     -32.696  10.786   1.511  1.00 20.00     0.010 C 
ENDBRANCH   3   4
ENDBRANCH   1   3
BRANCH   1   7
HETATM    7  S11 UNL     1     -33.127   7.351   4.270  1.00 20.00    -0.088 SA
BRANCH   7   8
HETATM    8  C9  UNL     1     -34.057   6.103   3.354  1.00 20.00     0.051 C 
HETATM    9  C5  UNL     1     -33.082   5.052   2.831  1.00 20.00     0.022 C 
BRANCH   8  10
HETATM   10  C7  UNL     1     -35.148   5.454   4.219  1.00 20.00     0.011 C 
HETATM   11  C2  UNL     1     -34.664   5.014   5.595  1.00 20.00     0.006 C 
ENDBRANCH   8  10
ENDBRANCH   7   8
ENDBRANCH   1   7
TORSDOF 5
ENDMDL
MODEL 3
REMARK VINA RESULT:      -5.4      0.885      1.352
REMARK  5 active torsions:
REMARK  status: ('A' for Active; 'I' for Inactive)
REMARK    1  A    between atoms: C1_1  and  C6_6 
REMARK    2  A    between atoms: C1_1  and  S11_11 
REMARK    3  A    between atoms: C6_6  and  C8_8 
REMARK    4  A    between atoms: C7_7  and  C9_9 
REMARK    5  A    between atoms: C9_9  and  S11_11 
ROOT
HETATM    1  C1  UNL     1     -32.155   7.995   2.999  1.00 20.00     0.186 C 
HETATM    2  O10 UNL     1     -31.335   8.047   3.906  1.00 20.00    -0.285 OA
ENDROOT
BRANCH   1   3
HETATM    3  C6  UNL     1     -31.874   8.422   1.570  1.00 20.00     0.094 C 
BRANCH   3   4
HETATM    4  C8  UNL     1     -32.917   9.407   1.017  1.00 20.00    -0.015 C 
HETATM    5  C3  UNL     1     -32.555  10.837   1.424  1.00 20.00     0.010 C 
HETATM    6  C4  UNL     1     -33.020   9.315  -0.508  1.00 20.00     0.010 C 
ENDBRANCH   3   4
ENDBRANCH   1   3
BRANCH   1   7
HETATM    7  S11 UNL     1     -33.787   7.354   3.228  1.00 20.00    -0.088 SA
BRANCH   7   8
HETATM    8  C9  UNL     1     -33.591   6.513   4.814  1.00 20.00     0.051 C 
HETATM    9  C5  UNL     1     -33.697   7.546   5.931  1.00 20.00     0.022 C 
BRANCH   8  10
HETATM   10  C7  UNL     1     -34.629   5.396   5.001  1.00 20.00     0.011 C 
HETATM   11  C2  UNL     1     -34.243   4.078   4.341  1.00 20.00     0.006 C 
ENDBRANCH   8  10
ENDBRANCH   7   8
ENDBRANCH   1   7
TORSDOF 5
ENDMDL
MODEL 4
REMARK VINA RESULT:      -4.6      1.287      5.408
REMARK  5 active torsions:
REMARK  status: ('A' for Active; 'I' for Inactive)
REMARK    1  A    between atoms: C1_1  and  C6_6 
REMARK    2  A    between atoms: C1_1  and  S11_11 
REMARK    3  A    between atoms: C6_6  and  C8_8 
REMARK    4  A    between atoms: C7_7  and  C9_9 
REMARK    5  A    between atoms: C9_9  and  S11_11 
ROOT
HETATM    1  C1  UNL     1     -33.999   6.855   3.922  1.00 20.00     0.186 C 
HETATM    2  O10 UNL     1     -33.800   7.636   4.844  1.00 20.00    -0.285 OA
ENDROOT
BRANCH   1   3
HETATM    3  C6  UNL     1     -35.178   5.901   3.853  1.00 20.00     0.094 C 
BRANCH   3   4
HETATM    4  C8  UNL     1     -34.988   4.643   4.717  1.00 20.00    -0.015 C 
HETATM    5  C3  UNL     1     -33.913   3.743   4.105  1.00 20.00     0.010 C 
HETATM    6  C4  UNL     1     -34.602   5.005   6.154  1.00 20.00     0.010 C 
ENDBRANCH   3   4
ENDBRANCH   1   3
BRANCH   1   7
HETATM    7  S11 UNL     1     -32.952   6.775   2.500  1.00 20.00    -0.088 SA
BRANCH   7   8
HETATM    8  C9  UNL     1     -32.288   8.454   2.485  1.00 20.00     0.051 C 
HETATM    9  C5  UNL     1     -31.058   8.502   3.387  1.00 20.00     0.022 C 
BRANCH   8  10
HETATM   10  C7  UNL     1     -31.941   8.919   1.062  1.00 20.00     0.011 C 
HETATM   11  C2  UNL     1     -32.621  10.221   0.656  1.00 20.00     0.006 C 
ENDBRANCH   8  10
ENDBRANCH   7   8
ENDBRANCH   1   7
TORSDOF 5
ENDMDL
MODEL 5
REMARK VINA RESULT:      -4.6      1.460      5.164
REMARK  5 active torsions:
REMARK  status: ('A' for Active; 'I' for Inactive)
REMARK    1  A    between atoms: C1_1  and  C6_6 
REMARK    2  A    between atoms: C1_1  and  S11_11 
REMARK    3  A    between atoms: C6_6  and  C8_8 
REMARK    4  A    between atoms: C7_7  and  C9_9 
REMARK    5  A    between atoms: C9_9  and  S11_11 
ROOT
HETATM    1  C1  UNL     1     -32.916   6.695   3.003  1.00 20.00     0.186 C 
HETATM    2  O10 UNL     1     -32.552   5.568   2.696  1.00 20.00    -0.285 OA
ENDROOT
BRANCH   1   3
HETATM    3  C6  UNL     1     -34.310   7.036   3.499  1.00 20.00     0.094 C 
BRANCH   3   4
HETATM    4  C8  UNL     1     -34.555   6.607   4.955  1.00 20.00    -0.015 C 
HETATM    5  C3  UNL     1     -34.508   5.082   5.068  1.00 20.00     0.010 C 
HETATM    6  C4  UNL     1     -33.524   7.227   5.901  1.00 20.00     0.010 C 
ENDBRANCH   3   4
ENDBRANCH   1   3
BRANCH   1   7
HETATM    7  S11 UNL     1     -31.831   8.090   2.959  1.00 20.00    -0.088 SA
BRANCH   7   8
HETATM    8  C9  UNL     1     -32.653   9.108   1.714  1.00 20.00     0.051 C 
HETATM    9  C5  UNL     1     -32.499  10.575   2.102  1.00 20.00     0.022 C 
BRANCH   8  10
HETATM   10  C7  UNL     1     -32.093   8.853   0.306  1.00 20.00     0.011 C 
HETATM   11  C2  UNL     1     -33.034   9.273  -0.817  1.00 20.00     0.006 C 
ENDBRANCH   8  10
ENDBRANCH   7   8
ENDBRANCH   1   7
TORSDOF 5
ENDMDL
MODEL 6
REMARK VINA RESULT:      -4.6      1.515      4.932
REMARK  5 active torsions:
REMARK  status: ('A' for Active; 'I' for Inactive)
REMARK    1  A    between atoms: C1_1  and  C6_6 
REMARK    2  A    between atoms: C1_1  and  S11_11 
REMARK    3  A    between atoms: C6_6  and  C8_8 
REMARK    4  A    between atoms: C7_7  and  C9_9 
REMARK    5  A    between atoms: C9_9  and  S11_11 
ROOT
HETATM    1  C1  UNL     1     -32.914   7.630   4.033  1.00 20.00     0.186 C 
HETATM    2  O10 UNL     1     -32.861   7.565   5.254  1.00 20.00    -0.285 OA
ENDROOT
BRANCH   1   3
HETATM    3  C6  UNL     1     -34.097   7.162   3.205  1.00 20.00     0.094 C 
BRANCH   3   4
HETATM    4  C8  UNL     1     -34.284   5.636   3.227  1.00 20.00    -0.015 C 
HETATM    5  C3  UNL     1     -32.990   4.943   2.795  1.00 20.00     0.010 C 
HETATM    6  C4  UNL     1     -34.695   5.143   4.617  1.00 20.00     0.010 C 
ENDBRANCH   3   4
ENDBRANCH   1   3
BRANCH   1   7
HETATM    7  S11 UNL     1     -31.620   8.341   3.061  1.00 20.00    -0.088 SA
BRANCH   7   8
HETATM    8  C9  UNL     1     -32.586   9.144   1.763  1.00 20.00     0.051 C 
HETATM    9  C5  UNL     1     -32.566  10.651   2.000  1.00 20.00     0.022 C 
BRANCH   8  10
HETATM   10  C7  UNL     1     -32.055   8.804   0.363  1.00 20.00     0.011 C 
HETATM   11  C2  UNL     1     -32.996   9.203  -0.767  1.00 20.00     0.006 C 
ENDBRANCH   8  10
ENDBRANCH   7   8
ENDBRANCH   1   7
TORSDOF 5
ENDMDL
MODEL 7
REMARK VINA RESULT:      -4.2      1.619      1.971
REMARK  5 active torsions:
REMARK  status: ('A' for Active; 'I' for Inactive)
REMARK    1  A    between atoms: C1_1  and  C6_6 
REMARK    2  A    between atoms: C1_1  and  S11_11 
REMARK    3  A    between atoms: C6_6  and  C8_8 
REMARK    4  A    between atoms: C7_7  and  C9_9 
REMARK    5  A    between atoms: C9_9  and  S11_11 
ROOT
HETATM    1  C1  UNL     1     -33.071   6.577   2.840  1.00 20.00     0.186 C 
HETATM    2  O10 UNL     1     -32.436   5.567   2.567  1.00 20.00    -0.285 OA
ENDROOT
BRANCH   1   3
HETATM    3  C6  UNL     1     -32.494   7.980   2.812  1.00 20.00     0.094 C 
BRANCH   3   4
HETATM    4  C8  UNL     1     -32.591   8.647   1.431  1.00 20.00    -0.015 C 
HETATM    5  C3  UNL     1     -32.937  10.130   1.587  1.00 20.00     0.010 C 
HETATM    6  C4  UNL     1     -31.285   8.502   0.646  1.00 20.00     0.010 C 
ENDBRANCH   3   4
ENDBRANCH   1   3
BRANCH   1   7
HETATM    7  S11 UNL     1     -34.789   6.536   3.258  1.00 20.00    -0.088 SA
BRANCH   7   8
HETATM    8  C9  UNL     1     -34.735   5.557   4.774  1.00 20.00     0.051 C 
HETATM    9  C5  UNL     1     -34.408   4.111   4.411  1.00 20.00     0.022 C 
BRANCH   8  10
HETATM   10  C7  UNL     1     -33.715   6.113   5.779  1.00 20.00     0.011 C 
HETATM   11  C2  UNL     1     -33.906   7.591   6.097  1.00 20.00     0.006 C 
ENDBRANCH   8  10
ENDBRANCH   7   8
ENDBRANCH   1   7
TORSDOF 5
ENDMDL
MODEL 8
REMARK VINA RESULT:      -4.1      0.925      4.968
REMARK  5 active torsions:
REMARK  status: ('A' for Active; 'I' for Inactive)
REMARK    1  A    between atoms: C1_1  and  C6_6 
REMARK    2  A    between atoms: C1_1  and  S11_11 
REMARK    3  A    between atoms: C6_6  and  C8_8 
REMARK    4  A    between atoms: C7_7  and  C9_9 
REMARK    5  A    between atoms: C9_9  and  S11_11 
ROOT
HETATM    1  C1  UNL     1     -32.585   7.728   4.022  1.00 20.00     0.186 C 
HETATM    2  O10 UNL     1     -31.631   8.362   4.454  1.00 20.00    -0.285 OA
ENDROOT
BRANCH   1   3
HETATM    3  C6  UNL     1     -33.739   7.235   4.877  1.00 20.00     0.094 C 
BRANCH   3   4
HETATM    4  C8  UNL     1     -34.243   5.842   4.466  1.00 20.00    -0.015 C 
HETATM    5  C3  UNL     1     -34.462   4.976   5.708  1.00 20.00     0.010 C 
HETATM    6  C4  UNL     1     -35.545   5.933   3.664  1.00 20.00     0.010 C 
ENDBRANCH   3   4
ENDBRANCH   1   3
BRANCH   1   7
HETATM    7  S11 UNL     1     -32.774   7.345   2.306  1.00 20.00    -0.088 SA
BRANCH   7   8
HETATM    8  C9  UNL     1     -31.979   8.784   1.558  1.00 20.00     0.051 C 
HETATM    9  C5  UNL     1     -31.255   8.338   0.291  1.00 20.00     0.022 C 
BRANCH   8  10
HETATM   10  C7  UNL     1     -32.990   9.898   1.247  1.00 20.00     0.011 C 
HETATM   11  C2  UNL     1     -32.623  11.249   1.850  1.00 20.00     0.006 C 
ENDBRANCH   8  10
ENDBRANCH   7   8
ENDBRANCH   1   7
TORSDOF 5
ENDMDL
MODEL 9
REMARK VINA RESULT:      -4.0     10.492     11.888
REMARK  5 active torsions:
REMARK  status: ('A' for Active; 'I' for Inactive)
REMARK    1  A    between atoms: C1_1  and  C6_6 
REMARK    2  A    between atoms: C1_1  and  S11_11 
REMARK    3  A    between atoms: C6_6  and  C8_8 
REMARK    4  A    between atoms: C7_7  and  C9_9 
REMARK    5  A    between atoms: C9_9  and  S11_11 
ROOT
HETATM    1  C1  UNL     1     -34.237  14.974  -4.222  1.00 20.00     0.186 C 
HETATM    2  O10 UNL     1     -34.327  13.792  -3.920  1.00 20.00    -0.285 OA
ENDROOT
BRANCH   1   3
HETATM    3  C6  UNL     1     -34.997  16.092  -3.530  1.00 20.00     0.094 C 
BRANCH   3   4
HETATM    4  C8  UNL     1     -34.350  16.532  -2.206  1.00 20.00    -0.015 C 
HETATM    5  C3  UNL     1     -33.372  17.682  -2.458  1.00 20.00     0.010 C 
HETATM    6  C4  UNL     1     -35.406  16.966  -1.186  1.00 20.00     0.010 C 
ENDBRANCH   3   4
ENDBRANCH   1   3
BRANCH   1   7
HETATM    7  S11 UNL     1     -33.152  15.551  -5.493  1.00 20.00    -0.088 SA
BRANCH   7   8
HETATM    8  C9  UNL     1     -34.278  15.572  -6.904  1.00 20.00     0.051 C 
HETATM    9  C5  UNL     1     -34.014  16.832  -7.723  1.00 20.00     0.022 C 
BRANCH   8  10
HETATM   10  C7  UNL     1     -34.128  14.314  -7.773  1.00 20.00     0.011 C 
HETATM   11  C2  UNL     1     -35.044  13.167  -7.362  1.00 20.00     0.006 C 
ENDBRANCH   8  10
ENDBRANCH   7   8
ENDBRANCH   1   7
TORSDOF 5
ENDMDL
