MODEL 1
REMARK VINA RESULT:      -5.3      0.000      0.000
REMARK  2 active torsions:
REMARK  status: ('A' for Active; 'I' for Inactive)
REMARK    1  A    between atoms: C4_4  and  C8_8 
REMARK    2  A    between atoms: C8_8  and  N9_9 
ROOT
HETATM    1  C1  UNL     1     -34.346   4.293   4.445  1.00 20.00    -0.003 A 
HETATM    2  C2  UNL     1     -34.041   5.269   3.432  1.00 20.00     0.004 A 
HETATM    3  C3  UNL     1     -34.501   4.904   5.627  1.00 20.00    -0.022 A 
HETATM    4  C4  UNL     1     -34.006   6.492   3.986  1.00 20.00    -0.049 A 
HETATM    5  C5  UNL     1     -34.298   6.383   5.458  1.00 20.00     0.063 A 
ENDROOT
BRANCH   4   6
HETATM    6  C8  UNL     1     -33.731   7.791   3.326  1.00 20.00     0.306 C 
BRANCH   6   7
HETATM    7  N9  UNL     1     -32.413   7.728   2.752  1.00 20.00     0.083 N 
HETATM    8  C6  UNL     1     -31.389   8.160   3.715  1.00 20.00     0.309 C 
HETATM    9  C7  UNL     1     -32.321   8.548   1.535  1.00 20.00     0.309 C 
ENDBRANCH   6   7
ENDBRANCH   4   6
TORSDOF 2
ENDMDL
MODEL 2
REMARK VINA RESULT:      -5.1      0.700      1.820
REMARK  2 active torsions:
REMARK  status: ('A' for Active; 'I' for Inactive)
REMARK    1  A    between atoms: C4_4  and  C8_8 
REMARK    2  A    between atoms: C8_8  and  N9_9 
ROOT
HETATM    1  C1  UNL     1     -34.443   6.237   5.942  1.00 20.00    -0.003 A 
HETATM    2  C2  UNL     1     -33.818   7.078   4.956  1.00 20.00     0.004 A 
HETATM    3  C3  UNL     1     -34.704   5.035   5.408  1.00 20.00    -0.022 A 
HETATM    4  C4  UNL     1     -33.690   6.400   3.805  1.00 20.00    -0.049 A 
HETATM    5  C5  UNL     1     -34.248   5.013   3.977  1.00 20.00     0.063 A 
ENDROOT
BRANCH   4   6
HETATM    6  C8  UNL     1     -33.104   6.866   2.525  1.00 20.00     0.306 C 
BRANCH   6   7
HETATM    7  N9  UNL     1     -32.638   8.214   2.714  1.00 20.00     0.083 N 
HETATM    8  C6  UNL     1     -32.551   8.935   1.435  1.00 20.00     0.309 C 
HETATM    9  C7  UNL     1     -31.327   8.237   3.382  1.00 20.00     0.309 C 
ENDBRANCH   6   7
ENDBRANCH   4   6
TORSDOF 2
ENDMDL
MODEL 3
REMARK VINA RESULT:      -5.0      1.209      1.820
REMARK  2 active torsions:
REMARK  status: ('A' for Active; 'I' for Inactive)
REMARK    1  A    between atoms: C4_4  and  C8_8 
REMARK    2  A    between atoms: C8_8  and  N9_9 
ROOT
HETATM    1  C1  UNL     1     -34.409   5.649   3.734  1.00 20.00    -0.003 A 
HETATM    2  C2  UNL     1     -33.527   6.309   2.809  1.00 20.00     0.004 A 
HETATM    3  C3  UNL     1     -34.345   6.256   4.927  1.00 20.00    -0.022 A 
HETATM    4  C4  UNL     1     -32.911   7.329   3.427  1.00 20.00    -0.049 A 
HETATM    5  C5  UNL     1     -33.375   7.400   4.857  1.00 20.00     0.063 A 
ENDROOT
BRANCH   4   6
HETATM    6  C8  UNL     1     -31.922   8.280   2.866  1.00 20.00     0.306 C 
BRANCH   6   7
HETATM    7  N9  UNL     1     -32.393   8.701   1.573  1.00 20.00     0.083 N 
HETATM    8  C6  UNL     1     -31.347   8.558   0.549  1.00 20.00     0.309 C 
HETATM    9  C7  UNL     1     -32.866  10.094   1.604  1.00 20.00     0.309 C 
ENDBRANCH   6   7
ENDBRANCH   4   6
TORSDOF 2
ENDMDL
MODEL 4
REMARK VINA RESULT:      -5.0      1.192      2.212
REMARK  2 active torsions:
REMARK  status: ('A' for Active; 'I' for Inactive)
REMARK    1  A    between atoms: C4_4  and  C8_8 
REMARK    2  A    between atoms: C8_8  and  N9_9 
ROOT
HETATM    1  C1  UNL     1     -34.340   6.300   4.891  1.00 20.00    -0.003 A 
HETATM    2  C2  UNL     1     -33.388   7.368   4.739  1.00 20.00     0.004 A 
HETATM    3  C3  UNL     1     -34.450   5.626   3.738  1.00 20.00    -0.022 A 
HETATM    4  C4  UNL     1     -32.904   7.360   3.487  1.00 20.00    -0.049 A 
HETATM    5  C5  UNL     1     -33.539   6.237   2.712  1.00 20.00     0.063 A 
ENDROOT
BRANCH   4   6
HETATM    6  C8  UNL     1     -31.903   8.273   2.884  1.00 20.00     0.306 C 
BRANCH   6   7
HETATM    7  N9  UNL     1     -32.400   8.691   1.599  1.00 20.00     0.083 N 
HETATM    8  C6  UNL     1     -31.374   8.544   0.556  1.00 20.00     0.309 C 
HETATM    9  C7  UNL     1     -32.869  10.084   1.636  1.00 20.00     0.309 C 
ENDBRANCH   6   7
ENDBRANCH   4   6
TORSDOF 2
ENDMDL
MODEL 5
REMARK VINA RESULT:      -4.3      1.481      4.707
REMARK  2 active torsions:
REMARK  status: ('A' for Active; 'I' for Inactive)
REMARK    1  A    between atoms: C4_4  and  C8_8 
REMARK    2  A    between atoms: C8_8  and  N9_9 
ROOT
HETATM    1  C1  UNL     1     -32.867  10.269   0.798  1.00 20.00    -0.003 A 
HETATM    2  C2  UNL     1     -33.078   9.662   2.085  1.00 20.00     0.004 A 
HETATM    3  C3  UNL     1     -31.975   9.550   0.102  1.00 20.00    -0.022 A 
HETATM    4  C4  UNL     1     -32.317   8.562   2.192  1.00 20.00    -0.049 A 
HETATM    5  C5  UNL     1     -31.526   8.376   0.925  1.00 20.00     0.063 A 
ENDROOT
BRANCH   4   6
HETATM    6  C8  UNL     1     -32.212   7.626   3.337  1.00 20.00     0.306 C 
BRANCH   6   7
HETATM    7  N9  UNL     1     -33.545   7.251   3.729  1.00 20.00     0.083 N 
HETATM    8  C6  UNL     1     -33.680   7.209   5.193  1.00 20.00     0.309 C 
HETATM    9  C7  UNL     1     -33.922   5.947   3.162  1.00 20.00     0.309 C 
ENDBRANCH   6   7
ENDBRANCH   4   6
TORSDOF 2
ENDMDL
MODEL 6
REMARK VINA RESULT:      -4.0      1.371      4.222
REMARK  2 active torsions:
REMARK  status: ('A' for Active; 'I' for Inactive)
REMARK    1  A    between atoms: C4_4  and  C8_8 
REMARK    2  A    between atoms: C8_8  and  N9_9 
ROOT
HETATM    1  C1  UNL     1     -31.446   8.486   3.273  1.00 20.00    -0.003 A 
HETATM    2  C2  UNL     1     -32.378   7.729   4.066  1.00 20.00     0.004 A 
HETATM    3  C3  UNL     1     -31.798   8.422   1.981  1.00 20.00    -0.022 A 
HETATM    4  C4  UNL     1     -33.313   7.192   3.267  1.00 20.00    -0.049 A 
HETATM    5  C5  UNL     1     -33.035   7.582   1.840  1.00 20.00     0.063 A 
ENDROOT
BRANCH   4   6
HETATM    6  C8  UNL     1     -34.466   6.340   3.646  1.00 20.00     0.306 C 
BRANCH   6   7
HETATM    7  N9  UNL     1     -34.024   5.419   4.660  1.00 20.00     0.083 N 
HETATM    8  C6  UNL     1     -34.244   4.024   4.248  1.00 20.00     0.309 C 
HETATM    9  C7  UNL     1     -34.702   5.668   5.941  1.00 20.00     0.309 C 
ENDBRANCH   6   7
ENDBRANCH   4   6
TORSDOF 2
ENDMDL
MODEL 7
REMARK VINA RESULT:      -3.9     11.639     12.282
REMARK  2 active torsions:
REMARK  status: ('A' for Active; 'I' for Inactive)
REMARK    1  A    between atoms: C4_4  and  C8_8 
REMARK    2  A    between atoms: C8_8  and  N9_9 
ROOT
HETATM    1  C1  UNL     1     -33.451  18.155  -0.581  1.00 20.00    -0.003 A 
HETATM    2  C2  UNL     1     -33.264  17.478  -1.837  1.00 20.00     0.004 A 
HETATM    3  C3  UNL     1     -34.682  17.904  -0.114  1.00 20.00    -0.022 A 
HETATM    4  C4  UNL     1     -34.380  16.804  -2.153  1.00 20.00    -0.049 A 
HETATM    5  C5  UNL     1     -35.410  17.009  -1.075  1.00 20.00     0.063 A 
ENDROOT
BRANCH   4   6
HETATM    6  C8  UNL     1     -34.640  15.968  -3.350  1.00 20.00     0.306 C 
BRANCH   6   7
HETATM    7  N9  UNL     1     -33.431  15.918  -4.129  1.00 20.00     0.083 N 
HETATM    8  C6  UNL     1     -33.585  16.639  -5.402  1.00 20.00     0.309 C 
HETATM    9  C7  UNL     1     -33.023  14.531  -4.394  1.00 20.00     0.309 C 
ENDBRANCH   6   7
ENDBRANCH   4   6
TORSDOF 2
ENDMDL
MODEL 8
REMARK VINA RESULT:      -3.9     11.395     12.246
REMARK  2 active torsions:
REMARK  status: ('A' for Active; 'I' for Inactive)
REMARK    1  A    between atoms: C4_4  and  C8_8 
REMARK    2  A    between atoms: C8_8  and  N9_9 
ROOT
HETATM    1  C1  UNL     1     -35.134  17.557  -0.397  1.00 20.00    -0.003 A 
HETATM    2  C2  UNL     1     -35.218  16.761  -1.593  1.00 20.00     0.004 A 
HETATM    3  C3  UNL     1     -33.922  18.123  -0.317  1.00 20.00    -0.022 A 
HETATM    4  C4  UNL     1     -34.055  16.831  -2.260  1.00 20.00    -0.049 A 
HETATM    5  C5  UNL     1     -33.099  17.716  -1.506  1.00 20.00     0.063 A 
ENDROOT
BRANCH   4   6
HETATM    6  C8  UNL     1     -33.688  16.174  -3.538  1.00 20.00     0.306 C 
BRANCH   6   7
HETATM    7  N9  UNL     1     -34.874  15.565  -4.081  1.00 20.00     0.083 N 
HETATM    8  C6  UNL     1     -34.691  14.118  -4.273  1.00 20.00     0.309 C 
HETATM    9  C7  UNL     1     -35.258  16.187  -5.357  1.00 20.00     0.309 C 
ENDBRANCH   6   7
ENDBRANCH   4   6
TORSDOF 2
ENDMDL
MODEL 9
REMARK VINA RESULT:      -3.7     11.990     12.572
REMARK  2 active torsions:
REMARK  status: ('A' for Active; 'I' for Inactive)
REMARK    1  A    between atoms: C4_4  and  C8_8 
REMARK    2  A    between atoms: C8_8  and  N9_9 
ROOT
HETATM    1  C1  UNL     1     -34.286  17.505  -1.117  1.00 20.00    -0.003 A 
HETATM    2  C2  UNL     1     -33.339  17.153  -2.143  1.00 20.00     0.004 A 
HETATM    3  C3  UNL     1     -35.474  16.948  -1.392  1.00 20.00    -0.022 A 
HETATM    4  C4  UNL     1     -33.939  16.376  -3.058  1.00 20.00    -0.049 A 
HETATM    5  C5  UNL     1     -35.377  16.164  -2.669  1.00 20.00     0.063 A 
ENDROOT
BRANCH   4   6
HETATM    6  C8  UNL     1     -33.353  15.781  -4.283  1.00 20.00     0.306 C 
BRANCH   6   7
HETATM    7  N9  UNL     1     -34.322  15.895  -5.341  1.00 20.00     0.083 N 
HETATM    8  C6  UNL     1     -34.495  14.617  -6.047  1.00 20.00     0.309 C 
HETATM    9  C7  UNL     1     -33.944  16.942  -6.302  1.00 20.00     0.309 C 
ENDBRANCH   6   7
ENDBRANCH   4   6
TORSDOF 2
ENDMDL
