MODEL 1
REMARK VINA RESULT:      -4.7      0.000      0.000
REMARK  0 active torsions:
REMARK  status: ('A' for Active; 'I' for Inactive)
ROOT
HETATM    1  C1  UNL     1     -34.187   4.695   4.168  1.00 20.00     0.219 C 
HETATM    2  C2  UNL     1     -35.037   5.606   5.038  1.00 20.00     0.103 C 
HETATM    3  C3  UNL     1     -34.212   6.482   5.973  1.00 20.00     0.009 C 
HETATM    4  C4  UNL     1     -33.627   7.754   5.352  1.00 20.00     0.001 C 
HETATM    5  C5  UNL     1     -32.438   7.512   4.420  1.00 20.00     0.002 C 
HETATM    6  C6  UNL     1     -32.782   7.524   2.930  1.00 20.00     0.020 C 
HETATM    7  C7  UNL     1     -33.909   6.585   2.509  1.00 20.00     0.125 C 
HETATM    8  C8  UNL     1     -32.847   4.379   2.124  1.00 20.00     0.152 C 
HETATM    9  N9  UNL     1     -33.701   5.210   2.966  1.00 20.00    -0.356 N 
HETATM   10  O10 UNL     1     -33.951   3.549   4.566  1.00 20.00    -0.273 OA
ENDROOT
TORSDOF 0
ENDMDL
MODEL 2
REMARK VINA RESULT:      -4.5     12.300     13.260
REMARK  0 active torsions:
REMARK  status: ('A' for Active; 'I' for Inactive)
ROOT
HETATM    1  C1  UNL     1     -35.778  13.917  -5.417  1.00 20.00     0.219 C 
HETATM    2  C2  UNL     1     -35.905  14.925  -4.287  1.00 20.00     0.103 C 
HETATM    3  C3  UNL     1     -34.573  15.250  -3.622  1.00 20.00     0.009 C 
HETATM    4  C4  UNL     1     -33.703  16.286  -4.341  1.00 20.00     0.001 C 
HETATM    5  C5  UNL     1     -33.021  15.766  -5.608  1.00 20.00     0.002 C 
HETATM    6  C6  UNL     1     -33.716  16.157  -6.914  1.00 20.00     0.020 C 
HETATM    7  C7  UNL     1     -35.198  15.804  -6.999  1.00 20.00     0.125 C 
HETATM    8  C8  UNL     1     -35.295  13.457  -7.788  1.00 20.00     0.152 C 
HETATM    9  N9  UNL     1     -35.465  14.399  -6.688  1.00 20.00    -0.356 N 
HETATM   10  O10 UNL     1     -35.942  12.719  -5.161  1.00 20.00    -0.273 OA
ENDROOT
TORSDOF 0
ENDMDL
MODEL 3
REMARK VINA RESULT:      -4.4     12.169     13.376
REMARK  0 active torsions:
REMARK  status: ('A' for Active; 'I' for Inactive)
ROOT
HETATM    1  C1  UNL     1     -35.672  13.888  -5.112  1.00 20.00     0.219 C 
HETATM    2  C2  UNL     1     -34.711  14.300  -4.010  1.00 20.00     0.103 C 
HETATM    3  C3  UNL     1     -33.272  14.441  -4.491  1.00 20.00     0.009 C 
HETATM    4  C4  UNL     1     -32.924  15.764  -5.179  1.00 20.00     0.001 C 
HETATM    5  C5  UNL     1     -33.484  15.904  -6.596  1.00 20.00     0.002 C 
HETATM    6  C6  UNL     1     -34.758  16.743  -6.700  1.00 20.00     0.020 C 
HETATM    7  C7  UNL     1     -35.901  16.316  -5.783  1.00 20.00     0.125 C 
HETATM    8  C8  UNL     1     -37.119  14.533  -6.999  1.00 20.00     0.152 C 
HETATM    9  N9  UNL     1     -36.224  14.894  -5.905  1.00 20.00    -0.356 N 
HETATM   10  O10 UNL     1     -35.911  12.685  -5.268  1.00 20.00    -0.273 OA
ENDROOT
TORSDOF 0
ENDMDL
MODEL 4
REMARK VINA RESULT:      -4.3      1.889      3.847
REMARK  0 active torsions:
REMARK  status: ('A' for Active; 'I' for Inactive)
ROOT
HETATM    1  C1  UNL     1     -33.021   7.111   3.709  1.00 20.00     0.219 C 
HETATM    2  C2  UNL     1     -33.431   6.349   2.459  1.00 20.00     0.103 C 
HETATM    3  C3  UNL     1     -32.934   4.908   2.446  1.00 20.00     0.009 C 
HETATM    4  C4  UNL     1     -33.779   3.905   3.239  1.00 20.00     0.001 C 
HETATM    5  C5  UNL     1     -33.629   4.014   4.757  1.00 20.00     0.002 C 
HETATM    6  C6  UNL     1     -34.755   4.777   5.456  1.00 20.00     0.020 C 
HETATM    7  C7  UNL     1     -35.040   6.173   4.910  1.00 20.00     0.125 C 
HETATM    8  C8  UNL     1     -33.458   7.691   6.063  1.00 20.00     0.152 C 
HETATM    9  N9  UNL     1     -33.840   7.007   4.833  1.00 20.00    -0.356 N 
HETATM   10  O10 UNL     1     -31.978   7.774   3.681  1.00 20.00    -0.273 OA
ENDROOT
TORSDOF 0
ENDMDL
MODEL 5
REMARK VINA RESULT:      -4.3      1.420      2.257
REMARK  0 active torsions:
REMARK  status: ('A' for Active; 'I' for Inactive)
ROOT
HETATM    1  C1  UNL     1     -33.420   5.466   2.977  1.00 20.00     0.219 C 
HETATM    2  C2  UNL     1     -34.703   4.914   3.575  1.00 20.00     0.103 C 
HETATM    3  C3  UNL     1     -34.567   4.543   5.047  1.00 20.00     0.009 C 
HETATM    4  C4  UNL     1     -34.696   5.700   6.042  1.00 20.00     0.001 C 
HETATM    5  C5  UNL     1     -33.479   6.626   6.093  1.00 20.00     0.002 C 
HETATM    6  C6  UNL     1     -33.632   7.927   5.303  1.00 20.00     0.020 C 
HETATM    7  C7  UNL     1     -34.037   7.762   3.841  1.00 20.00     0.125 C 
HETATM    8  C8  UNL     1     -31.931   7.390   2.589  1.00 20.00     0.152 C 
HETATM    9  N9  UNL     1     -33.172   6.832   3.114  1.00 20.00    -0.356 N 
HETATM   10  O10 UNL     1     -32.647   4.684   2.411  1.00 20.00    -0.273 OA
ENDROOT
TORSDOF 0
ENDMDL
MODEL 6
REMARK VINA RESULT:      -4.0     12.481     12.964
REMARK  0 active torsions:
REMARK  status: ('A' for Active; 'I' for Inactive)
ROOT
HETATM    1  C1  UNL     1     -36.435  14.591  -5.124  1.00 20.00     0.219 C 
HETATM    2  C2  UNL     1     -36.555  15.844  -4.272  1.00 20.00     0.103 C 
HETATM    3  C3  UNL     1     -35.603  15.852  -3.082  1.00 20.00     0.009 C 
HETATM    4  C4  UNL     1     -34.166  16.289  -3.380  1.00 20.00     0.001 C 
HETATM    5  C5  UNL     1     -33.331  15.246  -4.126  1.00 20.00     0.002 C 
HETATM    6  C6  UNL     1     -33.203  15.488  -5.631  1.00 20.00     0.020 C 
HETATM    7  C7  UNL     1     -34.519  15.663  -6.382  1.00 20.00     0.125 C 
HETATM    8  C8  UNL     1     -35.293  13.375  -6.938  1.00 20.00     0.152 C 
HETATM    9  N9  UNL     1     -35.466  14.575  -6.127  1.00 20.00    -0.356 N 
HETATM   10  O10 UNL     1     -37.186  13.639  -4.884  1.00 20.00    -0.273 OA
ENDROOT
TORSDOF 0
ENDMDL
MODEL 7
REMARK VINA RESULT:      -4.0     12.343     13.250
REMARK  0 active torsions:
REMARK  status: ('A' for Active; 'I' for Inactive)
ROOT
HETATM    1  C1  UNL     1     -36.107  14.545  -4.563  1.00 20.00     0.219 C 
HETATM    2  C2  UNL     1     -35.912  13.389  -5.530  1.00 20.00     0.103 C 
HETATM    3  C3  UNL     1     -35.661  13.844  -6.963  1.00 20.00     0.009 C 
HETATM    4  C4  UNL     1     -34.223  14.256  -7.290  1.00 20.00     0.001 C 
HETATM    5  C5  UNL     1     -33.809  15.612  -6.716  1.00 20.00     0.002 C 
HETATM    6  C6  UNL     1     -32.982  15.537  -5.432  1.00 20.00     0.020 C 
HETATM    7  C7  UNL     1     -33.596  14.715  -4.303  1.00 20.00     0.125 C 
HETATM    8  C8  UNL     1     -35.115  16.254  -3.092  1.00 20.00     0.152 C 
HETATM    9  N9  UNL     1     -34.970  15.117  -3.993  1.00 20.00    -0.356 N 
HETATM   10  O10 UNL     1     -37.257  14.937  -4.335  1.00 20.00    -0.273 OA
ENDROOT
TORSDOF 0
ENDMDL
MODEL 8
REMARK VINA RESULT:      -3.9     12.682     13.951
REMARK  0 active torsions:
REMARK  status: ('A' for Active; 'I' for Inactive)
ROOT
HETATM    1  C1  UNL     1     -33.493  15.825  -5.621  1.00 20.00     0.219 C 
HETATM    2  C2  UNL     1     -33.443  14.568  -4.769  1.00 20.00     0.103 C 
HETATM    3  C3  UNL     1     -34.799  14.184  -4.188  1.00 20.00     0.009 C 
HETATM    4  C4  UNL     1     -35.733  13.414  -5.127  1.00 20.00     0.001 C 
HETATM    5  C5  UNL     1     -36.369  14.269  -6.224  1.00 20.00     0.002 C 
HETATM    6  C6  UNL     1     -35.694  14.158  -7.592  1.00 20.00     0.020 C 
HETATM    7  C7  UNL     1     -34.191  14.419  -7.605  1.00 20.00     0.125 C 
HETATM    8  C8  UNL     1     -33.928  16.875  -7.807  1.00 20.00     0.152 C 
HETATM    9  N9  UNL     1     -33.830  15.686  -6.967  1.00 20.00    -0.356 N 
HETATM   10  O10 UNL     1     -33.250  16.912  -5.085  1.00 20.00    -0.273 OA
ENDROOT
TORSDOF 0
ENDMDL
MODEL 9
REMARK VINA RESULT:      -3.8     12.715     14.004
REMARK  0 active torsions:
REMARK  status: ('A' for Active; 'I' for Inactive)
ROOT
HETATM    1  C1  UNL     1     -35.338  13.563  -6.039  1.00 20.00     0.219 C 
HETATM    2  C2  UNL     1     -35.756  13.644  -7.498  1.00 20.00     0.103 C 
HETATM    3  C3  UNL     1     -36.804  14.720  -7.761  1.00 20.00     0.009 C 
HETATM    4  C4  UNL     1     -36.269  16.147  -7.918  1.00 20.00     0.001 C 
HETATM    5  C5  UNL     1     -35.827  16.802  -6.608  1.00 20.00     0.002 C 
HETATM    6  C6  UNL     1     -34.318  16.782  -6.361  1.00 20.00     0.020 C 
HETATM    7  C7  UNL     1     -33.657  15.410  -6.447  1.00 20.00     0.125 C 
HETATM    8  C8  UNL     1     -33.917  14.389  -4.204  1.00 20.00     0.152 C 
HETATM    9  N9  UNL     1     -34.317  14.409  -5.606  1.00 20.00    -0.356 N 
HETATM   10  O10 UNL     1     -35.925  12.765  -5.300  1.00 20.00    -0.273 OA
ENDROOT
TORSDOF 0
ENDMDL
