MODEL 1
REMARK VINA RESULT:      -6.1      0.000      0.000
REMARK  2 active torsions:
REMARK  status: ('A' for Active; 'I' for Inactive)
REMARK    1  A    between atoms: C2_2  and  C3_3 
REMARK    2  A    between atoms: C3_3  and  O10_10 
ROOT
HETATM    1  C1  UNL     1     -33.472   6.336   3.661  1.00 20.00    -0.074 C 
HETATM    2  C2  UNL     1     -32.745   6.774   2.628  1.00 20.00     0.085 C 
HETATM    3  C4  UNL     1     -34.127   4.986   3.732  1.00 20.00     0.034 C 
HETATM    4  C5  UNL     1     -33.745   7.127   4.908  1.00 20.00     0.034 C 
HETATM    5  C6  UNL     1     -35.057   5.118   4.933  1.00 20.00     0.005 C 
HETATM    6  C7  UNL     1     -34.326   6.084   5.856  1.00 20.00     0.005 C 
ENDROOT
BRANCH   2   7
HETATM    7  C3  UNL     1     -32.147   8.124   2.665  1.00 20.00     0.282 C 
HETATM    8  O9  UNL     1     -31.217   8.466   3.378  1.00 20.00    -0.260 OA
BRANCH   7   9
HETATM    9  O10 UNL     1     -32.817   8.896   1.767  1.00 20.00    -0.323 OA
HETATM   10  C8  UNL     1     -32.031   9.398   0.682  1.00 20.00     0.213 C 
ENDBRANCH   7   9
ENDBRANCH   2   7
TORSDOF 2
ENDMDL
MODEL 2
REMARK VINA RESULT:      -5.5      1.034      1.571
REMARK  2 active torsions:
REMARK  status: ('A' for Active; 'I' for Inactive)
REMARK    1  A    between atoms: C2_2  and  C3_3 
REMARK    2  A    between atoms: C3_3  and  O10_10 
ROOT
HETATM    1  C1  UNL     1     -33.401   7.235   4.184  1.00 20.00    -0.074 C 
HETATM    2  C2  UNL     1     -32.553   8.195   3.801  1.00 20.00     0.085 C 
HETATM    3  C4  UNL     1     -33.796   6.964   5.607  1.00 20.00     0.034 C 
HETATM    4  C5  UNL     1     -34.088   6.280   3.249  1.00 20.00     0.034 C 
HETATM    5  C6  UNL     1     -34.503   5.616   5.517  1.00 20.00     0.005 C 
HETATM    6  C7  UNL     1     -35.144   5.632   4.137  1.00 20.00     0.005 C 
ENDROOT
BRANCH   2   7
HETATM    7  C3  UNL     1     -32.235   8.371   2.369  1.00 20.00     0.282 C 
HETATM    8  O9  UNL     1     -31.371   7.764   1.756  1.00 20.00    -0.260 OA
BRANCH   7   9
HETATM    9  O10 UNL     1     -33.077   9.318   1.874  1.00 20.00    -0.323 OA
HETATM   10  C8  UNL     1     -32.568  10.080   0.775  1.00 20.00     0.213 C 
ENDBRANCH   7   9
ENDBRANCH   2   7
TORSDOF 2
ENDMDL
MODEL 3
REMARK VINA RESULT:      -4.7      0.848      1.567
REMARK  2 active torsions:
REMARK  status: ('A' for Active; 'I' for Inactive)
REMARK    1  A    between atoms: C2_2  and  C3_3 
REMARK    2  A    between atoms: C3_3  and  O10_10 
ROOT
HETATM    1  C1  UNL     1     -33.602   6.026   3.609  1.00 20.00    -0.074 C 
HETATM    2  C2  UNL     1     -32.942   6.429   2.518  1.00 20.00     0.085 C 
HETATM    3  C4  UNL     1     -34.061   4.618   3.857  1.00 20.00     0.034 C 
HETATM    4  C5  UNL     1     -33.984   6.921   4.754  1.00 20.00     0.034 C 
HETATM    5  C6  UNL     1     -35.001   4.768   5.047  1.00 20.00     0.005 C 
HETATM    6  C7  UNL     1     -34.414   5.933   5.832  1.00 20.00     0.005 C 
ENDROOT
BRANCH   2   7
HETATM    7  C3  UNL     1     -32.538   7.843   2.379  1.00 20.00     0.282 C 
HETATM    8  O9  UNL     1     -33.191   8.714   1.827  1.00 20.00    -0.260 OA
BRANCH   7   9
HETATM    9  O10 UNL     1     -31.324   7.985   2.977  1.00 20.00    -0.323 OA
HETATM   10  C8  UNL     1     -31.296   8.852   4.114  1.00 20.00     0.213 C 
ENDBRANCH   7   9
ENDBRANCH   2   7
TORSDOF 2
ENDMDL
MODEL 4
REMARK VINA RESULT:      -4.6      2.328      4.307
REMARK  2 active torsions:
REMARK  status: ('A' for Active; 'I' for Inactive)
REMARK    1  A    between atoms: C2_2  and  C3_3 
REMARK    2  A    between atoms: C3_3  and  O10_10 
ROOT
HETATM    1  C1  UNL     1     -33.292   7.291   3.367  1.00 20.00    -0.074 C 
HETATM    2  C2  UNL     1     -34.264   6.577   3.945  1.00 20.00     0.085 C 
HETATM    3  C4  UNL     1     -33.213   7.591   1.898  1.00 20.00     0.034 C 
HETATM    4  C5  UNL     1     -32.130   7.900   4.099  1.00 20.00     0.034 C 
HETATM    5  C6  UNL     1     -31.800   8.139   1.735  1.00 20.00     0.005 C 
HETATM    6  C7  UNL     1     -31.523   8.835   3.060  1.00 20.00     0.005 C 
ENDROOT
BRANCH   2   7
HETATM    7  C3  UNL     1     -34.241   6.343   5.403  1.00 20.00     0.282 C 
HETATM    8  O9  UNL     1     -34.062   7.199   6.255  1.00 20.00    -0.260 OA
BRANCH   7   9
HETATM    9  O10 UNL     1     -34.457   5.015   5.610  1.00 20.00    -0.323 OA
HETATM   10  C8  UNL     1     -34.360   4.188   4.447  1.00 20.00     0.213 C 
ENDBRANCH   7   9
ENDBRANCH   2   7
TORSDOF 2
ENDMDL
MODEL 5
REMARK VINA RESULT:      -4.5      1.962      4.725
REMARK  2 active torsions:
REMARK  status: ('A' for Active; 'I' for Inactive)
REMARK    1  A    between atoms: C2_2  and  C3_3 
REMARK    2  A    between atoms: C3_3  and  O10_10 
ROOT
HETATM    1  C1  UNL     1     -32.615   8.310   2.103  1.00 20.00    -0.074 C 
HETATM    2  C2  UNL     1     -32.574   7.423   3.103  1.00 20.00     0.085 C 
HETATM    3  C4  UNL     1     -31.934   9.648   2.121  1.00 20.00     0.034 C 
HETATM    4  C5  UNL     1     -33.348   8.102   0.809  1.00 20.00     0.034 C 
HETATM    5  C6  UNL     1     -32.542  10.359   0.917  1.00 20.00     0.005 C 
HETATM    6  C7  UNL     1     -32.823   9.233  -0.068  1.00 20.00     0.005 C 
ENDROOT
BRANCH   2   7
HETATM    7  C3  UNL     1     -33.284   6.134   2.977  1.00 20.00     0.282 C 
HETATM    8  O9  UNL     1     -32.813   5.109   2.510  1.00 20.00    -0.260 OA
BRANCH   7   9
HETATM    9  O10 UNL     1     -34.539   6.305   3.476  1.00 20.00    -0.323 OA
HETATM   10  C8  UNL     1     -34.883   5.460   4.578  1.00 20.00     0.213 C 
ENDBRANCH   7   9
ENDBRANCH   2   7
TORSDOF 2
ENDMDL
MODEL 6
REMARK VINA RESULT:      -4.4     11.082     11.653
REMARK  2 active torsions:
REMARK  status: ('A' for Active; 'I' for Inactive)
REMARK    1  A    between atoms: C2_2  and  C3_3 
REMARK    2  A    between atoms: C3_3  and  O10_10 
ROOT
HETATM    1  C1  UNL     1     -34.025  16.435  -2.726  1.00 20.00    -0.074 C 
HETATM    2  C2  UNL     1     -33.462  15.750  -3.728  1.00 20.00     0.085 C 
HETATM    3  C4  UNL     1     -33.305  17.431  -1.864  1.00 20.00     0.034 C 
HETATM    4  C5  UNL     1     -35.464  16.313  -2.312  1.00 20.00     0.034 C 
HETATM    5  C6  UNL     1     -34.286  17.671  -0.722  1.00 20.00     0.005 C 
HETATM    6  C7  UNL     1     -35.651  17.499  -1.373  1.00 20.00     0.005 C 
ENDROOT
BRANCH   2   7
HETATM    7  C3  UNL     1     -34.268  14.793  -4.512  1.00 20.00     0.282 C 
HETATM    8  O9  UNL     1     -34.536  13.651  -4.174  1.00 20.00    -0.260 OA
BRANCH   7   9
HETATM    9  O10 UNL     1     -34.649  15.418  -5.659  1.00 20.00    -0.323 OA
HETATM   10  C8  UNL     1     -33.584  15.942  -6.456  1.00 20.00     0.213 C 
ENDBRANCH   7   9
ENDBRANCH   2   7
TORSDOF 2
ENDMDL
MODEL 7
REMARK VINA RESULT:      -4.4     11.188     11.753
REMARK  2 active torsions:
REMARK  status: ('A' for Active; 'I' for Inactive)
REMARK    1  A    between atoms: C2_2  and  C3_3 
REMARK    2  A    between atoms: C3_3  and  O10_10 
ROOT
HETATM    1  C1  UNL     1     -34.776  15.394  -3.771  1.00 20.00    -0.074 C 
HETATM    2  C2  UNL     1     -34.330  14.476  -4.635  1.00 20.00     0.085 C 
HETATM    3  C4  UNL     1     -33.901  16.196  -2.852  1.00 20.00     0.034 C 
HETATM    4  C5  UNL     1     -36.221  15.762  -3.588  1.00 20.00     0.034 C 
HETATM    5  C6  UNL     1     -34.902  16.835  -1.896  1.00 20.00     0.005 C 
HETATM    6  C7  UNL     1     -36.146  17.033  -2.749  1.00 20.00     0.005 C 
ENDROOT
BRANCH   2   7
HETATM    7  C3  UNL     1     -35.284  13.743  -5.493  1.00 20.00     0.282 C 
HETATM    8  O9  UNL     1     -35.926  12.761  -5.158  1.00 20.00    -0.260 OA
BRANCH   7   9
HETATM    9  O10 UNL     1     -35.312  14.366  -6.702  1.00 20.00    -0.323 OA
HETATM   10  C8  UNL     1     -34.367  13.886  -7.663  1.00 20.00     0.213 C 
ENDBRANCH   7   9
ENDBRANCH   2   7
TORSDOF 2
ENDMDL
MODEL 8
REMARK VINA RESULT:      -4.4      2.381      4.325
REMARK  2 active torsions:
REMARK  status: ('A' for Active; 'I' for Inactive)
REMARK    1  A    between atoms: C2_2  and  C3_3 
REMARK    2  A    between atoms: C3_3  and  O10_10 
ROOT
HETATM    1  C1  UNL     1     -33.200   7.100   2.555  1.00 20.00    -0.074 C 
HETATM    2  C2  UNL     1     -34.169   6.177   2.570  1.00 20.00     0.085 C 
HETATM    3  C4  UNL     1     -32.994   8.102   1.456  1.00 20.00     0.034 C 
HETATM    4  C5  UNL     1     -32.171   7.273   3.635  1.00 20.00     0.034 C 
HETATM    5  C6  UNL     1     -31.619   8.679   1.770  1.00 20.00     0.005 C 
HETATM    6  C7  UNL     1     -31.535   8.615   3.289  1.00 20.00     0.005 C 
ENDROOT
BRANCH   2   7
HETATM    7  C3  UNL     1     -34.277   5.239   3.705  1.00 20.00     0.282 C 
HETATM    8  O9  UNL     1     -33.718   4.156   3.784  1.00 20.00    -0.260 OA
BRANCH   7   9
HETATM    9  O10 UNL     1     -35.099   5.804   4.630  1.00 20.00    -0.323 OA
HETATM   10  C8  UNL     1     -34.525   6.000   5.926  1.00 20.00     0.213 C 
ENDBRANCH   7   9
ENDBRANCH   2   7
TORSDOF 2
ENDMDL
MODEL 9
REMARK VINA RESULT:      -4.3     11.054     11.597
REMARK  2 active torsions:
REMARK  status: ('A' for Active; 'I' for Inactive)
REMARK    1  A    between atoms: C2_2  and  C3_3 
REMARK    2  A    between atoms: C3_3  and  O10_10 
ROOT
HETATM    1  C1  UNL     1     -34.608  16.127  -3.003  1.00 20.00    -0.074 C 
HETATM    2  C2  UNL     1     -34.534  15.202  -3.967  1.00 20.00     0.085 C 
HETATM    3  C4  UNL     1     -35.887  16.623  -2.394  1.00 20.00     0.034 C 
HETATM    4  C5  UNL     1     -33.422  16.811  -2.385  1.00 20.00     0.034 C 
HETATM    5  C6  UNL     1     -35.440  17.850  -1.607  1.00 20.00     0.005 C 
HETATM    6  C7  UNL     1     -34.024  17.505  -1.169  1.00 20.00     0.005 C 
ENDROOT
BRANCH   2   7
HETATM    7  C3  UNL     1     -33.218  14.789  -4.495  1.00 20.00     0.282 C 
HETATM    8  O9  UNL     1     -32.595  13.799  -4.146  1.00 20.00    -0.260 OA
BRANCH   7   9
HETATM    9  O10 UNL     1     -32.843  15.705  -5.429  1.00 20.00    -0.323 OA
HETATM   10  C8  UNL     1     -33.615  15.706  -6.633  1.00 20.00     0.213 C 
ENDBRANCH   7   9
ENDBRANCH   2   7
TORSDOF 2
ENDMDL
