MODEL 1
REMARK VINA RESULT:      -4.6      0.000      0.000
REMARK  1 active torsions:
REMARK  status: ('A' for Active; 'I' for Inactive)
REMARK    1  A    between atoms: C3_3  and  C6_6 
ROOT
HETATM    1  C1  UNL     1     -32.884   5.368   2.901  1.00 20.00     0.202 C 
HETATM    2  C2  UNL     1     -33.440   6.721   2.527  1.00 20.00     0.144 C 
HETATM    3  C3  UNL     1     -34.698   5.833   4.177  1.00 20.00     0.260 C 
HETATM    4  C4  UNL     1     -32.380   7.762   2.235  1.00 20.00     0.042 C 
HETATM    5  O7  UNL     1     -33.970   4.745   3.587  1.00 20.00    -0.359 OA
HETATM    6  O8  UNL     1     -34.197   7.081   3.683  1.00 20.00    -0.354 OA
ENDROOT
BRANCH   3   7
HETATM    7  C6  UNL     1     -34.551   5.793   5.686  1.00 20.00     0.056 C 
HETATM    8  C5  UNL     1     -33.911   7.036   6.223  1.00 20.00     0.010 C 
ENDBRANCH   3   7
TORSDOF 1
ENDMDL
MODEL 2
REMARK VINA RESULT:      -4.6      1.241      3.414
REMARK  1 active torsions:
REMARK  status: ('A' for Active; 'I' for Inactive)
REMARK    1  A    between atoms: C3_3  and  C6_6 
ROOT
HETATM    1  C1  UNL     1     -34.061   6.327   5.575  1.00 20.00     0.202 C 
HETATM    2  C2  UNL     1     -34.557   5.528   4.393  1.00 20.00     0.144 C 
HETATM    3  C3  UNL     1     -33.553   7.408   3.649  1.00 20.00     0.260 C 
HETATM    4  C4  UNL     1     -34.374   4.033   4.541  1.00 20.00     0.042 C 
HETATM    5  O7  UNL     1     -33.870   7.633   5.031  1.00 20.00    -0.359 OA
HETATM    6  O8  UNL     1     -33.760   6.030   3.318  1.00 20.00    -0.354 OA
ENDROOT
BRANCH   3   7
HETATM    7  C6  UNL     1     -32.106   7.777   3.386  1.00 20.00     0.056 C 
HETATM    8  C5  UNL     1     -31.925   8.425   2.048  1.00 20.00     0.010 C 
ENDBRANCH   3   7
TORSDOF 1
ENDMDL
MODEL 3
REMARK VINA RESULT:      -4.2      1.802      2.644
REMARK  1 active torsions:
REMARK  status: ('A' for Active; 'I' for Inactive)
REMARK    1  A    between atoms: C3_3  and  C6_6 
ROOT
HETATM    1  C1  UNL     1     -31.641   9.025   3.028  1.00 20.00     0.202 C 
HETATM    2  C2  UNL     1     -32.025   8.449   1.686  1.00 20.00     0.144 C 
HETATM    3  C3  UNL     1     -32.760   7.076   3.320  1.00 20.00     0.260 C 
HETATM    4  C4  UNL     1     -32.475   9.484   0.678  1.00 20.00     0.042 C 
HETATM    5  O7  UNL     1     -31.747   7.905   3.908  1.00 20.00    -0.359 OA
HETATM    6  O8  UNL     1     -33.099   7.567   2.017  1.00 20.00    -0.354 OA
ENDROOT
BRANCH   3   7
HETATM    7  C6  UNL     1     -33.998   7.075   4.195  1.00 20.00     0.056 C 
HETATM    8  C5  UNL     1     -33.663   7.242   5.646  1.00 20.00     0.010 C 
ENDBRANCH   3   7
TORSDOF 1
ENDMDL
MODEL 4
REMARK VINA RESULT:      -4.2      1.471      3.715
REMARK  1 active torsions:
REMARK  status: ('A' for Active; 'I' for Inactive)
REMARK    1  A    between atoms: C3_3  and  C6_6 
ROOT
HETATM    1  C1  UNL     1     -34.219   6.535   3.544  1.00 20.00     0.202 C 
HETATM    2  C2  UNL     1     -33.237   6.806   4.659  1.00 20.00     0.144 C 
HETATM    3  C3  UNL     1     -32.358   7.520   2.706  1.00 20.00     0.260 C 
HETATM    4  C4  UNL     1     -33.880   7.279   5.945  1.00 20.00     0.042 C 
HETATM    5  O7  UNL     1     -33.409   6.602   2.371  1.00 20.00    -0.359 OA
HETATM    6  O8  UNL     1     -32.406   7.827   4.105  1.00 20.00    -0.354 OA
ENDROOT
BRANCH   3   7
HETATM    7  C6  UNL     1     -32.514   8.798   1.905  1.00 20.00     0.056 C 
HETATM    8  C5  UNL     1     -31.588   8.841   0.728  1.00 20.00     0.010 C 
ENDBRANCH   3   7
TORSDOF 1
ENDMDL
MODEL 5
REMARK VINA RESULT:      -3.8      1.586      2.006
REMARK  1 active torsions:
REMARK  status: ('A' for Active; 'I' for Inactive)
REMARK    1  A    between atoms: C3_3  and  C6_6 
ROOT
HETATM    1  C1  UNL     1     -34.049   4.104   4.649  1.00 20.00     0.202 C 
HETATM    2  C2  UNL     1     -34.082   4.863   3.344  1.00 20.00     0.144 C 
HETATM    3  C3  UNL     1     -34.708   6.240   5.020  1.00 20.00     0.260 C 
HETATM    4  C4  UNL     1     -32.939   4.532   2.409  1.00 20.00     0.042 C 
HETATM    5  O7  UNL     1     -34.859   4.900   5.513  1.00 20.00    -0.359 OA
HETATM    6  O8  UNL     1     -34.007   6.225   3.770  1.00 20.00    -0.354 OA
ENDROOT
BRANCH   3   7
HETATM    7  C6  UNL     1     -33.932   7.073   6.022  1.00 20.00     0.056 C 
HETATM    8  C5  UNL     1     -32.897   7.930   5.361  1.00 20.00     0.010 C 
ENDBRANCH   3   7
TORSDOF 1
ENDMDL
MODEL 6
REMARK VINA RESULT:      -3.7      1.429      2.876
REMARK  1 active torsions:
REMARK  status: ('A' for Active; 'I' for Inactive)
REMARK    1  A    between atoms: C3_3  and  C6_6 
ROOT
HETATM    1  C1  UNL     1     -32.451   7.515   3.842  1.00 20.00     0.202 C 
HETATM    2  C2  UNL     1     -33.770   7.485   4.577  1.00 20.00     0.144 C 
HETATM    3  C3  UNL     1     -33.846   6.023   2.859  1.00 20.00     0.260 C 
HETATM    4  C4  UNL     1     -33.638   7.583   6.082  1.00 20.00     0.042 C 
HETATM    5  O7  UNL     1     -32.767   6.928   2.579  1.00 20.00    -0.359 OA
HETATM    6  O8  UNL     1     -34.313   6.218   4.200  1.00 20.00    -0.354 OA
ENDROOT
BRANCH   3   7
HETATM    7  C6  UNL     1     -33.374   4.591   2.694  1.00 20.00     0.056 C 
HETATM    8  C5  UNL     1     -33.789   3.726   3.843  1.00 20.00     0.010 C 
ENDBRANCH   3   7
TORSDOF 1
ENDMDL
MODEL 7
REMARK VINA RESULT:      -3.6      2.324      4.486
REMARK  1 active torsions:
REMARK  status: ('A' for Active; 'I' for Inactive)
REMARK    1  A    between atoms: C3_3  and  C6_6 
ROOT
HETATM    1  C1  UNL     1     -31.626   7.659   3.300  1.00 20.00     0.202 C 
HETATM    2  C2  UNL     1     -33.072   7.274   3.098  1.00 20.00     0.144 C 
HETATM    3  C3  UNL     1     -32.618   9.120   1.880  1.00 20.00     0.260 C 
HETATM    4  C4  UNL     1     -33.303   5.781   2.999  1.00 20.00     0.042 C 
HETATM    5  O7  UNL     1     -31.586   9.020   2.872  1.00 20.00    -0.359 OA
HETATM    6  O8  UNL     1     -33.400   7.919   1.866  1.00 20.00    -0.354 OA
ENDROOT
BRANCH   3   7
HETATM    7  C6  UNL     1     -32.000   9.333   0.512  1.00 20.00     0.056 C 
HETATM    8  C5  UNL     1     -33.034   9.409  -0.568  1.00 20.00     0.010 C 
ENDBRANCH   3   7
TORSDOF 1
ENDMDL
MODEL 8
REMARK VINA RESULT:      -3.5      2.608      4.008
REMARK  1 active torsions:
REMARK  status: ('A' for Active; 'I' for Inactive)
REMARK    1  A    between atoms: C3_3  and  C6_6 
ROOT
HETATM    1  C1  UNL     1     -32.530  10.233   1.670  1.00 20.00     0.202 C 
HETATM    2  C2  UNL     1     -32.230   9.291   0.529  1.00 20.00     0.144 C 
HETATM    3  C3  UNL     1     -31.863   8.227   2.485  1.00 20.00     0.260 C 
HETATM    4  C4  UNL     1     -33.198   9.400  -0.630  1.00 20.00     0.042 C 
HETATM    5  O7  UNL     1     -31.857   9.632   2.777  1.00 20.00    -0.359 OA
HETATM    6  O8  UNL     1     -32.326   8.007   1.147  1.00 20.00    -0.354 OA
ENDROOT
BRANCH   3   7
HETATM    7  C6  UNL     1     -32.773   7.502   3.458  1.00 20.00     0.056 C 
HETATM    8  C5  UNL     1     -33.283   6.211   2.897  1.00 20.00     0.010 C 
ENDBRANCH   3   7
TORSDOF 1
ENDMDL
MODEL 9
REMARK VINA RESULT:      -3.3     11.589     12.248
REMARK  1 active torsions:
REMARK  status: ('A' for Active; 'I' for Inactive)
REMARK    1  A    between atoms: C3_3  and  C6_6 
ROOT
HETATM    1  C1  UNL     1     -35.230  13.847  -6.280  1.00 20.00     0.202 C 
HETATM    2  C2  UNL     1     -36.323  13.809  -5.238  1.00 20.00     0.144 C 
HETATM    3  C3  UNL     1     -34.352  14.248  -4.230  1.00 20.00     0.260 C 
HETATM    4  C4  UNL     1     -37.623  14.441  -5.688  1.00 20.00     0.042 C 
HETATM    5  O7  UNL     1     -34.039  13.682  -5.510  1.00 20.00    -0.359 OA
HETATM    6  O8  UNL     1     -35.752  14.546  -4.156  1.00 20.00    -0.354 OA
ENDROOT
BRANCH   3   7
HETATM    7  C6  UNL     1     -33.555  15.521  -4.020  1.00 20.00     0.056 C 
HETATM    8  C5  UNL     1     -34.133  16.375  -2.933  1.00 20.00     0.010 C 
ENDBRANCH   3   7
TORSDOF 1
ENDMDL
