MODEL 1
REMARK VINA RESULT:      -4.0      0.000      0.000
REMARK  1 active torsions:
REMARK  status: ('A' for Active; 'I' for Inactive)
REMARK    1  A    between atoms: C7_7  and  O9_9 
ROOT
HETATM    1  C1  UNL     1     -34.527   4.588   4.937  1.00 20.00    -0.023 C 
HETATM    2  C2  UNL     1     -33.746   4.143   3.940  1.00 20.00    -0.023 C 
HETATM    3  C3  UNL     1     -35.557   6.311   3.505  1.00 20.00     0.012 C 
HETATM    4  C4  UNL     1     -34.652   5.795   2.350  1.00 20.00     0.012 C 
HETATM    5  C5  UNL     1     -34.674   6.081   4.754  1.00 20.00     0.037 C 
HETATM    6  C6  UNL     1     -33.376   5.342   3.096  1.00 20.00     0.037 C 
HETATM    7  C7  UNL     1     -33.270   6.385   4.217  1.00 20.00     0.136 C 
ENDROOT
BRANCH   7   8
HETATM    8  O9  UNL     1     -33.133   7.710   3.746  1.00 20.00    -0.389 OA
HETATM    9  C8  UNL     1     -31.798   7.993   3.340  1.00 20.00     0.202 C 
ENDBRANCH   7   8
TORSDOF 1
ENDMDL
MODEL 2
REMARK VINA RESULT:      -3.8      8.299      9.846
REMARK  1 active torsions:
REMARK  status: ('A' for Active; 'I' for Inactive)
REMARK    1  A    between atoms: C7_7  and  O9_9 
ROOT
HETATM    1  C1  UNL     1     -41.170   7.677  -0.312  1.00 20.00    -0.023 C 
HETATM    2  C2  UNL     1     -40.593   6.715   0.425  1.00 20.00    -0.023 C 
HETATM    3  C3  UNL     1     -43.396   7.221   0.644  1.00 20.00     0.012 C 
HETATM    4  C4  UNL     1     -42.728   6.107   1.497  1.00 20.00     0.012 C 
HETATM    5  C5  UNL     1     -42.561   7.198  -0.657  1.00 20.00     0.037 C 
HETATM    6  C6  UNL     1     -41.601   5.598   0.567  1.00 20.00     0.037 C 
HETATM    7  C7  UNL     1     -42.255   5.704  -0.817  1.00 20.00     0.136 C 
ENDROOT
BRANCH   7   8
HETATM    8  O9  UNL     1     -43.417   4.913  -0.956  1.00 20.00    -0.389 OA
HETATM    9  C8  UNL     1     -43.412   4.172  -2.172  1.00 20.00     0.202 C 
ENDBRANCH   7   8
TORSDOF 1
ENDMDL
MODEL 3
REMARK VINA RESULT:      -3.8     11.705     12.950
REMARK  1 active torsions:
REMARK  status: ('A' for Active; 'I' for Inactive)
REMARK    1  A    between atoms: C7_7  and  O9_9 
ROOT
HETATM    1  C1  UNL     1     -35.035  15.628  -3.538  1.00 20.00    -0.023 C 
HETATM    2  C2  UNL     1     -35.185  16.455  -4.585  1.00 20.00    -0.023 C 
HETATM    3  C3  UNL     1     -32.921  14.720  -4.423  1.00 20.00     0.012 C 
HETATM    4  C4  UNL     1     -33.094  15.677  -5.635  1.00 20.00     0.012 C 
HETATM    5  C5  UNL     1     -34.381  14.368  -4.057  1.00 20.00     0.037 C 
HETATM    6  C6  UNL     1     -34.631  15.743  -5.798  1.00 20.00     0.037 C 
HETATM    7  C7  UNL     1     -35.055  14.313  -5.435  1.00 20.00     0.136 C 
ENDROOT
BRANCH   7   8
HETATM    8  O9  UNL     1     -34.501  13.326  -6.281  1.00 20.00    -0.389 OA
HETATM    9  C8  UNL     1     -35.241  13.188  -7.489  1.00 20.00     0.202 C 
ENDBRANCH   7   8
TORSDOF 1
ENDMDL
MODEL 4
REMARK VINA RESULT:      -3.7      1.075      1.398
REMARK  1 active torsions:
REMARK  status: ('A' for Active; 'I' for Inactive)
REMARK    1  A    between atoms: C7_7  and  O9_9 
ROOT
HETATM    1  C1  UNL     1     -34.029   4.008   3.965  1.00 20.00    -0.023 C 
HETATM    2  C2  UNL     1     -33.283   4.402   2.921  1.00 20.00    -0.023 C 
HETATM    3  C3  UNL     1     -35.576   5.911   3.713  1.00 20.00     0.012 C 
HETATM    4  C4  UNL     1     -34.712   6.368   2.505  1.00 20.00     0.012 C 
HETATM    5  C5  UNL     1     -34.532   5.258   4.649  1.00 20.00     0.037 C 
HETATM    6  C6  UNL     1     -33.291   5.914   2.914  1.00 20.00     0.037 C 
HETATM    7  C7  UNL     1     -33.302   6.148   4.430  1.00 20.00     0.136 C 
ENDROOT
BRANCH   7   8
HETATM    8  O9  UNL     1     -33.523   7.496   4.793  1.00 20.00    -0.389 OA
HETATM    9  C8  UNL     1     -33.638   7.652   6.204  1.00 20.00     0.202 C 
ENDBRANCH   7   8
TORSDOF 1
ENDMDL
MODEL 5
REMARK VINA RESULT:      -3.6     11.817     13.080
REMARK  1 active torsions:
REMARK  status: ('A' for Active; 'I' for Inactive)
REMARK    1  A    between atoms: C7_7  and  O9_9 
ROOT
HETATM    1  C1  UNL     1     -34.990  16.152  -2.773  1.00 20.00    -0.023 C 
HETATM    2  C2  UNL     1     -33.743  16.605  -2.975  1.00 20.00    -0.023 C 
HETATM    3  C3  UNL     1     -34.602  14.152  -4.162  1.00 20.00     0.012 C 
HETATM    4  C4  UNL     1     -33.158  14.676  -4.396  1.00 20.00     0.012 C 
HETATM    5  C5  UNL     1     -35.422  15.458  -4.044  1.00 20.00     0.037 C 
HETATM    6  C6  UNL     1     -33.349  16.211  -4.381  1.00 20.00     0.037 C 
HETATM    7  C7  UNL     1     -34.718  16.373  -5.054  1.00 20.00     0.136 C 
ENDROOT
BRANCH   7   8
HETATM    8  O9  UNL     1     -34.762  15.874  -6.375  1.00 20.00    -0.389 OA
HETATM    9  C8  UNL     1     -34.158  16.772  -7.301  1.00 20.00     0.202 C 
ENDBRANCH   7   8
TORSDOF 1
ENDMDL
MODEL 6
REMARK VINA RESULT:      -3.6      0.887      1.088
REMARK  1 active torsions:
REMARK  status: ('A' for Active; 'I' for Inactive)
REMARK    1  A    between atoms: C7_7  and  O9_9 
ROOT
HETATM    1  C1  UNL     1     -34.315   5.805   5.769  1.00 20.00    -0.023 C 
HETATM    2  C2  UNL     1     -34.424   4.736   4.965  1.00 20.00    -0.023 C 
HETATM    3  C3  UNL     1     -35.036   7.350   3.988  1.00 20.00     0.012 C 
HETATM    4  C4  UNL     1     -35.162   6.112   3.057  1.00 20.00     0.012 C 
HETATM    5  C5  UNL     1     -33.857   6.962   4.911  1.00 20.00     0.037 C 
HETATM    6  C6  UNL     1     -34.037   5.184   3.574  1.00 20.00     0.037 C 
HETATM    7  C7  UNL     1     -32.941   6.187   3.955  1.00 20.00     0.136 C 
ENDROOT
BRANCH   7   8
HETATM    8  O9  UNL     1     -32.488   6.970   2.869  1.00 20.00    -0.389 OA
HETATM    9  C8  UNL     1     -31.664   8.048   3.300  1.00 20.00     0.202 C 
ENDBRANCH   7   8
TORSDOF 1
ENDMDL
MODEL 7
REMARK VINA RESULT:      -3.6     11.806     12.792
REMARK  1 active torsions:
REMARK  status: ('A' for Active; 'I' for Inactive)
REMARK    1  A    between atoms: C7_7  and  O9_9 
ROOT
HETATM    1  C1  UNL     1     -33.669  16.348  -2.827  1.00 20.00    -0.023 C 
HETATM    2  C2  UNL     1     -34.996  16.547  -2.872  1.00 20.00    -0.023 C 
HETATM    3  C3  UNL     1     -33.476  16.362  -5.285  1.00 20.00     0.012 C 
HETATM    4  C4  UNL     1     -35.012  16.593  -5.337  1.00 20.00     0.012 C 
HETATM    5  C5  UNL     1     -33.307  15.491  -4.018  1.00 20.00     0.037 C 
HETATM    6  C6  UNL     1     -35.513  15.822  -4.094  1.00 20.00     0.037 C 
HETATM    7  C7  UNL     1     -34.566  14.615  -4.060  1.00 20.00     0.136 C 
ENDROOT
BRANCH   7   8
HETATM    8  O9  UNL     1     -34.638  13.806  -5.216  1.00 20.00    -0.389 OA
HETATM    9  C8  UNL     1     -35.950  13.292  -5.422  1.00 20.00     0.202 C 
ENDBRANCH   7   8
TORSDOF 1
ENDMDL
MODEL 8
REMARK VINA RESULT:      -3.5     11.836     13.139
REMARK  1 active torsions:
REMARK  status: ('A' for Active; 'I' for Inactive)
REMARK    1  A    between atoms: C7_7  and  O9_9 
ROOT
HETATM    1  C1  UNL     1     -33.305  14.566  -4.392  1.00 20.00    -0.023 C 
HETATM    2  C2  UNL     1     -34.552  14.141  -4.134  1.00 20.00    -0.023 C 
HETATM    3  C3  UNL     1     -33.624  16.630  -3.081  1.00 20.00     0.012 C 
HETATM    4  C4  UNL     1     -35.068  16.139  -2.783  1.00 20.00     0.012 C 
HETATM    5  C5  UNL     1     -33.362  16.072  -4.500  1.00 20.00     0.037 C 
HETATM    6  C6  UNL     1     -35.436  15.367  -4.072  1.00 20.00     0.037 C 
HETATM    7  C7  UNL     1     -34.742  16.202  -5.157  1.00 20.00     0.136 C 
ENDROOT
BRANCH   7   8
HETATM    8  O9  UNL     1     -35.200  17.537  -5.221  1.00 20.00    -0.389 OA
HETATM    9  C8  UNL     1     -36.386  17.654  -6.000  1.00 20.00     0.202 C 
ENDBRANCH   7   8
TORSDOF 1
ENDMDL
MODEL 9
REMARK VINA RESULT:      -3.5     11.512     12.572
REMARK  1 active torsions:
REMARK  status: ('A' for Active; 'I' for Inactive)
REMARK    1  A    between atoms: C7_7  and  O9_9 
ROOT
HETATM    1  C1  UNL     1     -35.516  15.149  -5.843  1.00 20.00    -0.023 C 
HETATM    2  C2  UNL     1     -35.316  13.973  -5.228  1.00 20.00    -0.023 C 
HETATM    3  C3  UNL     1     -33.278  15.975  -5.220  1.00 20.00     0.012 C 
HETATM    4  C4  UNL     1     -33.047  14.613  -4.509  1.00 20.00     0.012 C 
HETATM    5  C5  UNL     1     -34.796  16.202  -5.032  1.00 20.00     0.037 C 
HETATM    6  C6  UNL     1     -34.464  14.246  -4.010  1.00 20.00     0.037 C 
HETATM    7  C7  UNL     1     -35.039  15.619  -3.634  1.00 20.00     0.136 C 
ENDROOT
BRANCH   7   8
HETATM    8  O9  UNL     1     -34.306  16.282  -2.625  1.00 20.00    -0.389 OA
HETATM    9  C8  UNL     1     -35.158  16.824  -1.620  1.00 20.00     0.202 C 
ENDBRANCH   7   8
TORSDOF 1
ENDMDL
