MODEL 1
REMARK VINA RESULT:      -2.9      0.000      0.000
REMARK  1 active torsions:
REMARK  status: ('A' for Active; 'I' for Inactive)
REMARK       I    between atoms: C1_1  and  N3_3 
REMARK    1  A    between atoms: C1_1  and  S5_5 
ROOT
HETATM    1  C1  UNL     1     -33.647   6.913   4.450  1.00 20.00     0.276 C 
HETATM    2  C2  UNL     1     -31.824   8.098   3.249  1.00 20.00     0.150 C 
HETATM    3  N3  UNL     1     -32.919   7.159   3.309  1.00 20.00    -0.356 N 
HETATM    4  O4  UNL     1     -33.500   7.421   5.553  1.00 20.00    -0.261 OA
HETATM    5  H9  UNL     1     -33.157   6.645   2.466  1.00 20.00     0.162 HD
ENDROOT
BRANCH   1   6
HETATM    6  S5  UNL     1     -34.893   5.714   4.146  1.00 20.00    -0.082 SA
HETATM    7  H10 UNL     1     -34.721   5.636   2.818  1.00 20.00     0.112 HD
ENDBRANCH   1   6
TORSDOF 1
ENDMDL
MODEL 2
REMARK VINA RESULT:      -2.7      1.897      1.897
REMARK  1 active torsions:
REMARK  status: ('A' for Active; 'I' for Inactive)
REMARK       I    between atoms: C1_1  and  N3_3 
REMARK    1  A    between atoms: C1_1  and  S5_5 
ROOT
HETATM    1  C1  UNL     1     -33.572   5.927   3.268  1.00 20.00     0.276 C 
HETATM    2  C2  UNL     1     -32.307   7.900   2.445  1.00 20.00     0.150 C 
HETATM    3  N3  UNL     1     -33.323   7.280   3.264  1.00 20.00    -0.356 N 
HETATM    4  O4  UNL     1     -33.007   5.062   2.615  1.00 20.00    -0.261 OA
HETATM    5  H9  UNL     1     -33.889   7.877   3.859  1.00 20.00     0.162 HD
ENDROOT
BRANCH   1   6
HETATM    6  S5  UNL     1     -34.875   5.540   4.381  1.00 20.00    -0.082 SA
HETATM    7  H10 UNL     1     -35.878   6.004   3.622  1.00 20.00     0.112 HD
ENDBRANCH   1   6
TORSDOF 1
ENDMDL
MODEL 3
REMARK VINA RESULT:      -2.7      2.020      2.685
REMARK  1 active torsions:
REMARK  status: ('A' for Active; 'I' for Inactive)
REMARK       I    between atoms: C1_1  and  N3_3 
REMARK    1  A    between atoms: C1_1  and  S5_5 
ROOT
HETATM    1  C1  UNL     1     -33.551   6.827   4.121  1.00 20.00     0.276 C 
HETATM    2  C2  UNL     1     -34.692   4.674   4.603  1.00 20.00     0.150 C 
HETATM    3  N3  UNL     1     -33.986   5.582   3.730  1.00 20.00    -0.356 N 
HETATM    4  O4  UNL     1     -33.680   7.352   5.218  1.00 20.00    -0.261 OA
HETATM    5  H9  UNL     1     -33.811   5.289   2.774  1.00 20.00     0.162 HD
ENDROOT
BRANCH   1   6
HETATM    6  S5  UNL     1     -32.737   7.644   2.797  1.00 20.00    -0.082 SA
HETATM    7  H10 UNL     1     -32.508   6.554   2.051  1.00 20.00     0.112 HD
ENDBRANCH   1   6
TORSDOF 1
ENDMDL
MODEL 4
REMARK VINA RESULT:      -2.7      2.662      3.107
REMARK  1 active torsions:
REMARK  status: ('A' for Active; 'I' for Inactive)
REMARK       I    between atoms: C1_1  and  N3_3 
REMARK    1  A    between atoms: C1_1  and  S5_5 
ROOT
HETATM    1  C1  UNL     1     -33.258   6.302   3.215  1.00 20.00     0.276 C 
HETATM    2  C2  UNL     1     -34.690   5.549   5.099  1.00 20.00     0.150 C 
HETATM    3  N3  UNL     1     -33.990   6.566   4.349  1.00 20.00    -0.356 N 
HETATM    4  O4  UNL     1     -33.082   5.220   2.675  1.00 20.00    -0.261 OA
HETATM    5  H9  UNL     1     -34.034   7.524   4.683  1.00 20.00     0.162 HD
ENDROOT
BRANCH   1   6
HETATM    6  S5  UNL     1     -32.550   7.778   2.576  1.00 20.00    -0.082 SA
HETATM    7  H10 UNL     1     -33.673   8.510   2.579  1.00 20.00     0.112 HD
ENDBRANCH   1   6
TORSDOF 1
ENDMDL
MODEL 5
REMARK VINA RESULT:      -2.6     11.847     12.054
REMARK  1 active torsions:
REMARK  status: ('A' for Active; 'I' for Inactive)
REMARK       I    between atoms: C1_1  and  N3_3 
REMARK    1  A    between atoms: C1_1  and  S5_5 
ROOT
HETATM    1  C1  UNL     1     -35.795  13.820  -4.854  1.00 20.00     0.276 C 
HETATM    2  C2  UNL     1     -38.163  14.526  -5.107  1.00 20.00     0.150 C 
HETATM    3  N3  UNL     1     -36.790  14.761  -4.725  1.00 20.00    -0.356 N 
HETATM    4  O4  UNL     1     -35.896  12.682  -5.291  1.00 20.00    -0.261 OA
HETATM    5  H9  UNL     1     -36.550  15.666  -4.332  1.00 20.00     0.162 HD
ENDROOT
BRANCH   1   6
HETATM    6  S5  UNL     1     -34.260  14.458  -4.288  1.00 20.00    -0.082 SA
HETATM    7  H10 UNL     1     -33.653  14.501  -5.483  1.00 20.00     0.112 HD
ENDBRANCH   1   6
TORSDOF 1
ENDMDL
MODEL 6
REMARK VINA RESULT:      -2.6     11.689     11.768
REMARK  1 active torsions:
REMARK  status: ('A' for Active; 'I' for Inactive)
REMARK       I    between atoms: C1_1  and  N3_3 
REMARK    1  A    between atoms: C1_1  and  S5_5 
ROOT
HETATM    1  C1  UNL     1     -36.090  13.825  -5.009  1.00 20.00     0.276 C 
HETATM    2  C2  UNL     1     -33.788  14.461  -4.326  1.00 20.00     0.150 C 
HETATM    3  N3  UNL     1     -35.184  14.753  -4.549  1.00 20.00    -0.356 N 
HETATM    4  O4  UNL     1     -35.880  12.655  -5.293  1.00 20.00    -0.261 OA
HETATM    5  H9  UNL     1     -35.512  15.696  -4.366  1.00 20.00     0.162 HD
ENDROOT
BRANCH   1   6
HETATM    6  S5  UNL     1     -37.688  14.538  -5.159  1.00 20.00    -0.082 SA
HETATM    7  H10 UNL     1     -37.766  15.021  -3.911  1.00 20.00     0.112 HD
ENDBRANCH   1   6
TORSDOF 1
ENDMDL
MODEL 7
REMARK VINA RESULT:      -2.5     11.976     12.162
REMARK  1 active torsions:
REMARK  status: ('A' for Active; 'I' for Inactive)
REMARK       I    between atoms: C1_1  and  N3_3 
REMARK    1  A    between atoms: C1_1  and  S5_5 
ROOT
HETATM    1  C1  UNL     1     -35.159  13.424  -6.037  1.00 20.00     0.276 C 
HETATM    2  C2  UNL     1     -33.424  14.204  -4.441  1.00 20.00     0.150 C 
HETATM    3  N3  UNL     1     -33.993  14.100  -5.764  1.00 20.00    -0.356 N 
HETATM    4  O4  UNL     1     -35.878  12.827  -5.249  1.00 20.00    -0.261 OA
HETATM    5  H9  UNL     1     -33.499  14.540  -6.534  1.00 20.00     0.162 HD
ENDROOT
BRANCH   1   6
HETATM    6  S5  UNL     1     -35.539  13.509  -7.750  1.00 20.00    -0.082 SA
HETATM    7  H10 UNL     1     -36.186  14.682  -7.714  1.00 20.00     0.112 HD
ENDBRANCH   1   6
TORSDOF 1
ENDMDL
MODEL 8
REMARK VINA RESULT:      -2.5      2.381      2.600
REMARK  1 active torsions:
REMARK  status: ('A' for Active; 'I' for Inactive)
REMARK       I    between atoms: C1_1  and  N3_3 
REMARK    1  A    between atoms: C1_1  and  S5_5 
ROOT
HETATM    1  C1  UNL     1     -32.297   7.947   2.679  1.00 20.00     0.276 C 
HETATM    2  C2  UNL     1     -32.233   9.793   1.019  1.00 20.00     0.150 C 
HETATM    3  N3  UNL     1     -32.770   8.559   1.541  1.00 20.00    -0.356 N 
HETATM    4  O4  UNL     1     -31.389   8.323   3.406  1.00 20.00    -0.261 OA
HETATM    5  H9  UNL     1     -33.530   8.114   1.036  1.00 20.00     0.162 HD
ENDROOT
BRANCH   1   6
HETATM    6  S5  UNL     1     -33.188   6.469   3.006  1.00 20.00    -0.082 SA
HETATM    7  H10 UNL     1     -32.659   5.739   2.014  1.00 20.00     0.112 HD
ENDBRANCH   1   6
TORSDOF 1
ENDMDL
MODEL 9
REMARK VINA RESULT:      -2.5     12.314     12.506
REMARK  1 active torsions:
REMARK  status: ('A' for Active; 'I' for Inactive)
REMARK       I    between atoms: C1_1  and  N3_3 
REMARK    1  A    between atoms: C1_1  and  S5_5 
ROOT
HETATM    1  C1  UNL     1     -36.195  13.667  -5.634  1.00 20.00     0.276 C 
HETATM    2  C2  UNL     1     -34.481  13.731  -7.430  1.00 20.00     0.150 C 
HETATM    3  N3  UNL     1     -35.614  14.278  -6.722  1.00 20.00    -0.356 N 
HETATM    4  O4  UNL     1     -35.868  12.613  -5.107  1.00 20.00    -0.261 OA
HETATM    5  H9  UNL     1     -36.009  15.153  -7.051  1.00 20.00     0.162 HD
ENDROOT
BRANCH   1   6
HETATM    6  S5  UNL     1     -37.545  14.618  -5.037  1.00 20.00    -0.082 SA
HETATM    7  H10 UNL     1     -37.756  13.912  -3.917  1.00 20.00     0.112 HD
ENDBRANCH   1   6
TORSDOF 1
ENDMDL
