MODEL 1
REMARK VINA RESULT:      -5.5      0.000      0.000
REMARK  1 active torsions:
REMARK  status: ('A' for Active; 'I' for Inactive)
REMARK    1  A    between atoms: C5_5  and  C10_10 
ROOT
HETATM    1  C1  UNL     1     -32.829   7.702   4.464  1.00 20.00    -0.018 C 
HETATM    2  C2  UNL     1     -33.803   7.288   5.287  1.00 20.00    -0.025 C 
HETATM    3  C3  UNL     1     -33.346   5.824   2.900  1.00 20.00     0.135 C 
HETATM    4  C4  UNL     1     -34.747   5.813   3.475  1.00 20.00     0.087 C 
HETATM    5  C5  UNL     1     -32.506   7.073   3.139  1.00 20.00     0.081 C 
HETATM    6  C6  UNL     1     -34.730   6.147   4.971  1.00 20.00     0.010 C 
HETATM    7  C7  UNL     1     -34.357   4.925   5.812  1.00 20.00     0.014 C 
HETATM    8  O11 UNL     1     -32.940   4.904   2.190  1.00 20.00    -0.297 OA
ENDROOT
BRANCH   5   9
HETATM    9  C10 UNL     1     -32.713   8.056   1.992  1.00 20.00    -0.008 C 
HETATM   10  C8  UNL     1     -33.350   9.350   2.499  1.00 20.00     0.010 C 
HETATM   11  C9  UNL     1     -31.390   8.352   1.289  1.00 20.00     0.010 C 
ENDBRANCH   5   9
TORSDOF 1
ENDMDL
MODEL 2
REMARK VINA RESULT:      -5.1      1.137      3.843
REMARK  1 active torsions:
REMARK  status: ('A' for Active; 'I' for Inactive)
REMARK    1  A    between atoms: C5_5  and  C10_10 
ROOT
HETATM    1  C1  UNL     1     -33.937   7.272   4.888  1.00 20.00    -0.018 C 
HETATM    2  C2  UNL     1     -32.756   7.817   4.565  1.00 20.00    -0.025 C 
HETATM    3  C3  UNL     1     -34.048   6.175   2.647  1.00 20.00     0.135 C 
HETATM    4  C4  UNL     1     -32.537   6.253   2.601  1.00 20.00     0.087 C 
HETATM    5  C5  UNL     1     -34.713   6.334   4.009  1.00 20.00     0.081 C 
HETATM    6  C6  UNL     1     -32.032   7.532   3.278  1.00 20.00     0.010 C 
HETATM    7  C7  UNL     1     -32.138   8.737   2.342  1.00 20.00     0.014 C 
HETATM    8  O11 UNL     1     -34.704   5.899   1.642  1.00 20.00    -0.297 OA
ENDROOT
BRANCH   5   9
HETATM    9  C10 UNL     1     -34.875   4.966   4.662  1.00 20.00    -0.008 C 
HETATM   10  C8  UNL     1     -33.942   3.944   4.013  1.00 20.00     0.010 C 
HETATM   11  C9  UNL     1     -34.613   5.050   6.165  1.00 20.00     0.010 C 
ENDBRANCH   5   9
TORSDOF 1
ENDMDL
MODEL 3
REMARK VINA RESULT:      -4.6     11.379     12.391
REMARK  1 active torsions:
REMARK  status: ('A' for Active; 'I' for Inactive)
REMARK    1  A    between atoms: C5_5  and  C10_10 
ROOT
HETATM    1  C1  UNL     1     -35.323  16.717  -2.351  1.00 20.00    -0.018 C 
HETATM    2  C2  UNL     1     -35.279  17.013  -1.044  1.00 20.00    -0.025 C 
HETATM    3  C3  UNL     1     -33.293  18.117  -2.742  1.00 20.00     0.135 C 
HETATM    4  C4  UNL     1     -32.927  17.884  -1.292  1.00 20.00     0.087 C 
HETATM    5  C5  UNL     1     -34.312  17.170  -3.364  1.00 20.00     0.081 C 
HETATM    6  C6  UNL     1     -34.180  17.822  -0.412  1.00 20.00     0.010 C 
HETATM    7  C7  UNL     1     -34.694  19.223  -0.073  1.00 20.00     0.014 C 
HETATM    8  O11 UNL     1     -32.719  18.974  -3.415  1.00 20.00    -0.297 OA
ENDROOT
BRANCH   5   9
HETATM    9  C10 UNL     1     -33.591  15.987  -3.999  1.00 20.00    -0.008 C 
HETATM   10  C8  UNL     1     -34.418  14.710  -3.852  1.00 20.00     0.010 C 
HETATM   11  C9  UNL     1     -33.293  16.263  -5.472  1.00 20.00     0.010 C 
ENDBRANCH   5   9
TORSDOF 1
ENDMDL
MODEL 4
REMARK VINA RESULT:      -4.6     11.105     12.176
REMARK  1 active torsions:
REMARK  status: ('A' for Active; 'I' for Inactive)
REMARK    1  A    between atoms: C5_5  and  C10_10 
ROOT
HETATM    1  C1  UNL     1     -33.526  16.739  -4.350  1.00 20.00    -0.018 C 
HETATM    2  C2  UNL     1     -33.067  15.788  -5.176  1.00 20.00    -0.025 C 
HETATM    3  C3  UNL     1     -35.590  15.395  -3.942  1.00 20.00     0.135 C 
HETATM    4  C4  UNL     1     -34.788  14.165  -4.310  1.00 20.00     0.087 C 
HETATM    5  C5  UNL     1     -34.809  16.651  -3.576  1.00 20.00     0.081 C 
HETATM    6  C6  UNL     1     -33.771  14.481  -5.412  1.00 20.00     0.010 C 
HETATM    7  C7  UNL     1     -34.429  14.485  -6.793  1.00 20.00     0.014 C 
HETATM    8  O11 UNL     1     -36.817  15.352  -3.848  1.00 20.00    -0.297 OA
ENDROOT
BRANCH   5   9
HETATM    9  C10 UNL     1     -34.555  16.677  -2.073  1.00 20.00    -0.008 C 
HETATM   10  C8  UNL     1     -33.273  17.447  -1.756  1.00 20.00     0.010 C 
HETATM   11  C9  UNL     1     -35.743  17.290  -1.335  1.00 20.00     0.010 C 
ENDBRANCH   5   9
TORSDOF 1
ENDMDL
MODEL 5
REMARK VINA RESULT:      -4.5     11.162     12.587
REMARK  1 active torsions:
REMARK  status: ('A' for Active; 'I' for Inactive)
REMARK    1  A    between atoms: C5_5  and  C10_10 
ROOT
HETATM    1  C1  UNL     1     -34.986  17.147  -4.713  1.00 20.00    -0.018 C 
HETATM    2  C2  UNL     1     -34.310  17.174  -5.870  1.00 20.00    -0.025 C 
HETATM    3  C3  UNL     1     -34.147  14.837  -4.272  1.00 20.00     0.135 C 
HETATM    4  C4  UNL     1     -32.971  15.158  -5.169  1.00 20.00     0.087 C 
HETATM    5  C5  UNL     1     -34.952  16.013  -3.730  1.00 20.00     0.081 C 
HETATM    6  C6  UNL     1     -33.394  16.071  -6.325  1.00 20.00     0.010 C 
HETATM    7  C7  UNL     1     -34.056  15.275  -7.451  1.00 20.00     0.014 C 
HETATM    8  O11 UNL     1     -34.384  13.681  -3.918  1.00 20.00    -0.297 OA
ENDROOT
BRANCH   5   9
HETATM    9  C10 UNL     1     -34.375  16.454  -2.391  1.00 20.00    -0.008 C 
HETATM   10  C8  UNL     1     -33.388  17.606  -2.582  1.00 20.00     0.010 C 
HETATM   11  C9  UNL     1     -35.490  16.860  -1.429  1.00 20.00     0.010 C 
ENDBRANCH   5   9
TORSDOF 1
ENDMDL
MODEL 6
REMARK VINA RESULT:      -4.3     11.325     12.093
REMARK  1 active torsions:
REMARK  status: ('A' for Active; 'I' for Inactive)
REMARK    1  A    between atoms: C5_5  and  C10_10 
ROOT
HETATM    1  C1  UNL     1     -33.852  15.103  -4.057  1.00 20.00    -0.018 C 
HETATM    2  C2  UNL     1     -33.755  16.177  -3.260  1.00 20.00    -0.025 C 
HETATM    3  C3  UNL     1     -36.328  15.405  -4.169  1.00 20.00     0.135 C 
HETATM    4  C4  UNL     1     -36.103  16.869  -3.858  1.00 20.00     0.087 C 
HETATM    5  C5  UNL     1     -35.130  14.606  -4.668  1.00 20.00     0.081 C 
HETATM    6  C6  UNL     1     -34.923  17.052  -2.897  1.00 20.00     0.010 C 
HETATM    7  C7  UNL     1     -35.338  16.792  -1.448  1.00 20.00     0.014 C 
HETATM    8  O11 UNL     1     -37.453  14.906  -4.112  1.00 20.00    -0.297 OA
ENDROOT
BRANCH   5   9
HETATM    9  C10 UNL     1     -35.077  14.660  -6.190  1.00 20.00    -0.008 C 
HETATM   10  C8  UNL     1     -33.736  15.222  -6.663  1.00 20.00     0.010 C 
HETATM   11  C9  UNL     1     -35.317  13.276  -6.789  1.00 20.00     0.010 C 
ENDBRANCH   5   9
TORSDOF 1
ENDMDL
MODEL 7
REMARK VINA RESULT:      -4.3     10.744     12.017
REMARK  1 active torsions:
REMARK  status: ('A' for Active; 'I' for Inactive)
REMARK    1  A    between atoms: C5_5  and  C10_10 
ROOT
HETATM    1  C1  UNL     1     -35.805  15.876  -3.907  1.00 20.00    -0.018 C 
HETATM    2  C2  UNL     1     -36.960  16.287  -4.448  1.00 20.00    -0.025 C 
HETATM    3  C3  UNL     1     -35.908  13.783  -5.266  1.00 20.00     0.135 C 
HETATM    4  C4  UNL     1     -36.770  14.540  -6.254  1.00 20.00     0.087 C 
HETATM    5  C5  UNL     1     -35.090  14.609  -4.280  1.00 20.00     0.081 C 
HETATM    6  C6  UNL     1     -37.683  15.539  -5.534  1.00 20.00     0.010 C 
HETATM    7  C7  UNL     1     -38.921  14.850  -4.957  1.00 20.00     0.014 C 
HETATM    8  O11 UNL     1     -35.799  12.558  -5.321  1.00 20.00    -0.297 OA
ENDROOT
BRANCH   5   9
HETATM    9  C10 UNL     1     -33.716  14.900  -4.872  1.00 20.00    -0.008 C 
HETATM   10  C8  UNL     1     -33.383  16.387  -4.758  1.00 20.00     0.010 C 
HETATM   11  C9  UNL     1     -32.642  14.058  -4.184  1.00 20.00     0.010 C 
ENDBRANCH   5   9
TORSDOF 1
ENDMDL
MODEL 8
REMARK VINA RESULT:      -4.2     11.095     12.178
REMARK  1 active torsions:
REMARK  status: ('A' for Active; 'I' for Inactive)
REMARK    1  A    between atoms: C5_5  and  C10_10 
ROOT
HETATM    1  C1  UNL     1     -35.891  15.346  -4.467  1.00 20.00    -0.018 C 
HETATM    2  C2  UNL     1     -36.032  15.205  -5.793  1.00 20.00    -0.025 C 
HETATM    3  C3  UNL     1     -33.537  14.527  -4.626  1.00 20.00     0.135 C 
HETATM    4  C4  UNL     1     -33.536  14.997  -6.065  1.00 20.00     0.087 C 
HETATM    5  C5  UNL     1     -34.619  15.089  -3.711  1.00 20.00     0.081 C 
HETATM    6  C6  UNL     1     -34.911  14.798  -6.710  1.00 20.00     0.010 C 
HETATM    7  C7  UNL     1     -35.111  13.351  -7.165  1.00 20.00     0.014 C 
HETATM    8  O11 UNL     1     -32.644  13.799  -4.190  1.00 20.00    -0.297 OA
ENDROOT
BRANCH   5   9
HETATM    9  C10 UNL     1     -34.110  16.355  -3.033  1.00 20.00    -0.008 C 
HETATM   10  C8  UNL     1     -34.124  17.533  -4.008  1.00 20.00     0.010 C 
HETATM   11  C9  UNL     1     -34.944  16.678  -1.794  1.00 20.00     0.010 C 
ENDBRANCH   5   9
TORSDOF 1
ENDMDL
MODEL 9
REMARK VINA RESULT:      -4.2     11.188     12.414
REMARK  1 active torsions:
REMARK  status: ('A' for Active; 'I' for Inactive)
REMARK    1  A    between atoms: C5_5  and  C10_10 
ROOT
HETATM    1  C1  UNL     1     -34.689  14.299  -4.002  1.00 20.00    -0.018 C 
HETATM    2  C2  UNL     1     -35.464  13.616  -4.856  1.00 20.00    -0.025 C 
HETATM    3  C3  UNL     1     -34.190  15.974  -5.786  1.00 20.00     0.135 C 
HETATM    4  C4  UNL     1     -35.497  15.576  -6.440  1.00 20.00     0.087 C 
HETATM    5  C5  UNL     1     -34.000  15.594  -4.323  1.00 20.00     0.081 C 
HETATM    6  C6  UNL     1     -35.771  14.080  -6.254  1.00 20.00     0.010 C 
HETATM    7  C7  UNL     1     -34.991  13.238  -7.265  1.00 20.00     0.014 C 
HETATM    8  O11 UNL     1     -33.360  16.658  -6.385  1.00 20.00    -0.297 OA
ENDROOT
BRANCH   5   9
HETATM    9  C10 UNL     1     -34.498  16.725  -3.431  1.00 20.00    -0.008 C 
HETATM   10  C8  UNL     1     -35.874  16.391  -2.854  1.00 20.00     0.010 C 
HETATM   11  C9  UNL     1     -33.502  17.008  -2.309  1.00 20.00     0.010 C 
ENDBRANCH   5   9
TORSDOF 1
ENDMDL
