MODEL 1
REMARK VINA RESULT:      -5.8      0.000      0.000
REMARK  4 active torsions:
REMARK  status: ('A' for Active; 'I' for Inactive)
REMARK    1  A    between atoms: C1_1  and  C4_4 
REMARK    2  A    between atoms: C2_2  and  C7_7 
REMARK    3  A    between atoms: C7_7  and  C8_8 
REMARK    4  A    between atoms: C8_8  and  O9_9 
ROOT
HETATM    1  C1  UNL     1     -33.324   7.271   3.658  1.00 20.00    -0.072 C 
HETATM    2  C2  UNL     1     -32.750   7.846   2.774  1.00 20.00    -0.099 C 
ENDROOT
BRANCH   2   3
HETATM    3  C7  UNL     1     -32.044   8.551   1.691  1.00 20.00     0.125 C 
BRANCH   3   4
HETATM    4  C8  UNL     1     -32.942   9.601   1.033  1.00 20.00     0.125 C 
HETATM    5  C6  UNL     1     -32.995   9.410  -0.477  1.00 20.00     0.040 C 
BRANCH   4   6
HETATM    6  O9  UNL     1     -32.410  10.896   1.308  1.00 20.00    -0.395 OA
HETATM    7  H21 UNL     1     -32.854  11.211   2.110  1.00 20.00     0.210 HD
ENDBRANCH   4   6
ENDBRANCH   3   4
ENDBRANCH   2   3
BRANCH   1   8
HETATM    8  C4  UNL     1     -34.010   6.589   4.708  1.00 20.00    -0.018 C 
HETATM    9  C3  UNL     1     -33.910   7.050   5.963  1.00 20.00     0.028 C 
HETATM   10  C5  UNL     1     -34.825   5.375   4.374  1.00 20.00     0.057 C 
ENDBRANCH   1   8
TORSDOF 4
ENDMDL
MODEL 2
REMARK VINA RESULT:      -5.7      0.098      1.172
REMARK  4 active torsions:
REMARK  status: ('A' for Active; 'I' for Inactive)
REMARK    1  A    between atoms: C1_1  and  C4_4 
REMARK    2  A    between atoms: C2_2  and  C7_7 
REMARK    3  A    between atoms: C7_7  and  C8_8 
REMARK    4  A    between atoms: C8_8  and  O9_9 
ROOT
HETATM    1  C1  UNL     1     -33.370   7.239   3.569  1.00 20.00    -0.072 C 
HETATM    2  C2  UNL     1     -32.774   7.838   2.715  1.00 20.00    -0.099 C 
ENDROOT
BRANCH   2   3
HETATM    3  C7  UNL     1     -32.042   8.570   1.668  1.00 20.00     0.125 C 
BRANCH   3   4
HETATM    4  C8  UNL     1     -32.927   9.631   1.010  1.00 20.00     0.125 C 
HETATM    5  C6  UNL     1     -33.023   9.410  -0.495  1.00 20.00     0.040 C 
BRANCH   4   6
HETATM    6  O9  UNL     1     -32.353  10.916   1.243  1.00 20.00    -0.395 OA
HETATM    7  H21 UNL     1     -32.625  11.477   0.501  1.00 20.00     0.210 HD
ENDBRANCH   4   6
ENDBRANCH   3   4
ENDBRANCH   2   3
BRANCH   1   8
HETATM    8  C4  UNL     1     -34.078   6.531   4.585  1.00 20.00    -0.018 C 
HETATM    9  C3  UNL     1     -34.838   5.480   4.244  1.00 20.00     0.028 C 
HETATM   10  C5  UNL     1     -33.950   6.985   6.009  1.00 20.00     0.057 C 
ENDBRANCH   1   8
TORSDOF 4
ENDMDL
MODEL 3
REMARK VINA RESULT:      -5.7      1.141      1.753
REMARK  4 active torsions:
REMARK  status: ('A' for Active; 'I' for Inactive)
REMARK    1  A    between atoms: C1_1  and  C4_4 
REMARK    2  A    between atoms: C2_2  and  C7_7 
REMARK    3  A    between atoms: C7_7  and  C8_8 
REMARK    4  A    between atoms: C8_8  and  O9_9 
ROOT
HETATM    1  C1  UNL     1     -33.055   7.460   3.105  1.00 20.00    -0.072 C 
HETATM    2  C2  UNL     1     -32.361   7.960   2.262  1.00 20.00    -0.099 C 
ENDROOT
BRANCH   2   3
HETATM    3  C7  UNL     1     -31.510   8.571   1.227  1.00 20.00     0.125 C 
BRANCH   3   4
HETATM    4  C8  UNL     1     -32.249   9.690   0.490  1.00 20.00     0.125 C 
HETATM    5  C6  UNL     1     -32.919  10.645   1.469  1.00 20.00     0.040 C 
BRANCH   4   6
HETATM    6  O9  UNL     1     -33.256   9.108  -0.336  1.00 20.00    -0.395 OA
HETATM    7  H21 UNL     1     -32.806   8.468  -0.908  1.00 20.00     0.210 HD
ENDBRANCH   4   6
ENDBRANCH   3   4
ENDBRANCH   2   3
BRANCH   1   8
HETATM    8  C4  UNL     1     -33.879   6.870   4.109  1.00 20.00    -0.018 C 
HETATM    9  C3  UNL     1     -34.802   5.965   3.752  1.00 20.00     0.028 C 
HETATM   10  C5  UNL     1     -33.687   7.281   5.539  1.00 20.00     0.057 C 
ENDBRANCH   1   8
TORSDOF 4
ENDMDL
MODEL 4
REMARK VINA RESULT:      -5.4      2.708      5.172
REMARK  4 active torsions:
REMARK  status: ('A' for Active; 'I' for Inactive)
REMARK    1  A    between atoms: C1_1  and  C4_4 
REMARK    2  A    between atoms: C2_2  and  C7_7 
REMARK    3  A    between atoms: C7_7  and  C8_8 
REMARK    4  A    between atoms: C8_8  and  O9_9 
ROOT
HETATM    1  C1  UNL     1     -32.805   7.826   2.145  1.00 20.00    -0.072 C 
HETATM    2  C2  UNL     1     -33.224   6.893   2.775  1.00 20.00    -0.099 C 
ENDROOT
BRANCH   2   3
HETATM    3  C7  UNL     1     -33.741   5.752   3.549  1.00 20.00     0.125 C 
BRANCH   3   4
HETATM    4  C8  UNL     1     -34.573   6.221   4.744  1.00 20.00     0.125 C 
HETATM    5  C6  UNL     1     -33.765   7.145   5.646  1.00 20.00     0.040 C 
BRANCH   4   6
HETATM    6  O9  UNL     1     -34.969   5.080   5.503  1.00 20.00    -0.395 OA
HETATM    7  H21 UNL     1     -34.663   5.234   6.410  1.00 20.00     0.210 HD
ENDBRANCH   4   6
ENDBRANCH   3   4
ENDBRANCH   2   3
BRANCH   1   8
HETATM    8  C4  UNL     1     -32.302   8.931   1.396  1.00 20.00    -0.018 C 
HETATM    9  C3  UNL     1     -31.226   8.759   0.615  1.00 20.00     0.028 C 
HETATM   10  C5  UNL     1     -32.996  10.257   1.505  1.00 20.00     0.057 C 
ENDBRANCH   1   8
TORSDOF 4
ENDMDL
MODEL 5
REMARK VINA RESULT:      -5.3      2.410      5.124
REMARK  4 active torsions:
REMARK  status: ('A' for Active; 'I' for Inactive)
REMARK    1  A    between atoms: C1_1  and  C4_4 
REMARK    2  A    between atoms: C2_2  and  C7_7 
REMARK    3  A    between atoms: C7_7  and  C8_8 
REMARK    4  A    between atoms: C8_8  and  O9_9 
ROOT
HETATM    1  C1  UNL     1     -32.878   8.439   1.807  1.00 20.00    -0.072 C 
HETATM    2  C2  UNL     1     -32.998   7.508   2.556  1.00 20.00    -0.099 C 
ENDROOT
BRANCH   2   3
HETATM    3  C7  UNL     1     -33.144   6.368   3.476  1.00 20.00     0.125 C 
BRANCH   3   4
HETATM    4  C8  UNL     1     -34.357   6.545   4.392  1.00 20.00     0.125 C 
HETATM    5  C6  UNL     1     -33.932   6.970   5.791  1.00 20.00     0.040 C 
BRANCH   4   6
HETATM    6  O9  UNL     1     -35.046   5.299   4.487  1.00 20.00    -0.395 OA
HETATM    7  H21 UNL     1     -35.990   5.510   4.543  1.00 20.00     0.210 HD
ENDBRANCH   4   6
ENDBRANCH   3   4
ENDBRANCH   2   3
BRANCH   1   8
HETATM    8  C4  UNL     1     -32.735   9.543   0.913  1.00 20.00    -0.018 C 
HETATM    9  C3  UNL     1     -32.398  10.744   1.404  1.00 20.00     0.028 C 
HETATM   10  C5  UNL     1     -32.965   9.324  -0.553  1.00 20.00     0.057 C 
ENDBRANCH   1   8
TORSDOF 4
ENDMDL
MODEL 6
REMARK VINA RESULT:      -5.3      2.366      5.173
REMARK  4 active torsions:
REMARK  status: ('A' for Active; 'I' for Inactive)
REMARK    1  A    between atoms: C1_1  and  C4_4 
REMARK    2  A    between atoms: C2_2  and  C7_7 
REMARK    3  A    between atoms: C7_7  and  C8_8 
REMARK    4  A    between atoms: C8_8  and  O9_9 
ROOT
HETATM    1  C1  UNL     1     -32.667   8.267   2.297  1.00 20.00    -0.072 C 
HETATM    2  C2  UNL     1     -33.103   7.572   3.174  1.00 20.00    -0.099 C 
ENDROOT
BRANCH   2   3
HETATM    3  C7  UNL     1     -33.638   6.718   4.247  1.00 20.00     0.125 C 
BRANCH   3   4
HETATM    4  C8  UNL     1     -34.200   5.409   3.688  1.00 20.00     0.125 C 
HETATM    5  C6  UNL     1     -34.551   4.439   4.809  1.00 20.00     0.040 C 
BRANCH   4   6
HETATM    6  O9  UNL     1     -33.210   4.803   2.858  1.00 20.00    -0.395 OA
HETATM    7  H21 UNL     1     -33.689   4.297   2.184  1.00 20.00     0.210 HD
ENDBRANCH   4   6
ENDBRANCH   3   4
ENDBRANCH   2   3
BRANCH   1   8
HETATM    8  C4  UNL     1     -32.150   9.097   1.257  1.00 20.00    -0.018 C 
HETATM    9  C3  UNL     1     -31.198   8.614   0.445  1.00 20.00     0.028 C 
HETATM   10  C5  UNL     1     -32.689  10.488   1.103  1.00 20.00     0.057 C 
ENDBRANCH   1   8
TORSDOF 4
ENDMDL
MODEL 7
REMARK VINA RESULT:      -4.3     10.157     10.473
REMARK  4 active torsions:
REMARK  status: ('A' for Active; 'I' for Inactive)
REMARK    1  A    between atoms: C1_1  and  C4_4 
REMARK    2  A    between atoms: C2_2  and  C7_7 
REMARK    3  A    between atoms: C7_7  and  C8_8 
REMARK    4  A    between atoms: C8_8  and  O9_9 
ROOT
HETATM    1  C1  UNL     1     -34.307  16.089  -2.923  1.00 20.00    -0.072 C 
HETATM    2  C2  UNL     1     -34.319  15.340  -3.861  1.00 20.00    -0.099 C 
ENDROOT
BRANCH   2   3
HETATM    3  C7  UNL     1     -34.336  14.421  -5.012  1.00 20.00     0.125 C 
BRANCH   3   4
HETATM    4  C8  UNL     1     -35.764  13.992  -5.358  1.00 20.00     0.125 C 
HETATM    5  C6  UNL     1     -36.788  14.839  -4.614  1.00 20.00     0.040 C 
BRANCH   4   6
HETATM    6  O9  UNL     1     -35.938  12.629  -4.973  1.00 20.00    -0.395 OA
HETATM    7  H21 UNL     1     -35.134  12.373  -4.497  1.00 20.00     0.210 HD
ENDBRANCH   4   6
ENDBRANCH   3   4
ENDBRANCH   2   3
BRANCH   1   8
HETATM    8  C4  UNL     1     -34.288  16.978  -1.806  1.00 20.00    -0.018 C 
HETATM    9  C3  UNL     1     -35.367  17.056  -1.013  1.00 20.00     0.028 C 
HETATM   10  C5  UNL     1     -33.059  17.799  -1.552  1.00 20.00     0.057 C 
ENDBRANCH   1   8
TORSDOF 4
ENDMDL
MODEL 8
REMARK VINA RESULT:      -4.3      9.969     10.467
REMARK  4 active torsions:
REMARK  status: ('A' for Active; 'I' for Inactive)
REMARK    1  A    between atoms: C1_1  and  C4_4 
REMARK    2  A    between atoms: C2_2  and  C7_7 
REMARK    3  A    between atoms: C7_7  and  C8_8 
REMARK    4  A    between atoms: C8_8  and  O9_9 
ROOT
HETATM    1  C1  UNL     1     -34.884  16.539  -2.367  1.00 20.00    -0.072 C 
HETATM    2  C2  UNL     1     -35.400  15.879  -3.227  1.00 20.00    -0.099 C 
ENDROOT
BRANCH   2   3
HETATM    3  C7  UNL     1     -36.035  15.073  -4.283  1.00 20.00     0.125 C 
BRANCH   3   4
HETATM    4  C8  UNL     1     -35.155  13.886  -4.681  1.00 20.00     0.125 C 
HETATM    5  C6  UNL     1     -34.297  14.221  -5.894  1.00 20.00     0.040 C 
BRANCH   4   6
HETATM    6  O9  UNL     1     -35.996  12.782  -5.012  1.00 20.00    -0.395 OA
HETATM    7  H21 UNL     1     -36.742  12.810  -4.393  1.00 20.00     0.210 HD
ENDBRANCH   4   6
ENDBRANCH   3   4
ENDBRANCH   2   3
BRANCH   1   8
HETATM    8  C4  UNL     1     -34.268  17.319  -1.342  1.00 20.00    -0.018 C 
HETATM    9  C3  UNL     1     -33.021  17.776  -1.526  1.00 20.00     0.028 C 
HETATM   10  C5  UNL     1     -35.038  17.606  -0.087  1.00 20.00     0.057 C 
ENDBRANCH   1   8
TORSDOF 4
ENDMDL
MODEL 9
REMARK VINA RESULT:      -4.1     10.214     10.606
REMARK  4 active torsions:
REMARK  status: ('A' for Active; 'I' for Inactive)
REMARK    1  A    between atoms: C1_1  and  C4_4 
REMARK    2  A    between atoms: C2_2  and  C7_7 
REMARK    3  A    between atoms: C7_7  and  C8_8 
REMARK    4  A    between atoms: C8_8  and  O9_9 
ROOT
HETATM    1  C1  UNL     1     -33.982  17.004  -1.852  1.00 20.00    -0.072 C 
HETATM    2  C2  UNL     1     -34.212  16.259  -2.765  1.00 20.00    -0.099 C 
ENDROOT
BRANCH   2   3
HETATM    3  C7  UNL     1     -34.492  15.345  -3.886  1.00 20.00     0.125 C 
BRANCH   3   4
HETATM    4  C8  UNL     1     -33.238  15.098  -4.727  1.00 20.00     0.125 C 
HETATM    5  C6  UNL     1     -33.267  15.919  -6.010  1.00 20.00     0.040 C 
BRANCH   4   6
HETATM    6  O9  UNL     1     -33.185  13.716  -5.076  1.00 20.00    -0.395 OA
HETATM    7  H21 UNL     1     -33.065  13.228  -4.247  1.00 20.00     0.210 HD
ENDBRANCH   4   6
ENDBRANCH   3   4
ENDBRANCH   2   3
BRANCH   1   8
HETATM    8  C4  UNL     1     -33.714  17.891  -0.766  1.00 20.00    -0.018 C 
HETATM    9  C3  UNL     1     -32.544  18.545  -0.728  1.00 20.00     0.028 C 
HETATM   10  C5  UNL     1     -34.752  18.065   0.302  1.00 20.00     0.057 C 
ENDBRANCH   1   8
TORSDOF 4
ENDMDL
