MODEL 1
REMARK VINA RESULT:      -4.9      0.000      0.000
REMARK  2 active torsions:
REMARK  status: ('A' for Active; 'I' for Inactive)
REMARK    1  A    between atoms: C3_3  and  C5_5 
REMARK    2  A    between atoms: C5_5  and  C6_6 
ROOT
HETATM    1  C1  UNL     1     -33.893   5.157   3.338  1.00 20.00     0.202 C 
HETATM    2  C2  UNL     1     -34.615   5.872   4.455  1.00 20.00     0.144 C 
HETATM    3  C3  UNL     1     -33.560   7.392   3.160  1.00 20.00     0.261 C 
HETATM    4  C4  UNL     1     -34.547   5.157   5.788  1.00 20.00     0.042 C 
HETATM    5  O7  UNL     1     -33.664   6.193   2.381  1.00 20.00    -0.359 OA
HETATM    6  O8  UNL     1     -33.932   7.126   4.520  1.00 20.00    -0.354 OA
ENDROOT
BRANCH   3   7
HETATM    7  C5  UNL     1     -32.136   7.912   3.121  1.00 20.00     0.075 C 
BRANCH   7   8
HETATM    8  C6  UNL     1     -31.722   8.459   1.759  1.00 20.00     0.119 C 
HETATM    9 CL9  UNL     1     -32.550   9.986   1.375  1.00 20.00    -0.130 Cl
ENDBRANCH   7   8
ENDBRANCH   3   7
TORSDOF 2
ENDMDL
MODEL 2
REMARK VINA RESULT:      -4.7      1.425      2.010
REMARK  2 active torsions:
REMARK  status: ('A' for Active; 'I' for Inactive)
REMARK    1  A    between atoms: C3_3  and  C5_5 
REMARK    2  A    between atoms: C5_5  and  C6_6 
ROOT
HETATM    1  C1  UNL     1     -33.402   7.389   4.766  1.00 20.00     0.202 C 
HETATM    2  C2  UNL     1     -33.723   6.265   3.810  1.00 20.00     0.144 C 
HETATM    3  C3  UNL     1     -32.242   7.666   2.838  1.00 20.00     0.261 C 
HETATM    4  C4  UNL     1     -35.179   5.850   3.815  1.00 20.00     0.042 C 
HETATM    5  O7  UNL     1     -32.181   7.920   4.248  1.00 20.00    -0.359 OA
HETATM    6  O8  UNL     1     -33.359   6.816   2.542  1.00 20.00    -0.354 OA
ENDROOT
BRANCH   3   7
HETATM    7  C5  UNL     1     -32.392   8.972   2.083  1.00 20.00     0.075 C 
BRANCH   7   8
HETATM    8  C6  UNL     1     -31.847   8.922   0.659  1.00 20.00     0.119 C 
HETATM    9 CL9  UNL     1     -33.081   9.374  -0.542  1.00 20.00    -0.130 Cl
ENDBRANCH   7   8
ENDBRANCH   3   7
TORSDOF 2
ENDMDL
MODEL 3
REMARK VINA RESULT:      -4.7      2.454      4.382
REMARK  2 active torsions:
REMARK  status: ('A' for Active; 'I' for Inactive)
REMARK    1  A    between atoms: C3_3  and  C5_5 
REMARK    2  A    between atoms: C5_5  and  C6_6 
ROOT
HETATM    1  C1  UNL     1     -31.466   8.210   3.260  1.00 20.00     0.202 C 
HETATM    2  C2  UNL     1     -32.297   8.703   2.100  1.00 20.00     0.144 C 
HETATM    3  C3  UNL     1     -33.507   7.224   3.304  1.00 20.00     0.261 C 
HETATM    4  C4  UNL     1     -31.518   8.872   0.813  1.00 20.00     0.042 C 
HETATM    5  O7  UNL     1     -32.441   7.668   4.154  1.00 20.00    -0.359 OA
HETATM    6  O8  UNL     1     -33.284   7.679   1.962  1.00 20.00    -0.354 OA
ENDROOT
BRANCH   3   7
HETATM    7  C5  UNL     1     -33.580   5.710   3.316  1.00 20.00     0.075 C 
BRANCH   7   8
HETATM    8  C6  UNL     1     -34.730   5.159   4.155  1.00 20.00     0.119 C 
HETATM    9 CL9  UNL     1     -34.525   5.522   5.884  1.00 20.00    -0.130 Cl
ENDBRANCH   7   8
ENDBRANCH   3   7
TORSDOF 2
ENDMDL
MODEL 4
REMARK VINA RESULT:      -3.7      2.622      4.127
REMARK  2 active torsions:
REMARK  status: ('A' for Active; 'I' for Inactive)
REMARK    1  A    between atoms: C3_3  and  C5_5 
REMARK    2  A    between atoms: C5_5  and  C6_6 
ROOT
HETATM    1  C1  UNL     1     -33.799   7.696   3.745  1.00 20.00     0.202 C 
HETATM    2  C2  UNL     1     -32.637   7.668   2.780  1.00 20.00     0.144 C 
HETATM    3  C3  UNL     1     -33.676   5.663   2.750  1.00 20.00     0.261 C 
HETATM    4  C4  UNL     1     -31.404   8.388   3.281  1.00 20.00     0.042 C 
HETATM    5  O7  UNL     1     -34.605   6.596   3.318  1.00 20.00    -0.359 OA
HETATM    6  O8  UNL     1     -32.381   6.269   2.637  1.00 20.00    -0.354 OA
ENDROOT
BRANCH   3   7
HETATM    7  C5  UNL     1     -33.578   4.430   3.628  1.00 20.00     0.075 C 
BRANCH   7   8
HETATM    8  C6  UNL     1     -34.743   4.280   4.603  1.00 20.00     0.119 C 
HETATM    9 CL9  UNL     1     -34.467   5.180   6.113  1.00 20.00    -0.130 Cl
ENDBRANCH   7   8
ENDBRANCH   3   7
TORSDOF 2
ENDMDL
MODEL 5
REMARK VINA RESULT:      -3.7     10.800     11.817
REMARK  2 active torsions:
REMARK  status: ('A' for Active; 'I' for Inactive)
REMARK    1  A    between atoms: C3_3  and  C5_5 
REMARK    2  A    between atoms: C5_5  and  C6_6 
ROOT
HETATM    1  C1  UNL     1     -35.605  13.514  -5.994  1.00 20.00     0.202 C 
HETATM    2  C2  UNL     1     -34.277  13.937  -6.576  1.00 20.00     0.144 C 
HETATM    3  C3  UNL     1     -34.260  14.298  -4.347  1.00 20.00     0.261 C 
HETATM    4  C4  UNL     1     -34.386  14.631  -7.917  1.00 20.00     0.042 C 
HETATM    5  O7  UNL     1     -35.320  13.367  -4.602  1.00 20.00    -0.359 OA
HETATM    6  O8  UNL     1     -33.770  14.833  -5.584  1.00 20.00    -0.354 OA
ENDROOT
BRANCH   3   7
HETATM    7  C5  UNL     1     -34.766  15.431  -3.475  1.00 20.00     0.075 C 
BRANCH   7   8
HETATM    8  C6  UNL     1     -33.747  16.549  -3.272  1.00 20.00     0.119 C 
HETATM    9 CL9  UNL     1     -33.745  17.151  -1.597  1.00 20.00    -0.130 Cl
ENDBRANCH   7   8
ENDBRANCH   3   7
TORSDOF 2
ENDMDL
MODEL 6
REMARK VINA RESULT:      -3.6      2.244      4.027
REMARK  2 active torsions:
REMARK  status: ('A' for Active; 'I' for Inactive)
REMARK    1  A    between atoms: C3_3  and  C5_5 
REMARK    2  A    between atoms: C5_5  and  C6_6 
ROOT
HETATM    1  C1  UNL     1     -31.336   8.127   3.466  1.00 20.00     0.202 C 
HETATM    2  C2  UNL     1     -32.172   8.732   2.363  1.00 20.00     0.144 C 
HETATM    3  C3  UNL     1     -33.536   7.818   3.913  1.00 20.00     0.261 C 
HETATM    4  C4  UNL     1     -31.602   8.527   0.976  1.00 20.00     0.042 C 
HETATM    5  O7  UNL     1     -32.262   8.000   4.546  1.00 20.00    -0.359 OA
HETATM    6  O8  UNL     1     -33.419   8.048   2.502  1.00 20.00    -0.354 OA
ENDROOT
BRANCH   3   7
HETATM    7  C5  UNL     1     -34.036   6.407   4.153  1.00 20.00     0.075 C 
BRANCH   7   8
HETATM    8  C6  UNL     1     -34.240   5.604   2.871  1.00 20.00     0.119 C 
HETATM    9 CL9  UNL     1     -32.824   4.598   2.484  1.00 20.00    -0.130 Cl
ENDBRANCH   7   8
ENDBRANCH   3   7
TORSDOF 2
ENDMDL
MODEL 7
REMARK VINA RESULT:      -3.5     11.034     12.090
REMARK  2 active torsions:
REMARK  status: ('A' for Active; 'I' for Inactive)
REMARK    1  A    between atoms: C3_3  and  C5_5 
REMARK    2  A    between atoms: C5_5  and  C6_6 
ROOT
HETATM    1  C1  UNL     1     -33.173  14.721  -4.454  1.00 20.00     0.202 C 
HETATM    2  C2  UNL     1     -34.027  15.963  -4.365  1.00 20.00     0.144 C 
HETATM    3  C3  UNL     1     -35.365  14.152  -4.548  1.00 20.00     0.261 C 
HETATM    4  C4  UNL     1     -33.474  17.146  -5.130  1.00 20.00     0.042 C 
HETATM    5  O7  UNL     1     -34.084  13.672  -4.119  1.00 20.00    -0.359 OA
HETATM    6  O8  UNL     1     -35.268  15.532  -4.929  1.00 20.00    -0.354 OA
ENDROOT
BRANCH   3   7
HETATM    7  C5  UNL     1     -35.853  13.338  -5.731  1.00 20.00     0.075 C 
BRANCH   7   8
HETATM    8  C6  UNL     1     -35.780  14.085  -7.060  1.00 20.00     0.119 C 
HETATM    9 CL9  UNL     1     -34.184  13.922  -7.829  1.00 20.00    -0.130 Cl
ENDBRANCH   7   8
ENDBRANCH   3   7
TORSDOF 2
ENDMDL
MODEL 8
REMARK VINA RESULT:      -3.5     11.305     12.518
REMARK  2 active torsions:
REMARK  status: ('A' for Active; 'I' for Inactive)
REMARK    1  A    between atoms: C3_3  and  C5_5 
REMARK    2  A    between atoms: C5_5  and  C6_6 
ROOT
HETATM    1  C1  UNL     1     -35.809  13.261  -5.245  1.00 20.00     0.202 C 
HETATM    2  C2  UNL     1     -36.905  14.083  -5.880  1.00 20.00     0.144 C 
HETATM    3  C3  UNL     1     -35.417  13.474  -7.467  1.00 20.00     0.261 C 
HETATM    4  C4  UNL     1     -37.367  15.250  -5.035  1.00 20.00     0.042 C 
HETATM    5  O7  UNL     1     -35.217  12.588  -6.358  1.00 20.00    -0.359 OA
HETATM    6  O8  UNL     1     -36.292  14.545  -7.087  1.00 20.00    -0.354 OA
ENDROOT
BRANCH   3   7
HETATM    7  C5  UNL     1     -34.088  14.046  -7.918  1.00 20.00     0.075 C 
BRANCH   7   8
HETATM    8  C6  UNL     1     -33.909  15.522  -7.574  1.00 20.00     0.119 C 
HETATM    9 CL9  UNL     1     -33.187  15.748  -5.964  1.00 20.00    -0.130 Cl
ENDBRANCH   7   8
ENDBRANCH   3   7
TORSDOF 2
ENDMDL
MODEL 9
REMARK VINA RESULT:      -3.5     11.157     11.982
REMARK  2 active torsions:
REMARK  status: ('A' for Active; 'I' for Inactive)
REMARK    1  A    between atoms: C3_3  and  C5_5 
REMARK    2  A    between atoms: C5_5  and  C6_6 
ROOT
HETATM    1  C1  UNL     1     -36.533  14.585  -5.759  1.00 20.00     0.202 C 
HETATM    2  C2  UNL     1     -35.727  13.415  -6.270  1.00 20.00     0.144 C 
HETATM    3  C3  UNL     1     -34.826  14.147  -4.333  1.00 20.00     0.261 C 
HETATM    4  C4  UNL     1     -35.535  13.409  -7.772  1.00 20.00     0.042 C 
HETATM    5  O7  UNL     1     -36.165  14.658  -4.380  1.00 20.00    -0.359 OA
HETATM    6  O8  UNL     1     -34.473  13.580  -5.603  1.00 20.00    -0.354 OA
ENDROOT
BRANCH   3   7
HETATM    7  C5  UNL     1     -33.858  15.265  -3.996  1.00 20.00     0.075 C 
BRANCH   7   8
HETATM    8  C6  UNL     1     -32.974  15.683  -5.168  1.00 20.00     0.119 C 
HETATM    9 CL9  UNL     1     -33.766  16.900  -6.197  1.00 20.00    -0.130 Cl
ENDBRANCH   7   8
ENDBRANCH   3   7
TORSDOF 2
ENDMDL
