MODEL 1
REMARK VINA RESULT:      -5.7      0.000      0.000
REMARK  0 active torsions:
REMARK  status: ('A' for Active; 'I' for Inactive)
ROOT
HETATM    1  C1  UNL     1     -33.175   5.071   3.008  1.00 20.00     0.047 C 
HETATM    2  C2  UNL     1     -32.484   6.115   2.537  1.00 20.00    -0.014 C 
HETATM    3  C3  UNL     1     -34.256   5.258   4.002  1.00 20.00     0.152 C 
HETATM    4  C4  UNL     1     -34.104   7.737   3.585  1.00 20.00     0.025 C 
HETATM    5  C5  UNL     1     -34.490   6.640   4.585  1.00 20.00     0.056 C 
HETATM    6  C6  UNL     1     -32.737   7.564   2.884  1.00 20.00    -0.029 C 
HETATM    7  C7  UNL     1     -33.805   6.750   5.941  1.00 20.00     0.018 C 
HETATM    8  C8  UNL     1     -31.579   8.087   3.751  1.00 20.00     0.019 C 
HETATM    9  C9  UNL     1     -32.759   8.390   1.581  1.00 20.00     0.019 C 
HETATM   10  O10 UNL     1     -34.903   4.282   4.381  1.00 20.00    -0.293 OA
ENDROOT
TORSDOF 0
ENDMDL
MODEL 2
REMARK VINA RESULT:      -4.6     11.507     12.259
REMARK  0 active torsions:
REMARK  status: ('A' for Active; 'I' for Inactive)
ROOT
HETATM    1  C1  UNL     1     -36.215  14.914  -4.134  1.00 20.00     0.047 C 
HETATM    2  C2  UNL     1     -35.649  16.032  -3.668  1.00 20.00    -0.014 C 
HETATM    3  C3  UNL     1     -35.425  13.915  -4.889  1.00 20.00     0.152 C 
HETATM    4  C4  UNL     1     -33.345  15.160  -4.205  1.00 20.00     0.025 C 
HETATM    5  C5  UNL     1     -33.984  14.234  -5.247  1.00 20.00     0.056 C 
HETATM    6  C6  UNL     1     -34.185  16.388  -3.785  1.00 20.00    -0.029 C 
HETATM    7  C7  UNL     1     -33.911  14.747  -6.679  1.00 20.00     0.018 C 
HETATM    8  C8  UNL     1     -34.023  17.556  -4.773  1.00 20.00     0.019 C 
HETATM    9  C9  UNL     1     -33.678  16.864  -2.408  1.00 20.00     0.019 C 
HETATM   10  O10 UNL     1     -35.966  12.875  -5.264  1.00 20.00    -0.293 OA
ENDROOT
TORSDOF 0
ENDMDL
MODEL 3
REMARK VINA RESULT:      -4.5     11.271     12.349
REMARK  0 active torsions:
REMARK  status: ('A' for Active; 'I' for Inactive)
ROOT
HETATM    1  C1  UNL     1     -36.965  15.858  -4.552  1.00 20.00     0.047 C 
HETATM    2  C2  UNL     1     -35.813  16.493  -4.311  1.00 20.00    -0.014 C 
HETATM    3  C3  UNL     1     -36.990  14.407  -4.846  1.00 20.00     0.152 C 
HETATM    4  C4  UNL     1     -34.570  14.305  -4.152  1.00 20.00     0.025 C 
HETATM    5  C5  UNL     1     -35.674  13.665  -5.003  1.00 20.00     0.056 C 
HETATM    6  C6  UNL     1     -34.450  15.844  -4.246  1.00 20.00    -0.029 C 
HETATM    7  C7  UNL     1     -35.334  13.527  -6.481  1.00 20.00     0.018 C 
HETATM    8  C8  UNL     1     -33.622  16.279  -5.467  1.00 20.00     0.019 C 
HETATM    9  C9  UNL     1     -33.722  16.344  -2.981  1.00 20.00     0.019 C 
HETATM   10  O10 UNL     1     -38.070  13.844  -5.017  1.00 20.00    -0.293 OA
ENDROOT
TORSDOF 0
ENDMDL
MODEL 4
REMARK VINA RESULT:      -4.5      1.225      2.355
REMARK  0 active torsions:
REMARK  status: ('A' for Active; 'I' for Inactive)
ROOT
HETATM    1  C1  UNL     1     -33.617   7.154   5.819  1.00 20.00     0.047 C 
HETATM    2  C2  UNL     1     -32.960   7.945   4.963  1.00 20.00    -0.014 C 
HETATM    3  C3  UNL     1     -34.252   5.897   5.364  1.00 20.00     0.152 C 
HETATM    4  C4  UNL     1     -33.046   6.174   3.170  1.00 20.00     0.025 C 
HETATM    5  C5  UNL     1     -34.265   5.574   3.881  1.00 20.00     0.056 C 
HETATM    6  C6  UNL     1     -32.731   7.652   3.499  1.00 20.00    -0.029 C 
HETATM    7  C7  UNL     1     -35.607   5.970   3.279  1.00 20.00     0.018 C 
HETATM    8  C8  UNL     1     -33.574   8.618   2.650  1.00 20.00     0.019 C 
HETATM    9  C9  UNL     1     -31.246   7.909   3.168  1.00 20.00     0.019 C 
HETATM   10  O10 UNL     1     -34.808   5.169   6.186  1.00 20.00    -0.293 OA
ENDROOT
TORSDOF 0
ENDMDL
MODEL 5
REMARK VINA RESULT:      -4.2     11.004     12.332
REMARK  0 active torsions:
REMARK  status: ('A' for Active; 'I' for Inactive)
ROOT
HETATM    1  C1  UNL     1     -34.419  14.104  -4.125  1.00 20.00     0.047 C 
HETATM    2  C2  UNL     1     -34.050  15.356  -3.834  1.00 20.00    -0.014 C 
HETATM    3  C3  UNL     1     -35.605  13.833  -4.968  1.00 20.00     0.152 C 
HETATM    4  C4  UNL     1     -35.671  16.289  -5.526  1.00 20.00     0.025 C 
HETATM    5  C5  UNL     1     -36.484  14.995  -5.397  1.00 20.00     0.056 C 
HETATM    6  C6  UNL     1     -34.719  16.609  -4.350  1.00 20.00    -0.029 C 
HETATM    7  C7  UNL     1     -37.691  15.095  -4.475  1.00 20.00     0.018 C 
HETATM    8  C8  UNL     1     -35.454  17.306  -3.193  1.00 20.00     0.019 C 
HETATM    9  C9  UNL     1     -33.631  17.575  -4.866  1.00 20.00     0.019 C 
HETATM   10  O10 UNL     1     -35.891  12.671  -5.255  1.00 20.00    -0.293 OA
ENDROOT
TORSDOF 0
ENDMDL
MODEL 6
REMARK VINA RESULT:      -4.0     11.977     12.639
REMARK  0 active torsions:
REMARK  status: ('A' for Active; 'I' for Inactive)
ROOT
HETATM    1  C1  UNL     1     -35.974  13.437  -5.640  1.00 20.00     0.047 C 
HETATM    2  C2  UNL     1     -34.779  13.859  -6.067  1.00 20.00    -0.014 C 
HETATM    3  C3  UNL     1     -36.979  14.391  -5.119  1.00 20.00     0.152 C 
HETATM    4  C4  UNL     1     -35.527  16.265  -5.972  1.00 20.00     0.025 C 
HETATM    5  C5  UNL     1     -36.591  15.849  -4.948  1.00 20.00     0.056 C 
HETATM    6  C6  UNL     1     -34.329  15.300  -6.133  1.00 20.00    -0.029 C 
HETATM    7  C7  UNL     1     -36.210  16.114  -3.497  1.00 20.00     0.018 C 
HETATM    8  C8  UNL     1     -33.251  15.545  -5.065  1.00 20.00     0.019 C 
HETATM    9  C9  UNL     1     -33.691  15.558  -7.514  1.00 20.00     0.019 C 
HETATM   10  O10 UNL     1     -38.086  13.977  -4.778  1.00 20.00    -0.293 OA
ENDROOT
TORSDOF 0
ENDMDL
MODEL 7
REMARK VINA RESULT:      -4.0     11.282     13.296
REMARK  0 active torsions:
REMARK  status: ('A' for Active; 'I' for Inactive)
ROOT
HETATM    1  C1  UNL     1     -34.148  14.153  -7.708  1.00 20.00     0.047 C 
HETATM    2  C2  UNL     1     -34.025  15.485  -7.691  1.00 20.00    -0.014 C 
HETATM    3  C3  UNL     1     -34.980  13.451  -6.706  1.00 20.00     0.152 C 
HETATM    4  C4  UNL     1     -35.876  15.694  -5.993  1.00 20.00     0.025 C 
HETATM    5  C5  UNL     1     -35.593  14.249  -5.568  1.00 20.00     0.056 C 
HETATM    6  C6  UNL     1     -34.730  16.419  -6.735  1.00 20.00    -0.029 C 
HETATM    7  C7  UNL     1     -34.729  14.113  -4.321  1.00 20.00     0.018 C 
HETATM    8  C8  UNL     1     -33.703  17.015  -5.757  1.00 20.00     0.019 C 
HETATM    9  C9  UNL     1     -35.343  17.584  -7.540  1.00 20.00     0.019 C 
HETATM   10  O10 UNL     1     -35.110  12.229  -6.777  1.00 20.00    -0.293 OA
ENDROOT
TORSDOF 0
ENDMDL
MODEL 8
REMARK VINA RESULT:      -4.0     12.124     13.318
REMARK  0 active torsions:
REMARK  status: ('A' for Active; 'I' for Inactive)
ROOT
HETATM    1  C1  UNL     1     -33.223  18.895  -3.879  1.00 20.00     0.047 C 
HETATM    2  C2  UNL     1     -33.696  18.160  -4.892  1.00 20.00    -0.014 C 
HETATM    3  C3  UNL     1     -33.088  18.324  -2.520  1.00 20.00     0.152 C 
HETATM    4  C4  UNL     1     -33.549  16.055  -3.512  1.00 20.00     0.025 C 
HETATM    5  C5  UNL     1     -33.619  16.926  -2.252  1.00 20.00     0.056 C 
HETATM    6  C6  UNL     1     -34.082  16.701  -4.812  1.00 20.00    -0.029 C 
HETATM    7  C7  UNL     1     -35.001  17.013  -1.618  1.00 20.00     0.018 C 
HETATM    8  C8  UNL     1     -35.609  16.573  -4.930  1.00 20.00     0.019 C 
HETATM    9  C9  UNL     1     -33.453  15.956  -6.008  1.00 20.00     0.019 C 
HETATM   10  O10 UNL     1     -32.607  19.012  -1.621  1.00 20.00    -0.293 OA
ENDROOT
TORSDOF 0
ENDMDL
MODEL 9
REMARK VINA RESULT:      -3.9     11.691     12.753
REMARK  0 active torsions:
REMARK  status: ('A' for Active; 'I' for Inactive)
ROOT
HETATM    1  C1  UNL     1     -33.280  16.273  -5.231  1.00 20.00     0.047 C 
HETATM    2  C2  UNL     1     -33.769  15.695  -6.333  1.00 20.00    -0.014 C 
HETATM    3  C3  UNL     1     -33.858  15.988  -3.898  1.00 20.00     0.152 C 
HETATM    4  C4  UNL     1     -35.168  14.113  -4.954  1.00 20.00     0.025 C 
HETATM    5  C5  UNL     1     -35.106  15.127  -3.805  1.00 20.00     0.056 C 
HETATM    6  C6  UNL     1     -34.882  14.673  -6.367  1.00 20.00    -0.029 C 
HETATM    7  C7  UNL     1     -36.336  16.016  -3.679  1.00 20.00     0.018 C 
HETATM    8  C8  UNL     1     -36.135  15.307  -6.994  1.00 20.00     0.019 C 
HETATM    9  C9  UNL     1     -34.449  13.497  -7.268  1.00 20.00     0.019 C 
HETATM   10  O10 UNL     1     -33.355  16.502  -2.899  1.00 20.00    -0.293 OA
ENDROOT
TORSDOF 0
ENDMDL
