MODEL 1
REMARK VINA RESULT:      -5.1      0.000      0.000
REMARK  1 active torsions:
REMARK  status: ('A' for Active; 'I' for Inactive)
REMARK    1  A    between atoms: C3_3  and  C6_6 
ROOT
HETATM    1  C1  UNL     1     -32.768   8.038   4.642  1.00 20.00    -0.024 C 
HETATM    2  C2  UNL     1     -32.922   7.448   3.443  1.00 20.00    -0.076 C 
HETATM    3  C4  UNL     1     -33.406   7.551   5.908  1.00 20.00     0.028 C 
HETATM    4  C5  UNL     1     -34.044   6.165   5.794  1.00 20.00     0.009 C 
HETATM    5  C6  UNL     1     -33.785   6.218   3.264  1.00 20.00     0.079 C 
HETATM    6  C7  UNL     1     -34.754   5.985   4.445  1.00 20.00    -0.004 C 
HETATM    7  C8  UNL     1     -32.274   8.008   2.208  1.00 20.00     0.044 C 
HETATM    8  C9  UNL     1     -35.464   4.633   4.371  1.00 20.00     0.011 C 
ENDROOT
BRANCH   5   9
HETATM    9  C3  UNL     1     -32.837   5.070   3.063  1.00 20.00     0.240 C 
HETATM   10  O10 UNL     1     -32.832   4.365   2.059  1.00 20.00    -0.306 OA
ENDBRANCH   5   9
TORSDOF 1
ENDMDL
MODEL 2
REMARK VINA RESULT:      -4.8      1.724      3.025
REMARK  1 active torsions:
REMARK  status: ('A' for Active; 'I' for Inactive)
REMARK    1  A    between atoms: C3_3  and  C6_6 
ROOT
HETATM    1  C1  UNL     1     -34.248   5.610   5.896  1.00 20.00    -0.024 C 
HETATM    2  C2  UNL     1     -33.930   6.826   5.415  1.00 20.00    -0.076 C 
HETATM    3  C4  UNL     1     -34.492   4.404   5.039  1.00 20.00     0.028 C 
HETATM    4  C5  UNL     1     -34.093   4.587   3.574  1.00 20.00     0.009 C 
HETATM    5  C6  UNL     1     -33.801   7.088   3.931  1.00 20.00     0.079 C 
HETATM    6  C7  UNL     1     -34.457   5.989   3.066  1.00 20.00    -0.004 C 
HETATM    7  C8  UNL     1     -33.726   7.999   6.334  1.00 20.00     0.044 C 
HETATM    8  C9  UNL     1     -34.137   6.137   1.578  1.00 20.00     0.011 C 
ENDROOT
BRANCH   5   9
HETATM    9  C3  UNL     1     -32.330   7.232   3.660  1.00 20.00     0.240 C 
HETATM   10  O10 UNL     1     -31.811   8.279   3.286  1.00 20.00    -0.306 OA
ENDBRANCH   5   9
TORSDOF 1
ENDMDL
MODEL 3
REMARK VINA RESULT:      -4.2      1.346      3.114
REMARK  1 active torsions:
REMARK  status: ('A' for Active; 'I' for Inactive)
REMARK    1  A    between atoms: C3_3  and  C6_6 
ROOT
HETATM    1  C1  UNL     1     -34.150   5.924   5.777  1.00 20.00    -0.024 C 
HETATM    2  C2  UNL     1     -33.987   5.269   4.613  1.00 20.00    -0.076 C 
HETATM    3  C4  UNL     1     -33.780   7.361   5.993  1.00 20.00     0.028 C 
HETATM    4  C5  UNL     1     -33.443   8.120   4.709  1.00 20.00     0.009 C 
HETATM    5  C6  UNL     1     -33.390   5.941   3.397  1.00 20.00     0.079 C 
HETATM    6  C7  UNL     1     -32.635   7.247   3.739  1.00 20.00    -0.004 C 
HETATM    7  C8  UNL     1     -34.354   3.818   4.477  1.00 20.00     0.044 C 
HETATM    8  C9  UNL     1     -32.225   8.036   2.496  1.00 20.00     0.011 C 
ENDROOT
BRANCH   5   9
HETATM    9  C3  UNL     1     -34.530   6.169   2.445  1.00 20.00     0.240 C 
HETATM   10  O10 UNL     1     -35.692   6.324   2.806  1.00 20.00    -0.306 OA
ENDBRANCH   5   9
TORSDOF 1
ENDMDL
MODEL 4
REMARK VINA RESULT:      -4.2     12.261     12.887
REMARK  1 active torsions:
REMARK  status: ('A' for Active; 'I' for Inactive)
REMARK    1  A    between atoms: C3_3  and  C6_6 
ROOT
HETATM    1  C1  UNL     1     -33.679  18.324  -0.009  1.00 20.00    -0.024 C 
HETATM    2  C2  UNL     1     -34.889  17.739  -0.048  1.00 20.00    -0.076 C 
HETATM    3  C4  UNL     1     -32.692  18.291  -1.137  1.00 20.00     0.028 C 
HETATM    4  C5  UNL     1     -33.264  17.762  -2.454  1.00 20.00     0.009 C 
HETATM    5  C6  UNL     1     -35.364  16.967  -1.259  1.00 20.00     0.079 C 
HETATM    6  C7  UNL     1     -34.213  16.580  -2.216  1.00 20.00    -0.004 C 
HETATM    7  C8  UNL     1     -35.818  17.789   1.133  1.00 20.00     0.044 C 
HETATM    8  C9  UNL     1     -34.713  15.999  -3.539  1.00 20.00     0.011 C 
ENDROOT
BRANCH   5   9
HETATM    9  C3  UNL     1     -36.399  17.830  -1.924  1.00 20.00     0.240 C 
HETATM   10  O10 UNL     1     -36.283  19.044  -2.057  1.00 20.00    -0.306 OA
ENDBRANCH   5   9
TORSDOF 1
ENDMDL
MODEL 5
REMARK VINA RESULT:      -4.1     12.438     13.087
REMARK  1 active torsions:
REMARK  status: ('A' for Active; 'I' for Inactive)
REMARK    1  A    between atoms: C3_3  and  C6_6 
ROOT
HETATM    1  C1  UNL     1     -35.670  17.016  -1.115  1.00 20.00    -0.024 C 
HETATM    2  C2  UNL     1     -34.518  17.109  -1.802  1.00 20.00    -0.076 C 
HETATM    3  C4  UNL     1     -35.923  17.690   0.200  1.00 20.00     0.028 C 
HETATM    4  C5  UNL     1     -34.860  18.719   0.590  1.00 20.00     0.009 C 
HETATM    5  C6  UNL     1     -33.344  17.912  -1.286  1.00 20.00     0.079 C 
HETATM    6  C7  UNL     1     -33.451  18.236   0.221  1.00 20.00    -0.004 C 
HETATM    7  C8  UNL     1     -34.324  16.382  -3.104  1.00 20.00     0.044 C 
HETATM    8  C9  UNL     1     -32.387  19.227   0.691  1.00 20.00     0.011 C 
ENDROOT
BRANCH   5   9
HETATM    9  C3  UNL     1     -33.280  19.150  -2.137  1.00 20.00     0.240 C 
HETATM   10  O10 UNL     1     -32.544  19.263  -3.112  1.00 20.00    -0.306 OA
ENDBRANCH   5   9
TORSDOF 1
ENDMDL
MODEL 6
REMARK VINA RESULT:      -4.1     11.983     12.812
REMARK  1 active torsions:
REMARK  status: ('A' for Active; 'I' for Inactive)
REMARK    1  A    between atoms: C3_3  and  C6_6 
ROOT
HETATM    1  C1  UNL     1     -33.247  15.149  -5.554  1.00 20.00    -0.024 C 
HETATM    2  C2  UNL     1     -34.278  14.890  -6.379  1.00 20.00    -0.076 C 
HETATM    3  C4  UNL     1     -33.401  15.610  -4.135  1.00 20.00     0.028 C 
HETATM    4  C5  UNL     1     -34.830  15.514  -3.597  1.00 20.00     0.009 C 
HETATM    5  C6  UNL     1     -35.715  15.058  -5.938  1.00 20.00     0.079 C 
HETATM    6  C7  UNL     1     -35.857  15.920  -4.663  1.00 20.00    -0.004 C 
HETATM    7  C8  UNL     1     -34.049  14.457  -7.800  1.00 20.00     0.044 C 
HETATM    8  C9  UNL     1     -37.276  15.907  -4.095  1.00 20.00     0.011 C 
ENDROOT
BRANCH   5   9
HETATM    9  C3  UNL     1     -36.261  13.670  -5.758  1.00 20.00     0.240 C 
HETATM   10  O10 UNL     1     -35.639  12.765  -5.211  1.00 20.00    -0.306 OA
ENDBRANCH   5   9
TORSDOF 1
ENDMDL
MODEL 7
REMARK VINA RESULT:      -4.0     11.700     12.511
REMARK  1 active torsions:
REMARK  status: ('A' for Active; 'I' for Inactive)
REMARK    1  A    between atoms: C3_3  and  C6_6 
ROOT
HETATM    1  C1  UNL     1     -34.517  15.903  -3.091  1.00 20.00    -0.024 C 
HETATM    2  C2  UNL     1     -34.265  15.135  -4.166  1.00 20.00    -0.076 C 
HETATM    3  C4  UNL     1     -35.811  16.622  -2.854  1.00 20.00     0.028 C 
HETATM    4  C5  UNL     1     -36.939  16.208  -3.802  1.00 20.00     0.009 C 
HETATM    5  C6  UNL     1     -35.289  14.937  -5.262  1.00 20.00     0.079 C 
HETATM    6  C7  UNL     1     -36.418  15.992  -5.229  1.00 20.00    -0.004 C 
HETATM    7  C8  UNL     1     -32.932  14.465  -4.352  1.00 20.00     0.044 C 
HETATM    8  C9  UNL     1     -37.561  15.665  -6.190  1.00 20.00     0.011 C 
ENDROOT
BRANCH   5   9
HETATM    9  C3  UNL     1     -35.806  13.535  -5.101  1.00 20.00     0.240 C 
HETATM   10  O10 UNL     1     -35.524  12.619  -5.866  1.00 20.00    -0.306 OA
ENDBRANCH   5   9
TORSDOF 1
ENDMDL
MODEL 8
REMARK VINA RESULT:      -4.0      1.629      3.022
REMARK  1 active torsions:
REMARK  status: ('A' for Active; 'I' for Inactive)
REMARK    1  A    between atoms: C3_3  and  C6_6 
ROOT
HETATM    1  C1  UNL     1     -34.310   4.279   4.169  1.00 20.00    -0.024 C 
HETATM    2  C2  UNL     1     -33.471   5.058   3.462  1.00 20.00    -0.076 C 
HETATM    3  C4  UNL     1     -34.930   4.678   5.475  1.00 20.00     0.028 C 
HETATM    4  C5  UNL     1     -34.749   6.156   5.827  1.00 20.00     0.009 C 
HETATM    5  C6  UNL     1     -33.063   6.432   3.943  1.00 20.00     0.079 C 
HETATM    6  C7  UNL     1     -33.349   6.655   5.445  1.00 20.00    -0.004 C 
HETATM    7  C8  UNL     1     -32.864   4.580   2.172  1.00 20.00     0.044 C 
HETATM    8  C9  UNL     1     -33.143   8.107   5.878  1.00 20.00     0.011 C 
ENDROOT
BRANCH   5   9
HETATM    9  C3  UNL     1     -33.790   7.413   3.067  1.00 20.00     0.240 C 
HETATM   10  O10 UNL     1     -33.225   8.169   2.284  1.00 20.00    -0.306 OA
ENDBRANCH   5   9
TORSDOF 1
ENDMDL
MODEL 9
REMARK VINA RESULT:      -3.9     11.410     12.860
REMARK  1 active torsions:
REMARK  status: ('A' for Active; 'I' for Inactive)
REMARK    1  A    between atoms: C3_3  and  C6_6 
ROOT
HETATM    1  C1  UNL     1     -35.680  17.052  -5.044  1.00 20.00    -0.024 C 
HETATM    2  C2  UNL     1     -36.079  15.857  -4.571  1.00 20.00    -0.076 C 
HETATM    3  C4  UNL     1     -34.257  17.396  -5.368  1.00 20.00     0.028 C 
HETATM    4  C5  UNL     1     -33.309  16.196  -5.374  1.00 20.00     0.009 C 
HETATM    5  C6  UNL     1     -35.099  14.736  -4.308  1.00 20.00     0.079 C 
HETATM    6  C7  UNL     1     -33.633  15.221  -4.233  1.00 20.00    -0.004 C 
HETATM    7  C8  UNL     1     -37.521  15.591  -4.241  1.00 20.00     0.044 C 
HETATM    8  C9  UNL     1     -32.629  14.069  -4.189  1.00 20.00     0.011 C 
ENDROOT
BRANCH   5   9
HETATM    9  C3  UNL     1     -35.315  13.728  -5.402  1.00 20.00     0.240 C 
HETATM   10  O10 UNL     1     -35.893  12.659  -5.232  1.00 20.00    -0.306 OA
ENDBRANCH   5   9
TORSDOF 1
ENDMDL
