MODEL 1
REMARK VINA RESULT:      -4.5      0.000      0.000
REMARK  0 active torsions:
REMARK  status: ('A' for Active; 'I' for Inactive)
ROOT
HETATM    1  C1  UNL     1     -35.467  13.998  -4.857  1.00 20.00     0.006 C 
HETATM    2  C2  UNL     1     -35.422  14.627  -6.256  1.00 20.00     0.006 C 
HETATM    3  C3  UNL     1     -33.169  14.800  -4.326  1.00 20.00     0.021 C 
HETATM    4  C4  UNL     1     -34.607  14.724  -3.797  1.00 20.00     0.005 C 
HETATM    5  C5  UNL     1     -34.010  15.088  -6.662  1.00 20.00    -0.005 C 
HETATM    6  C6  UNL     1     -33.253  15.769  -5.501  1.00 20.00     0.052 C 
HETATM    7  C7  UNL     1     -35.008  16.190  -3.473  1.00 20.00     0.005 C 
HETATM    8  C8  UNL     1     -34.065  15.959  -7.918  1.00 20.00     0.011 C 
HETATM    9  C9  UNL     1     -34.427  16.635  -2.118  1.00 20.00     0.027 C 
HETATM   10  C10 UNL     1     -36.516  16.456  -3.462  1.00 20.00     0.027 C 
HETATM   11  S11 UNL     1     -34.182  17.179  -4.787  1.00 20.00    -0.154 SA
ENDROOT
TORSDOF 0
ENDMDL
MODEL 2
REMARK VINA RESULT:      -4.3      1.402      2.574
REMARK  0 active torsions:
REMARK  status: ('A' for Active; 'I' for Inactive)
ROOT
HETATM    1  C1  UNL     1     -33.270  14.576  -4.407  1.00 20.00     0.006 C 
HETATM    2  C2  UNL     1     -34.700  14.030  -4.311  1.00 20.00     0.006 C 
HETATM    3  C3  UNL     1     -33.885  16.110  -6.271  1.00 20.00     0.021 C 
HETATM    4  C4  UNL     1     -33.169  16.033  -4.917  1.00 20.00     0.005 C 
HETATM    5  C5  UNL     1     -35.581  14.440  -5.506  1.00 20.00    -0.005 C 
HETATM    6  C6  UNL     1     -35.358  15.908  -5.929  1.00 20.00     0.052 C 
HETATM    7  C7  UNL     1     -33.841  17.119  -4.030  1.00 20.00     0.005 C 
HETATM    8  C8  UNL     1     -37.052  14.126  -5.228  1.00 20.00     0.011 C 
HETATM    9  C9  UNL     1     -33.286  18.518  -4.357  1.00 20.00     0.027 C 
HETATM   10  C10 UNL     1     -33.711  16.888  -2.523  1.00 20.00     0.027 C 
HETATM   11  S11 UNL     1     -35.607  17.085  -4.545  1.00 20.00    -0.154 SA
ENDROOT
TORSDOF 0
ENDMDL
MODEL 3
REMARK VINA RESULT:      -4.3      1.243      3.798
REMARK  0 active torsions:
REMARK  status: ('A' for Active; 'I' for Inactive)
ROOT
HETATM    1  C1  UNL     1     -33.101  14.967  -4.598  1.00 20.00     0.006 C 
HETATM    2  C2  UNL     1     -33.600  16.046  -3.628  1.00 20.00     0.006 C 
HETATM    3  C3  UNL     1     -35.362  13.932  -4.751  1.00 20.00     0.021 C 
HETATM    4  C4  UNL     1     -34.172  14.437  -5.578  1.00 20.00     0.005 C 
HETATM    5  C5  UNL     1     -35.006  15.750  -3.073  1.00 20.00    -0.005 C 
HETATM    6  C6  UNL     1     -35.964  15.199  -4.150  1.00 20.00     0.052 C 
HETATM    7  C7  UNL     1     -34.767  15.473  -6.572  1.00 20.00     0.005 C 
HETATM    8  C8  UNL     1     -35.573  16.975  -2.354  1.00 20.00     0.011 C 
HETATM    9  C9  UNL     1     -35.432  14.770  -7.771  1.00 20.00     0.027 C 
HETATM   10  C10 UNL     1     -33.765  16.497  -7.109  1.00 20.00     0.027 C 
HETATM   11  S11 UNL     1     -36.095  16.305  -5.607  1.00 20.00    -0.154 SA
ENDROOT
TORSDOF 0
ENDMDL
MODEL 4
REMARK VINA RESULT:      -4.3      1.466      3.752
REMARK  0 active torsions:
REMARK  status: ('A' for Active; 'I' for Inactive)
ROOT
HETATM    1  C1  UNL     1     -33.698  17.165  -5.641  1.00 20.00     0.006 C 
HETATM    2  C2  UNL     1     -34.549  17.427  -4.391  1.00 20.00     0.006 C 
HETATM    3  C3  UNL     1     -32.959  14.947  -4.779  1.00 20.00     0.021 C 
HETATM    4  C4  UNL     1     -33.532  15.671  -6.004  1.00 20.00     0.005 C 
HETATM    5  C5  UNL     1     -34.264  16.433  -3.250  1.00 20.00    -0.005 C 
HETATM    6  C6  UNL     1     -34.092  14.985  -3.757  1.00 20.00     0.052 C 
HETATM    7  C7  UNL     1     -34.834  14.903  -6.368  1.00 20.00     0.005 C 
HETATM    8  C8  UNL     1     -35.324  16.549  -2.154  1.00 20.00     0.011 C 
HETATM    9  C9  UNL     1     -34.516  13.617  -7.152  1.00 20.00     0.027 C 
HETATM   10  C10 UNL     1     -35.856  15.715  -7.167  1.00 20.00     0.027 C 
HETATM   11  S11 UNL     1     -35.529  14.406  -4.738  1.00 20.00    -0.154 SA
ENDROOT
TORSDOF 0
ENDMDL
MODEL 5
REMARK VINA RESULT:      -4.2      1.047      1.651
REMARK  0 active torsions:
REMARK  status: ('A' for Active; 'I' for Inactive)
ROOT
HETATM    1  C1  UNL     1     -34.356  14.147  -4.055  1.00 20.00     0.006 C 
HETATM    2  C2  UNL     1     -35.602  14.096  -4.949  1.00 20.00     0.006 C 
HETATM    3  C3  UNL     1     -33.262  15.836  -5.524  1.00 20.00     0.021 C 
HETATM    4  C4  UNL     1     -33.610  15.501  -4.068  1.00 20.00     0.005 C 
HETATM    5  C5  UNL     1     -35.398  14.796  -6.305  1.00 20.00    -0.005 C 
HETATM    6  C6  UNL     1     -34.613  16.119  -6.175  1.00 20.00     0.052 C 
HETATM    7  C7  UNL     1     -34.402  16.728  -3.538  1.00 20.00     0.005 C 
HETATM    8  C8  UNL     1     -36.733  14.974  -7.030  1.00 20.00     0.011 C 
HETATM    9  C9  UNL     1     -33.450  17.876  -3.153  1.00 20.00     0.027 C 
HETATM   10  C10 UNL     1     -35.314  16.437  -2.344  1.00 20.00     0.027 C 
HETATM   11  S11 UNL     1     -35.387  17.284  -4.990  1.00 20.00    -0.154 SA
ENDROOT
TORSDOF 0
ENDMDL
MODEL 6
REMARK VINA RESULT:      -4.1      1.491      3.581
REMARK  0 active torsions:
REMARK  status: ('A' for Active; 'I' for Inactive)
ROOT
HETATM    1  C1  UNL     1     -36.299  16.466  -5.106  1.00 20.00     0.006 C 
HETATM    2  C2  UNL     1     -35.724  16.612  -3.692  1.00 20.00     0.006 C 
HETATM    3  C3  UNL     1     -34.040  16.654  -6.140  1.00 20.00     0.021 C 
HETATM    4  C4  UNL     1     -35.333  15.828  -6.131  1.00 20.00     0.005 C 
HETATM    5  C5  UNL     1     -34.255  17.075  -3.685  1.00 20.00    -0.005 C 
HETATM    6  C6  UNL     1     -33.412  16.381  -4.777  1.00 20.00     0.052 C 
HETATM    7  C7  UNL     1     -34.889  14.367  -5.841  1.00 20.00     0.005 C 
HETATM    8  C8  UNL     1     -33.646  16.926  -2.290  1.00 20.00     0.011 C 
HETATM    9  C9  UNL     1     -34.347  13.691  -7.114  1.00 20.00     0.027 C 
HETATM   10  C10 UNL     1     -35.978  13.471  -5.246  1.00 20.00     0.027 C 
HETATM   11  S11 UNL     1     -33.485  14.553  -4.667  1.00 20.00    -0.154 SA
ENDROOT
TORSDOF 0
ENDMDL
MODEL 7
REMARK VINA RESULT:      -4.1      1.516      3.878
REMARK  0 active torsions:
REMARK  status: ('A' for Active; 'I' for Inactive)
ROOT
HETATM    1  C1  UNL     1     -34.486  14.881  -3.983  1.00 20.00     0.006 C 
HETATM    2  C2  UNL     1     -35.610  15.899  -3.751  1.00 20.00     0.006 C 
HETATM    3  C3  UNL     1     -35.977  13.411  -5.334  1.00 20.00     0.021 C 
HETATM    4  C4  UNL     1     -34.600  14.086  -5.305  1.00 20.00     0.005 C 
HETATM    5  C5  UNL     1     -36.997  15.367  -4.159  1.00 20.00    -0.005 C 
HETATM    6  C6  UNL     1     -36.959  14.569  -5.480  1.00 20.00     0.052 C 
HETATM    7  C7  UNL     1     -34.518  14.918  -6.615  1.00 20.00     0.005 C 
HETATM    8  C8  UNL     1     -38.025  16.499  -4.186  1.00 20.00     0.011 C 
HETATM    9  C9  UNL     1     -34.164  14.022  -7.817  1.00 20.00     0.027 C 
HETATM   10  C10 UNL     1     -33.527  16.084  -6.575  1.00 20.00     0.027 C 
HETATM   11  S11 UNL     1     -36.236  15.531  -6.863  1.00 20.00    -0.154 SA
ENDROOT
TORSDOF 0
ENDMDL
MODEL 8
REMARK VINA RESULT:      -4.0      1.503      3.565
REMARK  0 active torsions:
REMARK  status: ('A' for Active; 'I' for Inactive)
ROOT
HETATM    1  C1  UNL     1     -33.477  16.354  -5.904  1.00 20.00     0.006 C 
HETATM    2  C2  UNL     1     -33.527  17.102  -4.565  1.00 20.00     0.006 C 
HETATM    3  C3  UNL     1     -34.306  14.249  -4.860  1.00 20.00     0.021 C 
HETATM    4  C4  UNL     1     -34.507  15.209  -6.040  1.00 20.00     0.005 C 
HETATM    5  C5  UNL     1     -33.728  16.164  -3.360  1.00 20.00    -0.005 C 
HETATM    6  C6  UNL     1     -34.759  15.051  -3.644  1.00 20.00     0.052 C 
HETATM    7  C7  UNL     1     -36.005  15.622  -5.988  1.00 20.00     0.005 C 
HETATM    8  C8  UNL     1     -34.060  16.965  -2.100  1.00 20.00     0.011 C 
HETATM    9  C9  UNL     1     -36.901  14.526  -6.596  1.00 20.00     0.027 C 
HETATM   10  C10 UNL     1     -36.330  16.949  -6.678  1.00 20.00     0.027 C 
HETATM   11  S11 UNL     1     -36.379  15.714  -4.188  1.00 20.00    -0.154 SA
ENDROOT
TORSDOF 0
ENDMDL
MODEL 9
REMARK VINA RESULT:      -4.0      1.229      3.592
REMARK  0 active torsions:
REMARK  status: ('A' for Active; 'I' for Inactive)
ROOT
HETATM    1  C1  UNL     1     -34.387  14.023  -4.149  1.00 20.00     0.006 C 
HETATM    2  C2  UNL     1     -33.561  15.288  -3.882  1.00 20.00     0.006 C 
HETATM    3  C3  UNL     1     -36.515  15.317  -4.205  1.00 20.00     0.021 C 
HETATM    4  C4  UNL     1     -35.688  14.262  -4.950  1.00 20.00     0.005 C 
HETATM    5  C5  UNL     1     -34.428  16.504  -3.506  1.00 20.00    -0.005 C 
HETATM    6  C6  UNL     1     -35.709  16.603  -4.362  1.00 20.00     0.052 C 
HETATM    7  C7  UNL     1     -35.516  14.812  -6.393  1.00 20.00     0.005 C 
HETATM    8  C8  UNL     1     -33.601  17.789  -3.535  1.00 20.00     0.011 C 
HETATM    9  C9  UNL     1     -36.781  14.560  -7.235  1.00 20.00     0.027 C 
HETATM   10  C10 UNL     1     -34.312  14.253  -7.155  1.00 20.00     0.027 C 
HETATM   11  S11 UNL     1     -35.353  16.630  -6.160  1.00 20.00    -0.154 SA
ENDROOT
TORSDOF 0
ENDMDL
