MODEL 1
REMARK VINA RESULT:      -4.1      0.000      0.000
REMARK  1 active torsions:
REMARK  status: ('A' for Active; 'I' for Inactive)
REMARK    1  A    between atoms: C3_3  and  C4_4 
ROOT
HETATM    1  C1  UNL     1     -33.908   6.693   5.160  1.00 20.00     0.086 C 
HETATM    2  C2  UNL     1     -35.660   6.107   3.519  1.00 20.00     0.050 C 
HETATM    3  C4  UNL     1     -34.251   5.805   4.033  1.00 20.00     0.134 C 
HETATM    4  N5  UNL     1     -33.638   7.395   6.043  1.00 20.00    -0.195 NA
HETATM    5 CL7  UNL     1     -34.253   4.130   4.704  1.00 20.00    -0.102 Cl
ENDROOT
BRANCH   3   6
HETATM    6  C3  UNL     1     -33.188   5.862   2.927  1.00 20.00     0.155 C 
HETATM    7 CL6  UNL     1     -32.460   7.481   2.732  1.00 20.00    -0.127 Cl
ENDBRANCH   3   6
TORSDOF 1
ENDMDL
MODEL 2
REMARK VINA RESULT:      -3.9      2.264      2.686
REMARK  1 active torsions:
REMARK  status: ('A' for Active; 'I' for Inactive)
REMARK    1  A    between atoms: C3_3  and  C4_4 
ROOT
HETATM    1  C1  UNL     1     -33.357   6.421   3.540  1.00 20.00     0.086 C 
HETATM    2  C2  UNL     1     -34.121   4.140   4.104  1.00 20.00     0.050 C 
HETATM    3  C4  UNL     1     -34.359   5.639   4.289  1.00 20.00     0.134 C 
HETATM    4  N5  UNL     1     -32.566   7.034   2.954  1.00 20.00    -0.195 NA
HETATM    5 CL7  UNL     1     -35.956   6.042   3.552  1.00 20.00    -0.102 Cl
ENDROOT
BRANCH   3   6
HETATM    6  C3  UNL     1     -34.410   6.057   5.766  1.00 20.00     0.155 C 
HETATM    7 CL6  UNL     1     -33.557   7.592   6.094  1.00 20.00    -0.127 Cl
ENDBRANCH   3   6
TORSDOF 1
ENDMDL
MODEL 3
REMARK VINA RESULT:      -3.7      2.639      2.977
REMARK  1 active torsions:
REMARK  status: ('A' for Active; 'I' for Inactive)
REMARK    1  A    between atoms: C3_3  and  C4_4 
ROOT
HETATM    1  C1  UNL     1     -33.502   5.070   3.194  1.00 20.00     0.086 C 
HETATM    2  C2  UNL     1     -34.498   4.946   5.452  1.00 20.00     0.050 C 
HETATM    3  C4  UNL     1     -34.280   5.808   4.207  1.00 20.00     0.134 C 
HETATM    4  N5  UNL     1     -32.887   4.489   2.400  1.00 20.00    -0.195 NA
HETATM    5 CL7  UNL     1     -35.892   6.124   3.462  1.00 20.00    -0.102 Cl
ENDROOT
BRANCH   3   6
HETATM    6  C3  UNL     1     -33.641   7.167   4.527  1.00 20.00     0.155 C 
HETATM    7 CL6  UNL     1     -33.649   7.558   6.270  1.00 20.00    -0.127 Cl
ENDBRANCH   3   6
TORSDOF 1
ENDMDL
MODEL 4
REMARK VINA RESULT:      -3.5      2.115      2.407
REMARK  1 active torsions:
REMARK  status: ('A' for Active; 'I' for Inactive)
REMARK    1  A    between atoms: C3_3  and  C4_4 
ROOT
HETATM    1  C1  UNL     1     -34.135   4.628   4.245  1.00 20.00     0.086 C 
HETATM    2  C2  UNL     1     -33.990   6.850   5.315  1.00 20.00     0.050 C 
HETATM    3  C4  UNL     1     -34.188   6.082   4.006  1.00 20.00     0.134 C 
HETATM    4  N5  UNL     1     -34.089   3.484   4.434  1.00 20.00    -0.195 NA
HETATM    5 CL7  UNL     1     -35.853   6.427   3.407  1.00 20.00    -0.102 Cl
ENDROOT
BRANCH   3   6
HETATM    6  C3  UNL     1     -33.201   6.509   2.910  1.00 20.00     0.155 C 
HETATM    7 CL6  UNL     1     -32.092   7.811   3.426  1.00 20.00    -0.127 Cl
ENDBRANCH   3   6
TORSDOF 1
ENDMDL
MODEL 5
REMARK VINA RESULT:      -3.5      2.001      2.084
REMARK  1 active torsions:
REMARK  status: ('A' for Active; 'I' for Inactive)
REMARK    1  A    between atoms: C3_3  and  C4_4 
ROOT
HETATM    1  C1  UNL     1     -33.300   6.920   3.683  1.00 20.00     0.086 C 
HETATM    2  C2  UNL     1     -35.666   6.211   3.601  1.00 20.00     0.050 C 
HETATM    3  C4  UNL     1     -34.274   5.925   4.169  1.00 20.00     0.134 C 
HETATM    4  N5  UNL     1     -32.535   7.702   3.297  1.00 20.00    -0.195 NA
HETATM    5 CL7  UNL     1     -34.352   6.138   5.959  1.00 20.00    -0.102 Cl
ENDROOT
BRANCH   3   6
HETATM    6  C3  UNL     1     -33.800   4.491   3.891  1.00 20.00     0.155 C 
HETATM    7 CL6  UNL     1     -32.835   4.345   2.395  1.00 20.00    -0.127 Cl
ENDBRANCH   3   6
TORSDOF 1
ENDMDL
MODEL 6
REMARK VINA RESULT:      -3.4      1.531      2.394
REMARK  1 active torsions:
REMARK  status: ('A' for Active; 'I' for Inactive)
REMARK    1  A    between atoms: C3_3  and  C4_4 
ROOT
HETATM    1  C1  UNL     1     -33.747   6.911   4.912  1.00 20.00     0.086 C 
HETATM    2  C2  UNL     1     -33.047   7.395   2.593  1.00 20.00     0.050 C 
HETATM    3  C4  UNL     1     -33.786   6.427   3.519  1.00 20.00     0.134 C 
HETATM    4  N5  UNL     1     -33.713   7.290   6.008  1.00 20.00    -0.195 NA
HETATM    5 CL7  UNL     1     -35.526   6.424   3.043  1.00 20.00    -0.102 Cl
ENDROOT
BRANCH   3   6
HETATM    6  C3  UNL     1     -33.271   4.985   3.409  1.00 20.00     0.155 C 
HETATM    7 CL6  UNL     1     -34.155   3.839   4.455  1.00 20.00    -0.127 Cl
ENDBRANCH   3   6
TORSDOF 1
ENDMDL
MODEL 7
REMARK VINA RESULT:      -3.3     12.020     12.577
REMARK  1 active torsions:
REMARK  status: ('A' for Active; 'I' for Inactive)
REMARK    1  A    between atoms: C3_3  and  C4_4 
ROOT
HETATM    1  C1  UNL     1     -35.289  13.818  -4.988  1.00 20.00     0.086 C 
HETATM    2  C2  UNL     1     -34.325  15.904  -5.897  1.00 20.00     0.050 C 
HETATM    3  C4  UNL     1     -34.452  14.993  -4.675  1.00 20.00     0.134 C 
HETATM    4  N5  UNL     1     -35.950  12.897  -5.234  1.00 20.00    -0.195 NA
HETATM    5 CL7  UNL     1     -32.812  14.347  -4.293  1.00 20.00    -0.102 Cl
ENDROOT
BRANCH   3   6
HETATM    6  C3  UNL     1     -34.963  15.732  -3.430  1.00 20.00     0.155 C 
HETATM    7 CL6  UNL     1     -33.686  16.645  -2.578  1.00 20.00    -0.127 Cl
ENDBRANCH   3   6
TORSDOF 1
ENDMDL
MODEL 8
REMARK VINA RESULT:      -3.3      2.093      2.190
REMARK  1 active torsions:
REMARK  status: ('A' for Active; 'I' for Inactive)
REMARK    1  A    between atoms: C3_3  and  C4_4 
ROOT
HETATM    1  C1  UNL     1     -34.420   5.158   4.786  1.00 20.00     0.086 C 
HETATM    2  C2  UNL     1     -35.203   6.345   2.766  1.00 20.00     0.050 C 
HETATM    3  C4  UNL     1     -33.998   5.975   3.633  1.00 20.00     0.134 C 
HETATM    4  N5  UNL     1     -34.753   4.519   5.696  1.00 20.00    -0.195 NA
HETATM    5 CL7  UNL     1     -32.910   4.923   2.650  1.00 20.00    -0.102 Cl
ENDROOT
BRANCH   3   6
HETATM    6  C3  UNL     1     -33.184   7.199   4.077  1.00 20.00     0.155 C 
HETATM    7 CL6  UNL     1     -33.363   7.572   5.815  1.00 20.00    -0.127 Cl
ENDBRANCH   3   6
TORSDOF 1
ENDMDL
MODEL 9
REMARK VINA RESULT:      -3.3     12.162     12.909
REMARK  1 active torsions:
REMARK  status: ('A' for Active; 'I' for Inactive)
REMARK    1  A    between atoms: C3_3  and  C4_4 
ROOT
HETATM    1  C1  UNL     1     -35.274  13.809  -5.011  1.00 20.00     0.086 C 
HETATM    2  C2  UNL     1     -32.992  14.481  -4.344  1.00 20.00     0.050 C 
HETATM    3  C4  UNL     1     -34.391  14.959  -4.737  1.00 20.00     0.134 C 
HETATM    4  N5  UNL     1     -35.967  12.904  -5.230  1.00 20.00    -0.195 NA
HETATM    5 CL7  UNL     1     -35.107  15.807  -3.315  1.00 20.00    -0.102 Cl
ENDROOT
BRANCH   3   6
HETATM    6  C3  UNL     1     -34.376  15.949  -5.910  1.00 20.00     0.155 C 
HETATM    7 CL6  UNL     1     -33.819  15.219  -7.443  1.00 20.00    -0.127 Cl
ENDBRANCH   3   6
TORSDOF 1
ENDMDL
