MODEL 1
REMARK VINA RESULT:      -4.6      0.000      0.000
REMARK  0 active torsions:
REMARK  status: ('A' for Active; 'I' for Inactive)
ROOT
HETATM    1  C1  UNL     1     -32.478   7.690   3.750  1.00 20.00     0.130 C 
HETATM    2  C2  UNL     1     -32.899   6.906   2.527  1.00 20.00     0.079 C 
HETATM    3  C3  UNL     1     -33.264   5.475   2.905  1.00 20.00     0.016 C 
HETATM    4  C4  UNL     1     -33.783   6.192   5.267  1.00 20.00     0.020 C 
HETATM    5  C5  UNL     1     -33.431   7.649   4.938  1.00 20.00     0.052 C 
HETATM    6  C6  UNL     1     -34.296   5.384   4.052  1.00 20.00    -0.047 C 
HETATM    7  C7  UNL     1     -32.833   8.343   6.160  1.00 20.00     0.018 C 
HETATM    8  C8  UNL     1     -35.674   5.892   3.593  1.00 20.00     0.015 C 
HETATM    9  C9  UNL     1     -34.450   3.907   4.466  1.00 20.00     0.015 C 
HETATM   10  O10 UNL     1     -31.466   8.389   3.731  1.00 20.00    -0.298 OA
ENDROOT
TORSDOF 0
ENDMDL
MODEL 2
REMARK VINA RESULT:      -4.5      2.124      3.425
REMARK  0 active torsions:
REMARK  status: ('A' for Active; 'I' for Inactive)
ROOT
HETATM    1  C1  UNL     1     -33.882   4.952   4.005  1.00 20.00     0.130 C 
HETATM    2  C2  UNL     1     -33.019   4.938   2.763  1.00 20.00     0.079 C 
HETATM    3  C3  UNL     1     -33.185   6.234   1.978  1.00 20.00     0.016 C 
HETATM    4  C4  UNL     1     -33.902   7.450   4.067  1.00 20.00     0.020 C 
HETATM    5  C5  UNL     1     -33.748   6.175   4.905  1.00 20.00     0.052 C 
HETATM    6  C6  UNL     1     -32.973   7.504   2.831  1.00 20.00    -0.047 C 
HETATM    7  C7  UNL     1     -34.771   6.151   6.038  1.00 20.00     0.018 C 
HETATM    8  C8  UNL     1     -31.499   7.642   3.255  1.00 20.00     0.015 C 
HETATM    9  C9  UNL     1     -33.340   8.739   1.986  1.00 20.00     0.015 C 
HETATM   10  O10 UNL     1     -34.575   3.980   4.301  1.00 20.00    -0.298 OA
ENDROOT
TORSDOF 0
ENDMDL
MODEL 3
REMARK VINA RESULT:      -4.5     11.546     12.881
REMARK  0 active torsions:
REMARK  status: ('A' for Active; 'I' for Inactive)
ROOT
HETATM    1  C1  UNL     1     -35.216  13.953  -4.622  1.00 20.00     0.130 C 
HETATM    2  C2  UNL     1     -33.744  14.080  -4.303  1.00 20.00     0.079 C 
HETATM    3  C3  UNL     1     -33.219  15.447  -4.726  1.00 20.00     0.016 C 
HETATM    4  C4  UNL     1     -35.535  16.430  -4.555  1.00 20.00     0.020 C 
HETATM    5  C5  UNL     1     -36.115  15.078  -4.122  1.00 20.00     0.052 C 
HETATM    6  C6  UNL     1     -34.049  16.626  -4.171  1.00 20.00    -0.047 C 
HETATM    7  C7  UNL     1     -37.545  14.921  -4.631  1.00 20.00     0.018 C 
HETATM    8  C8  UNL     1     -33.885  16.744  -2.645  1.00 20.00     0.015 C 
HETATM    9  C9  UNL     1     -33.540  17.935  -4.804  1.00 20.00     0.015 C 
HETATM   10  O10 UNL     1     -35.657  12.944  -5.172  1.00 20.00    -0.298 OA
ENDROOT
TORSDOF 0
ENDMDL
MODEL 4
REMARK VINA RESULT:      -4.4      1.879      3.787
REMARK  0 active torsions:
REMARK  status: ('A' for Active; 'I' for Inactive)
ROOT
HETATM    1  C1  UNL     1     -34.229   5.745   5.274  1.00 20.00     0.130 C 
HETATM    2  C2  UNL     1     -34.126   7.219   5.597  1.00 20.00     0.079 C 
HETATM    3  C3  UNL     1     -32.879   7.822   4.961  1.00 20.00     0.016 C 
HETATM    4  C4  UNL     1     -32.855   6.013   3.205  1.00 20.00     0.020 C 
HETATM    5  C5  UNL     1     -34.111   5.367   3.803  1.00 20.00     0.052 C 
HETATM    6  C6  UNL     1     -32.759   7.538   3.448  1.00 20.00    -0.047 C 
HETATM    7  C7  UNL     1     -34.075   3.853   3.614  1.00 20.00     0.018 C 
HETATM    8  C8  UNL     1     -33.846   8.291   2.659  1.00 20.00     0.015 C 
HETATM    9  C9  UNL     1     -31.386   8.035   2.955  1.00 20.00     0.015 C 
HETATM   10  O10 UNL     1     -34.488   4.924   6.153  1.00 20.00    -0.298 OA
ENDROOT
TORSDOF 0
ENDMDL
MODEL 5
REMARK VINA RESULT:      -4.2     11.580     12.678
REMARK  0 active torsions:
REMARK  status: ('A' for Active; 'I' for Inactive)
ROOT
HETATM    1  C1  UNL     1     -36.107  17.027  -2.621  1.00 20.00     0.130 C 
HETATM    2  C2  UNL     1     -36.609  16.299  -3.847  1.00 20.00     0.079 C 
HETATM    3  C3  UNL     1     -35.522  16.229  -4.914  1.00 20.00     0.016 C 
HETATM    4  C4  UNL     1     -33.730  16.468  -3.155  1.00 20.00     0.020 C 
HETATM    5  C5  UNL     1     -34.783  16.541  -2.042  1.00 20.00     0.052 C 
HETATM    6  C6  UNL     1     -34.183  15.659  -4.394  1.00 20.00    -0.047 C 
HETATM    7  C7  UNL     1     -34.302  17.442  -0.908  1.00 20.00     0.018 C 
HETATM    8  C8  UNL     1     -34.316  14.163  -4.057  1.00 20.00     0.015 C 
HETATM    9  C9  UNL     1     -33.119  15.803  -5.499  1.00 20.00     0.015 C 
HETATM   10  O10 UNL     1     -36.789  17.897  -2.082  1.00 20.00    -0.298 OA
ENDROOT
TORSDOF 0
ENDMDL
MODEL 6
REMARK VINA RESULT:      -4.2     11.831     12.480
REMARK  0 active torsions:
REMARK  status: ('A' for Active; 'I' for Inactive)
ROOT
HETATM    1  C1  UNL     1     -33.744  18.404   0.264  1.00 20.00     0.130 C 
HETATM    2  C2  UNL     1     -32.865  18.605  -0.950  1.00 20.00     0.079 C 
HETATM    3  C3  UNL     1     -33.039  17.456  -1.937  1.00 20.00     0.016 C 
HETATM    4  C4  UNL     1     -35.338  16.970  -1.020  1.00 20.00     0.020 C 
HETATM    5  C5  UNL     1     -35.215  18.117  -0.009  1.00 20.00     0.052 C 
HETATM    6  C6  UNL     1     -34.513  17.183  -2.312  1.00 20.00    -0.047 C 
HETATM    7  C7  UNL     1     -35.969  17.781   1.275  1.00 20.00     0.018 C 
HETATM    8  C8  UNL     1     -35.090  18.338  -3.150  1.00 20.00     0.015 C 
HETATM    9  C9  UNL     1     -34.580  15.901  -3.163  1.00 20.00     0.015 C 
HETATM   10  O10 UNL     1     -33.296  18.560   1.399  1.00 20.00    -0.298 OA
ENDROOT
TORSDOF 0
ENDMDL
MODEL 7
REMARK VINA RESULT:      -4.1     12.031     13.124
REMARK  0 active torsions:
REMARK  status: ('A' for Active; 'I' for Inactive)
ROOT
HETATM    1  C1  UNL     1     -36.962  14.270  -4.887  1.00 20.00     0.130 C 
HETATM    2  C2  UNL     1     -35.915  13.280  -5.345  1.00 20.00     0.079 C 
HETATM    3  C3  UNL     1     -34.867  13.968  -6.212  1.00 20.00     0.016 C 
HETATM    4  C4  UNL     1     -35.380  16.189  -5.132  1.00 20.00     0.020 C 
HETATM    5  C5  UNL     1     -36.443  15.545  -4.233  1.00 20.00     0.052 C 
HETATM    6  C6  UNL     1     -34.249  15.221  -5.554  1.00 20.00    -0.047 C 
HETATM    7  C7  UNL     1     -37.575  16.531  -3.953  1.00 20.00     0.018 C 
HETATM    8  C8  UNL     1     -33.376  14.834  -4.346  1.00 20.00     0.015 C 
HETATM    9  C9  UNL     1     -33.346  15.929  -6.582  1.00 20.00     0.015 C 
HETATM   10  O10 UNL     1     -38.160  14.000  -4.961  1.00 20.00    -0.298 OA
ENDROOT
TORSDOF 0
ENDMDL
MODEL 8
REMARK VINA RESULT:      -4.0     12.303     13.655
REMARK  0 active torsions:
REMARK  status: ('A' for Active; 'I' for Inactive)
ROOT
HETATM    1  C1  UNL     1     -35.773  13.948  -5.357  1.00 20.00     0.130 C 
HETATM    2  C2  UNL     1     -36.345  14.911  -4.341  1.00 20.00     0.079 C 
HETATM    3  C3  UNL     1     -35.310  15.961  -3.954  1.00 20.00     0.016 C 
HETATM    4  C4  UNL     1     -34.107  15.635  -6.146  1.00 20.00     0.020 C 
HETATM    5  C5  UNL     1     -35.122  14.573  -6.586  1.00 20.00     0.052 C 
HETATM    6  C6  UNL     1     -34.683  16.685  -5.166  1.00 20.00    -0.047 C 
HETATM    7  C7  UNL     1     -34.449  13.519  -7.461  1.00 20.00     0.018 C 
HETATM    8  C8  UNL     1     -35.719  17.583  -5.868  1.00 20.00     0.015 C 
HETATM    9  C9  UNL     1     -33.535  17.585  -4.669  1.00 20.00     0.015 C 
HETATM   10  O10 UNL     1     -35.920  12.734  -5.227  1.00 20.00    -0.298 OA
ENDROOT
TORSDOF 0
ENDMDL
MODEL 9
REMARK VINA RESULT:      -4.0      1.513      2.625
REMARK  0 active torsions:
REMARK  status: ('A' for Active; 'I' for Inactive)
ROOT
HETATM    1  C1  UNL     1     -33.602   7.136   5.377  1.00 20.00     0.130 C 
HETATM    2  C2  UNL     1     -34.449   5.891   5.241  1.00 20.00     0.079 C 
HETATM    3  C3  UNL     1     -35.041   5.793   3.840  1.00 20.00     0.016 C 
HETATM    4  C4  UNL     1     -33.182   7.224   2.915  1.00 20.00     0.020 C 
HETATM    5  C5  UNL     1     -32.542   7.351   4.303  1.00 20.00     0.052 C 
HETATM    6  C6  UNL     1     -33.990   5.919   2.716  1.00 20.00    -0.047 C 
HETATM    7  C7  UNL     1     -31.857   8.707   4.454  1.00 20.00     0.018 C 
HETATM    8  C8  UNL     1     -33.059   4.693   2.692  1.00 20.00     0.015 C 
HETATM    9  C9  UNL     1     -34.718   5.987   1.359  1.00 20.00     0.015 C 
HETATM   10  O10 UNL     1     -33.715   7.872   6.357  1.00 20.00    -0.298 OA
ENDROOT
TORSDOF 0
ENDMDL
