MODEL 1
REMARK VINA RESULT:      -5.1      0.000      0.000
REMARK  3 active torsions:
REMARK  status: ('A' for Active; 'I' for Inactive)
REMARK    1  A    between atoms: C1_1  and  C4_4 
REMARK    2  A    between atoms: C2_2  and  C7_7 
REMARK    3  A    between atoms: C7_7  and  O8_8 
ROOT
HETATM    1  C1  UNL     1     -33.191   7.541   3.329  1.00 20.00    -0.070 C 
HETATM    2  C2  UNL     1     -32.603   8.268   2.576  1.00 20.00    -0.070 C 
ENDROOT
BRANCH   2   3
HETATM    3  C7  UNL     1     -31.884   9.155   1.654  1.00 20.00     0.193 C 
HETATM    4  C6  UNL     1     -32.823  10.171   1.023  1.00 20.00     0.053 C 
BRANCH   3   5
HETATM    5  O8  UNL     1     -31.290   8.393   0.607  1.00 20.00    -0.384 OA
HETATM    6  H18 UNL     1     -31.834   7.596   0.503  1.00 20.00     0.211 HD
ENDBRANCH   3   5
ENDBRANCH   2   3
BRANCH   1   7
HETATM    7  C4  UNL     1     -33.892   6.682   4.228  1.00 20.00    -0.018 C 
HETATM    8  C3  UNL     1     -34.521   5.601   3.747  1.00 20.00     0.028 C 
HETATM    9  C5  UNL     1     -33.903   7.018   5.691  1.00 20.00     0.057 C 
ENDBRANCH   1   7
TORSDOF 3
ENDMDL
MODEL 2
REMARK VINA RESULT:      -4.9      2.081      4.492
REMARK  3 active torsions:
REMARK  status: ('A' for Active; 'I' for Inactive)
REMARK    1  A    between atoms: C1_1  and  C4_4 
REMARK    2  A    between atoms: C2_2  and  C7_7 
REMARK    3  A    between atoms: C7_7  and  O8_8 
ROOT
HETATM    1  C1  UNL     1     -32.723   8.180   2.362  1.00 20.00    -0.070 C 
HETATM    2  C2  UNL     1     -33.141   7.450   3.220  1.00 20.00    -0.070 C 
ENDROOT
BRANCH   2   3
HETATM    3  C7  UNL     1     -33.650   6.558   4.269  1.00 20.00     0.193 C 
HETATM    4  C6  UNL     1     -34.960   5.910   3.850  1.00 20.00     0.053 C 
BRANCH   3   5
HETATM    5  O8  UNL     1     -33.885   7.296   5.465  1.00 20.00    -0.384 OA
HETATM    6  H18 UNL     1     -34.128   8.195   5.192  1.00 20.00     0.211 HD
ENDBRANCH   3   5
ENDBRANCH   2   3
BRANCH   1   7
HETATM    7  C4  UNL     1     -32.233   9.047   1.341  1.00 20.00    -0.018 C 
HETATM    8  C3  UNL     1     -31.270   8.612   0.516  1.00 20.00     0.028 C 
HETATM    9  C5  UNL     1     -32.813  10.427   1.221  1.00 20.00     0.057 C 
ENDBRANCH   1   7
TORSDOF 3
ENDMDL
MODEL 3
REMARK VINA RESULT:      -4.9      2.523      4.753
REMARK  3 active torsions:
REMARK  status: ('A' for Active; 'I' for Inactive)
REMARK    1  A    between atoms: C1_1  and  C4_4 
REMARK    2  A    between atoms: C2_2  and  C7_7 
REMARK    3  A    between atoms: C7_7  and  O8_8 
ROOT
HETATM    1  C1  UNL     1     -33.147   6.984   3.285  1.00 20.00    -0.070 C 
HETATM    2  C2  UNL     1     -33.857   6.147   3.774  1.00 20.00    -0.070 C 
ENDROOT
BRANCH   2   3
HETATM    3  C7  UNL     1     -34.726   5.126   4.372  1.00 20.00     0.193 C 
HETATM    4  C6  UNL     1     -34.730   5.228   5.889  1.00 20.00     0.053 C 
BRANCH   3   5
HETATM    5  O8  UNL     1     -34.263   3.825   4.019  1.00 20.00    -0.384 OA
HETATM    6  H18 UNL     1     -33.302   3.894   3.907  1.00 20.00     0.211 HD
ENDBRANCH   3   5
ENDBRANCH   2   3
BRANCH   1   7
HETATM    7  C4  UNL     1     -32.300   7.975   2.707  1.00 20.00    -0.018 C 
HETATM    8  C3  UNL     1     -31.235   8.411   3.395  1.00 20.00     0.028 C 
HETATM    9  C5  UNL     1     -32.629   8.503   1.340  1.00 20.00     0.057 C 
ENDBRANCH   1   7
TORSDOF 3
ENDMDL
MODEL 4
REMARK VINA RESULT:      -4.1     10.137     10.451
REMARK  3 active torsions:
REMARK  status: ('A' for Active; 'I' for Inactive)
REMARK    1  A    between atoms: C1_1  and  C4_4 
REMARK    2  A    between atoms: C2_2  and  C7_7 
REMARK    3  A    between atoms: C7_7  and  O8_8 
ROOT
HETATM    1  C1  UNL     1     -34.242  16.228  -2.798  1.00 20.00    -0.070 C 
HETATM    2  C2  UNL     1     -34.264  15.497  -3.750  1.00 20.00    -0.070 C 
ENDROOT
BRANCH   2   3
HETATM    3  C7  UNL     1     -34.291  14.604  -4.915  1.00 20.00     0.193 C 
HETATM    4  C6  UNL     1     -35.534  13.728  -4.907  1.00 20.00     0.053 C 
BRANCH   3   5
HETATM    5  O8  UNL     1     -33.150  13.751  -4.902  1.00 20.00    -0.384 OA
HETATM    6  H18 UNL     1     -32.732  13.834  -5.774  1.00 20.00     0.211 HD
ENDBRANCH   3   5
ENDBRANCH   2   3
BRANCH   1   7
HETATM    7  C4  UNL     1     -34.217  17.093  -1.663  1.00 20.00    -0.018 C 
HETATM    8  C3  UNL     1     -35.287  17.151  -0.857  1.00 20.00     0.028 C 
HETATM    9  C5  UNL     1     -32.987  17.914  -1.405  1.00 20.00     0.057 C 
ENDBRANCH   1   7
TORSDOF 3
ENDMDL
MODEL 5
REMARK VINA RESULT:      -4.0     10.287     10.679
REMARK  3 active torsions:
REMARK  status: ('A' for Active; 'I' for Inactive)
REMARK    1  A    between atoms: C1_1  and  C4_4 
REMARK    2  A    between atoms: C2_2  and  C7_7 
REMARK    3  A    between atoms: C7_7  and  O8_8 
ROOT
HETATM    1  C1  UNL     1     -34.746  15.666  -3.397  1.00 20.00    -0.070 C 
HETATM    2  C2  UNL     1     -34.975  14.884  -4.280  1.00 20.00    -0.070 C 
ENDROOT
BRANCH   2   3
HETATM    3  C7  UNL     1     -35.253  13.929  -5.359  1.00 20.00     0.193 C 
HETATM    4  C6  UNL     1     -36.164  14.541  -6.412  1.00 20.00     0.053 C 
BRANCH   3   5
HETATM    5  O8  UNL     1     -35.901  12.774  -4.833  1.00 20.00    -0.384 OA
HETATM    6  H18 UNL     1     -36.854  12.947  -4.878  1.00 20.00     0.211 HD
ENDBRANCH   3   5
ENDBRANCH   2   3
BRANCH   1   7
HETATM    7  C4  UNL     1     -34.479  16.593  -2.346  1.00 20.00    -0.018 C 
HETATM    8  C3  UNL     1     -33.275  17.179  -2.276  1.00 20.00     0.028 C 
HETATM    9  C5  UNL     1     -35.560  16.886  -1.346  1.00 20.00     0.057 C 
ENDBRANCH   1   7
TORSDOF 3
ENDMDL
MODEL 6
REMARK VINA RESULT:      -4.0     10.348     10.745
REMARK  3 active torsions:
REMARK  status: ('A' for Active; 'I' for Inactive)
REMARK    1  A    between atoms: C1_1  and  C4_4 
REMARK    2  A    between atoms: C2_2  and  C7_7 
REMARK    3  A    between atoms: C7_7  and  O8_8 
ROOT
HETATM    1  C1  UNL     1     -35.200  15.719  -3.354  1.00 20.00    -0.070 C 
HETATM    2  C2  UNL     1     -35.620  14.995  -4.216  1.00 20.00    -0.070 C 
ENDROOT
BRANCH   2   3
HETATM    3  C7  UNL     1     -36.132  14.110  -5.269  1.00 20.00     0.193 C 
HETATM    4  C6  UNL     1     -37.629  14.295  -5.461  1.00 20.00     0.053 C 
BRANCH   3   5
HETATM    5  O8  UNL     1     -35.897  12.749  -4.919  1.00 20.00    -0.384 OA
HETATM    6  H18 UNL     1     -35.051  12.727  -4.446  1.00 20.00     0.211 HD
ENDBRANCH   3   5
ENDBRANCH   2   3
BRANCH   1   7
HETATM    7  C4  UNL     1     -34.705  16.582  -2.331  1.00 20.00    -0.018 C 
HETATM    8  C3  UNL     1     -35.499  16.902  -1.300  1.00 20.00     0.028 C 
HETATM    9  C5  UNL     1     -33.303  17.108  -2.443  1.00 20.00     0.057 C 
ENDBRANCH   1   7
TORSDOF 3
ENDMDL
MODEL 7
REMARK VINA RESULT:      -3.6     10.260     10.906
REMARK  3 active torsions:
REMARK  status: ('A' for Active; 'I' for Inactive)
REMARK    1  A    between atoms: C1_1  and  C4_4 
REMARK    2  A    between atoms: C2_2  and  C7_7 
REMARK    3  A    between atoms: C7_7  and  O8_8 
ROOT
HETATM    1  C1  UNL     1     -34.212  16.285  -2.885  1.00 20.00    -0.070 C 
HETATM    2  C2  UNL     1     -33.588  17.055  -2.207  1.00 20.00    -0.070 C 
ENDROOT
BRANCH   2   3
HETATM    3  C7  UNL     1     -32.823  17.997  -1.381  1.00 20.00     0.193 C 
HETATM    4  C6  UNL     1     -33.600  18.389  -0.134  1.00 20.00     0.053 C 
BRANCH   3   5
HETATM    5  O8  UNL     1     -32.548  19.183  -2.120  1.00 20.00    -0.384 OA
HETATM    6  H18 UNL     1     -32.343  18.903  -3.026  1.00 20.00     0.211 HD
ENDBRANCH   3   5
ENDBRANCH   2   3
BRANCH   1   7
HETATM    7  C4  UNL     1     -34.957  15.368  -3.685  1.00 20.00    -0.018 C 
HETATM    8  C3  UNL     1     -34.349  14.276  -4.172  1.00 20.00     0.028 C 
HETATM    9  C5  UNL     1     -36.405  15.654  -3.957  1.00 20.00     0.057 C 
ENDBRANCH   1   7
TORSDOF 3
ENDMDL
MODEL 8
REMARK VINA RESULT:      -3.5     10.575     11.279
REMARK  3 active torsions:
REMARK  status: ('A' for Active; 'I' for Inactive)
REMARK    1  A    between atoms: C1_1  and  C4_4 
REMARK    2  A    between atoms: C2_2  and  C7_7 
REMARK    3  A    between atoms: C7_7  and  O8_8 
ROOT
HETATM    1  C1  UNL     1     -34.219  18.054   0.303  1.00 20.00    -0.070 C 
HETATM    2  C2  UNL     1     -34.331  18.429   1.438  1.00 20.00    -0.070 C 
ENDROOT
BRANCH   2   3
HETATM    3  C7  UNL     1     -34.466  18.887   2.826  1.00 20.00     0.193 C 
HETATM    4  C6  UNL     1     -33.474  18.180   3.736  1.00 20.00     0.053 C 
BRANCH   3   5
HETATM    5  O8  UNL     1     -35.779  18.611   3.305  1.00 20.00    -0.384 OA
HETATM    6  H18 UNL     1     -35.915  17.656   3.204  1.00 20.00     0.211 HD
ENDBRANCH   3   5
ENDBRANCH   2   3
BRANCH   1   7
HETATM    7  C4  UNL     1     -34.092  17.611  -1.048  1.00 20.00    -0.018 C 
HETATM    8  C3  UNL     1     -32.998  17.942  -1.748  1.00 20.00     0.028 C 
HETATM    9  C5  UNL     1     -35.193  16.783  -1.646  1.00 20.00     0.057 C 
ENDBRANCH   1   7
TORSDOF 3
ENDMDL
MODEL 9
REMARK VINA RESULT:      -3.4     10.011     10.812
REMARK  3 active torsions:
REMARK  status: ('A' for Active; 'I' for Inactive)
REMARK    1  A    between atoms: C1_1  and  C4_4 
REMARK    2  A    between atoms: C2_2  and  C7_7 
REMARK    3  A    between atoms: C7_7  and  O8_8 
ROOT
HETATM    1  C1  UNL     1     -34.283  16.118  -3.019  1.00 20.00    -0.070 C 
HETATM    2  C2  UNL     1     -34.499  16.871  -2.108  1.00 20.00    -0.070 C 
ENDROOT
BRANCH   2   3
HETATM    3  C7  UNL     1     -34.761  17.792  -0.996  1.00 20.00     0.193 C 
HETATM    4  C6  UNL     1     -33.466  18.241  -0.338  1.00 20.00     0.053 C 
BRANCH   3   5
HETATM    5  O8  UNL     1     -35.558  17.148  -0.006  1.00 20.00    -0.384 OA
HETATM    6  H18 UNL     1     -34.943  16.777   0.646  1.00 20.00     0.211 HD
ENDBRANCH   3   5
ENDBRANCH   2   3
BRANCH   1   7
HETATM    7  C4  UNL     1     -34.032  15.220  -4.099  1.00 20.00    -0.018 C 
HETATM    8  C3  UNL     1     -34.729  14.078  -4.180  1.00 20.00     0.028 C 
HETATM    9  C5  UNL     1     -32.989  15.584  -5.116  1.00 20.00     0.057 C 
ENDBRANCH   1   7
TORSDOF 3
ENDMDL
