MODEL 1
REMARK VINA RESULT:      -4.9      0.000      0.000
REMARK  2 active torsions:
REMARK  status: ('A' for Active; 'I' for Inactive)
REMARK    1  A    between atoms: C6_6  and  C11_11 
REMARK    2  A    between atoms: C11_11  and  O12_12 
ROOT
HETATM    1  C1  UNL     1     -35.901  17.135  -4.357  1.00 20.00     0.005 C 
HETATM    2  C2  UNL     1     -34.510  17.611  -4.791  1.00 20.00     0.006 C 
HETATM    3  C3  UNL     1     -34.288  16.442  -2.761  1.00 20.00     0.010 C 
HETATM    4  C4  UNL     1     -35.591  15.964  -3.407  1.00 20.00    -0.007 C 
HETATM    5  C5  UNL     1     -33.572  16.596  -4.110  1.00 20.00    -0.006 C 
HETATM    6  C6  UNL     1     -35.097  14.708  -4.172  1.00 20.00     0.026 C 
HETATM    7  C7  UNL     1     -33.710  15.169  -4.742  1.00 20.00    -0.038 C 
HETATM    8  C8  UNL     1     -33.599  15.170  -6.274  1.00 20.00     0.015 C 
HETATM    9  C9  UNL     1     -32.590  14.249  -4.212  1.00 20.00     0.015 C 
ENDROOT
BRANCH   6  10
HETATM   10  C11 UNL     1     -36.104  14.128  -5.156  1.00 20.00     0.119 C 
HETATM   11  C10 UNL     1     -37.531  14.509  -4.793  1.00 20.00     0.040 C 
BRANCH  10  12
HETATM   12  O12 UNL     1     -35.986  12.709  -5.165  1.00 20.00    -0.396 OA
HETATM   13  H32 UNL     1     -36.091  12.428  -6.088  1.00 20.00     0.210 HD
ENDBRANCH  10  12
ENDBRANCH   6  10
TORSDOF 2
ENDMDL
MODEL 2
REMARK VINA RESULT:      -4.7      1.577      2.852
REMARK  2 active torsions:
REMARK  status: ('A' for Active; 'I' for Inactive)
REMARK    1  A    between atoms: C6_6  and  C11_11 
REMARK    2  A    between atoms: C11_11  and  O12_12 
ROOT
HETATM    1  C1  UNL     1     -33.328  16.787  -4.683  1.00 20.00     0.005 C 
HETATM    2  C2  UNL     1     -33.412  16.182  -6.090  1.00 20.00     0.006 C 
HETATM    3  C3  UNL     1     -33.152  14.425  -4.547  1.00 20.00     0.010 C 
HETATM    4  C4  UNL     1     -33.729  15.613  -3.772  1.00 20.00    -0.007 C 
HETATM    5  C5  UNL     1     -33.941  14.761  -5.821  1.00 20.00    -0.006 C 
HETATM    6  C6  UNL     1     -35.247  15.306  -3.849  1.00 20.00     0.026 C 
HETATM    7  C7  UNL     1     -35.424  14.781  -5.317  1.00 20.00    -0.038 C 
HETATM    8  C8  UNL     1     -36.356  15.620  -6.205  1.00 20.00     0.015 C 
HETATM    9  C9  UNL     1     -35.993  13.347  -5.299  1.00 20.00     0.015 C 
ENDROOT
BRANCH   6  10
HETATM   10  C11 UNL     1     -36.148  16.447  -3.397  1.00 20.00     0.119 C 
HETATM   11  C10 UNL     1     -35.734  16.989  -2.039  1.00 20.00     0.040 C 
BRANCH  10  12
HETATM   12  O12 UNL     1     -37.492  15.983  -3.326  1.00 20.00    -0.396 OA
HETATM   13  H32 UNL     1     -37.547  15.408  -2.546  1.00 20.00     0.210 HD
ENDBRANCH  10  12
ENDBRANCH   6  10
TORSDOF 2
ENDMDL
MODEL 3
REMARK VINA RESULT:      -4.5      1.485      2.902
REMARK  2 active torsions:
REMARK  status: ('A' for Active; 'I' for Inactive)
REMARK    1  A    between atoms: C6_6  and  C11_11 
REMARK    2  A    between atoms: C11_11  and  O12_12 
ROOT
HETATM    1  C1  UNL     1     -33.843  16.190  -6.945  1.00 20.00     0.005 C 
HETATM    2  C2  UNL     1     -33.679  17.139  -5.752  1.00 20.00     0.006 C 
HETATM    3  C3  UNL     1     -35.905  17.275  -6.500  1.00 20.00     0.010 C 
HETATM    4  C4  UNL     1     -35.359  15.927  -6.978  1.00 20.00    -0.007 C 
HETATM    5  C5  UNL     1     -35.109  17.232  -5.188  1.00 20.00    -0.006 C 
HETATM    6  C6  UNL     1     -35.816  14.998  -5.823  1.00 20.00     0.026 C 
HETATM    7  C7  UNL     1     -35.566  15.877  -4.548  1.00 20.00    -0.038 C 
HETATM    8  C8  UNL     1     -34.552  15.306  -3.545  1.00 20.00     0.015 C 
HETATM    9  C9  UNL     1     -36.890  16.078  -3.779  1.00 20.00     0.015 C 
ENDROOT
BRANCH   6  10
HETATM   10  C11 UNL     1     -35.199  13.606  -5.848  1.00 20.00     0.119 C 
HETATM   11  C10 UNL     1     -35.106  13.055  -7.263  1.00 20.00     0.040 C 
BRANCH  10  12
HETATM   12  O12 UNL     1     -35.991  12.728  -5.055  1.00 20.00    -0.396 OA
HETATM   13  H32 UNL     1     -35.373  12.181  -4.544  1.00 20.00     0.210 HD
ENDBRANCH  10  12
ENDBRANCH   6  10
TORSDOF 2
ENDMDL
MODEL 4
REMARK VINA RESULT:      -4.3      1.399      2.166
REMARK  2 active torsions:
REMARK  status: ('A' for Active; 'I' for Inactive)
REMARK    1  A    between atoms: C6_6  and  C11_11 
REMARK    2  A    between atoms: C11_11  and  O12_12 
ROOT
HETATM    1  C1  UNL     1     -34.906  15.975  -3.733  1.00 20.00     0.005 C 
HETATM    2  C2  UNL     1     -33.736  16.665  -4.446  1.00 20.00     0.006 C 
HETATM    3  C3  UNL     1     -33.428  14.338  -4.606  1.00 20.00     0.010 C 
HETATM    4  C4  UNL     1     -34.921  14.571  -4.363  1.00 20.00    -0.007 C 
HETATM    5  C5  UNL     1     -33.280  15.603  -5.464  1.00 20.00    -0.006 C 
HETATM    6  C6  UNL     1     -35.457  14.589  -5.818  1.00 20.00     0.026 C 
HETATM    7  C7  UNL     1     -34.348  15.386  -6.589  1.00 20.00    -0.038 C 
HETATM    8  C8  UNL     1     -34.816  16.696  -7.243  1.00 20.00     0.015 C 
HETATM    9  C9  UNL     1     -33.756  14.511  -7.715  1.00 20.00     0.015 C 
ENDROOT
BRANCH   6  10
HETATM   10  C11 UNL     1     -36.895  15.072  -5.958  1.00 20.00     0.119 C 
HETATM   11  C10 UNL     1     -37.769  14.577  -4.817  1.00 20.00     0.040 C 
BRANCH  10  12
HETATM   12  O12 UNL     1     -37.428  14.605  -7.193  1.00 20.00    -0.396 OA
HETATM   13  H32 UNL     1     -38.169  14.019  -6.972  1.00 20.00     0.210 HD
ENDBRANCH  10  12
ENDBRANCH   6  10
TORSDOF 2
ENDMDL
MODEL 5
REMARK VINA RESULT:      -4.3      1.595      2.809
REMARK  2 active torsions:
REMARK  status: ('A' for Active; 'I' for Inactive)
REMARK    1  A    between atoms: C6_6  and  C11_11 
REMARK    2  A    between atoms: C11_11  and  O12_12 
ROOT
HETATM    1  C1  UNL     1     -33.868  17.840  -4.157  1.00 20.00     0.005 C 
HETATM    2  C2  UNL     1     -33.719  16.902  -2.953  1.00 20.00     0.006 C 
HETATM    3  C3  UNL     1     -35.910  16.690  -3.785  1.00 20.00     0.010 C 
HETATM    4  C4  UNL     1     -35.051  17.232  -4.931  1.00 20.00    -0.007 C 
HETATM    5  C5  UNL     1     -34.775  15.816  -3.232  1.00 20.00    -0.006 C 
HETATM    6  C6  UNL     1     -34.662  15.916  -5.654  1.00 20.00     0.026 C 
HETATM    7  C7  UNL     1     -34.384  14.933  -4.465  1.00 20.00    -0.038 C 
HETATM    8  C8  UNL     1     -32.951  14.383  -4.388  1.00 20.00     0.015 C 
HETATM    9  C9  UNL     1     -35.327  13.713  -4.558  1.00 20.00     0.015 C 
ENDROOT
BRANCH   6  10
HETATM   10  C11 UNL     1     -33.572  16.071  -6.707  1.00 20.00     0.119 C 
HETATM   11  C10 UNL     1     -33.864  17.223  -7.656  1.00 20.00     0.040 C 
BRANCH  10  12
HETATM   12  O12 UNL     1     -33.468  14.863  -7.454  1.00 20.00    -0.396 OA
HETATM   13  H32 UNL     1     -34.205  14.298  -7.172  1.00 20.00     0.210 HD
ENDBRANCH  10  12
ENDBRANCH   6  10
TORSDOF 2
ENDMDL
MODEL 6
REMARK VINA RESULT:      -4.2      2.157      3.711
REMARK  2 active torsions:
REMARK  status: ('A' for Active; 'I' for Inactive)
REMARK    1  A    between atoms: C6_6  and  C11_11 
REMARK    2  A    between atoms: C11_11  and  O12_12 
ROOT
HETATM    1  C1  UNL     1     -36.816  14.981  -6.610  1.00 20.00     0.005 C 
HETATM    2  C2  UNL     1     -36.963  14.214  -5.290  1.00 20.00     0.006 C 
HETATM    3  C3  UNL     1     -35.179  13.267  -6.497  1.00 20.00     0.010 C 
HETATM    4  C4  UNL     1     -35.361  14.693  -7.022  1.00 20.00    -0.007 C 
HETATM    5  C5  UNL     1     -35.546  13.656  -5.058  1.00 20.00    -0.006 C 
HETATM    6  C6  UNL     1     -34.342  15.463  -6.142  1.00 20.00     0.026 C 
HETATM    7  C7  UNL     1     -34.522  14.796  -4.734  1.00 20.00    -0.038 C 
HETATM    8  C8  UNL     1     -34.996  15.739  -3.617  1.00 20.00     0.015 C 
HETATM    9  C9  UNL     1     -33.184  14.184  -4.265  1.00 20.00     0.015 C 
ENDROOT
BRANCH   6  10
HETATM   10  C11 UNL     1     -34.455  16.980  -6.221  1.00 20.00     0.119 C 
HETATM   11  C10 UNL     1     -34.646  17.458  -7.652  1.00 20.00     0.040 C 
BRANCH  10  12
HETATM   12  O12 UNL     1     -33.274  17.566  -5.685  1.00 20.00    -0.396 OA
HETATM   13  H32 UNL     1     -32.988  18.244  -6.318  1.00 20.00     0.210 HD
ENDBRANCH  10  12
ENDBRANCH   6  10
TORSDOF 2
ENDMDL
MODEL 7
REMARK VINA RESULT:      -4.2      2.140      3.759
REMARK  2 active torsions:
REMARK  status: ('A' for Active; 'I' for Inactive)
REMARK    1  A    between atoms: C6_6  and  C11_11 
REMARK    2  A    between atoms: C11_11  and  O12_12 
ROOT
HETATM    1  C1  UNL     1     -34.518  14.665  -6.196  1.00 20.00     0.005 C 
HETATM    2  C2  UNL     1     -35.140  14.011  -4.956  1.00 20.00     0.006 C 
HETATM    3  C3  UNL     1     -32.934  14.637  -4.431  1.00 20.00     0.010 C 
HETATM    4  C4  UNL     1     -33.372  15.508  -5.610  1.00 20.00    -0.007 C 
HETATM    5  C5  UNL     1     -34.334  14.632  -3.800  1.00 20.00    -0.006 C 
HETATM    6  C6  UNL     1     -33.894  16.767  -4.869  1.00 20.00     0.026 C 
HETATM    7  C7  UNL     1     -34.645  16.158  -3.634  1.00 20.00    -0.038 C 
HETATM    8  C8  UNL     1     -36.149  16.467  -3.562  1.00 20.00     0.015 C 
HETATM    9  C9  UNL     1     -34.018  16.683  -2.324  1.00 20.00     0.015 C 
ENDROOT
BRANCH   6  10
HETATM   10  C11 UNL     1     -34.663  17.746  -5.746  1.00 20.00     0.119 C 
HETATM   11  C10 UNL     1     -34.045  17.868  -7.130  1.00 20.00     0.040 C 
BRANCH  10  12
HETATM   12  O12 UNL     1     -34.671  19.026  -5.123  1.00 20.00    -0.396 OA
HETATM   13  H32 UNL     1     -35.360  18.998  -4.439  1.00 20.00     0.210 HD
ENDBRANCH  10  12
ENDBRANCH   6  10
TORSDOF 2
ENDMDL
MODEL 8
REMARK VINA RESULT:      -4.2      1.786      3.214
REMARK  2 active torsions:
REMARK  status: ('A' for Active; 'I' for Inactive)
REMARK    1  A    between atoms: C6_6  and  C11_11 
REMARK    2  A    between atoms: C11_11  and  O12_12 
ROOT
HETATM    1  C1  UNL     1     -35.920  13.751  -7.290  1.00 20.00     0.005 C 
HETATM    2  C2  UNL     1     -34.392  13.629  -7.243  1.00 20.00     0.006 C 
HETATM    3  C3  UNL     1     -34.938  15.865  -7.728  1.00 20.00     0.010 C 
HETATM    4  C4  UNL     1     -36.159  15.251  -7.041  1.00 20.00    -0.007 C 
HETATM    5  C5  UNL     1     -33.945  15.057  -6.881  1.00 20.00    -0.006 C 
HETATM    6  C6  UNL     1     -35.897  15.647  -5.564  1.00 20.00     0.026 C 
HETATM    7  C7  UNL     1     -34.350  15.436  -5.416  1.00 20.00    -0.038 C 
HETATM    8  C8  UNL     1     -33.929  14.384  -4.378  1.00 20.00     0.015 C 
HETATM    9  C9  UNL     1     -33.673  16.762  -5.008  1.00 20.00     0.015 C 
ENDROOT
BRANCH   6  10
HETATM   10  C11 UNL     1     -36.802  14.956  -4.552  1.00 20.00     0.119 C 
HETATM   11  C10 UNL     1     -38.182  14.679  -5.127  1.00 20.00     0.040 C 
BRANCH  10  12
HETATM   12  O12 UNL     1     -36.931  15.782  -3.400  1.00 20.00    -0.396 OA
HETATM   13  H32 UNL     1     -36.435  16.595  -3.584  1.00 20.00     0.210 HD
ENDBRANCH  10  12
ENDBRANCH   6  10
TORSDOF 2
ENDMDL
MODEL 9
REMARK VINA RESULT:      -4.2      1.603      3.015
REMARK  2 active torsions:
REMARK  status: ('A' for Active; 'I' for Inactive)
REMARK    1  A    between atoms: C6_6  and  C11_11 
REMARK    2  A    between atoms: C11_11  and  O12_12 
ROOT
HETATM    1  C1  UNL     1     -34.192  14.202  -5.260  1.00 20.00     0.005 C 
HETATM    2  C2  UNL     1     -33.087  14.902  -4.459  1.00 20.00     0.006 C 
HETATM    3  C3  UNL     1     -33.812  16.369  -6.148  1.00 20.00     0.010 C 
HETATM    4  C4  UNL     1     -34.950  15.375  -5.907  1.00 20.00    -0.007 C 
HETATM    5  C5  UNL     1     -33.402  16.394  -4.669  1.00 20.00    -0.006 C 
HETATM    6  C6  UNL     1     -35.809  16.155  -4.877  1.00 20.00     0.026 C 
HETATM    7  C7  UNL     1     -34.729  16.811  -3.948  1.00 20.00    -0.038 C 
HETATM    8  C8  UNL     1     -34.781  16.379  -2.475  1.00 20.00     0.015 C 
HETATM    9  C9  UNL     1     -34.879  18.348  -3.970  1.00 20.00     0.015 C 
ENDROOT
BRANCH   6  10
HETATM   10  C11 UNL     1     -36.903  15.330  -4.210  1.00 20.00     0.119 C 
HETATM   11  C10 UNL     1     -37.642  14.458  -5.213  1.00 20.00     0.040 C 
BRANCH  10  12
HETATM   12  O12 UNL     1     -37.830  16.207  -3.578  1.00 20.00    -0.396 OA
HETATM   13  H32 UNL     1     -38.626  16.215  -4.133  1.00 20.00     0.210 HD
ENDBRANCH  10  12
ENDBRANCH   6  10
TORSDOF 2
ENDMDL
