MODEL 1
REMARK VINA RESULT:      -4.6      0.000      0.000
REMARK  2 active torsions:
REMARK  status: ('A' for Active; 'I' for Inactive)
REMARK    1  A    between atoms: C3_3  and  S9_9 
REMARK    2  A    between atoms: C6_6  and  S9_9 
ROOT
HETATM    1  C1  UNL     1     -32.556  10.344   0.726  1.00 20.00     0.013 C 
HETATM    2  C2  UNL     1     -32.408   9.292   1.285  1.00 20.00    -0.107 C 
HETATM    3  C6  UNL     1     -32.227   8.004   1.958  1.00 20.00     0.174 C 
ENDROOT
BRANCH   3   4
HETATM    4  S9  UNL     1     -31.954   8.200   3.735  1.00 20.00    -0.092 SA
BRANCH   4   5
HETATM    5  C3  UNL     1     -33.172   7.122   4.332  1.00 20.00     0.125 C 
HETATM    6  N7  UNL     1     -33.516   7.076   5.576  1.00 20.00    -0.275 NA
HETATM    7  C4  UNL     1     -34.617   6.100   5.731  1.00 20.00     0.161 C 
HETATM    8  C5  UNL     1     -34.563   5.071   4.612  1.00 20.00     0.103 C 
HETATM    9  S8  UNL     1     -33.946   6.032   3.218  1.00 20.00    -0.102 SA
ENDBRANCH   4   5
ENDBRANCH   3   4
TORSDOF 2
ENDMDL
MODEL 2
REMARK VINA RESULT:      -3.6     11.199     12.132
REMARK  2 active torsions:
REMARK  status: ('A' for Active; 'I' for Inactive)
REMARK    1  A    between atoms: C3_3  and  S9_9 
REMARK    2  A    between atoms: C6_6  and  S9_9 
ROOT
HETATM    1  C1  UNL     1     -35.136  17.160  -0.963  1.00 20.00     0.013 C 
HETATM    2  C2  UNL     1     -35.192  16.633  -2.042  1.00 20.00    -0.107 C 
HETATM    3  C6  UNL     1     -35.270  15.994  -3.357  1.00 20.00     0.174 C 
ENDROOT
BRANCH   3   4
HETATM    4  S9  UNL     1     -33.643  15.485  -3.960  1.00 20.00    -0.092 SA
BRANCH   4   5
HETATM    5  C3  UNL     1     -34.104  14.803  -5.485  1.00 20.00     0.125 C 
HETATM    6  N7  UNL     1     -34.595  13.615  -5.600  1.00 20.00    -0.275 NA
HETATM    7  C4  UNL     1     -34.935  13.373  -7.019  1.00 20.00     0.161 C 
HETATM    8  C5  UNL     1     -34.080  14.253  -7.917  1.00 20.00     0.103 C 
HETATM    9  S8  UNL     1     -33.871  15.746  -6.929  1.00 20.00    -0.102 SA
ENDBRANCH   4   5
ENDBRANCH   3   4
TORSDOF 2
ENDMDL
MODEL 3
REMARK VINA RESULT:      -3.5     11.186     11.467
REMARK  2 active torsions:
REMARK  status: ('A' for Active; 'I' for Inactive)
REMARK    1  A    between atoms: C3_3  and  S9_9 
REMARK    2  A    between atoms: C6_6  and  S9_9 
ROOT
HETATM    1  C1  UNL     1     -32.753  18.238  -0.915  1.00 20.00     0.013 C 
HETATM    2  C2  UNL     1     -33.492  17.521  -1.534  1.00 20.00    -0.107 C 
HETATM    3  C6  UNL     1     -34.399  16.648  -2.283  1.00 20.00     0.174 C 
ENDROOT
BRANCH   3   4
HETATM    4  S9  UNL     1     -33.654  16.054  -3.819  1.00 20.00    -0.092 SA
BRANCH   4   5
HETATM    5  C3  UNL     1     -34.943  15.045  -4.390  1.00 20.00     0.125 C 
HETATM    6  N7  UNL     1     -34.738  13.906  -4.961  1.00 20.00    -0.275 NA
HETATM    7  C4  UNL     1     -36.044  13.282  -5.266  1.00 20.00     0.161 C 
HETATM    8  C5  UNL     1     -37.114  14.354  -5.403  1.00 20.00     0.103 C 
HETATM    9  S8  UNL     1     -36.582  15.601  -4.215  1.00 20.00    -0.102 SA
ENDBRANCH   4   5
ENDBRANCH   3   4
TORSDOF 2
ENDMDL
MODEL 4
REMARK VINA RESULT:      -3.3     11.407     12.082
REMARK  2 active torsions:
REMARK  status: ('A' for Active; 'I' for Inactive)
REMARK    1  A    between atoms: C3_3  and  S9_9 
REMARK    2  A    between atoms: C6_6  and  S9_9 
ROOT
HETATM    1  C1  UNL     1     -35.142  17.013  -1.207  1.00 20.00     0.013 C 
HETATM    2  C2  UNL     1     -34.480  16.658  -2.144  1.00 20.00    -0.107 C 
HETATM    3  C6  UNL     1     -33.669  16.219  -3.281  1.00 20.00     0.174 C 
ENDROOT
BRANCH   3   4
HETATM    4  S9  UNL     1     -34.315  16.834  -4.853  1.00 20.00    -0.092 SA
BRANCH   4   5
HETATM    5  C3  UNL     1     -34.570  15.326  -5.668  1.00 20.00     0.125 C 
HETATM    6  N7  UNL     1     -34.054  15.058  -6.820  1.00 20.00    -0.275 NA
HETATM    7  C4  UNL     1     -34.418  13.674  -7.196  1.00 20.00     0.161 C 
HETATM    8  C5  UNL     1     -35.702  13.263  -6.493  1.00 20.00     0.103 C 
HETATM    9  S8  UNL     1     -35.588  14.131  -4.918  1.00 20.00    -0.102 SA
ENDBRANCH   4   5
ENDBRANCH   3   4
TORSDOF 2
ENDMDL
MODEL 5
REMARK VINA RESULT:      -3.3     11.078     12.107
REMARK  2 active torsions:
REMARK  status: ('A' for Active; 'I' for Inactive)
REMARK    1  A    between atoms: C3_3  and  S9_9 
REMARK    2  A    between atoms: C6_6  and  S9_9 
ROOT
HETATM    1  C1  UNL     1     -35.134  16.721  -1.679  1.00 20.00     0.013 C 
HETATM    2  C2  UNL     1     -34.730  16.307  -2.731  1.00 20.00    -0.107 C 
HETATM    3  C6  UNL     1     -34.230  15.810  -4.015  1.00 20.00     0.174 C 
ENDROOT
BRANCH   3   4
HETATM    4  S9  UNL     1     -34.920  14.191  -4.430  1.00 20.00    -0.092 SA
BRANCH   4   5
HETATM    5  C3  UNL     1     -36.474  14.684  -5.017  1.00 20.00     0.125 C 
HETATM    6  N7  UNL     1     -37.560  14.041  -4.746  1.00 20.00    -0.275 NA
HETATM    7  C4  UNL     1     -38.704  14.760  -5.348  1.00 20.00     0.161 C 
HETATM    8  C5  UNL     1     -38.234  15.585  -6.536  1.00 20.00     0.103 C 
HETATM    9  S8  UNL     1     -36.576  16.086  -6.041  1.00 20.00    -0.102 SA
ENDBRANCH   4   5
ENDBRANCH   3   4
TORSDOF 2
ENDMDL
MODEL 6
REMARK VINA RESULT:      -3.3     11.252     12.002
REMARK  2 active torsions:
REMARK  status: ('A' for Active; 'I' for Inactive)
REMARK    1  A    between atoms: C3_3  and  S9_9 
REMARK    2  A    between atoms: C6_6  and  S9_9 
ROOT
HETATM    1  C1  UNL     1     -35.587  17.606   0.461  1.00 20.00     0.013 C 
HETATM    2  C2  UNL     1     -35.423  17.163  -0.643  1.00 20.00    -0.107 C 
HETATM    3  C6  UNL     1     -35.232  16.618  -1.989  1.00 20.00     0.174 C 
ENDROOT
BRANCH   3   4
HETATM    4  S9  UNL     1     -33.647  17.116  -2.703  1.00 20.00    -0.092 SA
BRANCH   4   5
HETATM    5  C3  UNL     1     -33.706  16.218  -4.184  1.00 20.00     0.125 C 
HETATM    6  N7  UNL     1     -33.328  16.711  -5.316  1.00 20.00    -0.275 NA
HETATM    7  C4  UNL     1     -33.449  15.667  -6.357  1.00 20.00     0.161 C 
HETATM    8  C5  UNL     1     -34.498  14.644  -5.949  1.00 20.00     0.103 C 
HETATM    9  S8  UNL     1     -34.327  14.594  -4.155  1.00 20.00    -0.102 SA
ENDBRANCH   4   5
ENDBRANCH   3   4
TORSDOF 2
ENDMDL
MODEL 7
REMARK VINA RESULT:      -3.3      1.901      4.982
REMARK  2 active torsions:
REMARK  status: ('A' for Active; 'I' for Inactive)
REMARK    1  A    between atoms: C3_3  and  S9_9 
REMARK    2  A    between atoms: C6_6  and  S9_9 
ROOT
HETATM    1  C1  UNL     1     -34.695   5.112   5.402  1.00 20.00     0.013 C 
HETATM    2  C2  UNL     1     -34.326   6.082   4.797  1.00 20.00    -0.107 C 
HETATM    3  C6  UNL     1     -33.882   7.270   4.065  1.00 20.00     0.174 C 
ENDROOT
BRANCH   3   4
HETATM    4  S9  UNL     1     -32.578   6.885   2.874  1.00 20.00    -0.092 SA
BRANCH   4   5
HETATM    5  C3  UNL     1     -32.543   8.377   1.994  1.00 20.00     0.125 C 
HETATM    6  N7  UNL     1     -33.276   9.392   2.310  1.00 20.00    -0.275 NA
HETATM    7  C4  UNL     1     -32.957  10.513   1.399  1.00 20.00     0.161 C 
HETATM    8  C5  UNL     1     -32.403   9.978   0.087  1.00 20.00     0.103 C 
HETATM    9  S8  UNL     1     -31.500   8.508   0.608  1.00 20.00    -0.102 SA
ENDBRANCH   4   5
ENDBRANCH   3   4
TORSDOF 2
ENDMDL
MODEL 8
REMARK VINA RESULT:      -3.3     11.438     12.491
REMARK  2 active torsions:
REMARK  status: ('A' for Active; 'I' for Inactive)
REMARK    1  A    between atoms: C3_3  and  S9_9 
REMARK    2  A    between atoms: C6_6  and  S9_9 
ROOT
HETATM    1  C1  UNL     1     -37.942  14.477  -5.158  1.00 20.00     0.013 C 
HETATM    2  C2  UNL     1     -37.320  14.382  -6.181  1.00 20.00    -0.107 C 
HETATM    3  C6  UNL     1     -36.568  14.273  -7.433  1.00 20.00     0.174 C 
ENDROOT
BRANCH   3   4
HETATM    4  S9  UNL     1     -35.062  13.292  -7.235  1.00 20.00    -0.092 SA
BRANCH   4   5
HETATM    5  C3  UNL     1     -34.200  14.311  -6.130  1.00 20.00     0.125 C 
HETATM    6  N7  UNL     1     -33.807  13.908  -4.968  1.00 20.00    -0.275 NA
HETATM    7  C4  UNL     1     -33.053  14.999  -4.313  1.00 20.00     0.161 C 
HETATM    8  C5  UNL     1     -33.493  16.344  -4.870  1.00 20.00     0.103 C 
HETATM    9  S8  UNL     1     -33.872  15.957  -6.589  1.00 20.00    -0.102 SA
ENDBRANCH   4   5
ENDBRANCH   3   4
TORSDOF 2
ENDMDL
MODEL 9
REMARK VINA RESULT:      -3.2     11.134     11.399
REMARK  2 active torsions:
REMARK  status: ('A' for Active; 'I' for Inactive)
REMARK    1  A    between atoms: C3_3  and  S9_9 
REMARK    2  A    between atoms: C6_6  and  S9_9 
ROOT
HETATM    1  C1  UNL     1     -34.063  18.343   0.535  1.00 20.00     0.013 C 
HETATM    2  C2  UNL     1     -34.566  17.712  -0.355  1.00 20.00    -0.107 C 
HETATM    3  C6  UNL     1     -35.187  16.943  -1.436  1.00 20.00     0.174 C 
ENDROOT
BRANCH   3   4
HETATM    4  S9  UNL     1     -34.037  16.635  -2.796  1.00 20.00    -0.092 SA
BRANCH   4   5
HETATM    5  C3  UNL     1     -35.036  15.630  -3.794  1.00 20.00     0.125 C 
HETATM    6  N7  UNL     1     -36.326  15.668  -3.754  1.00 20.00    -0.275 NA
HETATM    7  C4  UNL     1     -36.863  14.736  -4.770  1.00 20.00     0.161 C 
HETATM    8  C5  UNL     1     -35.847  13.642  -5.061  1.00 20.00     0.103 C 
HETATM    9  S8  UNL     1     -34.274  14.501  -4.875  1.00 20.00    -0.102 SA
ENDBRANCH   4   5
ENDBRANCH   3   4
TORSDOF 2
ENDMDL
