MODEL 1
REMARK VINA RESULT:      -3.4      0.000      0.000
REMARK  2 active torsions:
REMARK  status: ('A' for Active; 'I' for Inactive)
REMARK    1  A    between atoms: C3_3  and  C4_4 
REMARK    2  A    between atoms: C4_4  and  S8_8 
ROOT
HETATM    1  C1  UNL     1     -34.532  16.572  -2.300  1.00 20.00     0.109 C 
HETATM    2  C3  UNL     1     -35.104  15.850  -3.414  1.00 20.00     0.116 C 
HETATM    3  N5  UNL     1     -34.062  17.146  -1.407  1.00 20.00    -0.191 NA
HETATM    4  S7  UNL     1     -36.659  16.282  -3.846  1.00 20.00    -0.071 SA
ENDROOT
BRANCH   2   5
HETATM    5  C4  UNL     1     -34.312  14.772  -4.117  1.00 20.00     0.206 C 
HETATM    6  C2  UNL     1     -35.194  13.760  -4.716  1.00 20.00     0.080 C 
HETATM    7  N6  UNL     1     -35.891  12.959  -5.185  1.00 20.00    -0.196 NA
BRANCH   5   8
HETATM    8  S8  UNL     1     -33.249  15.553  -5.377  1.00 20.00    -0.157 SA
HETATM    9  H10 UNL     1     -33.965  15.140  -6.430  1.00 20.00     0.103 HD
ENDBRANCH   5   8
ENDBRANCH   2   5
TORSDOF 2
ENDMDL
MODEL 2
REMARK VINA RESULT:      -3.3      2.054      3.157
REMARK  2 active torsions:
REMARK  status: ('A' for Active; 'I' for Inactive)
REMARK    1  A    between atoms: C3_3  and  C4_4 
REMARK    2  A    between atoms: C4_4  and  S8_8 
ROOT
HETATM    1  C1  UNL     1     -35.762  13.836  -4.989  1.00 20.00     0.109 C 
HETATM    2  C3  UNL     1     -35.435  15.163  -4.518  1.00 20.00     0.116 C 
HETATM    3  N5  UNL     1     -36.013  12.769  -5.370  1.00 20.00    -0.191 NA
HETATM    4  S7  UNL     1     -36.710  16.065  -3.926  1.00 20.00    -0.071 SA
ENDROOT
BRANCH   2   5
HETATM    5  C4  UNL     1     -34.012  15.669  -4.578  1.00 20.00     0.206 C 
HETATM    6  C2  UNL     1     -33.046  14.588  -4.337  1.00 20.00     0.080 C 
HETATM    7  N6  UNL     1     -32.282  13.735  -4.143  1.00 20.00    -0.196 NA
BRANCH   5   8
HETATM    8  S8  UNL     1     -33.738  16.454  -6.202  1.00 20.00    -0.157 SA
HETATM    9  H10 UNL     1     -34.969  16.217  -6.674  1.00 20.00     0.103 HD
ENDBRANCH   5   8
ENDBRANCH   2   5
TORSDOF 2
ENDMDL
MODEL 3
REMARK VINA RESULT:      -3.3      0.562      4.026
REMARK  2 active torsions:
REMARK  status: ('A' for Active; 'I' for Inactive)
REMARK    1  A    between atoms: C3_3  and  C4_4 
REMARK    2  A    between atoms: C4_4  and  S8_8 
ROOT
HETATM    1  C1  UNL     1     -35.400  13.843  -4.838  1.00 20.00     0.109 C 
HETATM    2  C3  UNL     1     -34.800  15.057  -4.335  1.00 20.00     0.116 C 
HETATM    3  N5  UNL     1     -35.892  12.870  -5.238  1.00 20.00    -0.191 NA
HETATM    4  S7  UNL     1     -33.230  15.356  -4.821  1.00 20.00    -0.071 SA
ENDROOT
BRANCH   2   5
HETATM    5  C4  UNL     1     -35.578  15.975  -3.420  1.00 20.00     0.206 C 
HETATM    6  C2  UNL     1     -34.717  16.554  -2.379  1.00 20.00     0.080 C 
HETATM    7  N6  UNL     1     -34.037  17.008  -1.554  1.00 20.00    -0.196 NA
BRANCH   5   8
HETATM    8  S8  UNL     1     -36.366  17.276  -4.428  1.00 20.00    -0.157 SA
HETATM    9  H10 UNL     1     -36.046  16.739  -5.612  1.00 20.00     0.103 HD
ENDBRANCH   5   8
ENDBRANCH   2   5
TORSDOF 2
ENDMDL
MODEL 4
REMARK VINA RESULT:      -3.3      1.982      2.128
REMARK  2 active torsions:
REMARK  status: ('A' for Active; 'I' for Inactive)
REMARK    1  A    between atoms: C3_3  and  C4_4 
REMARK    2  A    between atoms: C4_4  and  S8_8 
ROOT
HETATM    1  C1  UNL     1     -36.597  16.147  -3.947  1.00 20.00     0.109 C 
HETATM    2  C3  UNL     1     -35.287  15.845  -3.416  1.00 20.00     0.116 C 
HETATM    3  N5  UNL     1     -37.649  16.380  -4.380  1.00 20.00    -0.191 NA
HETATM    4  S7  UNL     1     -34.810  16.739  -2.089  1.00 20.00    -0.071 SA
ENDROOT
BRANCH   2   5
HETATM    5  C4  UNL     1     -34.428  14.780  -4.057  1.00 20.00     0.206 C 
HETATM    6  C2  UNL     1     -35.246  13.752  -4.717  1.00 20.00     0.080 C 
HETATM    7  N6  UNL     1     -35.893  12.939  -5.234  1.00 20.00    -0.196 NA
BRANCH   5   8
HETATM    8  S8  UNL     1     -33.287  15.577  -5.236  1.00 20.00    -0.157 SA
HETATM    9  H10 UNL     1     -33.577  16.833  -4.873  1.00 20.00     0.103 HD
ENDBRANCH   5   8
ENDBRANCH   2   5
TORSDOF 2
ENDMDL
MODEL 5
REMARK VINA RESULT:      -3.2      2.708      3.716
REMARK  2 active torsions:
REMARK  status: ('A' for Active; 'I' for Inactive)
REMARK    1  A    between atoms: C3_3  and  C4_4 
REMARK    2  A    between atoms: C4_4  and  S8_8 
ROOT
HETATM    1  C1  UNL     1     -36.897  14.102  -5.385  1.00 20.00     0.109 C 
HETATM    2  C3  UNL     1     -35.539  14.236  -5.861  1.00 20.00     0.116 C 
HETATM    3  N5  UNL     1     -37.986  14.002  -4.995  1.00 20.00    -0.191 NA
HETATM    4  S7  UNL     1     -35.140  13.328  -7.205  1.00 20.00    -0.071 SA
ENDROOT
BRANCH   2   5
HETATM    5  C4  UNL     1     -34.566  15.151  -5.154  1.00 20.00     0.206 C 
HETATM    6  C2  UNL     1     -33.438  14.401  -4.584  1.00 20.00     0.080 C 
HETATM    7  N6  UNL     1     -32.549  13.807  -4.130  1.00 20.00    -0.196 NA
BRANCH   5   8
HETATM    8  S8  UNL     1     -33.991  16.418  -6.334  1.00 20.00    -0.157 SA
HETATM    9  H10 UNL     1     -34.818  16.062  -7.325  1.00 20.00     0.103 HD
ENDBRANCH   5   8
ENDBRANCH   2   5
TORSDOF 2
ENDMDL
MODEL 6
REMARK VINA RESULT:      -3.2      2.942      3.967
REMARK  2 active torsions:
REMARK  status: ('A' for Active; 'I' for Inactive)
REMARK    1  A    between atoms: C3_3  and  C4_4 
REMARK    2  A    between atoms: C4_4  and  S8_8 
ROOT
HETATM    1  C1  UNL     1     -35.041  13.616  -6.447  1.00 20.00     0.109 C 
HETATM    2  C3  UNL     1     -34.988  15.012  -6.079  1.00 20.00     0.116 C 
HETATM    3  N5  UNL     1     -35.094  12.493  -6.737  1.00 20.00    -0.191 NA
HETATM    4  S7  UNL     1     -33.710  15.887  -6.703  1.00 20.00    -0.071 SA
ENDROOT
BRANCH   2   5
HETATM    5  C4  UNL     1     -36.044  15.608  -5.176  1.00 20.00     0.206 C 
HETATM    6  C2  UNL     1     -37.208  14.720  -5.050  1.00 20.00     0.080 C 
HETATM    7  N6  UNL     1     -38.130  14.019  -4.955  1.00 20.00    -0.196 NA
BRANCH   5   8
HETATM    8  S8  UNL     1     -35.296  15.954  -3.549  1.00 20.00    -0.157 SA
HETATM    9  H10 UNL     1     -34.250  15.133  -3.705  1.00 20.00     0.103 HD
ENDBRANCH   5   8
ENDBRANCH   2   5
TORSDOF 2
ENDMDL
MODEL 7
REMARK VINA RESULT:      -3.2      1.879      2.390
REMARK  2 active torsions:
REMARK  status: ('A' for Active; 'I' for Inactive)
REMARK    1  A    between atoms: C3_3  and  C4_4 
REMARK    2  A    between atoms: C4_4  and  S8_8 
ROOT
HETATM    1  C1  UNL     1     -34.893  15.724  -3.664  1.00 20.00     0.109 C 
HETATM    2  C3  UNL     1     -34.554  15.074  -4.909  1.00 20.00     0.116 C 
HETATM    3  N5  UNL     1     -35.174  16.239  -2.662  1.00 20.00    -0.191 NA
HETATM    4  S7  UNL     1     -33.329  15.782  -5.796  1.00 20.00    -0.071 SA
ENDROOT
BRANCH   2   5
HETATM    5  C4  UNL     1     -35.290  13.829  -5.349  1.00 20.00     0.206 C 
HETATM    6  C2  UNL     1     -36.739  13.958  -5.139  1.00 20.00     0.080 C 
HETATM    7  N6  UNL     1     -37.883  14.059  -4.970  1.00 20.00    -0.196 NA
BRANCH   5   8
HETATM    8  S8  UNL     1     -34.899  13.507  -7.101  1.00 20.00    -0.157 SA
HETATM    9  H10 UNL     1     -34.726  14.791  -7.438  1.00 20.00     0.103 HD
ENDBRANCH   5   8
ENDBRANCH   2   5
TORSDOF 2
ENDMDL
MODEL 8
REMARK VINA RESULT:      -3.2     11.988     12.169
REMARK  2 active torsions:
REMARK  status: ('A' for Active; 'I' for Inactive)
REMARK    1  A    between atoms: C3_3  and  C4_4 
REMARK    2  A    between atoms: C4_4  and  S8_8 
ROOT
HETATM    1  C1  UNL     1     -32.497   7.700   3.444  1.00 20.00     0.109 C 
HETATM    2  C3  UNL     1     -33.418   6.992   4.303  1.00 20.00     0.116 C 
HETATM    3  N5  UNL     1     -31.760   8.262   2.745  1.00 20.00    -0.191 NA
HETATM    4  S7  UNL     1     -33.548   7.561   5.867  1.00 20.00    -0.071 SA
ENDROOT
BRANCH   2   5
HETATM    5  C4  UNL     1     -34.198   5.807   3.779  1.00 20.00     0.206 C 
HETATM    6  C2  UNL     1     -33.393   5.000   2.851  1.00 20.00     0.080 C 
HETATM    7  N6  UNL     1     -32.758   4.365   2.115  1.00 20.00    -0.196 NA
BRANCH   5   8
HETATM    8  S8  UNL     1     -34.773   4.812   5.196  1.00 20.00    -0.157 SA
HETATM    9  H10 UNL     1     -33.551   4.495   5.640  1.00 20.00     0.103 HD
ENDBRANCH   5   8
ENDBRANCH   2   5
TORSDOF 2
ENDMDL
MODEL 9
REMARK VINA RESULT:      -3.2     11.971     12.220
REMARK  2 active torsions:
REMARK  status: ('A' for Active; 'I' for Inactive)
REMARK    1  A    between atoms: C3_3  and  C4_4 
REMARK    2  A    between atoms: C4_4  and  S8_8 
ROOT
HETATM    1  C1  UNL     1     -32.627   7.596   2.681  1.00 20.00     0.109 C 
HETATM    2  C3  UNL     1     -33.316   6.440   3.207  1.00 20.00     0.116 C 
HETATM    3  N5  UNL     1     -32.078   8.531   2.268  1.00 20.00    -0.191 NA
HETATM    4  S7  UNL     1     -33.015   4.991   2.432  1.00 20.00    -0.071 SA
ENDROOT
BRANCH   2   5
HETATM    5  C4  UNL     1     -34.251   6.575   4.387  1.00 20.00     0.206 C 
HETATM    6  C2  UNL     1     -34.634   5.261   4.924  1.00 20.00     0.080 C 
HETATM    7  N6  UNL     1     -34.939   4.223   5.345  1.00 20.00    -0.196 NA
BRANCH   5   8
HETATM    8  S8  UNL     1     -33.442   7.601   5.660  1.00 20.00    -0.157 SA
HETATM    9  H10 UNL     1     -34.577   8.050   6.210  1.00 20.00     0.103 HD
ENDBRANCH   5   8
ENDBRANCH   2   5
TORSDOF 2
ENDMDL
