MODEL 1
REMARK VINA RESULT:      -3.5      0.000      0.000
REMARK  0 active torsions:
REMARK  status: ('A' for Active; 'I' for Inactive)
ROOT
HETATM    1  C1  UNL     1     -34.585   4.875   4.458  1.00 20.00     0.061 A 
HETATM    2  C2  UNL     1     -34.576   5.595   5.584  1.00 20.00     0.061 A 
HETATM    3  C3  UNL     1     -33.264   7.029   3.863  1.00 20.00     0.254 A 
HETATM    4  O4  UNL     1     -32.623   7.903   3.298  1.00 20.00    -0.272 OA
HETATM    5  S5  UNL     1     -33.786   5.543   3.075  1.00 20.00    -0.052 SA
HETATM    6  S6  UNL     1     -33.765   7.124   5.548  1.00 20.00    -0.052 SA
ENDROOT
TORSDOF 0
ENDMDL
MODEL 2
REMARK VINA RESULT:      -3.4      0.079      1.863
REMARK  0 active torsions:
REMARK  status: ('A' for Active; 'I' for Inactive)
ROOT
HETATM    1  C1  UNL     1     -34.581   5.677   5.602  1.00 20.00     0.061 A 
HETATM    2  C2  UNL     1     -34.627   4.966   4.472  1.00 20.00     0.061 A 
HETATM    3  C3  UNL     1     -33.224   7.069   3.882  1.00 20.00     0.254 A 
HETATM    4  O4  UNL     1     -32.552   7.920   3.319  1.00 20.00    -0.272 OA
HETATM    5  S5  UNL     1     -33.708   7.172   5.572  1.00 20.00    -0.052 SA
HETATM    6  S6  UNL     1     -33.810   5.611   3.088  1.00 20.00    -0.052 SA
ENDROOT
TORSDOF 0
ENDMDL
MODEL 3
REMARK VINA RESULT:      -3.4      2.116      2.638
REMARK  0 active torsions:
REMARK  status: ('A' for Active; 'I' for Inactive)
ROOT
HETATM    1  C1  UNL     1     -33.312   7.266   3.790  1.00 20.00     0.061 A 
HETATM    2  C2  UNL     1     -33.731   7.315   5.058  1.00 20.00     0.061 A 
HETATM    3  C3  UNL     1     -34.228   4.888   4.284  1.00 20.00     0.254 A 
HETATM    4  O4  UNL     1     -34.571   3.717   4.215  1.00 20.00    -0.272 OA
HETATM    5  S5  UNL     1     -33.492   5.766   2.946  1.00 20.00    -0.052 SA
HETATM    6  S6  UNL     1     -34.415   5.874   5.730  1.00 20.00    -0.052 SA
ENDROOT
TORSDOF 0
ENDMDL
MODEL 4
REMARK VINA RESULT:      -3.4      2.135      3.127
REMARK  0 active torsions:
REMARK  status: ('A' for Active; 'I' for Inactive)
ROOT
HETATM    1  C1  UNL     1     -33.773   7.279   5.061  1.00 20.00     0.061 A 
HETATM    2  C2  UNL     1     -33.334   7.244   3.799  1.00 20.00     0.061 A 
HETATM    3  C3  UNL     1     -34.216   4.848   4.266  1.00 20.00     0.254 A 
HETATM    4  O4  UNL     1     -34.538   3.672   4.186  1.00 20.00    -0.272 OA
HETATM    5  S5  UNL     1     -34.442   5.822   5.716  1.00 20.00    -0.052 SA
HETATM    6  S6  UNL     1     -33.477   5.746   2.944  1.00 20.00    -0.052 SA
ENDROOT
TORSDOF 0
ENDMDL
MODEL 5
REMARK VINA RESULT:      -3.3      1.962      2.141
REMARK  0 active torsions:
REMARK  status: ('A' for Active; 'I' for Inactive)
ROOT
HETATM    1  C1  UNL     1     -33.627   5.578   3.016  1.00 20.00     0.061 A 
HETATM    2  C2  UNL     1     -34.205   4.689   3.829  1.00 20.00     0.061 A 
HETATM    3  C3  UNL     1     -33.890   6.818   5.282  1.00 20.00     0.254 A 
HETATM    4  O4  UNL     1     -33.877   7.638   6.187  1.00 20.00    -0.272 OA
HETATM    5  S5  UNL     1     -33.266   7.141   3.667  1.00 20.00    -0.052 SA
HETATM    6  S6  UNL     1     -34.534   5.188   5.454  1.00 20.00    -0.052 SA
ENDROOT
TORSDOF 0
ENDMDL
MODEL 6
REMARK VINA RESULT:      -3.3      1.959      2.258
REMARK  0 active torsions:
REMARK  status: ('A' for Active; 'I' for Inactive)
ROOT
HETATM    1  C1  UNL     1     -34.203   4.665   3.819  1.00 20.00     0.061 A 
HETATM    2  C2  UNL     1     -33.639   5.554   2.997  1.00 20.00     0.061 A 
HETATM    3  C3  UNL     1     -33.901   6.805   5.256  1.00 20.00     0.254 A 
HETATM    4  O4  UNL     1     -33.891   7.631   6.157  1.00 20.00    -0.272 OA
HETATM    5  S5  UNL     1     -34.527   5.170   5.443  1.00 20.00    -0.052 SA
HETATM    6  S6  UNL     1     -33.290   7.124   3.636  1.00 20.00    -0.052 SA
ENDROOT
TORSDOF 0
ENDMDL
MODEL 7
REMARK VINA RESULT:      -3.2      1.929      2.060
REMARK  0 active torsions:
REMARK  status: ('A' for Active; 'I' for Inactive)
ROOT
HETATM    1  C1  UNL     1     -34.492   6.029   5.825  1.00 20.00     0.061 A 
HETATM    2  C2  UNL     1     -33.879   7.153   5.444  1.00 20.00     0.061 A 
HETATM    3  C3  UNL     1     -33.645   5.544   3.420  1.00 20.00     0.254 A 
HETATM    4  O4  UNL     1     -33.381   5.035   2.341  1.00 20.00    -0.272 OA
HETATM    5  S5  UNL     1     -34.529   4.715   4.698  1.00 20.00    -0.052 SA
HETATM    6  S6  UNL     1     -33.181   7.185   3.860  1.00 20.00    -0.052 SA
ENDROOT
TORSDOF 0
ENDMDL
MODEL 8
REMARK VINA RESULT:      -2.9     12.207     13.055
REMARK  0 active torsions:
REMARK  status: ('A' for Active; 'I' for Inactive)
ROOT
HETATM    1  C1  UNL     1     -33.540  15.468  -6.471  1.00 20.00     0.061 A 
HETATM    2  C2  UNL     1     -33.507  15.711  -5.158  1.00 20.00     0.061 A 
HETATM    3  C3  UNL     1     -35.142  13.713  -5.427  1.00 20.00     0.254 A 
HETATM    4  O4  UNL     1     -35.931  12.799  -5.238  1.00 20.00    -0.272 OA
HETATM    5  S5  UNL     1     -34.549  14.173  -7.020  1.00 20.00    -0.052 SA
HETATM    6  S6  UNL     1     -34.478  14.708  -4.135  1.00 20.00    -0.052 SA
ENDROOT
TORSDOF 0
ENDMDL
MODEL 9
REMARK VINA RESULT:      -2.9     12.215     13.192
REMARK  0 active torsions:
REMARK  status: ('A' for Active; 'I' for Inactive)
ROOT
HETATM    1  C1  UNL     1     -33.507  15.703  -5.208  1.00 20.00     0.061 A 
HETATM    2  C2  UNL     1     -33.555  15.449  -6.519  1.00 20.00     0.061 A 
HETATM    3  C3  UNL     1     -35.144  13.702  -5.441  1.00 20.00     0.254 A 
HETATM    4  O4  UNL     1     -35.929  12.789  -5.235  1.00 20.00    -0.272 OA
HETATM    5  S5  UNL     1     -34.466  14.709  -4.164  1.00 20.00    -0.052 SA
HETATM    6  S6  UNL     1     -34.571  14.150  -7.044  1.00 20.00    -0.052 SA
ENDROOT
TORSDOF 0
ENDMDL
