MODEL 1
REMARK VINA RESULT:      -4.7      0.000      0.000
REMARK  2 active torsions:
REMARK  status: ('A' for Active; 'I' for Inactive)
REMARK    1  A    between atoms: C4_4  and  C6_6 
REMARK    2  A    between atoms: C5_5  and  C6_6 
ROOT
HETATM    1  C1  UNL     1     -34.668   5.056   5.669  1.00 20.00     0.012 C 
HETATM    2  C2  UNL     1     -34.546   5.427   4.534  1.00 20.00    -0.117 C 
HETATM    3  C5  UNL     1     -34.402   5.880   3.144  1.00 20.00     0.095 C 
ENDROOT
BRANCH   3   4
HETATM    4  C6  UNL     1     -32.963   6.295   2.844  1.00 20.00     0.046 C 
BRANCH   4   5
HETATM    5  C4  UNL     1     -32.779   7.778   2.945  1.00 20.00     0.146 A 
HETATM    6  C3  UNL     1     -31.975   8.534   1.924  1.00 20.00     0.200 A 
HETATM    7  O7  UNL     1     -31.436   8.196   3.212  1.00 20.00    -0.381 OA
ENDBRANCH   4   5
ENDBRANCH   3   4
TORSDOF 2
ENDMDL
MODEL 2
REMARK VINA RESULT:      -4.5      1.906      4.294
REMARK  2 active torsions:
REMARK  status: ('A' for Active; 'I' for Inactive)
REMARK    1  A    between atoms: C4_4  and  C6_6 
REMARK    2  A    between atoms: C5_5  and  C6_6 
ROOT
HETATM    1  C1  UNL     1     -32.163   9.225   1.005  1.00 20.00     0.012 C 
HETATM    2  C2  UNL     1     -32.214   8.516   1.973  1.00 20.00    -0.117 C 
HETATM    3  C5  UNL     1     -32.275   7.653   3.160  1.00 20.00     0.095 C 
ENDROOT
BRANCH   3   4
HETATM    4  C6  UNL     1     -33.235   6.485   2.946  1.00 20.00     0.046 C 
BRANCH   4   5
HETATM    5  C4  UNL     1     -34.114   6.261   4.138  1.00 20.00     0.146 A 
HETATM    6  C3  UNL     1     -34.606   4.887   4.496  1.00 20.00     0.200 A 
HETATM    7  O7  UNL     1     -35.446   5.839   3.825  1.00 20.00    -0.381 OA
ENDBRANCH   4   5
ENDBRANCH   3   4
TORSDOF 2
ENDMDL
MODEL 3
REMARK VINA RESULT:      -4.4      2.125      4.270
REMARK  2 active torsions:
REMARK  status: ('A' for Active; 'I' for Inactive)
REMARK    1  A    between atoms: C4_4  and  C6_6 
REMARK    2  A    between atoms: C5_5  and  C6_6 
ROOT
HETATM    1  C1  UNL     1     -31.885   8.520   1.691  1.00 20.00     0.012 C 
HETATM    2  C2  UNL     1     -32.542   8.004   2.554  1.00 20.00    -0.117 C 
HETATM    3  C5  UNL     1     -33.346   7.379   3.612  1.00 20.00     0.095 C 
ENDROOT
BRANCH   3   4
HETATM    4  C6  UNL     1     -33.737   5.951   3.238  1.00 20.00     0.046 C 
BRANCH   4   5
HETATM    5  C4  UNL     1     -34.822   5.421   4.124  1.00 20.00     0.146 A 
HETATM    6  C3  UNL     1     -34.525   4.943   5.518  1.00 20.00     0.200 A 
HETATM    7  O7  UNL     1     -34.715   4.027   4.428  1.00 20.00    -0.381 OA
ENDBRANCH   4   5
ENDBRANCH   3   4
TORSDOF 2
ENDMDL
MODEL 4
REMARK VINA RESULT:      -4.4      1.359      1.903
REMARK  2 active torsions:
REMARK  status: ('A' for Active; 'I' for Inactive)
REMARK    1  A    between atoms: C4_4  and  C6_6 
REMARK    2  A    between atoms: C5_5  and  C6_6 
ROOT
HETATM    1  C1  UNL     1     -34.688   4.512   5.245  1.00 20.00     0.012 C 
HETATM    2  C2  UNL     1     -34.393   5.625   5.585  1.00 20.00    -0.117 C 
HETATM    3  C5  UNL     1     -34.035   6.986   6.006  1.00 20.00     0.095 C 
ENDROOT
BRANCH   3   4
HETATM    4  C6  UNL     1     -33.087   7.643   5.004  1.00 20.00     0.046 C 
BRANCH   4   5
HETATM    5  C4  UNL     1     -33.524   7.410   3.590  1.00 20.00     0.146 A 
HETATM    6  C3  UNL     1     -32.656   6.657   2.621  1.00 20.00     0.200 A 
HETATM    7  O7  UNL     1     -32.740   8.090   2.605  1.00 20.00    -0.381 OA
ENDBRANCH   4   5
ENDBRANCH   3   4
TORSDOF 2
ENDMDL
MODEL 5
REMARK VINA RESULT:      -4.3      1.145      1.336
REMARK  2 active torsions:
REMARK  status: ('A' for Active; 'I' for Inactive)
REMARK    1  A    between atoms: C4_4  and  C6_6 
REMARK    2  A    between atoms: C5_5  and  C6_6 
ROOT
HETATM    1  C1  UNL     1     -34.775   4.915   4.612  1.00 20.00     0.012 C 
HETATM    2  C2  UNL     1     -34.218   5.950   4.366  1.00 20.00    -0.117 C 
HETATM    3  C5  UNL     1     -33.538   7.218   4.071  1.00 20.00     0.095 C 
ENDROOT
BRANCH   3   4
HETATM    4  C6  UNL     1     -32.862   7.176   2.702  1.00 20.00     0.046 C 
BRANCH   4   5
HETATM    5  C4  UNL     1     -32.059   8.413   2.440  1.00 20.00     0.146 A 
HETATM    6  C3  UNL     1     -32.472   9.401   1.386  1.00 20.00     0.200 A 
HETATM    7  O7  UNL     1     -31.421   8.449   1.159  1.00 20.00    -0.381 OA
ENDBRANCH   4   5
ENDBRANCH   3   4
TORSDOF 2
ENDMDL
MODEL 6
REMARK VINA RESULT:      -4.3      1.631      4.266
REMARK  2 active torsions:
REMARK  status: ('A' for Active; 'I' for Inactive)
REMARK    1  A    between atoms: C4_4  and  C6_6 
REMARK    2  A    between atoms: C5_5  and  C6_6 
ROOT
HETATM    1  C1  UNL     1     -32.777  10.269   1.035  1.00 20.00     0.012 C 
HETATM    2  C2  UNL     1     -32.302   9.293   1.549  1.00 20.00    -0.117 C 
HETATM    3  C5  UNL     1     -31.716   8.101   2.176  1.00 20.00     0.095 C 
ENDROOT
BRANCH   3   4
HETATM    4  C6  UNL     1     -32.617   7.560   3.283  1.00 20.00     0.046 C 
BRANCH   4   5
HETATM    5  C4  UNL     1     -33.573   6.528   2.769  1.00 20.00     0.146 A 
HETATM    6  C3  UNL     1     -34.173   5.497   3.684  1.00 20.00     0.200 A 
HETATM    7  O7  UNL     1     -33.079   5.185   2.808  1.00 20.00    -0.381 OA
ENDBRANCH   4   5
ENDBRANCH   3   4
TORSDOF 2
ENDMDL
MODEL 7
REMARK VINA RESULT:      -4.2      1.978      2.877
REMARK  2 active torsions:
REMARK  status: ('A' for Active; 'I' for Inactive)
REMARK    1  A    between atoms: C4_4  and  C6_6 
REMARK    2  A    between atoms: C5_5  and  C6_6 
ROOT
HETATM    1  C1  UNL     1     -33.670   5.756   2.893  1.00 20.00     0.012 C 
HETATM    2  C2  UNL     1     -32.940   6.705   2.991  1.00 20.00    -0.117 C 
HETATM    3  C5  UNL     1     -32.048   7.865   3.116  1.00 20.00     0.095 C 
ENDROOT
BRANCH   3   4
HETATM    4  C6  UNL     1     -31.717   8.458   1.749  1.00 20.00     0.046 C 
BRANCH   4   5
HETATM    5  C4  UNL     1     -32.842   9.291   1.216  1.00 20.00     0.146 A 
HETATM    6  C3  UNL     1     -32.992   9.547  -0.257  1.00 20.00     0.200 A 
HETATM    7  O7  UNL     1     -32.437  10.532   0.628  1.00 20.00    -0.381 OA
ENDBRANCH   4   5
ENDBRANCH   3   4
TORSDOF 2
ENDMDL
MODEL 8
REMARK VINA RESULT:      -4.1      1.808      4.451
REMARK  2 active torsions:
REMARK  status: ('A' for Active; 'I' for Inactive)
REMARK    1  A    between atoms: C4_4  and  C6_6 
REMARK    2  A    between atoms: C5_5  and  C6_6 
ROOT
HETATM    1  C1  UNL     1     -33.188   9.338  -0.656  1.00 20.00     0.012 C 
HETATM    2  C2  UNL     1     -32.738   9.456   0.451  1.00 20.00    -0.117 C 
HETATM    3  C5  UNL     1     -32.190   9.606   1.806  1.00 20.00     0.095 C 
ENDROOT
BRANCH   3   4
HETATM    4  C6  UNL     1     -31.885   8.247   2.432  1.00 20.00     0.046 C 
BRANCH   4   5
HETATM    5  C4  UNL     1     -33.115   7.402   2.554  1.00 20.00     0.146 A 
HETATM    6  C3  UNL     1     -33.573   6.881   3.887  1.00 20.00     0.200 A 
HETATM    7  O7  UNL     1     -32.872   6.049   2.951  1.00 20.00    -0.381 OA
ENDBRANCH   4   5
ENDBRANCH   3   4
TORSDOF 2
ENDMDL
MODEL 9
REMARK VINA RESULT:      -3.9      1.946      2.672
REMARK  2 active torsions:
REMARK  status: ('A' for Active; 'I' for Inactive)
REMARK    1  A    between atoms: C4_4  and  C6_6 
REMARK    2  A    between atoms: C5_5  and  C6_6 
ROOT
HETATM    1  C1  UNL     1     -33.568   7.731   6.269  1.00 20.00     0.012 C 
HETATM    2  C2  UNL     1     -34.059   6.685   5.941  1.00 20.00    -0.117 C 
HETATM    3  C5  UNL     1     -34.659   5.404   5.546  1.00 20.00     0.095 C 
ENDROOT
BRANCH   3   4
HETATM    4  C6  UNL     1     -34.962   5.375   4.049  1.00 20.00     0.046 C 
BRANCH   4   5
HETATM    5  C4  UNL     1     -33.710   5.413   3.227  1.00 20.00     0.146 A 
HETATM    6  C3  UNL     1     -33.129   6.716   2.755  1.00 20.00     0.200 A 
HETATM    7  O7  UNL     1     -33.894   5.870   1.883  1.00 20.00    -0.381 OA
ENDBRANCH   4   5
ENDBRANCH   3   4
TORSDOF 2
ENDMDL
