MODEL 1
REMARK VINA RESULT:      -6.2      0.000      0.000
REMARK  0 active torsions:
REMARK  status: ('A' for Active; 'I' for Inactive)
ROOT
HETATM    1  C1  UNL     1     -33.753   4.485   3.527  1.00 20.00    -0.021 C 
HETATM    2  C2  UNL     1     -34.189   4.407   4.795  1.00 20.00    -0.025 C 
HETATM    3  C3  UNL     1     -33.307   6.882   3.777  1.00 20.00    -0.081 C 
HETATM    4  C4  UNL     1     -32.378   7.699   3.276  1.00 20.00     0.015 C 
HETATM    5  C5  UNL     1     -33.784   6.832   5.224  1.00 20.00     0.042 C 
HETATM    6  C6  UNL     1     -35.462   6.024   3.740  1.00 20.00     0.022 C 
HETATM    7  C7  UNL     1     -34.124   5.856   3.012  1.00 20.00     0.036 C 
HETATM    8  C8  UNL     1     -34.863   5.726   5.121  1.00 20.00     0.013 C 
ENDROOT
TORSDOF 0
ENDMDL
MODEL 2
REMARK VINA RESULT:      -5.5      0.886      2.093
REMARK  0 active torsions:
REMARK  status: ('A' for Active; 'I' for Inactive)
ROOT
HETATM    1  C1  UNL     1     -34.281   5.221   5.571  1.00 20.00    -0.021 C 
HETATM    2  C2  UNL     1     -34.083   6.546   5.656  1.00 20.00    -0.025 C 
HETATM    3  C3  UNL     1     -33.482   5.203   3.253  1.00 20.00    -0.081 C 
HETATM    4  C4  UNL     1     -32.801   4.316   2.524  1.00 20.00     0.015 C 
HETATM    5  C5  UNL     1     -33.234   6.707   3.315  1.00 20.00     0.042 C 
HETATM    6  C6  UNL     1     -35.494   6.188   3.859  1.00 20.00     0.022 C 
HETATM    7  C7  UNL     1     -34.679   4.921   4.144  1.00 20.00     0.036 C 
HETATM    8  C8  UNL     1     -34.362   7.132   4.286  1.00 20.00     0.013 C 
ENDROOT
TORSDOF 0
ENDMDL
MODEL 3
REMARK VINA RESULT:      -5.0      0.899      2.823
REMARK  0 active torsions:
REMARK  status: ('A' for Active; 'I' for Inactive)
ROOT
HETATM    1  C1  UNL     1     -33.189   7.343   3.960  1.00 20.00    -0.021 C 
HETATM    2  C2  UNL     1     -32.642   6.625   2.966  1.00 20.00    -0.025 C 
HETATM    3  C3  UNL     1     -34.351   5.362   4.816  1.00 20.00    -0.081 C 
HETATM    4  C4  UNL     1     -34.680   4.949   6.043  1.00 20.00     0.015 C 
HETATM    5  C5  UNL     1     -33.741   4.510   3.708  1.00 20.00     0.042 C 
HETATM    6  C6  UNL     1     -34.935   6.364   2.807  1.00 20.00     0.022 C 
HETATM    7  C7  UNL     1     -34.552   6.752   4.240  1.00 20.00     0.036 C 
HETATM    8  C8  UNL     1     -33.648   5.561   2.574  1.00 20.00     0.013 C 
ENDROOT
TORSDOF 0
ENDMDL
MODEL 4
REMARK VINA RESULT:      -5.0      0.676      2.358
REMARK  0 active torsions:
REMARK  status: ('A' for Active; 'I' for Inactive)
ROOT
HETATM    1  C1  UNL     1     -35.574   5.963   3.653  1.00 20.00    -0.021 C 
HETATM    2  C2  UNL     1     -34.900   6.186   2.513  1.00 20.00    -0.025 C 
HETATM    3  C3  UNL     1     -33.703   6.823   4.983  1.00 20.00    -0.081 C 
HETATM    4  C4  UNL     1     -33.628   7.505   6.128  1.00 20.00     0.015 C 
HETATM    5  C5  UNL     1     -32.910   7.100   3.710  1.00 20.00     0.042 C 
HETATM    6  C6  UNL     1     -33.576   4.816   3.825  1.00 20.00     0.022 C 
HETATM    7  C7  UNL     1     -34.556   5.597   4.708  1.00 20.00     0.036 C 
HETATM    8  C8  UNL     1     -33.431   5.955   2.807  1.00 20.00     0.013 C 
ENDROOT
TORSDOF 0
ENDMDL
MODEL 5
REMARK VINA RESULT:      -4.0      0.887      2.053
REMARK  0 active torsions:
REMARK  status: ('A' for Active; 'I' for Inactive)
ROOT
HETATM    1  C1  UNL     1     -35.204   6.952   4.043  1.00 20.00    -0.021 C 
HETATM    2  C2  UNL     1     -35.422   5.656   3.768  1.00 20.00    -0.025 C 
HETATM    3  C3  UNL     1     -32.903   6.791   3.214  1.00 20.00    -0.081 C 
HETATM    4  C4  UNL     1     -32.095   7.641   2.576  1.00 20.00     0.015 C 
HETATM    5  C5  UNL     1     -33.115   5.318   2.878  1.00 20.00     0.042 C 
HETATM    6  C6  UNL     1     -33.586   5.751   5.172  1.00 20.00     0.022 C 
HETATM    7  C7  UNL     1     -33.751   7.086   4.438  1.00 20.00     0.036 C 
HETATM    8  C8  UNL     1     -34.114   4.923   3.993  1.00 20.00     0.013 C 
ENDROOT
TORSDOF 0
ENDMDL
MODEL 6
REMARK VINA RESULT:      -3.9      8.171      9.831
REMARK  0 active torsions:
REMARK  status: ('A' for Active; 'I' for Inactive)
ROOT
HETATM    1  C1  UNL     1     -40.758   6.230  -0.132  1.00 20.00    -0.021 C 
HETATM    2  C2  UNL     1     -41.171   7.490  -0.342  1.00 20.00    -0.025 C 
HETATM    3  C3  UNL     1     -42.915   5.346  -0.888  1.00 20.00    -0.081 C 
HETATM    4  C4  UNL     1     -43.274   4.243  -1.549  1.00 20.00     0.015 C 
HETATM    5  C5  UNL     1     -43.417   6.762  -1.149  1.00 20.00     0.042 C 
HETATM    6  C6  UNL     1     -42.689   6.513   1.104  1.00 20.00     0.022 C 
HETATM    7  C7  UNL     1     -41.967   5.430   0.294  1.00 20.00     0.036 C 
HETATM    8  C8  UNL     1     -42.656   7.533  -0.042  1.00 20.00     0.013 C 
ENDROOT
TORSDOF 0
ENDMDL
MODEL 7
REMARK VINA RESULT:      -3.9      8.064      9.403
REMARK  0 active torsions:
REMARK  status: ('A' for Active; 'I' for Inactive)
ROOT
HETATM    1  C1  UNL     1     -43.417   5.863  -0.995  1.00 20.00    -0.021 C 
HETATM    2  C2  UNL     1     -42.683   4.914  -0.390  1.00 20.00    -0.025 C 
HETATM    3  C3  UNL     1     -41.720   7.560  -0.495  1.00 20.00    -0.081 C 
HETATM    4  C4  UNL     1     -41.287   8.643  -1.144  1.00 20.00     0.015 C 
HETATM    5  C5  UNL     1     -40.854   6.509   0.191  1.00 20.00     0.042 C 
HETATM    6  C6  UNL     1     -43.026   6.595   1.161  1.00 20.00     0.022 C 
HETATM    7  C7  UNL     1     -43.165   7.158  -0.258  1.00 20.00     0.036 C 
HETATM    8  C8  UNL     1     -41.951   5.576   0.760  1.00 20.00     0.013 C 
ENDROOT
TORSDOF 0
ENDMDL
MODEL 8
REMARK VINA RESULT:      -3.8     11.769     12.632
REMARK  0 active torsions:
REMARK  status: ('A' for Active; 'I' for Inactive)
ROOT
HETATM    1  C1  UNL     1     -33.372  14.724  -4.216  1.00 20.00    -0.021 C 
HETATM    2  C2  UNL     1     -34.623  14.242  -4.151  1.00 20.00    -0.025 C 
HETATM    3  C3  UNL     1     -33.985  16.636  -2.809  1.00 20.00    -0.081 C 
HETATM    4  C4  UNL     1     -33.329  17.345  -1.888  1.00 20.00     0.015 C 
HETATM    5  C5  UNL     1     -35.414  16.115  -2.704  1.00 20.00     0.042 C 
HETATM    6  C6  UNL     1     -34.770  16.397  -4.979  1.00 20.00     0.022 C 
HETATM    7  C7  UNL     1     -33.472  16.232  -4.180  1.00 20.00     0.036 C 
HETATM    8  C8  UNL     1     -35.561  15.432  -4.085  1.00 20.00     0.013 C 
ENDROOT
TORSDOF 0
ENDMDL
MODEL 9
REMARK VINA RESULT:      -3.8      0.993      2.742
REMARK  0 active torsions:
REMARK  status: ('A' for Active; 'I' for Inactive)
ROOT
HETATM    1  C1  UNL     1     -34.785   6.418   2.588  1.00 20.00    -0.021 C 
HETATM    2  C2  UNL     1     -34.116   7.579   2.666  1.00 20.00    -0.025 C 
HETATM    3  C3  UNL     1     -34.115   5.825   4.870  1.00 20.00    -0.081 C 
HETATM    4  C4  UNL     1     -34.713   5.155   5.858  1.00 20.00     0.015 C 
HETATM    5  C5  UNL     1     -33.352   7.139   5.000  1.00 20.00     0.042 C 
HETATM    6  C6  UNL     1     -32.598   5.892   3.116  1.00 20.00     0.022 C 
HETATM    7  C7  UNL     1     -34.022   5.407   3.414  1.00 20.00     0.036 C 
HETATM    8  C8  UNL     1     -32.896   7.339   3.534  1.00 20.00     0.013 C 
ENDROOT
TORSDOF 0
ENDMDL
