MODEL 1
REMARK VINA RESULT:      -5.2      0.000      0.000
REMARK  0 active torsions:
REMARK  status: ('A' for Active; 'I' for Inactive)
ROOT
HETATM    1  C1  UNL     1     -34.107   5.726   4.205  1.00 20.00     0.017 A 
HETATM    2  C2  UNL     1     -33.773   6.892   5.030  1.00 20.00     0.296 A 
HETATM    3  C3  UNL     1     -32.862   7.203   2.991  1.00 20.00     0.270 A 
HETATM    4  C4  UNL     1     -34.831   4.706   4.671  1.00 20.00     0.025 C 
HETATM    5  C5  UNL     1     -33.534   5.873   2.852  1.00 20.00     0.155 A 
HETATM    6  O6  UNL     1     -34.085   7.094   6.189  1.00 20.00    -0.259 OA
HETATM    7  O7  UNL     1     -32.233   7.762   2.103  1.00 20.00    -0.264 OA
HETATM    8  O8  UNL     1     -33.037   7.718   4.242  1.00 20.00    -0.241 OA
ENDROOT
TORSDOF 0
ENDMDL
MODEL 2
REMARK VINA RESULT:      -5.0      1.934      3.148
REMARK  0 active torsions:
REMARK  status: ('A' for Active; 'I' for Inactive)
ROOT
HETATM    1  C1  UNL     1     -33.884   6.732   5.275  1.00 20.00     0.017 A 
HETATM    2  C2  UNL     1     -33.579   6.780   3.841  1.00 20.00     0.296 A 
HETATM    3  C3  UNL     1     -34.313   4.703   4.322  1.00 20.00     0.270 A 
HETATM    4  C4  UNL     1     -33.722   7.787   6.075  1.00 20.00     0.025 C 
HETATM    5  C5  UNL     1     -34.372   5.389   5.651  1.00 20.00     0.155 A 
HETATM    6  O6  UNL     1     -33.159   7.729   3.205  1.00 20.00    -0.259 OA
HETATM    7  O7  UNL     1     -34.630   3.539   4.125  1.00 20.00    -0.264 OA
HETATM    8  O8  UNL     1     -33.859   5.546   3.350  1.00 20.00    -0.241 OA
ENDROOT
TORSDOF 0
ENDMDL
MODEL 3
REMARK VINA RESULT:      -5.0      1.648      2.816
REMARK  0 active torsions:
REMARK  status: ('A' for Active; 'I' for Inactive)
ROOT
HETATM    1  C1  UNL     1     -33.319   6.810   3.589  1.00 20.00     0.017 A 
HETATM    2  C2  UNL     1     -33.799   6.890   4.973  1.00 20.00     0.296 A 
HETATM    3  C3  UNL     1     -34.225   4.811   4.212  1.00 20.00     0.270 A 
HETATM    4  C4  UNL     1     -32.744   7.844   2.972  1.00 20.00     0.025 C 
HETATM    5  C5  UNL     1     -33.573   5.465   3.034  1.00 20.00     0.155 A 
HETATM    6  O6  UNL     1     -33.747   7.849   5.720  1.00 20.00    -0.259 OA
HETATM    7  O7  UNL     1     -34.625   3.655   4.233  1.00 20.00    -0.264 OA
HETATM    8  O8  UNL     1     -34.319   5.671   5.266  1.00 20.00    -0.241 OA
ENDROOT
TORSDOF 0
ENDMDL
MODEL 4
REMARK VINA RESULT:      -4.9      1.889      2.137
REMARK  0 active torsions:
REMARK  status: ('A' for Active; 'I' for Inactive)
ROOT
HETATM    1  C1  UNL     1     -34.201   6.004   4.882  1.00 20.00     0.017 A 
HETATM    2  C2  UNL     1     -34.002   4.910   3.926  1.00 20.00     0.296 A 
HETATM    3  C3  UNL     1     -33.125   6.782   3.026  1.00 20.00     0.270 A 
HETATM    4  C4  UNL     1     -34.808   5.825   6.056  1.00 20.00     0.025 C 
HETATM    5  C5  UNL     1     -33.645   7.263   4.344  1.00 20.00     0.155 A 
HETATM    6  O6  UNL     1     -34.337   3.746   4.051  1.00 20.00    -0.259 OA
HETATM    7  O7  UNL     1     -32.562   7.487   2.200  1.00 20.00    -0.264 OA
HETATM    8  O8  UNL     1     -33.360   5.449   2.858  1.00 20.00    -0.241 OA
ENDROOT
TORSDOF 0
ENDMDL
MODEL 5
REMARK VINA RESULT:      -4.8      1.997      2.924
REMARK  0 active torsions:
REMARK  status: ('A' for Active; 'I' for Inactive)
ROOT
HETATM    1  C1  UNL     1     -33.823   5.927   3.564  1.00 20.00     0.017 A 
HETATM    2  C2  UNL     1     -34.371   5.006   4.566  1.00 20.00     0.296 A 
HETATM    3  C3  UNL     1     -33.938   6.967   5.591  1.00 20.00     0.270 A 
HETATM    4  C4  UNL     1     -33.647   5.572   2.289  1.00 20.00     0.025 C 
HETATM    5  C5  UNL     1     -33.518   7.234   4.180  1.00 20.00     0.155 A 
HETATM    6  O6  UNL     1     -34.727   3.855   4.398  1.00 20.00    -0.259 OA
HETATM    7  O7  UNL     1     -33.870   7.780   6.503  1.00 20.00    -0.264 OA
HETATM    8  O8  UNL     1     -34.408   5.695   5.735  1.00 20.00    -0.241 OA
ENDROOT
TORSDOF 0
ENDMDL
MODEL 6
REMARK VINA RESULT:      -4.5      1.799      3.566
REMARK  0 active torsions:
REMARK  status: ('A' for Active; 'I' for Inactive)
ROOT
HETATM    1  C1  UNL     1     -33.188   6.756   3.372  1.00 20.00     0.017 A 
HETATM    2  C2  UNL     1     -33.378   5.329   3.090  1.00 20.00     0.296 A 
HETATM    3  C3  UNL     1     -34.380   5.785   5.057  1.00 20.00     0.270 A 
HETATM    4  C4  UNL     1     -32.521   7.565   2.546  1.00 20.00     0.025 C 
HETATM    5  C5  UNL     1     -33.825   7.115   4.655  1.00 20.00     0.155 A 
HETATM    6  O6  UNL     1     -32.983   4.706   2.122  1.00 20.00    -0.259 OA
HETATM    7  O7  UNL     1     -35.011   5.576   6.084  1.00 20.00    -0.264 OA
HETATM    8  O8  UNL     1     -34.091   4.827   4.130  1.00 20.00    -0.241 OA
ENDROOT
TORSDOF 0
ENDMDL
MODEL 7
REMARK VINA RESULT:      -4.3      0.630      2.843
REMARK  0 active torsions:
REMARK  status: ('A' for Active; 'I' for Inactive)
ROOT
HETATM    1  C1  UNL     1     -33.615   6.091   3.320  1.00 20.00     0.017 A 
HETATM    2  C2  UNL     1     -32.730   7.256   3.424  1.00 20.00     0.296 A 
HETATM    3  C3  UNL     1     -33.824   7.041   5.384  1.00 20.00     0.270 A 
HETATM    4  C4  UNL     1     -33.691   5.349   2.214  1.00 20.00     0.025 C 
HETATM    5  C5  UNL     1     -34.362   5.900   4.580  1.00 20.00     0.155 A 
HETATM    6  O6  UNL     1     -31.978   7.694   2.573  1.00 20.00    -0.259 OA
HETATM    7  O7  UNL     1     -34.155   7.302   6.532  1.00 20.00    -0.264 OA
HETATM    8  O8  UNL     1     -32.910   7.761   4.672  1.00 20.00    -0.241 OA
ENDROOT
TORSDOF 0
ENDMDL
MODEL 8
REMARK VINA RESULT:      -4.2      1.195      2.727
REMARK  0 active torsions:
REMARK  status: ('A' for Active; 'I' for Inactive)
ROOT
HETATM    1  C1  UNL     1     -34.227   5.163   4.504  1.00 20.00     0.017 A 
HETATM    2  C2  UNL     1     -33.839   6.200   3.543  1.00 20.00     0.296 A 
HETATM    3  C3  UNL     1     -33.890   7.140   5.591  1.00 20.00     0.270 A 
HETATM    4  C4  UNL     1     -34.485   3.907   4.134  1.00 20.00     0.025 C 
HETATM    5  C5  UNL     1     -34.278   5.722   5.870  1.00 20.00     0.155 A 
HETATM    6  O6  UNL     1     -33.701   6.081   2.339  1.00 20.00    -0.259 OA
HETATM    7  O7  UNL     1     -33.792   8.016   6.440  1.00 20.00    -0.264 OA
HETATM    8  O8  UNL     1     -33.657   7.337   4.261  1.00 20.00    -0.241 OA
ENDROOT
TORSDOF 0
ENDMDL
MODEL 9
REMARK VINA RESULT:      -4.1     11.267     12.012
REMARK  0 active torsions:
REMARK  status: ('A' for Active; 'I' for Inactive)
ROOT
HETATM    1  C1  UNL     1     -34.774  15.365  -3.787  1.00 20.00     0.017 A 
HETATM    2  C2  UNL     1     -34.211  14.120  -4.320  1.00 20.00     0.296 A 
HETATM    3  C3  UNL     1     -36.411  14.149  -4.812  1.00 20.00     0.270 A 
HETATM    4  C4  UNL     1     -34.033  16.263  -3.136  1.00 20.00     0.025 C 
HETATM    5  C5  UNL     1     -36.220  15.440  -4.080  1.00 20.00     0.155 A 
HETATM    6  O6  UNL     1     -33.056  13.742  -4.255  1.00 20.00    -0.259 OA
HETATM    7  O7  UNL     1     -37.477  13.757  -5.266  1.00 20.00    -0.264 OA
HETATM    8  O8  UNL     1     -35.239  13.458  -4.910  1.00 20.00    -0.241 OA
ENDROOT
TORSDOF 0
ENDMDL
