MODEL 1
REMARK VINA RESULT:      -5.2      0.000      0.000
REMARK  3 active torsions:
REMARK  status: ('A' for Active; 'I' for Inactive)
REMARK    1  A    between atoms: C1_1  and  C7_7 
REMARK    2  A    between atoms: C4_4  and  C6_6 
REMARK    3  A    between atoms: C6_6  and  C7_7 
ROOT
HETATM    1  C6  UNL     1     -33.879   7.257   3.445  1.00 20.00     0.015 C 
ENDROOT
BRANCH   1   2
HETATM    2  C4  UNL     1     -32.558   7.371   2.695  1.00 20.00    -0.014 A 
HETATM    3  C2  UNL     1     -32.228   8.620   1.927  1.00 20.00     0.005 A 
HETATM    4  C3  UNL     1     -31.483   8.295   3.192  1.00 20.00     0.005 A 
ENDBRANCH   1   2
BRANCH   1   5
HETATM    5  C7  UNL     1     -33.785   6.339   4.671  1.00 20.00     0.043 C 
HETATM    6  C5  UNL     1     -33.913   7.146   5.961  1.00 20.00     0.017 C 
BRANCH   5   7
HETATM    7  C1  UNL     1     -34.857   5.264   4.691  1.00 20.00     0.235 C 
HETATM    8  O8  UNL     1     -34.653   4.064   4.541  1.00 20.00    -0.306 OA
ENDBRANCH   5   7
ENDBRANCH   1   5
TORSDOF 3
ENDMDL
MODEL 2
REMARK VINA RESULT:      -5.0      1.243      1.669
REMARK  3 active torsions:
REMARK  status: ('A' for Active; 'I' for Inactive)
REMARK    1  A    between atoms: C1_1  and  C7_7 
REMARK    2  A    between atoms: C4_4  and  C6_6 
REMARK    3  A    between atoms: C6_6  and  C7_7 
ROOT
HETATM    1  C6  UNL     1     -33.777   7.130   3.640  1.00 20.00     0.015 C 
ENDROOT
BRANCH   1   2
HETATM    2  C4  UNL     1     -32.462   7.310   2.894  1.00 20.00    -0.014 A 
HETATM    3  C2  UNL     1     -32.240   8.520   2.030  1.00 20.00     0.005 A 
HETATM    4  C3  UNL     1     -31.488   8.371   3.323  1.00 20.00     0.005 A 
ENDBRANCH   1   2
BRANCH   1   5
HETATM    5  C7  UNL     1     -34.346   5.712   3.502  1.00 20.00     0.043 C 
HETATM    6  C5  UNL     1     -33.337   4.788   2.824  1.00 20.00     0.017 C 
BRANCH   5   7
HETATM    7  C1  UNL     1     -34.719   5.089   4.836  1.00 20.00     0.235 C 
HETATM    8  O8  UNL     1     -34.452   5.564   5.934  1.00 20.00    -0.306 OA
ENDBRANCH   5   7
ENDBRANCH   1   5
TORSDOF 3
ENDMDL
MODEL 3
REMARK VINA RESULT:      -4.9      2.491      4.179
REMARK  3 active torsions:
REMARK  status: ('A' for Active; 'I' for Inactive)
REMARK    1  A    between atoms: C1_1  and  C7_7 
REMARK    2  A    between atoms: C4_4  and  C6_6 
REMARK    3  A    between atoms: C6_6  and  C7_7 
ROOT
HETATM    1  C6  UNL     1     -33.186   6.407   2.907  1.00 20.00     0.015 C 
ENDROOT
BRANCH   1   2
HETATM    2  C4  UNL     1     -34.438   6.153   3.738  1.00 20.00    -0.014 A 
HETATM    3  C2  UNL     1     -34.599   4.862   4.490  1.00 20.00     0.005 A 
HETATM    4  C3  UNL     1     -34.360   6.144   5.239  1.00 20.00     0.005 A 
ENDBRANCH   1   2
BRANCH   1   5
HETATM    5  C7  UNL     1     -32.799   7.890   2.860  1.00 20.00     0.043 C 
HETATM    6  C5  UNL     1     -31.523   8.142   3.659  1.00 20.00     0.017 C 
BRANCH   5   7
HETATM    7  C1  UNL     1     -32.567   8.398   1.447  1.00 20.00     0.235 C 
HETATM    8  O8  UNL     1     -31.479   8.728   0.987  1.00 20.00    -0.306 OA
ENDBRANCH   5   7
ENDBRANCH   1   5
TORSDOF 3
ENDMDL
MODEL 4
REMARK VINA RESULT:      -4.8      1.363      2.115
REMARK  3 active torsions:
REMARK  status: ('A' for Active; 'I' for Inactive)
REMARK    1  A    between atoms: C1_1  and  C7_7 
REMARK    2  A    between atoms: C4_4  and  C6_6 
REMARK    3  A    between atoms: C6_6  and  C7_7 
ROOT
HETATM    1  C6  UNL     1     -32.381   7.789   3.124  1.00 20.00     0.015 C 
ENDROOT
BRANCH   1   2
HETATM    2  C4  UNL     1     -32.598   8.292   1.702  1.00 20.00    -0.014 A 
HETATM    3  C2  UNL     1     -32.445   9.753   1.384  1.00 20.00     0.005 A 
HETATM    4  C3  UNL     1     -31.431   8.763   0.881  1.00 20.00     0.005 A 
ENDBRANCH   1   2
BRANCH   1   5
HETATM    5  C7  UNL     1     -33.656   7.203   3.744  1.00 20.00     0.043 C 
HETATM    6  C5  UNL     1     -33.863   5.759   3.291  1.00 20.00     0.017 C 
BRANCH   5   7
HETATM    7  C1  UNL     1     -33.636   7.212   5.263  1.00 20.00     0.235 C 
HETATM    8  O8  UNL     1     -34.252   6.431   5.980  1.00 20.00    -0.306 OA
ENDBRANCH   5   7
ENDBRANCH   1   5
TORSDOF 3
ENDMDL
MODEL 5
REMARK VINA RESULT:      -4.6      2.215      4.050
REMARK  3 active torsions:
REMARK  status: ('A' for Active; 'I' for Inactive)
REMARK    1  A    between atoms: C1_1  and  C7_7 
REMARK    2  A    between atoms: C4_4  and  C6_6 
REMARK    3  A    between atoms: C6_6  and  C7_7 
ROOT
HETATM    1  C6  UNL     1     -34.692   6.132   3.307  1.00 20.00     0.015 C 
ENDROOT
BRANCH   1   2
HETATM    2  C4  UNL     1     -35.164   5.787   4.714  1.00 20.00    -0.014 A 
HETATM    3  C2  UNL     1     -34.455   4.730   5.514  1.00 20.00     0.005 A 
HETATM    4  C3  UNL     1     -34.337   6.177   5.906  1.00 20.00     0.005 A 
ENDBRANCH   1   2
BRANCH   1   5
HETATM    5  C7  UNL     1     -33.170   6.020   3.151  1.00 20.00     0.043 C 
HETATM    6  C5  UNL     1     -32.804   4.839   2.254  1.00 20.00     0.017 C 
BRANCH   5   7
HETATM    7  C1  UNL     1     -32.541   7.266   2.553  1.00 20.00     0.235 C 
HETATM    8  O8  UNL     1     -31.778   8.023   3.144  1.00 20.00    -0.306 OA
ENDBRANCH   5   7
ENDBRANCH   1   5
TORSDOF 3
ENDMDL
MODEL 6
REMARK VINA RESULT:      -4.6      1.590      2.185
REMARK  3 active torsions:
REMARK  status: ('A' for Active; 'I' for Inactive)
REMARK    1  A    between atoms: C1_1  and  C7_7 
REMARK    2  A    between atoms: C4_4  and  C6_6 
REMARK    3  A    between atoms: C6_6  and  C7_7 
ROOT
HETATM    1  C6  UNL     1     -31.887   8.312   2.962  1.00 20.00     0.015 C 
ENDROOT
BRANCH   1   2
HETATM    2  C4  UNL     1     -32.584   8.657   1.652  1.00 20.00    -0.014 A 
HETATM    3  C2  UNL     1     -32.696  10.088   1.207  1.00 20.00     0.005 A 
HETATM    4  C3  UNL     1     -31.785   9.142   0.476  1.00 20.00     0.005 A 
ENDBRANCH   1   2
BRANCH   1   5
HETATM    5  C7  UNL     1     -32.506   7.092   3.657  1.00 20.00     0.043 C 
HETATM    6  C5  UNL     1     -33.497   7.528   4.734  1.00 20.00     0.017 C 
BRANCH   5   7
HETATM    7  C1  UNL     1     -33.241   6.172   2.698  1.00 20.00     0.235 C 
HETATM    8  O8  UNL     1     -33.130   4.951   2.670  1.00 20.00    -0.306 OA
ENDBRANCH   5   7
ENDBRANCH   1   5
TORSDOF 3
ENDMDL
MODEL 7
REMARK VINA RESULT:      -4.5      1.791      3.783
REMARK  3 active torsions:
REMARK  status: ('A' for Active; 'I' for Inactive)
REMARK    1  A    between atoms: C1_1  and  C7_7 
REMARK    2  A    between atoms: C4_4  and  C6_6 
REMARK    3  A    between atoms: C6_6  and  C7_7 
ROOT
HETATM    1  C6  UNL     1     -34.723   6.480   3.628  1.00 20.00     0.015 C 
ENDROOT
BRANCH   1   2
HETATM    2  C4  UNL     1     -35.104   5.127   4.214  1.00 20.00    -0.014 A 
HETATM    3  C2  UNL     1     -34.077   4.036   4.335  1.00 20.00     0.005 A 
HETATM    4  C3  UNL     1     -34.597   4.720   5.569  1.00 20.00     0.005 A 
ENDBRANCH   1   2
BRANCH   1   5
HETATM    5  C7  UNL     1     -33.235   6.806   3.813  1.00 20.00     0.043 C 
HETATM    6  C5  UNL     1     -32.663   7.454   2.554  1.00 20.00     0.017 C 
BRANCH   5   7
HETATM    7  C1  UNL     1     -32.974   7.747   4.976  1.00 20.00     0.235 C 
HETATM    8  O8  UNL     1     -33.489   7.656   6.085  1.00 20.00    -0.306 OA
ENDBRANCH   5   7
ENDBRANCH   1   5
TORSDOF 3
ENDMDL
MODEL 8
REMARK VINA RESULT:      -4.4      3.142      4.703
REMARK  3 active torsions:
REMARK  status: ('A' for Active; 'I' for Inactive)
REMARK    1  A    between atoms: C1_1  and  C7_7 
REMARK    2  A    between atoms: C4_4  and  C6_6 
REMARK    3  A    between atoms: C6_6  and  C7_7 
ROOT
HETATM    1  C6  UNL     1     -31.668   8.498   2.072  1.00 20.00     0.015 C 
ENDROOT
BRANCH   1   2
HETATM    2  C4  UNL     1     -32.222   7.617   3.185  1.00 20.00    -0.014 A 
HETATM    3  C2  UNL     1     -33.706   7.516   3.402  1.00 20.00     0.005 A 
HETATM    4  C3  UNL     1     -32.945   6.342   2.851  1.00 20.00     0.005 A 
ENDBRANCH   1   2
BRANCH   1   5
HETATM    5  C7  UNL     1     -32.758   9.313   1.364  1.00 20.00     0.043 C 
HETATM    6  C5  UNL     1     -32.570  10.806   1.623  1.00 20.00     0.017 C 
BRANCH   5   7
HETATM    7  C1  UNL     1     -32.774   9.104  -0.140  1.00 20.00     0.235 C 
HETATM    8  O8  UNL     1     -33.684   9.442  -0.888  1.00 20.00    -0.306 OA
ENDBRANCH   5   7
ENDBRANCH   1   5
TORSDOF 3
ENDMDL
MODEL 9
REMARK VINA RESULT:      -4.2      3.366      5.072
REMARK  3 active torsions:
REMARK  status: ('A' for Active; 'I' for Inactive)
REMARK    1  A    between atoms: C1_1  and  C7_7 
REMARK    2  A    between atoms: C4_4  and  C6_6 
REMARK    3  A    between atoms: C6_6  and  C7_7 
ROOT
HETATM    1  C6  UNL     1     -31.752   8.360   1.485  1.00 20.00     0.015 C 
ENDROOT
BRANCH   1   2
HETATM    2  C4  UNL     1     -32.882   7.906   2.399  1.00 20.00    -0.014 A 
HETATM    3  C2  UNL     1     -32.966   6.474   2.847  1.00 20.00     0.005 A 
HETATM    4  C3  UNL     1     -32.599   7.549   3.831  1.00 20.00     0.005 A 
ENDBRANCH   1   2
BRANCH   1   5
HETATM    5  C7  UNL     1     -32.148   9.550   0.600  1.00 20.00     0.043 C 
HETATM    6  C5  UNL     1     -33.007   9.087  -0.574  1.00 20.00     0.017 C 
BRANCH   5   7
HETATM    7  C1  UNL     1     -32.928  10.614   1.352  1.00 20.00     0.235 C 
HETATM    8  O8  UNL     1     -32.428  11.531   1.995  1.00 20.00    -0.306 OA
ENDBRANCH   5   7
ENDBRANCH   1   5
TORSDOF 3
ENDMDL
