MODEL 1
REMARK VINA RESULT:      -4.3      0.000      0.000
REMARK  1 active torsions:
REMARK  status: ('A' for Active; 'I' for Inactive)
REMARK    1  A    between atoms: C1_1  and  C2_2 
ROOT
HETATM    1  C2  UNL     1     -34.609   5.527   4.454  1.00 20.00     0.412 C 
HETATM    2  F4  UNL     1     -35.813   5.799   3.908  1.00 20.00    -0.168 F 
HETATM    3  F5  UNL     1     -34.795   4.616   5.432  1.00 20.00    -0.168 F 
HETATM    4  F6  UNL     1     -33.839   4.966   3.499  1.00 20.00    -0.168 F 
ENDROOT
BRANCH   1   5
HETATM    5  C1  UNL     1     -33.974   6.777   4.995  1.00 20.00     0.339 C 
HETATM    6  F3  UNL     1     -34.298   6.899   6.309  1.00 20.00    -0.246 F 
ENDBRANCH   1   5
TORSDOF 1
ENDMDL
MODEL 2
REMARK VINA RESULT:      -4.3      0.097      1.517
REMARK  1 active torsions:
REMARK  status: ('A' for Active; 'I' for Inactive)
REMARK    1  A    between atoms: C1_1  and  C2_2 
ROOT
HETATM    1  C2  UNL     1     -34.628   5.543   4.495  1.00 20.00     0.412 C 
HETATM    2  F4  UNL     1     -34.862   4.708   5.530  1.00 20.00    -0.168 F 
HETATM    3  F5  UNL     1     -33.854   4.889   3.604  1.00 20.00    -0.168 F 
HETATM    4  F6  UNL     1     -35.812   5.811   3.905  1.00 20.00    -0.168 F 
ENDROOT
BRANCH   1   5
HETATM    5  C1  UNL     1     -33.962   6.804   4.967  1.00 20.00     0.339 C 
HETATM    6  F3  UNL     1     -34.278   7.004   6.274  1.00 20.00    -0.246 F 
ENDBRANCH   1   5
TORSDOF 1
ENDMDL
MODEL 3
REMARK VINA RESULT:      -4.3      0.046      1.556
REMARK  1 active torsions:
REMARK  status: ('A' for Active; 'I' for Inactive)
REMARK    1  A    between atoms: C1_1  and  C2_2 
ROOT
HETATM    1  C2  UNL     1     -34.621   5.538   4.468  1.00 20.00     0.412 C 
HETATM    2  F4  UNL     1     -33.845   4.935   3.543  1.00 20.00    -0.168 F 
HETATM    3  F5  UNL     1     -35.815   5.802   3.898  1.00 20.00    -0.168 F 
HETATM    4  F6  UNL     1     -34.822   4.662   5.474  1.00 20.00    -0.168 F 
ENDROOT
BRANCH   1   5
HETATM    5  C1  UNL     1     -33.973   6.798   4.970  1.00 20.00     0.339 C 
HETATM    6  F3  UNL     1     -34.269   6.947   6.288  1.00 20.00    -0.246 F 
ENDBRANCH   1   5
TORSDOF 1
ENDMDL
MODEL 4
REMARK VINA RESULT:      -4.2      1.063      2.191
REMARK  1 active torsions:
REMARK  status: ('A' for Active; 'I' for Inactive)
REMARK    1  A    between atoms: C1_1  and  C2_2 
ROOT
HETATM    1  C2  UNL     1     -34.699   5.498   4.197  1.00 20.00     0.412 C 
HETATM    2  F4  UNL     1     -35.933   5.853   3.778  1.00 20.00    -0.168 F 
HETATM    3  F5  UNL     1     -34.448   6.157   5.347  1.00 20.00    -0.168 F 
HETATM    4  F6  UNL     1     -34.720   4.176   4.467  1.00 20.00    -0.168 F 
ENDROOT
BRANCH   1   5
HETATM    5  C1  UNL     1     -33.667   5.820   3.153  1.00 20.00     0.339 C 
HETATM    6  F3  UNL     1     -33.133   4.659   2.693  1.00 20.00    -0.246 F 
ENDBRANCH   1   5
TORSDOF 1
ENDMDL
MODEL 5
REMARK VINA RESULT:      -4.2      1.068      2.544
REMARK  1 active torsions:
REMARK  status: ('A' for Active; 'I' for Inactive)
REMARK    1  A    between atoms: C1_1  and  C2_2 
ROOT
HETATM    1  C2  UNL     1     -34.698   5.495   4.194  1.00 20.00     0.412 C 
HETATM    2  F4  UNL     1     -34.720   4.171   4.456  1.00 20.00    -0.168 F 
HETATM    3  F5  UNL     1     -35.931   5.855   3.781  1.00 20.00    -0.168 F 
HETATM    4  F6  UNL     1     -34.438   6.141   5.350  1.00 20.00    -0.168 F 
ENDROOT
BRANCH   1   5
HETATM    5  C1  UNL     1     -33.665   5.816   3.151  1.00 20.00     0.339 C 
HETATM    6  F3  UNL     1     -33.127   4.653   2.696  1.00 20.00    -0.246 F 
ENDBRANCH   1   5
TORSDOF 1
ENDMDL
MODEL 6
REMARK VINA RESULT:      -4.2      1.126      1.468
REMARK  1 active torsions:
REMARK  status: ('A' for Active; 'I' for Inactive)
REMARK    1  A    between atoms: C1_1  and  C2_2 
ROOT
HETATM    1  C2  UNL     1     -34.648   5.889   4.111  1.00 20.00     0.412 C 
HETATM    2  F4  UNL     1     -34.158   7.127   3.884  1.00 20.00    -0.168 F 
HETATM    3  F5  UNL     1     -35.929   5.868   3.688  1.00 20.00    -0.168 F 
HETATM    4  F6  UNL     1     -33.943   5.021   3.357  1.00 20.00    -0.168 F 
ENDROOT
BRANCH   1   5
HETATM    5  C1  UNL     1     -34.555   5.538   5.569  1.00 20.00     0.339 C 
HETATM    6  F3  UNL     1     -34.324   6.674   6.279  1.00 20.00    -0.246 F 
ENDBRANCH   1   5
TORSDOF 1
ENDMDL
MODEL 7
REMARK VINA RESULT:      -4.1      1.114      2.086
REMARK  1 active torsions:
REMARK  status: ('A' for Active; 'I' for Inactive)
REMARK    1  A    between atoms: C1_1  and  C2_2 
ROOT
HETATM    1  C2  UNL     1     -34.676   5.763   3.915  1.00 20.00     0.412 C 
HETATM    2  F4  UNL     1     -35.984   5.976   3.654  1.00 20.00    -0.168 F 
HETATM    3  F5  UNL     1     -34.005   5.837   2.747  1.00 20.00    -0.168 F 
HETATM    4  F6  UNL     1     -34.245   6.763   4.711  1.00 20.00    -0.168 F 
ENDROOT
BRANCH   1   5
HETATM    5  C1  UNL     1     -34.474   4.426   4.570  1.00 20.00     0.339 C 
HETATM    6  F3  UNL     1     -34.460   4.596   5.918  1.00 20.00    -0.246 F 
ENDBRANCH   1   5
TORSDOF 1
ENDMDL
MODEL 8
REMARK VINA RESULT:      -4.1      1.236      2.233
REMARK  1 active torsions:
REMARK  status: ('A' for Active; 'I' for Inactive)
REMARK    1  A    between atoms: C1_1  and  C2_2 
ROOT
HETATM    1  C2  UNL     1     -34.686   5.806   4.005  1.00 20.00     0.412 C 
HETATM    2  F4  UNL     1     -34.206   6.990   4.442  1.00 20.00    -0.168 F 
HETATM    3  F5  UNL     1     -35.959   6.000   3.602  1.00 20.00    -0.168 F 
HETATM    4  F6  UNL     1     -33.958   5.436   2.931  1.00 20.00    -0.168 F 
ENDROOT
BRANCH   1   5
HETATM    5  C1  UNL     1     -34.614   4.769   5.089  1.00 20.00     0.339 C 
HETATM    6  F3  UNL     1     -34.066   3.636   4.575  1.00 20.00    -0.246 F 
ENDBRANCH   1   5
TORSDOF 1
ENDMDL
MODEL 9
REMARK VINA RESULT:      -4.0      1.300      1.639
REMARK  1 active torsions:
REMARK  status: ('A' for Active; 'I' for Inactive)
REMARK    1  A    between atoms: C1_1  and  C2_2 
ROOT
HETATM    1  C2  UNL     1     -34.764   5.516   4.248  1.00 20.00     0.412 C 
HETATM    2  F4  UNL     1     -35.978   5.872   3.778  1.00 20.00    -0.168 F 
HETATM    3  F5  UNL     1     -34.604   6.093   5.457  1.00 20.00    -0.168 F 
HETATM    4  F6  UNL     1     -34.763   4.178   4.419  1.00 20.00    -0.168 F 
ENDROOT
BRANCH   1   5
HETATM    5  C1  UNL     1     -33.679   5.941   3.300  1.00 20.00     0.339 C 
HETATM    6  F3  UNL     1     -33.042   7.024   3.819  1.00 20.00    -0.246 F 
ENDBRANCH   1   5
TORSDOF 1
ENDMDL
