MODEL 1
REMARK VINA RESULT:      -3.4      0.000      0.000
REMARK  0 active torsions:
REMARK  status: ('A' for Active; 'I' for Inactive)
ROOT
HETATM    1  C1  UNL     1     -35.000   5.741   4.126  1.00 20.00     0.050 C 
HETATM    2  C2  UNL     1     -33.988   6.605   4.370  1.00 20.00     0.094 C 
HETATM    3 CL3  UNL     1     -32.870   7.065   3.129  1.00 20.00    -0.072 Cl
HETATM    4 CL4  UNL     1     -33.751   7.305   5.937  1.00 20.00    -0.072 Cl
ENDROOT
TORSDOF 0
ENDMDL
MODEL 2
REMARK VINA RESULT:      -3.4      0.051      2.088
REMARK  0 active torsions:
REMARK  status: ('A' for Active; 'I' for Inactive)
ROOT
HETATM    1  C1  UNL     1     -35.011   5.688   4.148  1.00 20.00     0.050 C 
HETATM    2  C2  UNL     1     -34.012   6.575   4.362  1.00 20.00     0.094 C 
HETATM    3 CL3  UNL     1     -33.762   7.301   5.915  1.00 20.00    -0.072 Cl
HETATM    4 CL4  UNL     1     -32.923   7.036   3.097  1.00 20.00    -0.072 Cl
ENDROOT
TORSDOF 0
ENDMDL
MODEL 3
REMARK VINA RESULT:      -3.4      1.622      2.398
REMARK  0 active torsions:
REMARK  status: ('A' for Active; 'I' for Inactive)
ROOT
HETATM    1  C1  UNL     1     -33.743   7.269   5.801  1.00 20.00     0.050 C 
HETATM    2  C2  UNL     1     -33.894   6.790   4.545  1.00 20.00     0.094 C 
HETATM    3 CL3  UNL     1     -35.169   5.688   4.142  1.00 20.00    -0.072 Cl
HETATM    4 CL4  UNL     1     -32.823   7.250   3.264  1.00 20.00    -0.072 Cl
ENDROOT
TORSDOF 0
ENDMDL
MODEL 4
REMARK VINA RESULT:      -3.4      1.621      1.916
REMARK  0 active torsions:
REMARK  status: ('A' for Active; 'I' for Inactive)
ROOT
HETATM    1  C1  UNL     1     -33.743   7.269   5.801  1.00 20.00     0.050 C 
HETATM    2  C2  UNL     1     -33.894   6.790   4.545  1.00 20.00     0.094 C 
HETATM    3 CL3  UNL     1     -32.822   7.249   3.264  1.00 20.00    -0.072 Cl
HETATM    4 CL4  UNL     1     -35.169   5.688   4.142  1.00 20.00    -0.072 Cl
ENDROOT
TORSDOF 0
ENDMDL
MODEL 5
REMARK VINA RESULT:      -3.4      1.605      1.912
REMARK  0 active torsions:
REMARK  status: ('A' for Active; 'I' for Inactive)
ROOT
HETATM    1  C1  UNL     1     -33.007   7.238   3.328  1.00 20.00     0.050 C 
HETATM    2  C2  UNL     1     -33.854   6.829   4.300  1.00 20.00     0.094 C 
HETATM    3 CL3  UNL     1     -35.162   5.744   3.965  1.00 20.00    -0.072 Cl
HETATM    4 CL4  UNL     1     -33.681   7.366   5.937  1.00 20.00    -0.072 Cl
ENDROOT
TORSDOF 0
ENDMDL
MODEL 6
REMARK VINA RESULT:      -3.4      1.623      2.419
REMARK  0 active torsions:
REMARK  status: ('A' for Active; 'I' for Inactive)
ROOT
HETATM    1  C1  UNL     1     -33.041   7.166   3.308  1.00 20.00     0.050 C 
HETATM    2  C2  UNL     1     -33.874   6.795   4.307  1.00 20.00     0.094 C 
HETATM    3 CL3  UNL     1     -33.662   7.373   5.926  1.00 20.00    -0.072 Cl
HETATM    4 CL4  UNL     1     -35.202   5.719   4.027  1.00 20.00    -0.072 Cl
ENDROOT
TORSDOF 0
ENDMDL
MODEL 7
REMARK VINA RESULT:      -3.1      1.717      2.136
REMARK  0 active torsions:
REMARK  status: ('A' for Active; 'I' for Inactive)
ROOT
HETATM    1  C1  UNL     1     -32.412   7.863   2.868  1.00 20.00     0.050 C 
HETATM    2  C2  UNL     1     -33.120   6.928   3.542  1.00 20.00     0.094 C 
HETATM    3 CL3  UNL     1     -33.462   5.377   2.851  1.00 20.00    -0.072 Cl
HETATM    4 CL4  UNL     1     -33.726   7.225   5.137  1.00 20.00    -0.072 Cl
ENDROOT
TORSDOF 0
ENDMDL
MODEL 8
REMARK VINA RESULT:      -3.1      2.094      2.960
REMARK  0 active torsions:
REMARK  status: ('A' for Active; 'I' for Inactive)
ROOT
HETATM    1  C1  UNL     1     -33.183   7.289   3.272  1.00 20.00     0.050 C 
HETATM    2  C2  UNL     1     -33.722   6.050   3.321  1.00 20.00     0.094 C 
HETATM    3 CL3  UNL     1     -35.208   5.740   4.155  1.00 20.00    -0.072 Cl
HETATM    4 CL4  UNL     1     -32.958   4.698   2.553  1.00 20.00    -0.072 Cl
ENDROOT
TORSDOF 0
ENDMDL
MODEL 9
REMARK VINA RESULT:      -3.0      1.584      1.989
REMARK  0 active torsions:
REMARK  status: ('A' for Active; 'I' for Inactive)
ROOT
HETATM    1  C1  UNL     1     -34.939   5.829   4.102  1.00 20.00     0.050 C 
HETATM    2  C2  UNL     1     -33.814   5.996   3.368  1.00 20.00     0.094 C 
HETATM    3 CL3  UNL     1     -33.016   4.655   2.616  1.00 20.00    -0.072 Cl
HETATM    4 CL4  UNL     1     -33.107   7.560   3.137  1.00 20.00    -0.072 Cl
ENDROOT
TORSDOF 0
ENDMDL
