MODEL 1
REMARK VINA RESULT:      -3.9      0.000      0.000
REMARK  1 active torsions:
REMARK  status: ('A' for Active; 'I' for Inactive)
REMARK    1  A    between atoms: C1_1  and  C2_2 
ROOT
HETATM    1  C2  UNL     1     -34.191   5.738   4.056  1.00 20.00     0.200 C 
HETATM    2 CL4  UNL     1     -35.825   6.092   3.402  1.00 20.00    -0.083 Cl
HETATM    3 CL5  UNL     1     -34.385   4.703   5.502  1.00 20.00    -0.083 Cl
HETATM    4 CL6  UNL     1     -33.276   4.843   2.805  1.00 20.00    -0.083 Cl
ENDROOT
BRANCH   1   5
HETATM    5  C1  UNL     1     -33.506   7.062   4.406  1.00 20.00     0.173 C 
HETATM    6 CL3  UNL     1     -33.641   7.500   6.133  1.00 20.00    -0.126 Cl
ENDBRANCH   1   5
TORSDOF 1
ENDMDL
MODEL 2
REMARK VINA RESULT:      -3.9      0.036      2.058
REMARK  1 active torsions:
REMARK  status: ('A' for Active; 'I' for Inactive)
REMARK    1  A    between atoms: C1_1  and  C2_2 
ROOT
HETATM    1  C2  UNL     1     -34.232   5.764   4.067  1.00 20.00     0.200 C 
HETATM    2 CL4  UNL     1     -33.287   4.868   2.830  1.00 20.00    -0.083 Cl
HETATM    3 CL5  UNL     1     -35.855   6.098   3.390  1.00 20.00    -0.083 Cl
HETATM    4 CL6  UNL     1     -34.395   4.714   5.507  1.00 20.00    -0.083 Cl
ENDROOT
BRANCH   1   5
HETATM    5  C1  UNL     1     -33.492   7.061   4.404  1.00 20.00     0.173 C 
HETATM    6 CL3  UNL     1     -33.593   7.513   6.130  1.00 20.00    -0.126 Cl
ENDBRANCH   1   5
TORSDOF 1
ENDMDL
MODEL 3
REMARK VINA RESULT:      -3.9      0.035      2.049
REMARK  1 active torsions:
REMARK  status: ('A' for Active; 'I' for Inactive)
REMARK    1  A    between atoms: C1_1  and  C2_2 
ROOT
HETATM    1  C2  UNL     1     -34.206   5.770   4.023  1.00 20.00     0.200 C 
HETATM    2 CL4  UNL     1     -34.392   4.751   5.490  1.00 20.00    -0.083 Cl
HETATM    3 CL5  UNL     1     -33.274   4.835   2.814  1.00 20.00    -0.083 Cl
HETATM    4 CL6  UNL     1     -35.839   6.113   3.376  1.00 20.00    -0.083 Cl
ENDROOT
BRANCH   1   5
HETATM    5  C1  UNL     1     -33.478   7.059   4.411  1.00 20.00     0.173 C 
HETATM    6 CL3  UNL     1     -33.658   7.490   6.135  1.00 20.00    -0.126 Cl
ENDBRANCH   1   5
TORSDOF 1
ENDMDL
MODEL 4
REMARK VINA RESULT:      -3.8      1.468      1.942
REMARK  1 active torsions:
REMARK  status: ('A' for Active; 'I' for Inactive)
REMARK    1  A    between atoms: C1_1  and  C2_2 
ROOT
HETATM    1  C2  UNL     1     -34.218   5.778   4.118  1.00 20.00     0.200 C 
HETATM    2 CL4  UNL     1     -35.873   6.139   3.523  1.00 20.00    -0.083 Cl
HETATM    3 CL5  UNL     1     -33.906   6.810   5.547  1.00 20.00    -0.083 Cl
HETATM    4 CL6  UNL     1     -34.168   4.058   4.608  1.00 20.00    -0.083 Cl
ENDROOT
BRANCH   1   5
HETATM    5  C1  UNL     1     -33.219   6.067   2.994  1.00 20.00     0.173 C 
HETATM    6 CL3  UNL     1     -32.265   7.555   3.252  1.00 20.00    -0.126 Cl
ENDBRANCH   1   5
TORSDOF 1
ENDMDL
MODEL 5
REMARK VINA RESULT:      -3.8      1.467      2.636
REMARK  1 active torsions:
REMARK  status: ('A' for Active; 'I' for Inactive)
REMARK    1  A    between atoms: C1_1  and  C2_2 
ROOT
HETATM    1  C2  UNL     1     -34.243   5.803   4.101  1.00 20.00     0.200 C 
HETATM    2 CL4  UNL     1     -34.166   4.076   4.585  1.00 20.00    -0.083 Cl
HETATM    3 CL5  UNL     1     -35.901   6.143   3.520  1.00 20.00    -0.083 Cl
HETATM    4 CL6  UNL     1     -33.905   6.800   5.549  1.00 20.00    -0.083 Cl
ENDROOT
BRANCH   1   5
HETATM    5  C1  UNL     1     -33.206   6.050   3.001  1.00 20.00     0.173 C 
HETATM    6 CL3  UNL     1     -32.260   7.547   3.235  1.00 20.00    -0.126 Cl
ENDBRANCH   1   5
TORSDOF 1
ENDMDL
MODEL 6
REMARK VINA RESULT:      -3.8      1.478      2.310
REMARK  1 active torsions:
REMARK  status: ('A' for Active; 'I' for Inactive)
REMARK    1  A    between atoms: C1_1  and  C2_2 
ROOT
HETATM    1  C2  UNL     1     -34.241   5.767   4.081  1.00 20.00     0.200 C 
HETATM    2 CL4  UNL     1     -33.896   6.800   5.509  1.00 20.00    -0.083 Cl
HETATM    3 CL5  UNL     1     -34.162   4.057   4.603  1.00 20.00    -0.083 Cl
HETATM    4 CL6  UNL     1     -35.897   6.139   3.516  1.00 20.00    -0.083 Cl
ENDROOT
BRANCH   1   5
HETATM    5  C1  UNL     1     -33.202   6.067   2.998  1.00 20.00     0.173 C 
HETATM    6 CL3  UNL     1     -32.282   7.571   3.286  1.00 20.00    -0.126 Cl
ENDBRANCH   1   5
TORSDOF 1
ENDMDL
MODEL 7
REMARK VINA RESULT:      -3.7      1.199      1.224
REMARK  1 active torsions:
REMARK  status: ('A' for Active; 'I' for Inactive)
REMARK    1  A    between atoms: C1_1  and  C2_2 
ROOT
HETATM    1  C2  UNL     1     -34.337   5.646   4.279  1.00 20.00     0.200 C 
HETATM    2 CL4  UNL     1     -35.914   6.056   3.525  1.00 20.00    -0.083 Cl
HETATM    3 CL5  UNL     1     -34.120   3.872   4.179  1.00 20.00    -0.083 Cl
HETATM    4 CL6  UNL     1     -33.047   6.455   3.339  1.00 20.00    -0.083 Cl
ENDROOT
BRANCH   1   5
HETATM    5  C1  UNL     1     -34.350   6.124   5.733  1.00 20.00     0.173 C 
HETATM    6 CL3  UNL     1     -33.408   7.618   6.002  1.00 20.00    -0.126 Cl
ENDBRANCH   1   5
TORSDOF 1
ENDMDL
MODEL 8
REMARK VINA RESULT:      -3.7      1.206      1.965
REMARK  1 active torsions:
REMARK  status: ('A' for Active; 'I' for Inactive)
REMARK    1  A    between atoms: C1_1  and  C2_2 
ROOT
HETATM    1  C2  UNL     1     -34.392   5.652   4.300  1.00 20.00     0.200 C 
HETATM    2 CL4  UNL     1     -33.072   6.464   3.392  1.00 20.00    -0.083 Cl
HETATM    3 CL5  UNL     1     -35.943   6.061   3.506  1.00 20.00    -0.083 Cl
HETATM    4 CL6  UNL     1     -34.125   3.885   4.204  1.00 20.00    -0.083 Cl
ENDROOT
BRANCH   1   5
HETATM    5  C1  UNL     1     -34.363   6.143   5.750  1.00 20.00     0.173 C 
HETATM    6 CL3  UNL     1     -33.379   7.615   5.986  1.00 20.00    -0.126 Cl
ENDBRANCH   1   5
TORSDOF 1
ENDMDL
MODEL 9
REMARK VINA RESULT:      -3.2      1.322      3.046
REMARK  1 active torsions:
REMARK  status: ('A' for Active; 'I' for Inactive)
REMARK    1  A    between atoms: C1_1  and  C2_2 
ROOT
HETATM    1  C2  UNL     1     -34.267   5.931   4.223  1.00 20.00     0.200 C 
HETATM    2 CL4  UNL     1     -35.909   6.190   3.543  1.00 20.00    -0.083 Cl
HETATM    3 CL5  UNL     1     -33.173   7.155   3.511  1.00 20.00    -0.083 Cl
HETATM    4 CL6  UNL     1     -34.356   6.173   5.993  1.00 20.00    -0.083 Cl
ENDROOT
BRANCH   1   5
HETATM    5  C1  UNL     1     -33.812   4.510   3.877  1.00 20.00     0.173 C 
HETATM    6 CL3  UNL     1     -32.818   4.419   2.396  1.00 20.00    -0.126 Cl
ENDBRANCH   1   5
TORSDOF 1
ENDMDL
