MODEL 1
REMARK VINA RESULT:      -3.6      0.000      0.000
REMARK  0 active torsions:
REMARK  status: ('A' for Active; 'I' for Inactive)
ROOT
HETATM    1  C1  UNL     1     -35.623   6.105   3.612  1.00 20.00     0.068 C 
HETATM    2  C2  UNL     1     -34.246   5.783   4.177  1.00 20.00     0.184 C 
HETATM    3 CL3  UNL     1     -34.164   4.053   4.612  1.00 20.00    -0.084 Cl
HETATM    4 CL4  UNL     1     -32.995   6.141   2.954  1.00 20.00    -0.084 Cl
HETATM    5 CL5  UNL     1     -33.944   6.771   5.632  1.00 20.00    -0.084 Cl
ENDROOT
TORSDOF 0
ENDMDL
MODEL 2
REMARK VINA RESULT:      -3.6      0.029      2.241
REMARK  0 active torsions:
REMARK  status: ('A' for Active; 'I' for Inactive)
ROOT
HETATM    1  C1  UNL     1     -35.615   6.104   3.610  1.00 20.00     0.068 C 
HETATM    2  C2  UNL     1     -34.239   5.777   4.174  1.00 20.00     0.184 C 
HETATM    3 CL3  UNL     1     -33.951   6.737   5.651  1.00 20.00    -0.084 Cl
HETATM    4 CL4  UNL     1     -34.151   4.039   4.577  1.00 20.00    -0.084 Cl
HETATM    5 CL5  UNL     1     -32.983   6.163   2.966  1.00 20.00    -0.084 Cl
ENDROOT
TORSDOF 0
ENDMDL
MODEL 3
REMARK VINA RESULT:      -3.6      0.029      2.268
REMARK  0 active torsions:
REMARK  status: ('A' for Active; 'I' for Inactive)
ROOT
HETATM    1  C1  UNL     1     -35.615   6.104   3.609  1.00 20.00     0.068 C 
HETATM    2  C2  UNL     1     -34.240   5.775   4.175  1.00 20.00     0.184 C 
HETATM    3 CL3  UNL     1     -32.984   6.164   2.966  1.00 20.00    -0.084 Cl
HETATM    4 CL4  UNL     1     -33.951   6.736   5.652  1.00 20.00    -0.084 Cl
HETATM    5 CL5  UNL     1     -34.151   4.039   4.578  1.00 20.00    -0.084 Cl
ENDROOT
TORSDOF 0
ENDMDL
MODEL 4
REMARK VINA RESULT:      -3.6      1.496      2.518
REMARK  0 active torsions:
REMARK  status: ('A' for Active; 'I' for Inactive)
ROOT
HETATM    1  C1  UNL     1     -34.320   4.276   4.679  1.00 20.00     0.068 C 
HETATM    2  C2  UNL     1     -34.299   5.718   4.188  1.00 20.00     0.184 C 
HETATM    3 CL3  UNL     1     -35.896   6.149   3.518  1.00 20.00    -0.084 Cl
HETATM    4 CL4  UNL     1     -33.918   6.812   5.548  1.00 20.00    -0.084 Cl
HETATM    5 CL5  UNL     1     -33.058   5.906   2.920  1.00 20.00    -0.084 Cl
ENDROOT
TORSDOF 0
ENDMDL
MODEL 5
REMARK VINA RESULT:      -3.5      1.493      2.118
REMARK  0 active torsions:
REMARK  status: ('A' for Active; 'I' for Inactive)
ROOT
HETATM    1  C1  UNL     1     -34.312   4.285   4.701  1.00 20.00     0.068 C 
HETATM    2  C2  UNL     1     -34.294   5.722   4.198  1.00 20.00     0.184 C 
HETATM    3 CL3  UNL     1     -33.053   5.900   2.928  1.00 20.00    -0.084 Cl
HETATM    4 CL4  UNL     1     -35.892   6.143   3.521  1.00 20.00    -0.084 Cl
HETATM    5 CL5  UNL     1     -33.918   6.829   5.547  1.00 20.00    -0.084 Cl
ENDROOT
TORSDOF 0
ENDMDL
MODEL 6
REMARK VINA RESULT:      -3.5      1.502      2.165
REMARK  0 active torsions:
REMARK  status: ('A' for Active; 'I' for Inactive)
ROOT
HETATM    1  C1  UNL     1     -34.344   4.281   4.688  1.00 20.00     0.068 C 
HETATM    2  C2  UNL     1     -34.312   5.721   4.192  1.00 20.00     0.184 C 
HETATM    3 CL3  UNL     1     -33.923   6.816   5.547  1.00 20.00    -0.084 Cl
HETATM    4 CL4  UNL     1     -33.067   5.892   2.923  1.00 20.00    -0.084 Cl
HETATM    5 CL5  UNL     1     -35.903   6.163   3.516  1.00 20.00    -0.084 Cl
ENDROOT
TORSDOF 0
ENDMDL
MODEL 7
REMARK VINA RESULT:      -3.5      1.483      2.520
REMARK  0 active torsions:
REMARK  status: ('A' for Active; 'I' for Inactive)
ROOT
HETATM    1  C1  UNL     1     -33.236   6.162   3.078  1.00 20.00     0.068 C 
HETATM    2  C2  UNL     1     -34.268   5.792   4.135  1.00 20.00     0.184 C 
HETATM    3 CL3  UNL     1     -33.978   6.742   5.618  1.00 20.00    -0.084 Cl
HETATM    4 CL4  UNL     1     -35.909   6.144   3.523  1.00 20.00    -0.084 Cl
HETATM    5 CL5  UNL     1     -34.145   4.053   4.516  1.00 20.00    -0.084 Cl
ENDROOT
TORSDOF 0
ENDMDL
MODEL 8
REMARK VINA RESULT:      -3.5      1.478      2.136
REMARK  0 active torsions:
REMARK  status: ('A' for Active; 'I' for Inactive)
ROOT
HETATM    1  C1  UNL     1     -33.240   6.134   3.081  1.00 20.00     0.068 C 
HETATM    2  C2  UNL     1     -34.274   5.783   4.142  1.00 20.00     0.184 C 
HETATM    3 CL3  UNL     1     -35.912   6.138   3.528  1.00 20.00    -0.084 Cl
HETATM    4 CL4  UNL     1     -34.160   4.045   4.542  1.00 20.00    -0.084 Cl
HETATM    5 CL5  UNL     1     -33.977   6.744   5.616  1.00 20.00    -0.084 Cl
ENDROOT
TORSDOF 0
ENDMDL
MODEL 9
REMARK VINA RESULT:      -3.5      1.478      2.154
REMARK  0 active torsions:
REMARK  status: ('A' for Active; 'I' for Inactive)
ROOT
HETATM    1  C1  UNL     1     -33.243   6.149   3.087  1.00 20.00     0.068 C 
HETATM    2  C2  UNL     1     -34.280   5.778   4.140  1.00 20.00     0.184 C 
HETATM    3 CL3  UNL     1     -34.155   4.039   4.521  1.00 20.00    -0.084 Cl
HETATM    4 CL4  UNL     1     -33.995   6.728   5.626  1.00 20.00    -0.084 Cl
HETATM    5 CL5  UNL     1     -35.917   6.130   3.524  1.00 20.00    -0.084 Cl
ENDROOT
TORSDOF 0
ENDMDL
