MODEL 1
REMARK VINA RESULT:      -4.2      0.000      0.000
REMARK  0 active torsions:
REMARK  status: ('A' for Active; 'I' for Inactive)
ROOT
HETATM    1  C1  UNL     1     -33.837   6.948   5.307  1.00 20.00     0.409 C 
HETATM    2  C2  UNL     1     -33.722   6.023   3.259  1.00 20.00     0.247 C 
HETATM    3  C3  UNL     1     -34.834   5.400   4.038  1.00 20.00     0.343 C 
HETATM    4  O4  UNL     1     -33.586   7.665   6.263  1.00 20.00    -0.229 OA
HETATM    5  O5  UNL     1     -33.422   7.184   4.025  1.00 20.00    -0.293 OA
HETATM    6  O6  UNL     1     -34.570   5.794   5.371  1.00 20.00    -0.260 OA
HETATM    7  F7  UNL     1     -36.021   5.947   3.673  1.00 20.00    -0.217 F 
ENDROOT
TORSDOF 0
ENDMDL
MODEL 2
REMARK VINA RESULT:      -4.2      1.923      2.631
REMARK  0 active torsions:
REMARK  status: ('A' for Active; 'I' for Inactive)
ROOT
HETATM    1  C1  UNL     1     -34.297   5.027   4.402  1.00 20.00     0.409 C 
HETATM    2  C2  UNL     1     -33.796   7.142   3.820  1.00 20.00     0.247 C 
HETATM    3  C3  UNL     1     -34.169   7.086   5.265  1.00 20.00     0.343 C 
HETATM    4  O4  UNL     1     -34.475   3.822   4.321  1.00 20.00    -0.229 OA
HETATM    5  O5  UNL     1     -33.583   5.771   3.503  1.00 20.00    -0.293 OA
HETATM    6  O6  UNL     1     -34.790   5.822   5.401  1.00 20.00    -0.260 OA
HETATM    7  F7  UNL     1     -33.052   7.082   6.035  1.00 20.00    -0.217 F 
ENDROOT
TORSDOF 0
ENDMDL
MODEL 3
REMARK VINA RESULT:      -4.1      1.649      2.433
REMARK  0 active torsions:
REMARK  status: ('A' for Active; 'I' for Inactive)
ROOT
HETATM    1  C1  UNL     1     -33.767   6.562   3.722  1.00 20.00     0.409 C 
HETATM    2  C2  UNL     1     -33.901   7.112   5.900  1.00 20.00     0.247 C 
HETATM    3  C3  UNL     1     -34.714   5.888   5.633  1.00 20.00     0.343 C 
HETATM    4  O4  UNL     1     -33.452   6.595   2.543  1.00 20.00    -0.229 OA
HETATM    5  O5  UNL     1     -33.105   7.217   4.725  1.00 20.00    -0.293 OA
HETATM    6  O6  UNL     1     -34.835   5.868   4.224  1.00 20.00    -0.260 OA
HETATM    7  F7  UNL     1     -34.023   4.781   6.004  1.00 20.00    -0.217 F 
ENDROOT
TORSDOF 0
ENDMDL
MODEL 4
REMARK VINA RESULT:      -4.1      1.209      1.881
REMARK  0 active torsions:
REMARK  status: ('A' for Active; 'I' for Inactive)
ROOT
HETATM    1  C1  UNL     1     -33.810   6.942   5.177  1.00 20.00     0.409 C 
HETATM    2  C2  UNL     1     -35.124   5.534   4.013  1.00 20.00     0.247 C 
HETATM    3  C3  UNL     1     -34.070   6.102   3.121  1.00 20.00     0.343 C 
HETATM    4  O4  UNL     1     -33.353   7.586   6.108  1.00 20.00    -0.229 OA
HETATM    5  O5  UNL     1     -34.640   5.862   5.311  1.00 20.00    -0.293 OA
HETATM    6  O6  UNL     1     -33.566   7.202   3.856  1.00 20.00    -0.260 OA
HETATM    7  F7  UNL     1     -33.059   5.210   2.968  1.00 20.00    -0.217 F 
ENDROOT
TORSDOF 0
ENDMDL
MODEL 5
REMARK VINA RESULT:      -4.1      1.330      2.122
REMARK  0 active torsions:
REMARK  status: ('A' for Active; 'I' for Inactive)
ROOT
HETATM    1  C1  UNL     1     -33.191   6.504   3.153  1.00 20.00     0.409 C 
HETATM    2  C2  UNL     1     -34.064   4.574   3.911  1.00 20.00     0.247 C 
HETATM    3  C3  UNL     1     -34.841   5.730   4.450  1.00 20.00     0.343 C 
HETATM    4  O4  UNL     1     -32.466   7.284   2.556  1.00 20.00    -0.229 OA
HETATM    5  O5  UNL     1     -33.306   5.171   2.866  1.00 20.00    -0.293 OA
HETATM    6  O6  UNL     1     -33.999   6.841   4.205  1.00 20.00    -0.260 OA
HETATM    7  F7  UNL     1     -35.976   5.905   3.727  1.00 20.00    -0.217 F 
ENDROOT
TORSDOF 0
ENDMDL
MODEL 6
REMARK VINA RESULT:      -4.0      1.527      2.215
REMARK  0 active torsions:
REMARK  status: ('A' for Active; 'I' for Inactive)
ROOT
HETATM    1  C1  UNL     1     -33.661   6.882   3.643  1.00 20.00     0.409 C 
HETATM    2  C2  UNL     1     -34.441   6.145   5.621  1.00 20.00     0.247 C 
HETATM    3  C3  UNL     1     -34.858   5.214   4.530  1.00 20.00     0.343 C 
HETATM    4  O4  UNL     1     -33.086   7.574   2.818  1.00 20.00    -0.229 OA
HETATM    5  O5  UNL     1     -33.431   6.926   4.992  1.00 20.00    -0.293 OA
HETATM    6  O6  UNL     1     -34.627   5.958   3.349  1.00 20.00    -0.260 OA
HETATM    7  F7  UNL     1     -34.039   4.132   4.503  1.00 20.00    -0.217 F 
ENDROOT
TORSDOF 0
ENDMDL
MODEL 7
REMARK VINA RESULT:      -3.9      1.509      2.663
REMARK  0 active torsions:
REMARK  status: ('A' for Active; 'I' for Inactive)
ROOT
HETATM    1  C1  UNL     1     -34.374   5.188   4.641  1.00 20.00     0.409 C 
HETATM    2  C2  UNL     1     -33.736   7.083   5.674  1.00 20.00     0.247 C 
HETATM    3  C3  UNL     1     -33.415   7.164   4.217  1.00 20.00     0.343 C 
HETATM    4  O4  UNL     1     -34.839   4.073   4.465  1.00 20.00    -0.229 OA
HETATM    5  O5  UNL     1     -34.625   5.973   5.734  1.00 20.00    -0.293 OA
HETATM    6  O6  UNL     1     -33.526   5.824   3.776  1.00 20.00    -0.260 OA
HETATM    7  F7  UNL     1     -34.363   7.890   3.573  1.00 20.00    -0.217 F 
ENDROOT
TORSDOF 0
ENDMDL
MODEL 8
REMARK VINA RESULT:      -3.9      1.893      2.588
REMARK  0 active torsions:
REMARK  status: ('A' for Active; 'I' for Inactive)
ROOT
HETATM    1  C1  UNL     1     -32.401   7.620   3.452  1.00 20.00     0.409 C 
HETATM    2  C2  UNL     1     -34.211   6.522   4.214  1.00 20.00     0.247 C 
HETATM    3  C3  UNL     1     -33.833   6.006   2.864  1.00 20.00     0.343 C 
HETATM    4  O4  UNL     1     -31.463   8.400   3.404  1.00 20.00    -0.229 OA
HETATM    5  O5  UNL     1     -33.056   7.259   4.598  1.00 20.00    -0.293 OA
HETATM    6  O6  UNL     1     -32.946   6.990   2.366  1.00 20.00    -0.260 OA
HETATM    7  F7  UNL     1     -33.136   4.848   2.988  1.00 20.00    -0.217 F 
ENDROOT
TORSDOF 0
ENDMDL
MODEL 9
REMARK VINA RESULT:      -3.8     16.084     16.475
REMARK  0 active torsions:
REMARK  status: ('A' for Active; 'I' for Inactive)
ROOT
HETATM    1  C1  UNL     1     -24.205  17.293  10.077  1.00 20.00     0.409 C 
HETATM    2  C2  UNL     1     -25.290  19.263  10.127  1.00 20.00     0.247 C 
HETATM    3  C3  UNL     1     -25.423  18.575  11.446  1.00 20.00     0.343 C 
HETATM    4  O4  UNL     1     -23.537  16.356   9.668  1.00 20.00    -0.229 OA
HETATM    5  O5  UNL     1     -24.240  18.534   9.502  1.00 20.00    -0.293 OA
HETATM    6  O6  UNL     1     -25.027  17.245  11.170  1.00 20.00    -0.260 OA
HETATM    7  F7  UNL     1     -24.536  19.094  12.332  1.00 20.00    -0.217 F 
ENDROOT
TORSDOF 0
ENDMDL
