MODEL 1
REMARK VINA RESULT:      -5.0      0.000      0.000
REMARK  1 active torsions:
REMARK  status: ('A' for Active; 'I' for Inactive)
REMARK    1  A    between atoms: C2_2  and  C5_5 
ROOT
HETATM    1  C1  UNL     1     -33.088   7.393   4.972  1.00 20.00     0.088 A 
HETATM    2  C2  UNL     1     -33.731   6.615   4.031  1.00 20.00     0.147 A 
HETATM    3  C3  UNL     1     -32.478   7.801   2.677  1.00 20.00     0.071 A 
HETATM    4  C4  UNL     1     -31.864   8.322   1.437  1.00 20.00     0.078 C 
HETATM    5  N6  UNL     1     -33.383   6.847   2.715  1.00 20.00    -0.241 NA
HETATM    6  S10 UNL     1     -31.999   8.461   4.187  1.00 20.00    -0.085 SA
ENDROOT
BRANCH   2   7
HETATM    7  C5  UNL     1     -34.740   5.576   4.316  1.00 20.00     0.435 C 
HETATM    8  F7  UNL     1     -34.397   4.322   3.877  1.00 20.00    -0.165 F 
HETATM    9  F8  UNL     1     -35.012   5.408   5.651  1.00 20.00    -0.165 F 
HETATM   10  F9  UNL     1     -35.957   5.831   3.739  1.00 20.00    -0.165 F 
ENDBRANCH   2   7
TORSDOF 1
ENDMDL
MODEL 2
REMARK VINA RESULT:      -4.8      3.384      4.313
REMARK  1 active torsions:
REMARK  status: ('A' for Active; 'I' for Inactive)
REMARK    1  A    between atoms: C2_2  and  C5_5 
ROOT
HETATM    1  C1  UNL     1     -33.216   6.136   2.355  1.00 20.00     0.088 A 
HETATM    2  C2  UNL     1     -32.912   7.353   2.930  1.00 20.00     0.147 A 
HETATM    3  C3  UNL     1     -33.918   6.421   4.642  1.00 20.00     0.071 A 
HETATM    4  C4  UNL     1     -34.486   6.224   5.993  1.00 20.00     0.078 C 
HETATM    5  N6  UNL     1     -33.313   7.517   4.242  1.00 20.00    -0.241 NA
HETATM    6  S10 UNL     1     -34.038   5.151   3.494  1.00 20.00    -0.085 SA
ENDROOT
BRANCH   2   7
HETATM    7  C5  UNL     1     -32.205   8.467   2.268  1.00 20.00     0.435 C 
HETATM    8  F7  UNL     1     -31.375   8.079   1.247  1.00 20.00    -0.165 F 
HETATM    9  F8  UNL     1     -33.036   9.399   1.698  1.00 20.00    -0.165 F 
HETATM   10  F9  UNL     1     -31.405   9.182   3.120  1.00 20.00    -0.165 F 
ENDBRANCH   2   7
TORSDOF 1
ENDMDL
MODEL 3
REMARK VINA RESULT:      -4.5      3.033      3.955
REMARK  1 active torsions:
REMARK  status: ('A' for Active; 'I' for Inactive)
REMARK    1  A    between atoms: C2_2  and  C5_5 
ROOT
HETATM    1  C1  UNL     1     -33.317   7.771   4.914  1.00 20.00     0.088 A 
HETATM    2  C2  UNL     1     -33.004   7.384   3.628  1.00 20.00     0.147 A 
HETATM    3  C3  UNL     1     -33.980   5.539   4.298  1.00 20.00     0.071 A 
HETATM    4  C4  UNL     1     -34.525   4.164   4.294  1.00 20.00     0.078 C 
HETATM    5  N6  UNL     1     -33.383   6.105   3.272  1.00 20.00    -0.241 NA
HETATM    6  S10 UNL     1     -34.120   6.488   5.720  1.00 20.00    -0.085 SA
ENDROOT
BRANCH   2   7
HETATM    7  C5  UNL     1     -32.311   8.214   2.623  1.00 20.00     0.435 C 
HETATM    8  F7  UNL     1     -31.683   7.497   1.636  1.00 20.00    -0.165 F 
HETATM    9  F8  UNL     1     -33.133   9.080   1.946  1.00 20.00    -0.165 F 
HETATM   10  F9  UNL     1     -31.329   9.007   3.159  1.00 20.00    -0.165 F 
ENDBRANCH   2   7
TORSDOF 1
ENDMDL
MODEL 4
REMARK VINA RESULT:      -4.2      3.600      4.552
REMARK  1 active torsions:
REMARK  status: ('A' for Active; 'I' for Inactive)
REMARK    1  A    between atoms: C2_2  and  C5_5 
ROOT
HETATM    1  C1  UNL     1     -31.901   8.572   3.323  1.00 20.00     0.088 A 
HETATM    2  C2  UNL     1     -32.493   8.355   2.096  1.00 20.00     0.147 A 
HETATM    3  C3  UNL     1     -33.639   6.905   3.275  1.00 20.00     0.071 A 
HETATM    4  C4  UNL     1     -34.617   5.855   3.634  1.00 20.00     0.078 C 
HETATM    5  N6  UNL     1     -33.490   7.400   2.066  1.00 20.00    -0.241 NA
HETATM    6  S10 UNL     1     -32.616   7.544   4.495  1.00 20.00    -0.085 SA
ENDROOT
BRANCH   2   7
HETATM    7  C5  UNL     1     -32.151   9.050   0.839  1.00 20.00     0.435 C 
HETATM    8  F7  UNL     1     -33.065   8.874  -0.168  1.00 20.00    -0.165 F 
HETATM    9  F8  UNL     1     -32.038  10.413   0.964  1.00 20.00    -0.165 F 
HETATM   10  F9  UNL     1     -30.955   8.645   0.304  1.00 20.00    -0.165 F 
ENDBRANCH   2   7
TORSDOF 1
ENDMDL
MODEL 5
REMARK VINA RESULT:      -4.1      1.390      1.667
REMARK  1 active torsions:
REMARK  status: ('A' for Active; 'I' for Inactive)
REMARK    1  A    between atoms: C2_2  and  C5_5 
ROOT
HETATM    1  C1  UNL     1     -33.551   6.366   2.491  1.00 20.00     0.088 A 
HETATM    2  C2  UNL     1     -33.839   6.299   3.839  1.00 20.00     0.147 A 
HETATM    3  C3  UNL     1     -32.348   7.906   3.900  1.00 20.00     0.071 A 
HETATM    4  C4  UNL     1     -31.450   8.962   4.416  1.00 20.00     0.078 C 
HETATM    5  N6  UNL     1     -33.151   7.182   4.648  1.00 20.00    -0.241 NA
HETATM    6  S10 UNL     1     -32.371   7.581   2.216  1.00 20.00    -0.085 SA
ENDROOT
BRANCH   2   7
HETATM    7  C5  UNL     1     -34.806   5.379   4.469  1.00 20.00     0.435 C 
HETATM    8  F7  UNL     1     -34.553   4.051   4.235  1.00 20.00    -0.165 F 
HETATM    9  F8  UNL     1     -34.869   5.480   5.836  1.00 20.00    -0.165 F 
HETATM   10  F9  UNL     1     -36.095   5.572   4.041  1.00 20.00    -0.165 F 
ENDBRANCH   2   7
TORSDOF 1
ENDMDL
MODEL 6
REMARK VINA RESULT:      -3.8     11.610     12.325
REMARK  1 active torsions:
REMARK  status: ('A' for Active; 'I' for Inactive)
REMARK    1  A    between atoms: C2_2  and  C5_5 
ROOT
HETATM    1  C1  UNL     1     -34.761  14.455  -4.280  1.00 20.00     0.088 A 
HETATM    2  C2  UNL     1     -35.360  15.521  -3.641  1.00 20.00     0.147 A 
HETATM    3  C3  UNL     1     -37.112  14.753  -4.712  1.00 20.00     0.071 A 
HETATM    4  C4  UNL     1     -38.500  14.614  -5.205  1.00 20.00     0.078 C 
HETATM    5  N6  UNL     1     -36.708  15.693  -3.887  1.00 20.00    -0.241 NA
HETATM    6  S10 UNL     1     -35.925  13.628  -5.230  1.00 20.00    -0.085 SA
ENDROOT
BRANCH   2   7
HETATM    7  C5  UNL     1     -34.686  16.470  -2.733  1.00 20.00     0.435 C 
HETATM    8  F7  UNL     1     -33.328  16.293  -2.640  1.00 20.00    -0.165 F 
HETATM    9  F8  UNL     1     -34.836  17.788  -3.086  1.00 20.00    -0.165 F 
HETATM   10  F9  UNL     1     -35.139  16.398  -1.441  1.00 20.00    -0.165 F 
ENDBRANCH   2   7
TORSDOF 1
ENDMDL
MODEL 7
REMARK VINA RESULT:      -3.8     11.507     12.396
REMARK  1 active torsions:
REMARK  status: ('A' for Active; 'I' for Inactive)
REMARK    1  A    between atoms: C2_2  and  C5_5 
ROOT
HETATM    1  C1  UNL     1     -33.500  16.880  -5.156  1.00 20.00     0.088 A 
HETATM    2  C2  UNL     1     -33.532  15.884  -4.203  1.00 20.00     0.147 A 
HETATM    3  C3  UNL     1     -33.545  17.621  -2.865  1.00 20.00     0.071 A 
HETATM    4  C4  UNL     1     -33.566  18.436  -1.631  1.00 20.00     0.078 C 
HETATM    5  N6  UNL     1     -33.559  16.307  -2.888  1.00 20.00    -0.241 NA
HETATM    6  S10 UNL     1     -33.503  18.413  -4.386  1.00 20.00    -0.085 SA
ENDROOT
BRANCH   2   7
HETATM    7  C5  UNL     1     -33.541  14.432  -4.473  1.00 20.00     0.435 C 
HETATM    8  F7  UNL     1     -34.507  13.739  -3.788  1.00 20.00    -0.165 F 
HETATM    9  F8  UNL     1     -33.755  14.107  -5.789  1.00 20.00    -0.165 F 
HETATM   10  F9  UNL     1     -32.363  13.813  -4.143  1.00 20.00    -0.165 F 
ENDBRANCH   2   7
TORSDOF 1
ENDMDL
MODEL 8
REMARK VINA RESULT:      -3.8     11.717     12.185
REMARK  1 active torsions:
REMARK  status: ('A' for Active; 'I' for Inactive)
REMARK    1  A    between atoms: C2_2  and  C5_5 
ROOT
HETATM    1  C1  UNL     1     -35.455  15.802  -3.791  1.00 20.00     0.088 A 
HETATM    2  C2  UNL     1     -34.082  15.664  -3.778  1.00 20.00     0.147 A 
HETATM    3  C3  UNL     1     -34.294  17.005  -2.057  1.00 20.00     0.071 A 
HETATM    4  C4  UNL     1     -33.952  17.857  -0.897  1.00 20.00     0.078 C 
HETATM    5  N6  UNL     1     -33.415  16.353  -2.785  1.00 20.00    -0.241 NA
HETATM    6  S10 UNL     1     -35.940  16.834  -2.510  1.00 20.00    -0.085 SA
ENDROOT
BRANCH   2   7
HETATM    7  C5  UNL     1     -33.289  14.854  -4.724  1.00 20.00     0.435 C 
HETATM    8  F7  UNL     1     -32.385  14.013  -4.124  1.00 20.00    -0.165 F 
HETATM    9  F8  UNL     1     -34.039  14.032  -5.526  1.00 20.00    -0.165 F 
HETATM   10  F9  UNL     1     -32.544  15.610  -5.592  1.00 20.00    -0.165 F 
ENDBRANCH   2   7
TORSDOF 1
ENDMDL
MODEL 9
REMARK VINA RESULT:      -3.8      1.706      2.000
REMARK  1 active torsions:
REMARK  status: ('A' for Active; 'I' for Inactive)
REMARK    1  A    between atoms: C2_2  and  C5_5 
ROOT
HETATM    1  C1  UNL     1     -33.958   5.508   3.174  1.00 20.00     0.088 A 
HETATM    2  C2  UNL     1     -33.768   6.262   4.314  1.00 20.00     0.147 A 
HETATM    3  C3  UNL     1     -32.659   7.518   2.899  1.00 20.00     0.071 A 
HETATM    4  C4  UNL     1     -31.849   8.627   2.351  1.00 20.00     0.078 C 
HETATM    5  N6  UNL     1     -33.024   7.415   4.158  1.00 20.00    -0.241 NA
HETATM    6  S10 UNL     1     -33.178   6.266   1.848  1.00 20.00    -0.085 SA
ENDROOT
BRANCH   2   7
HETATM    7  C5  UNL     1     -34.287   5.939   5.657  1.00 20.00     0.435 C 
HETATM    8  F7  UNL     1     -33.565   4.982   6.325  1.00 20.00    -0.165 F 
HETATM    9  F8  UNL     1     -34.318   7.007   6.519  1.00 20.00    -0.165 F 
HETATM   10  F9  UNL     1     -35.572   5.462   5.641  1.00 20.00    -0.165 F 
ENDBRANCH   2   7
TORSDOF 1
ENDMDL
