MODEL 1
REMARK VINA RESULT:      -6.0      0.000      0.000
REMARK  1 active torsions:
REMARK  status: ('A' for Active; 'I' for Inactive)
REMARK    1  A    between atoms: C3_3  and  C5_5 
ROOT
HETATM    1  C1  UNL     1     -32.980   8.087   4.001  1.00 20.00     0.032 A 
HETATM    2  C2  UNL     1     -33.665   7.018   4.611  1.00 20.00    -0.044 A 
HETATM    3  C3  UNL     1     -32.834   7.860   2.642  1.00 20.00     0.068 A 
HETATM    4  C4  UNL     1     -34.008   6.043   3.716  1.00 20.00    -0.010 A 
HETATM    5  C6  UNL     1     -34.120   6.673   5.980  1.00 20.00     0.040 C 
HETATM    6  C7  UNL     1     -34.733   4.900   4.316  1.00 20.00     0.047 C 
HETATM    7  C8  UNL     1     -34.489   5.162   5.834  1.00 20.00     0.010 C 
HETATM    8  S10 UNL     1     -33.535   6.358   2.143  1.00 20.00    -0.089 SA
ENDROOT
BRANCH   3   9
HETATM    9  C5  UNL     1     -32.206   8.683   1.659  1.00 20.00     0.259 C 
HETATM   10  O9  UNL     1     -31.177   8.272   1.054  1.00 20.00    -0.273 OA
HETATM   11 CL11 UNL     1     -32.828  10.305   1.243  1.00 20.00    -0.038 Cl
ENDBRANCH   3   9
TORSDOF 1
ENDMDL
MODEL 2
REMARK VINA RESULT:      -5.7      1.068      1.697
REMARK  1 active torsions:
REMARK  status: ('A' for Active; 'I' for Inactive)
REMARK    1  A    between atoms: C3_3  and  C5_5 
ROOT
HETATM    1  C1  UNL     1     -33.407   6.879   2.292  1.00 20.00     0.032 A 
HETATM    2  C2  UNL     1     -33.775   6.384   3.558  1.00 20.00    -0.044 A 
HETATM    3  C3  UNL     1     -32.636   8.024   2.422  1.00 20.00     0.068 A 
HETATM    4  C4  UNL     1     -33.281   7.150   4.578  1.00 20.00    -0.010 A 
HETATM    5  C6  UNL     1     -34.559   5.238   4.079  1.00 20.00     0.040 C 
HETATM    6  C7  UNL     1     -33.644   6.663   5.929  1.00 20.00     0.047 C 
HETATM    7  C8  UNL     1     -34.758   5.628   5.579  1.00 20.00     0.010 C 
HETATM    8  S10 UNL     1     -32.377   8.464   4.075  1.00 20.00    -0.089 SA
ENDROOT
BRANCH   3   9
HETATM    9  C5  UNL     1     -32.061   8.835   1.398  1.00 20.00     0.259 C 
HETATM   10  O9  UNL     1     -31.104   8.394   0.703  1.00 20.00    -0.273 OA
HETATM   11 CL11 UNL     1     -32.651  10.486   1.054  1.00 20.00    -0.038 Cl
ENDBRANCH   3   9
TORSDOF 1
ENDMDL
MODEL 3
REMARK VINA RESULT:      -5.0     11.294     11.593
REMARK  1 active torsions:
REMARK  status: ('A' for Active; 'I' for Inactive)
REMARK    1  A    between atoms: C3_3  and  C5_5 
ROOT
HETATM    1  C1  UNL     1     -34.068  15.192  -3.840  1.00 20.00     0.032 A 
HETATM    2  C2  UNL     1     -34.408  16.199  -2.917  1.00 20.00    -0.044 A 
HETATM    3  C3  UNL     1     -35.195  14.749  -4.515  1.00 20.00     0.068 A 
HETATM    4  C4  UNL     1     -35.747  16.480  -2.923  1.00 20.00    -0.010 A 
HETATM    5  C6  UNL     1     -33.688  17.046  -1.935  1.00 20.00     0.040 C 
HETATM    6  C7  UNL     1     -36.148  17.536  -1.967  1.00 20.00     0.047 C 
HETATM    7  C8  UNL     1     -34.860  17.644  -1.092  1.00 20.00     0.010 C 
HETATM    8  S10 UNL     1     -36.634  15.569  -4.010  1.00 20.00    -0.089 SA
ENDROOT
BRANCH   3   9
HETATM    9  C5  UNL     1     -35.296  13.746  -5.525  1.00 20.00     0.259 C 
HETATM   10  O9  UNL     1     -35.954  12.691  -5.306  1.00 20.00    -0.273 OA
HETATM   11 CL11 UNL     1     -34.513  13.926  -7.121  1.00 20.00    -0.038 Cl
ENDBRANCH   3   9
TORSDOF 1
ENDMDL
MODEL 4
REMARK VINA RESULT:      -4.8     11.333     11.592
REMARK  1 active torsions:
REMARK  status: ('A' for Active; 'I' for Inactive)
REMARK    1  A    between atoms: C3_3  and  C5_5 
ROOT
HETATM    1  C1  UNL     1     -35.914  15.338  -3.575  1.00 20.00     0.032 A 
HETATM    2  C2  UNL     1     -35.284  16.261  -2.718  1.00 20.00    -0.044 A 
HETATM    3  C3  UNL     1     -34.996  14.777  -4.448  1.00 20.00     0.068 A 
HETATM    4  C4  UNL     1     -33.942  16.365  -2.965  1.00 20.00    -0.010 A 
HETATM    5  C6  UNL     1     -35.696  17.153  -1.608  1.00 20.00     0.040 C 
HETATM    6  C7  UNL     1     -33.240  17.326  -2.084  1.00 20.00     0.047 C 
HETATM    7  C8  UNL     1     -34.448  18.080  -1.448  1.00 20.00     0.010 C 
HETATM    8  S10 UNL     1     -33.394  15.385  -4.204  1.00 20.00    -0.089 SA
ENDROOT
BRANCH   3   9
HETATM    9  C5  UNL     1     -35.211  13.806  -5.472  1.00 20.00     0.259 C 
HETATM   10  O9  UNL     1     -35.966  12.817  -5.257  1.00 20.00    -0.273 OA
HETATM   11 CL11 UNL     1     -34.440  13.935  -7.079  1.00 20.00    -0.038 Cl
ENDBRANCH   3   9
TORSDOF 1
ENDMDL
MODEL 5
REMARK VINA RESULT:      -4.4     11.432     11.806
REMARK  1 active torsions:
REMARK  status: ('A' for Active; 'I' for Inactive)
REMARK    1  A    between atoms: C3_3  and  C5_5 
ROOT
HETATM    1  C1  UNL     1     -35.892  15.948  -3.038  1.00 20.00     0.032 A 
HETATM    2  C2  UNL     1     -35.122  16.661  -2.098  1.00 20.00    -0.044 A 
HETATM    3  C3  UNL     1     -35.158  15.711  -4.189  1.00 20.00     0.068 A 
HETATM    4  C4  UNL     1     -33.863  16.932  -2.557  1.00 20.00    -0.010 A 
HETATM    5  C6  UNL     1     -35.320  17.195  -0.729  1.00 20.00     0.040 C 
HETATM    6  C7  UNL     1     -33.019  17.680  -1.598  1.00 20.00     0.047 C 
HETATM    7  C8  UNL     1     -34.090  18.143  -0.563  1.00 20.00     0.010 C 
HETATM    8  S10 UNL     1     -33.555  16.358  -4.098  1.00 20.00    -0.089 SA
ENDROOT
BRANCH   3   9
HETATM    9  C5  UNL     1     -35.555  15.028  -5.379  1.00 20.00     0.259 C 
HETATM   10  O9  UNL     1     -35.584  15.643  -6.481  1.00 20.00    -0.273 OA
HETATM   11 CL11 UNL     1     -36.023  13.304  -5.371  1.00 20.00    -0.038 Cl
ENDBRANCH   3   9
TORSDOF 1
ENDMDL
MODEL 6
REMARK VINA RESULT:      -4.4     11.426     11.759
REMARK  1 active torsions:
REMARK  status: ('A' for Active; 'I' for Inactive)
REMARK    1  A    between atoms: C3_3  and  C5_5 
ROOT
HETATM    1  C1  UNL     1     -33.426  17.083  -2.212  1.00 20.00     0.032 A 
HETATM    2  C2  UNL     1     -33.176  17.846  -1.055  1.00 20.00    -0.044 A 
HETATM    3  C3  UNL     1     -34.752  16.683  -2.255  1.00 20.00     0.068 A 
HETATM    4  C4  UNL     1     -34.293  17.996  -0.281  1.00 20.00    -0.010 A 
HETATM    5  C6  UNL     1     -32.010  18.539  -0.455  1.00 20.00     0.040 C 
HETATM    6  C7  UNL     1     -34.074  18.794   0.947  1.00 20.00     0.047 C 
HETATM    7  C8  UNL     1     -32.515  18.841   0.993  1.00 20.00     0.010 C 
HETATM    8  S10 UNL     1     -35.658  17.247  -0.892  1.00 20.00    -0.089 SA
ENDROOT
BRANCH   3   9
HETATM    9  C5  UNL     1     -35.420  15.901  -3.246  1.00 20.00     0.259 C 
HETATM   10  O9  UNL     1     -36.609  16.173  -3.570  1.00 20.00    -0.273 OA
HETATM   11 CL11 UNL     1     -34.624  14.525  -4.061  1.00 20.00    -0.038 Cl
ENDBRANCH   3   9
TORSDOF 1
ENDMDL
MODEL 7
REMARK VINA RESULT:      -4.3     11.273     12.117
REMARK  1 active torsions:
REMARK  status: ('A' for Active; 'I' for Inactive)
REMARK    1  A    between atoms: C3_3  and  C5_5 
ROOT
HETATM    1  C1  UNL     1     -35.168  14.928  -3.891  1.00 20.00     0.032 A 
HETATM    2  C2  UNL     1     -35.050  14.484  -5.223  1.00 20.00    -0.044 A 
HETATM    3  C3  UNL     1     -34.332  16.010  -3.663  1.00 20.00     0.068 A 
HETATM    4  C4  UNL     1     -34.153  15.226  -5.940  1.00 20.00    -0.010 A 
HETATM    5  C6  UNL     1     -35.652  13.416  -6.058  1.00 20.00     0.040 C 
HETATM    6  C7  UNL     1     -34.000  14.793  -7.348  1.00 20.00     0.047 C 
HETATM    7  C8  UNL     1     -34.715  13.407  -7.308  1.00 20.00     0.010 C 
HETATM    8  S10 UNL     1     -33.430  16.458  -5.071  1.00 20.00    -0.089 SA
ENDROOT
BRANCH   3   9
HETATM    9  C5  UNL     1     -34.143  16.757  -2.461  1.00 20.00     0.259 C 
HETATM   10  O9  UNL     1     -33.073  17.401  -2.278  1.00 20.00    -0.273 OA
HETATM   11 CL11 UNL     1     -35.385  16.818  -1.179  1.00 20.00    -0.038 Cl
ENDBRANCH   3   9
TORSDOF 1
ENDMDL
MODEL 8
REMARK VINA RESULT:      -4.3     11.238     11.587
REMARK  1 active torsions:
REMARK  status: ('A' for Active; 'I' for Inactive)
REMARK    1  A    between atoms: C3_3  and  C5_5 
ROOT
HETATM    1  C1  UNL     1     -35.284  16.715  -1.549  1.00 20.00     0.032 A 
HETATM    2  C2  UNL     1     -35.135  17.442  -0.351  1.00 20.00    -0.044 A 
HETATM    3  C3  UNL     1     -34.162  16.861  -2.349  1.00 20.00     0.068 A 
HETATM    4  C4  UNL     1     -33.935  18.095  -0.286  1.00 20.00    -0.010 A 
HETATM    5  C6  UNL     1     -35.943  17.682   0.869  1.00 20.00     0.040 C 
HETATM    6  C7  UNL     1     -33.736  18.871   0.959  1.00 20.00     0.047 C 
HETATM    7  C8  UNL     1     -35.185  18.874   1.537  1.00 20.00     0.010 C 
HETATM    8  S10 UNL     1     -32.958  17.872  -1.626  1.00 20.00    -0.089 SA
ENDROOT
BRANCH   3   9
HETATM    9  C5  UNL     1     -33.902  16.298  -3.635  1.00 20.00     0.259 C 
HETATM   10  O9  UNL     1     -33.384  17.007  -4.543  1.00 20.00    -0.273 OA
HETATM   11 CL11 UNL     1     -34.287  14.597  -4.021  1.00 20.00    -0.038 Cl
ENDBRANCH   3   9
TORSDOF 1
ENDMDL
MODEL 9
REMARK VINA RESULT:      -4.2     11.329     12.347
REMARK  1 active torsions:
REMARK  status: ('A' for Active; 'I' for Inactive)
REMARK    1  A    between atoms: C3_3  and  C5_5 
ROOT
HETATM    1  C1  UNL     1     -35.005  15.206  -3.452  1.00 20.00     0.032 A 
HETATM    2  C2  UNL     1     -34.231  16.368  -3.265  1.00 20.00    -0.044 A 
HETATM    3  C3  UNL     1     -35.333  15.050  -4.789  1.00 20.00     0.068 A 
HETATM    4  C4  UNL     1     -34.003  17.034  -4.437  1.00 20.00    -0.010 A 
HETATM    5  C6  UNL     1     -33.589  17.060  -2.121  1.00 20.00     0.040 C 
HETATM    6  C7  UNL     1     -33.190  18.262  -4.286  1.00 20.00     0.047 C 
HETATM    7  C8  UNL     1     -33.226  18.449  -2.737  1.00 20.00     0.010 C 
HETATM    8  S10 UNL     1     -34.691  16.315  -5.781  1.00 20.00    -0.089 SA
ENDROOT
BRANCH   3   9
HETATM    9  C5  UNL     1     -36.100  14.017  -5.407  1.00 20.00     0.259 C 
HETATM   10  O9  UNL     1     -35.829  12.805  -5.180  1.00 20.00    -0.273 OA
HETATM   11 CL11 UNL     1     -37.457  14.375  -6.513  1.00 20.00    -0.038 Cl
ENDBRANCH   3   9
TORSDOF 1
ENDMDL
