MODEL 1
REMARK VINA RESULT:      -5.1      0.000      0.000
REMARK  0 active torsions:
REMARK  status: ('A' for Active; 'I' for Inactive)
ROOT
HETATM    1  C1  UNL     1     -35.690  13.825  -5.108  1.00 20.00     0.064 C 
HETATM    2  C2  UNL     1     -33.077  15.233  -4.203  1.00 20.00     0.011 C 
HETATM    3  C3  UNL     1     -33.612  17.543  -4.223  1.00 20.00     0.010 C 
HETATM    4  C4  UNL     1     -35.391  15.240  -4.834  1.00 20.00     0.101 C 
HETATM    5  C5  UNL     1     -33.282  16.385  -5.186  1.00 20.00    -0.009 C 
HETATM    6  C6  UNL     1     -34.474  15.382  -3.590  1.00 20.00     0.007 C 
HETATM    7  C7  UNL     1     -34.485  16.866  -3.146  1.00 20.00    -0.013 C 
HETATM    8  C8  UNL     1     -34.573  15.967  -5.939  1.00 20.00     0.003 C 
HETATM    9  C9  UNL     1     -33.929  17.068  -1.740  1.00 20.00     0.010 C 
HETATM   10  C10 UNL     1     -34.260  15.157  -7.196  1.00 20.00     0.011 C 
HETATM   11  N11 UNL     1     -35.926  12.710  -5.324  1.00 20.00    -0.197 NA
ENDROOT
TORSDOF 0
ENDMDL
MODEL 2
REMARK VINA RESULT:      -4.9      1.471      1.640
REMARK  0 active torsions:
REMARK  status: ('A' for Active; 'I' for Inactive)
ROOT
HETATM    1  C1  UNL     1     -37.316  14.602  -5.117  1.00 20.00     0.064 C 
HETATM    2  C2  UNL     1     -34.444  14.100  -4.055  1.00 20.00     0.011 C 
HETATM    3  C3  UNL     1     -33.162  15.883  -4.948  1.00 20.00     0.010 C 
HETATM    4  C4  UNL     1     -36.081  15.394  -5.239  1.00 20.00     0.101 C 
HETATM    5  C5  UNL     1     -33.810  14.549  -5.370  1.00 20.00    -0.009 C 
HETATM    6  C6  UNL     1     -35.279  15.377  -3.910  1.00 20.00     0.007 C 
HETATM    7  C7  UNL     1     -34.201  16.488  -3.981  1.00 20.00    -0.013 C 
HETATM    8  C8  UNL     1     -35.046  14.845  -6.262  1.00 20.00     0.003 C 
HETATM    9  C9  UNL     1     -33.599  16.817  -2.618  1.00 20.00     0.010 C 
HETATM   10  C10 UNL     1     -35.471  13.618  -7.068  1.00 20.00     0.011 C 
HETATM   11  N11 UNL     1     -38.290  13.980  -5.021  1.00 20.00    -0.197 NA
ENDROOT
TORSDOF 0
ENDMDL
MODEL 3
REMARK VINA RESULT:      -4.8      1.737      2.976
REMARK  0 active torsions:
REMARK  status: ('A' for Active; 'I' for Inactive)
ROOT
HETATM    1  C1  UNL     1     -33.361  15.837  -5.104  1.00 20.00     0.064 C 
HETATM    2  C2  UNL     1     -34.959  17.912  -3.441  1.00 20.00     0.011 C 
HETATM    3  C3  UNL     1     -35.041  16.986  -1.260  1.00 20.00     0.010 C 
HETATM    4  C4  UNL     1     -33.681  15.895  -3.669  1.00 20.00     0.101 C 
HETATM    5  C5  UNL     1     -35.680  16.820  -2.652  1.00 20.00    -0.009 C 
HETATM    6  C6  UNL     1     -33.567  17.348  -3.134  1.00 20.00     0.007 C 
HETATM    7  C7  UNL     1     -33.565  17.295  -1.586  1.00 20.00    -0.013 C 
HETATM    8  C8  UNL     1     -35.146  15.517  -3.305  1.00 20.00     0.003 C 
HETATM    9  C9  UNL     1     -33.093  18.599  -0.949  1.00 20.00     0.010 C 
HETATM   10  C10 UNL     1     -36.035  15.053  -4.458  1.00 20.00     0.011 C 
HETATM   11  N11 UNL     1     -33.108  15.791  -6.235  1.00 20.00    -0.197 NA
ENDROOT
TORSDOF 0
ENDMDL
MODEL 4
REMARK VINA RESULT:      -4.5      2.244      4.133
REMARK  0 active torsions:
REMARK  status: ('A' for Active; 'I' for Inactive)
ROOT
HETATM    1  C1  UNL     1     -33.758  17.931  -4.678  1.00 20.00     0.064 C 
HETATM    2  C2  UNL     1     -33.154  14.888  -4.648  1.00 20.00     0.011 C 
HETATM    3  C3  UNL     1     -35.260  13.862  -5.016  1.00 20.00     0.010 C 
HETATM    4  C4  UNL     1     -34.619  16.765  -4.934  1.00 20.00     0.101 C 
HETATM    5  C5  UNL     1     -34.454  14.572  -3.910  1.00 20.00    -0.009 C 
HETATM    6  C6  UNL     1     -33.861  15.684  -5.750  1.00 20.00     0.007 C 
HETATM    7  C7  UNL     1     -34.898  14.664  -6.284  1.00 20.00    -0.013 C 
HETATM    8  C8  UNL     1     -35.059  15.980  -3.664  1.00 20.00     0.003 C 
HETATM    9  C9  UNL     1     -34.339  13.775  -7.390  1.00 20.00     0.010 C 
HETATM   10  C10 UNL     1     -34.621  16.560  -2.321  1.00 20.00     0.011 C 
HETATM   11  N11 UNL     1     -33.080  18.850  -4.477  1.00 20.00    -0.197 NA
ENDROOT
TORSDOF 0
ENDMDL
MODEL 5
REMARK VINA RESULT:      -4.5      2.395      3.923
REMARK  0 active torsions:
REMARK  status: ('A' for Active; 'I' for Inactive)
ROOT
HETATM    1  C1  UNL     1     -36.006  17.403  -2.007  1.00 20.00     0.064 C 
HETATM    2  C2  UNL     1     -34.839  16.674  -4.788  1.00 20.00     0.011 C 
HETATM    3  C3  UNL     1     -33.498  14.761  -4.384  1.00 20.00     0.010 C 
HETATM    4  C4  UNL     1     -35.172  16.272  -2.447  1.00 20.00     0.101 C 
HETATM    5  C5  UNL     1     -33.486  16.290  -4.191  1.00 20.00    -0.009 C 
HETATM    6  C6  UNL     1     -35.624  15.760  -3.841  1.00 20.00     0.007 C 
HETATM    7  C7  UNL     1     -34.964  14.380  -4.087  1.00 20.00    -0.013 C 
HETATM    8  C8  UNL     1     -33.673  16.613  -2.684  1.00 20.00     0.003 C 
HETATM    9  C9  UNL     1     -35.607  13.612  -5.238  1.00 20.00     0.010 C 
HETATM   10  C10 UNL     1     -33.239  18.039  -2.351  1.00 20.00     0.011 C 
HETATM   11  N11 UNL     1     -36.663  18.293  -1.660  1.00 20.00    -0.197 NA
ENDROOT
TORSDOF 0
ENDMDL
MODEL 6
REMARK VINA RESULT:      -4.4      1.226      2.020
REMARK  0 active torsions:
REMARK  status: ('A' for Active; 'I' for Inactive)
ROOT
HETATM    1  C1  UNL     1     -35.436  13.975  -5.184  1.00 20.00     0.064 C 
HETATM    2  C2  UNL     1     -35.025  16.010  -2.878  1.00 20.00     0.011 C 
HETATM    3  C3  UNL     1     -33.933  17.849  -3.899  1.00 20.00     0.010 C 
HETATM    4  C4  UNL     1     -34.898  15.345  -5.179  1.00 20.00     0.101 C 
HETATM    5  C5  UNL     1     -33.649  16.419  -3.398  1.00 20.00    -0.009 C 
HETATM    6  C6  UNL     1     -35.714  16.257  -4.225  1.00 20.00     0.007 C 
HETATM    7  C7  UNL     1     -35.339  17.730  -4.524  1.00 20.00    -0.013 C 
HETATM    8  C8  UNL     1     -33.453  15.482  -4.620  1.00 20.00     0.003 C 
HETATM    9  C9  UNL     1     -36.325  18.727  -3.923  1.00 20.00     0.010 C 
HETATM   10  C10 UNL     1     -32.747  14.184  -4.233  1.00 20.00     0.011 C 
HETATM   11  N11 UNL     1     -35.860  12.895  -5.188  1.00 20.00    -0.197 NA
ENDROOT
TORSDOF 0
ENDMDL
MODEL 7
REMARK VINA RESULT:      -4.4      1.448      2.311
REMARK  0 active torsions:
REMARK  status: ('A' for Active; 'I' for Inactive)
ROOT
HETATM    1  C1  UNL     1     -35.476  13.415  -5.553  1.00 20.00     0.064 C 
HETATM    2  C2  UNL     1     -35.300  16.491  -5.190  1.00 20.00     0.011 C 
HETATM    3  C3  UNL     1     -36.118  16.875  -2.998  1.00 20.00     0.010 C 
HETATM    4  C4  UNL     1     -35.748  14.274  -4.390  1.00 20.00     0.101 C 
HETATM    5  C5  UNL     1     -36.617  16.539  -4.417  1.00 20.00    -0.009 C 
HETATM    6  C6  UNL     1     -34.697  15.412  -4.283  1.00 20.00     0.007 C 
HETATM    7  C7  UNL     1     -34.818  16.052  -2.878  1.00 20.00    -0.013 C 
HETATM    8  C8  UNL     1     -37.089  15.061  -4.453  1.00 20.00     0.003 C 
HETATM    9  C9  UNL     1     -33.616  16.920  -2.517  1.00 20.00     0.010 C 
HETATM   10  C10 UNL     1     -37.987  14.780  -5.656  1.00 20.00     0.011 C 
HETATM   11  N11 UNL     1     -35.261  12.736  -6.470  1.00 20.00    -0.197 NA
ENDROOT
TORSDOF 0
ENDMDL
MODEL 8
REMARK VINA RESULT:      -4.4      1.811      2.380
REMARK  0 active torsions:
REMARK  status: ('A' for Active; 'I' for Inactive)
ROOT
HETATM    1  C1  UNL     1     -37.174  14.558  -4.890  1.00 20.00     0.064 C 
HETATM    2  C2  UNL     1     -34.485  14.084  -6.363  1.00 20.00     0.011 C 
HETATM    3  C3  UNL     1     -33.064  15.807  -5.569  1.00 20.00     0.010 C 
HETATM    4  C4  UNL     1     -35.869  15.227  -4.772  1.00 20.00     0.101 C 
HETATM    5  C5  UNL     1     -34.242  15.582  -6.536  1.00 20.00    -0.009 C 
HETATM    6  C6  UNL     1     -34.709  14.198  -4.851  1.00 20.00     0.007 C 
HETATM    7  C7  UNL     1     -33.410  14.894  -4.374  1.00 20.00    -0.013 C 
HETATM    8  C8  UNL     1     -35.526  16.209  -5.928  1.00 20.00     0.003 C 
HETATM    9  C9  UNL     1     -32.291  13.907  -4.057  1.00 20.00     0.010 C 
HETATM   10  C10 UNL     1     -36.609  16.422  -6.983  1.00 20.00     0.011 C 
HETATM   11  N11 UNL     1     -38.204  14.030  -4.982  1.00 20.00    -0.197 NA
ENDROOT
TORSDOF 0
ENDMDL
MODEL 9
REMARK VINA RESULT:      -4.3      2.892      4.671
REMARK  0 active torsions:
REMARK  status: ('A' for Active; 'I' for Inactive)
ROOT
HETATM    1  C1  UNL     1     -35.668  17.986  -0.391  1.00 20.00     0.064 C 
HETATM    2  C2  UNL     1     -34.936  17.958  -3.406  1.00 20.00     0.011 C 
HETATM    3  C3  UNL     1     -33.631  15.998  -3.681  1.00 20.00     0.010 C 
HETATM    4  C4  UNL     1     -34.952  16.994  -1.210  1.00 20.00     0.101 C 
HETATM    5  C5  UNL     1     -33.530  17.433  -3.126  1.00 20.00    -0.009 C 
HETATM    6  C6  UNL     1     -35.616  16.842  -2.605  1.00 20.00     0.007 C 
HETATM    7  C7  UNL     1     -35.054  15.563  -3.273  1.00 20.00    -0.013 C 
HETATM    8  C8  UNL     1     -33.489  17.376  -1.575  1.00 20.00     0.003 C 
HETATM    9  C9  UNL     1     -35.883  15.105  -4.468  1.00 20.00     0.010 C 
HETATM   10  C10 UNL     1     -32.954  18.674  -0.973  1.00 20.00     0.011 C 
HETATM   11  N11 UNL     1     -36.233  18.766   0.254  1.00 20.00    -0.197 NA
ENDROOT
TORSDOF 0
ENDMDL
