MODEL 1
REMARK VINA RESULT:      -5.8      0.000      0.000
REMARK  0 active torsions:
REMARK  status: ('A' for Active; 'I' for Inactive)
ROOT
HETATM    1  C1  UNL     1     -33.049   7.550   4.305  1.00 20.00     0.055 C 
HETATM    2  C2  UNL     1     -33.973   6.669   4.680  1.00 20.00    -0.046 C 
HETATM    3  C3  UNL     1     -32.835   7.239   2.878  1.00 20.00     0.150 C 
HETATM    4  C4  UNL     1     -34.415   6.180   6.001  1.00 20.00     0.202 C 
HETATM    5  C5  UNL     1     -33.597   6.008   2.444  1.00 20.00     0.094 C 
HETATM    6  C6  UNL     1     -34.413   4.471   4.398  1.00 20.00     0.177 C 
HETATM    7  C7  UNL     1     -34.509   5.771   3.631  1.00 20.00     0.048 C 
HETATM    8  O8  UNL     1     -32.084   7.884   2.161  1.00 20.00    -0.293 OA
HETATM    9  O9  UNL     1     -34.786   4.801   5.758  1.00 20.00    -0.386 OA
ENDROOT
TORSDOF 0
ENDMDL
MODEL 2
REMARK VINA RESULT:      -5.3      1.011      3.657
REMARK  0 active torsions:
REMARK  status: ('A' for Active; 'I' for Inactive)
ROOT
HETATM    1  C1  UNL     1     -33.544   5.319   2.935  1.00 20.00     0.055 C 
HETATM    2  C2  UNL     1     -33.259   6.611   3.077  1.00 20.00    -0.046 C 
HETATM    3  C3  UNL     1     -34.272   4.988   4.176  1.00 20.00     0.150 C 
HETATM    4  C4  UNL     1     -32.290   7.503   2.411  1.00 20.00     0.202 C 
HETATM    5  C5  UNL     1     -34.289   6.144   5.151  1.00 20.00     0.094 C 
HETATM    6  C6  UNL     1     -32.502   7.998   4.691  1.00 20.00     0.177 C 
HETATM    7  C7  UNL     1     -33.773   7.282   4.294  1.00 20.00     0.048 C 
HETATM    8  O8  UNL     1     -34.754   3.886   4.392  1.00 20.00    -0.293 OA
HETATM    9  O9  UNL     1     -31.906   8.440   3.447  1.00 20.00    -0.386 OA
ENDROOT
TORSDOF 0
ENDMDL
MODEL 3
REMARK VINA RESULT:      -4.7      1.000      3.572
REMARK  0 active torsions:
REMARK  status: ('A' for Active; 'I' for Inactive)
ROOT
HETATM    1  C1  UNL     1     -33.325   7.215   5.138  1.00 20.00     0.055 C 
HETATM    2  C2  UNL     1     -32.559   7.489   4.086  1.00 20.00    -0.046 C 
HETATM    3  C3  UNL     1     -34.271   6.207   4.623  1.00 20.00     0.150 C 
HETATM    4  C4  UNL     1     -31.650   8.608   3.770  1.00 20.00     0.202 C 
HETATM    5  C5  UNL     1     -34.115   5.988   3.136  1.00 20.00     0.094 C 
HETATM    6  C6  UNL     1     -32.816   7.875   1.874  1.00 20.00     0.177 C 
HETATM    7  C7  UNL     1     -32.819   6.718   2.847  1.00 20.00     0.048 C 
HETATM    8  O8  UNL     1     -35.112   5.662   5.325  1.00 20.00    -0.293 OA
HETATM    9  O9  UNL     1     -31.764   8.758   2.333  1.00 20.00    -0.386 OA
ENDROOT
TORSDOF 0
ENDMDL
MODEL 4
REMARK VINA RESULT:      -4.7      1.706      2.257
REMARK  0 active torsions:
REMARK  status: ('A' for Active; 'I' for Inactive)
ROOT
HETATM    1  C1  UNL     1     -32.893   6.278   3.009  1.00 20.00     0.055 C 
HETATM    2  C2  UNL     1     -33.654   6.670   4.027  1.00 20.00    -0.046 C 
HETATM    3  C3  UNL     1     -33.289   4.872   2.803  1.00 20.00     0.150 C 
HETATM    4  C4  UNL     1     -33.568   7.808   4.964  1.00 20.00     0.202 C 
HETATM    5  C5  UNL     1     -34.250   4.390   3.866  1.00 20.00     0.094 C 
HETATM    6  C6  UNL     1     -34.332   5.864   6.026  1.00 20.00     0.177 C 
HETATM    7  C7  UNL     1     -34.629   5.686   4.554  1.00 20.00     0.048 C 
HETATM    8  O8  UNL     1     -32.839   4.178   1.903  1.00 20.00    -0.293 OA
HETATM    9  O9  UNL     1     -34.107   7.284   6.202  1.00 20.00    -0.386 OA
ENDROOT
TORSDOF 0
ENDMDL
MODEL 5
REMARK VINA RESULT:      -4.5      0.806      1.887
REMARK  0 active torsions:
REMARK  status: ('A' for Active; 'I' for Inactive)
ROOT
HETATM    1  C1  UNL     1     -33.734   6.469   2.532  1.00 20.00     0.055 C 
HETATM    2  C2  UNL     1     -33.821   6.075   3.799  1.00 20.00    -0.046 C 
HETATM    3  C3  UNL     1     -32.811   7.619   2.590  1.00 20.00     0.150 C 
HETATM    4  C4  UNL     1     -34.788   5.226   4.522  1.00 20.00     0.202 C 
HETATM    5  C5  UNL     1     -32.449   7.985   4.011  1.00 20.00     0.094 C 
HETATM    6  C6  UNL     1     -34.047   7.016   5.840  1.00 20.00     0.177 C 
HETATM    7  C7  UNL     1     -32.986   6.799   4.786  1.00 20.00     0.048 C 
HETATM    8  O8  UNL     1     -32.436   8.223   1.596  1.00 20.00    -0.293 OA
HETATM    9  O9  UNL     1     -34.829   5.797   5.853  1.00 20.00    -0.386 OA
ENDROOT
TORSDOF 0
ENDMDL
MODEL 6
REMARK VINA RESULT:      -4.4      1.935      2.793
REMARK  0 active torsions:
REMARK  status: ('A' for Active; 'I' for Inactive)
ROOT
HETATM    1  C1  UNL     1     -34.307   5.818   5.840  1.00 20.00     0.055 C 
HETATM    2  C2  UNL     1     -34.312   5.311   4.610  1.00 20.00    -0.046 C 
HETATM    3  C3  UNL     1     -33.874   7.213   5.636  1.00 20.00     0.150 C 
HETATM    4  C4  UNL     1     -34.313   3.928   4.095  1.00 20.00     0.202 C 
HETATM    5  C5  UNL     1     -33.479   7.483   4.202  1.00 20.00     0.094 C 
HETATM    6  C6  UNL     1     -32.999   5.346   2.772  1.00 20.00     0.177 C 
HETATM    7  C7  UNL     1     -33.980   6.236   3.501  1.00 20.00     0.048 C 
HETATM    8  O8  UNL     1     -33.801   8.028   6.545  1.00 20.00    -0.293 OA
HETATM    9  O9  UNL     1     -33.551   4.011   2.865  1.00 20.00    -0.386 OA
ENDROOT
TORSDOF 0
ENDMDL
MODEL 7
REMARK VINA RESULT:      -4.1     11.613     12.398
REMARK  0 active torsions:
REMARK  status: ('A' for Active; 'I' for Inactive)
ROOT
HETATM    1  C1  UNL     1     -34.332  14.193  -4.209  1.00 20.00     0.055 C 
HETATM    2  C2  UNL     1     -34.507  15.460  -3.841  1.00 20.00    -0.046 C 
HETATM    3  C3  UNL     1     -35.648  13.807  -4.755  1.00 20.00     0.150 C 
HETATM    4  C4  UNL     1     -33.755  16.356  -2.942  1.00 20.00     0.202 C 
HETATM    5  C5  UNL     1     -36.683  14.893  -4.566  1.00 20.00     0.094 C 
HETATM    6  C6  UNL     1     -36.067  16.702  -2.780  1.00 20.00     0.177 C 
HETATM    7  C7  UNL     1     -35.828  16.066  -4.130  1.00 20.00     0.048 C 
HETATM    8  O8  UNL     1     -35.868  12.712  -5.252  1.00 20.00    -0.293 OA
HETATM    9  O9  UNL     1     -34.775  17.204  -2.359  1.00 20.00    -0.386 OA
ENDROOT
TORSDOF 0
ENDMDL
MODEL 8
REMARK VINA RESULT:      -4.1     11.920     12.888
REMARK  0 active torsions:
REMARK  status: ('A' for Active; 'I' for Inactive)
ROOT
HETATM    1  C1  UNL     1     -33.521  15.812  -6.055  1.00 20.00     0.055 C 
HETATM    2  C2  UNL     1     -33.990  14.578  -5.889  1.00 20.00    -0.046 C 
HETATM    3  C3  UNL     1     -33.677  16.424  -4.721  1.00 20.00     0.150 C 
HETATM    4  C4  UNL     1     -34.444  13.541  -6.835  1.00 20.00     0.202 C 
HETATM    5  C5  UNL     1     -34.408  15.513  -3.760  1.00 20.00     0.094 C 
HETATM    6  C6  UNL     1     -35.746  13.568  -4.887  1.00 20.00     0.177 C 
HETATM    7  C7  UNL     1     -34.423  14.203  -4.522  1.00 20.00     0.048 C 
HETATM    8  O8  UNL     1     -33.299  17.556  -4.459  1.00 20.00    -0.293 OA
HETATM    9  O9  UNL     1     -35.497  12.850  -6.120  1.00 20.00    -0.386 OA
ENDROOT
TORSDOF 0
ENDMDL
MODEL 9
REMARK VINA RESULT:      -4.0     11.943     12.619
REMARK  0 active torsions:
REMARK  status: ('A' for Active; 'I' for Inactive)
ROOT
HETATM    1  C1  UNL     1     -36.699  15.536  -4.078  1.00 20.00     0.055 C 
HETATM    2  C2  UNL     1     -35.381  15.434  -3.932  1.00 20.00    -0.046 C 
HETATM    3  C3  UNL     1     -37.066  14.290  -4.778  1.00 20.00     0.150 C 
HETATM    4  C4  UNL     1     -34.325  16.421  -3.634  1.00 20.00     0.202 C 
HETATM    5  C5  UNL     1     -35.851  13.481  -5.173  1.00 20.00     0.094 C 
HETATM    6  C6  UNL     1     -33.596  14.805  -5.166  1.00 20.00     0.177 C 
HETATM    7  C7  UNL     1     -34.747  14.182  -4.409  1.00 20.00     0.048 C 
HETATM    8  O8  UNL     1     -38.221  13.990  -5.044  1.00 20.00    -0.293 OA
HETATM    9  O9  UNL     1     -33.171  15.929  -4.358  1.00 20.00    -0.386 OA
ENDROOT
TORSDOF 0
ENDMDL
