MODEL 1
REMARK VINA RESULT:      -6.1      0.000      0.000
REMARK  0 active torsions:
REMARK  status: ('A' for Active; 'I' for Inactive)
ROOT
HETATM    1  C1  UNL     1     -32.137   8.402   4.474  1.00 20.00     0.015 A 
HETATM    2  C2  UNL     1     -31.642   8.834   3.311  1.00 20.00     0.083 A 
HETATM    3  C3  UNL     1     -33.078   7.313   4.522  1.00 20.00    -0.028 A 
HETATM    4  C4  UNL     1     -33.447   6.735   3.370  1.00 20.00     0.063 A 
HETATM    5  C5  UNL     1     -32.051   8.201   2.042  1.00 20.00     0.287 A 
HETATM    6  C6  UNL     1     -33.609   6.883   5.861  1.00 20.00     0.041 C 
HETATM    7  C7  UNL     1     -34.401   5.579   3.294  1.00 20.00     0.066 C 
HETATM    8  C8  UNL     1     -34.831   5.963   5.751  1.00 20.00     0.005 C 
HETATM    9  C9  UNL     1     -34.642   4.919   4.654  1.00 20.00     0.007 C 
HETATM   10  O10 UNL     1     -31.603   8.596   0.971  1.00 20.00    -0.260 OA
HETATM   11  O11 UNL     1     -32.944   7.166   2.120  1.00 20.00    -0.279 OA
ENDROOT
TORSDOF 0
ENDMDL
MODEL 2
REMARK VINA RESULT:      -5.6      1.072      2.181
REMARK  0 active torsions:
REMARK  status: ('A' for Active; 'I' for Inactive)
ROOT
HETATM    1  C1  UNL     1     -33.482   6.073   2.228  1.00 20.00     0.015 A 
HETATM    2  C2  UNL     1     -32.782   7.068   1.677  1.00 20.00     0.083 A 
HETATM    3  C3  UNL     1     -33.791   6.073   3.634  1.00 20.00    -0.028 A 
HETATM    4  C4  UNL     1     -33.363   7.100   4.384  1.00 20.00     0.063 A 
HETATM    5  C5  UNL     1     -32.307   8.196   2.502  1.00 20.00     0.287 A 
HETATM    6  C6  UNL     1     -34.571   4.917   4.198  1.00 20.00     0.041 C 
HETATM    7  C7  UNL     1     -33.642   7.223   5.853  1.00 20.00     0.066 C 
HETATM    8  C8  UNL     1     -34.542   4.868   5.730  1.00 20.00     0.005 C 
HETATM    9  C9  UNL     1     -34.730   6.257   6.333  1.00 20.00     0.007 C 
HETATM   10  O10 UNL     1     -31.660   9.110   2.001  1.00 20.00    -0.260 OA
HETATM   11  O11 UNL     1     -32.619   8.169   3.834  1.00 20.00    -0.279 OA
ENDROOT
TORSDOF 0
ENDMDL
MODEL 3
REMARK VINA RESULT:      -5.4      1.668      3.943
REMARK  0 active torsions:
REMARK  status: ('A' for Active; 'I' for Inactive)
ROOT
HETATM    1  C1  UNL     1     -33.575   7.062   5.695  1.00 20.00     0.015 A 
HETATM    2  C2  UNL     1     -34.364   5.991   5.818  1.00 20.00     0.083 A 
HETATM    3  C3  UNL     1     -33.009   7.426   4.422  1.00 20.00    -0.028 A 
HETATM    4  C4  UNL     1     -33.295   6.667   3.354  1.00 20.00     0.063 A 
HETATM    5  C5  UNL     1     -34.675   5.153   4.643  1.00 20.00     0.287 A 
HETATM    6  C6  UNL     1     -32.118   8.635   4.352  1.00 20.00     0.041 C 
HETATM    7  C7  UNL     1     -32.785   6.958   1.973  1.00 20.00     0.066 C 
HETATM    8  C8  UNL     1     -31.325   8.717   3.042  1.00 20.00     0.005 C 
HETATM    9  C9  UNL     1     -32.200   8.367   1.842  1.00 20.00     0.007 C 
HETATM   10  O10 UNL     1     -35.396   4.166   4.751  1.00 20.00    -0.260 OA
HETATM   11  O11 UNL     1     -34.126   5.526   3.447  1.00 20.00    -0.279 OA
ENDROOT
TORSDOF 0
ENDMDL
MODEL 4
REMARK VINA RESULT:      -5.0      1.957      4.463
REMARK  0 active torsions:
REMARK  status: ('A' for Active; 'I' for Inactive)
ROOT
HETATM    1  C1  UNL     1     -34.320   5.746   2.969  1.00 20.00     0.015 A 
HETATM    2  C2  UNL     1     -34.860   5.248   4.084  1.00 20.00     0.083 A 
HETATM    3  C3  UNL     1     -33.363   6.820   3.022  1.00 20.00    -0.028 A 
HETATM    4  C4  UNL     1     -33.018   7.311   4.223  1.00 20.00     0.063 A 
HETATM    5  C5  UNL     1     -34.484   5.790   5.404  1.00 20.00     0.287 A 
HETATM    6  C6  UNL     1     -32.802   7.347   1.730  1.00 20.00     0.041 C 
HETATM    7  C7  UNL     1     -32.014   8.411   4.407  1.00 20.00     0.066 C 
HETATM    8  C8  UNL     1     -32.069   8.683   1.899  1.00 20.00     0.005 C 
HETATM    9  C9  UNL     1     -31.189   8.680   3.146  1.00 20.00     0.007 C 
HETATM   10  O10 UNL     1     -34.979   5.339   6.432  1.00 20.00    -0.260 OA
HETATM   11  O11 UNL     1     -33.569   6.808   5.424  1.00 20.00    -0.279 OA
ENDROOT
TORSDOF 0
ENDMDL
MODEL 5
REMARK VINA RESULT:      -5.0     11.559     11.877
REMARK  0 active torsions:
REMARK  status: ('A' for Active; 'I' for Inactive)
ROOT
HETATM    1  C1  UNL     1     -34.154  18.385   0.980  1.00 20.00     0.015 A 
HETATM    2  C2  UNL     1     -32.956  18.824   1.378  1.00 20.00     0.083 A 
HETATM    3  C3  UNL     1     -34.338  17.811  -0.327  1.00 20.00    -0.028 A 
HETATM    4  C4  UNL     1     -33.276  17.720  -1.142  1.00 20.00     0.063 A 
HETATM    5  C5  UNL     1     -31.789  18.728   0.480  1.00 20.00     0.287 A 
HETATM    6  C6  UNL     1     -35.713  17.348  -0.721  1.00 20.00     0.041 C 
HETATM    7  C7  UNL     1     -33.338  17.120  -2.516  1.00 20.00     0.066 C 
HETATM    8  C8  UNL     1     -35.844  17.076  -2.224  1.00 20.00     0.005 C 
HETATM    9  C9  UNL     1     -34.626  16.329  -2.761  1.00 20.00     0.007 C 
HETATM   10  O10 UNL     1     -30.688  19.133   0.839  1.00 20.00    -0.260 OA
HETATM   11  O11 UNL     1     -31.994  18.174  -0.755  1.00 20.00    -0.279 OA
ENDROOT
TORSDOF 0
ENDMDL
MODEL 6
REMARK VINA RESULT:      -5.0     11.204     11.800
REMARK  0 active torsions:
REMARK  status: ('A' for Active; 'I' for Inactive)
ROOT
HETATM    1  C1  UNL     1     -37.064  14.954  -4.532  1.00 20.00     0.015 A 
HETATM    2  C2  UNL     1     -36.913  13.962  -5.414  1.00 20.00     0.083 A 
HETATM    3  C3  UNL     1     -35.933  15.506  -3.833  1.00 20.00    -0.028 A 
HETATM    4  C4  UNL     1     -34.715  15.004  -4.089  1.00 20.00     0.063 A 
HETATM    5  C5  UNL     1     -35.574  13.406  -5.692  1.00 20.00     0.287 A 
HETATM    6  C6  UNL     1     -36.171  16.612  -2.843  1.00 20.00     0.041 C 
HETATM    7  C7  UNL     1     -33.460  15.511  -3.442  1.00 20.00     0.066 C 
HETATM    8  C8  UNL     1     -34.960  16.873  -1.939  1.00 20.00     0.005 C 
HETATM    9  C9  UNL     1     -33.658  16.854  -2.735  1.00 20.00     0.007 C 
HETATM   10  O10 UNL     1     -35.431  12.492  -6.497  1.00 20.00    -0.260 OA
HETATM   11  O11 UNL     1     -34.518  13.953  -5.015  1.00 20.00    -0.279 OA
ENDROOT
TORSDOF 0
ENDMDL
MODEL 7
REMARK VINA RESULT:      -4.8     11.446     12.022
REMARK  0 active torsions:
REMARK  status: ('A' for Active; 'I' for Inactive)
ROOT
HETATM    1  C1  UNL     1     -35.015  14.143  -4.845  1.00 20.00     0.015 A 
HETATM    2  C2  UNL     1     -36.200  13.747  -5.319  1.00 20.00     0.083 A 
HETATM    3  C3  UNL     1     -34.917  15.223  -3.898  1.00 20.00    -0.028 A 
HETATM    4  C4  UNL     1     -36.046  15.825  -3.495  1.00 20.00     0.063 A 
HETATM    5  C5  UNL     1     -37.441  14.413  -4.879  1.00 20.00     0.287 A 
HETATM    6  C6  UNL     1     -33.553  15.630  -3.413  1.00 20.00     0.041 C 
HETATM    7  C7  UNL     1     -36.073  16.944  -2.496  1.00 20.00     0.066 C 
HETATM    8  C8  UNL     1     -33.557  16.981  -2.688  1.00 20.00     0.005 C 
HETATM    9  C9  UNL     1     -34.749  17.099  -1.742  1.00 20.00     0.007 C 
HETATM   10  O10 UNL     1     -38.531  14.056  -5.314  1.00 20.00    -0.260 OA
HETATM   11  O11 UNL     1     -37.316  15.433  -3.976  1.00 20.00    -0.279 OA
ENDROOT
TORSDOF 0
ENDMDL
MODEL 8
REMARK VINA RESULT:      -4.7     11.204     12.717
REMARK  0 active torsions:
REMARK  status: ('A' for Active; 'I' for Inactive)
ROOT
HETATM    1  C1  UNL     1     -33.865  15.355  -7.347  1.00 20.00     0.015 A 
HETATM    2  C2  UNL     1     -34.263  14.136  -7.721  1.00 20.00     0.083 A 
HETATM    3  C3  UNL     1     -33.945  15.773  -5.972  1.00 20.00    -0.028 A 
HETATM    4  C4  UNL     1     -34.426  14.907  -5.067  1.00 20.00     0.063 A 
HETATM    5  C5  UNL     1     -34.796  13.185  -6.727  1.00 20.00     0.287 A 
HETATM    6  C6  UNL     1     -33.494  17.163  -5.616  1.00 20.00     0.041 C 
HETATM    7  C7  UNL     1     -34.535  15.218  -3.603  1.00 20.00     0.066 C 
HETATM    8  C8  UNL     1     -33.937  17.593  -4.213  1.00 20.00     0.005 C 
HETATM    9  C9  UNL     1     -33.745  16.467  -3.201  1.00 20.00     0.007 C 
HETATM   10  O10 UNL     1     -35.166  12.066  -7.066  1.00 20.00    -0.260 OA
HETATM   11  O11 UNL     1     -34.856  13.609  -5.427  1.00 20.00    -0.279 OA
ENDROOT
TORSDOF 0
ENDMDL
MODEL 9
REMARK VINA RESULT:      -4.6     11.443     11.982
REMARK  0 active torsions:
REMARK  status: ('A' for Active; 'I' for Inactive)
ROOT
HETATM    1  C1  UNL     1     -32.167  18.658  -0.097  1.00 20.00     0.015 A 
HETATM    2  C2  UNL     1     -32.184  19.072   1.173  1.00 20.00     0.083 A 
HETATM    3  C3  UNL     1     -33.314  18.015  -0.684  1.00 20.00    -0.028 A 
HETATM    4  C4  UNL     1     -34.408  17.842   0.073  1.00 20.00     0.063 A 
HETATM    5  C5  UNL     1     -33.386  18.878   2.007  1.00 20.00     0.287 A 
HETATM    6  C6  UNL     1     -33.227  17.559  -2.114  1.00 20.00     0.041 C 
HETATM    7  C7  UNL     1     -35.670  17.208  -0.432  1.00 20.00     0.066 C 
HETATM    8  C8  UNL     1     -34.364  16.608  -2.506  1.00 20.00     0.005 C 
HETATM    9  C9  UNL     1     -35.705  17.089  -1.958  1.00 20.00     0.007 C 
HETATM   10  O10 UNL     1     -33.405  19.253   3.175  1.00 20.00    -0.260 OA
HETATM   11  O11 UNL     1     -34.461  18.268   1.421  1.00 20.00    -0.279 OA
ENDROOT
TORSDOF 0
ENDMDL
