MODEL 1
REMARK VINA RESULT:      -4.8      0.000      0.000
REMARK  0 active torsions:
REMARK  status: ('A' for Active; 'I' for Inactive)
ROOT
HETATM    1  C1  UNL     1     -34.257   6.193   6.093  1.00 20.00     0.087 A 
HETATM    2  C2  UNL     1     -34.359   5.032   3.967  1.00 20.00     0.063 A 
HETATM    3  C3  UNL     1     -33.320   7.246   4.114  1.00 20.00     0.114 A 
HETATM    4  C4  UNL     1     -34.629   5.087   5.336  1.00 20.00     0.120 A 
HETATM    5  C5  UNL     1     -33.605   7.276   5.496  1.00 20.00     0.149 A 
HETATM    6  C6  UNL     1     -33.702   6.122   3.374  1.00 20.00     0.042 A 
HETATM    7  C7  UNL     1     -32.585   7.876   2.132  1.00 20.00     0.145 A 
HETATM    8  N8  UNL     1     -32.681   8.241   3.389  1.00 20.00    -0.230 NA
HETATM    9  F9  UNL     1     -35.254   4.058   5.927  1.00 20.00    -0.206 F 
HETATM   10  F10 UNL     1     -33.254   8.333   6.241  1.00 20.00    -0.203 F 
HETATM   11  S11 UNL     1     -33.237   6.347   1.729  1.00 20.00    -0.060 SA
HETATM   12 BR12 UNL     1     -31.760   8.996   0.824  1.00 20.00    -0.021 Br
ENDROOT
TORSDOF 0
ENDMDL
MODEL 2
REMARK VINA RESULT:      -4.7      1.736      2.530
REMARK  0 active torsions:
REMARK  status: ('A' for Active; 'I' for Inactive)
ROOT
HETATM    1  C1  UNL     1     -34.145   4.270   4.261  1.00 20.00     0.087 A 
HETATM    2  C2  UNL     1     -34.242   6.492   5.225  1.00 20.00     0.063 A 
HETATM    3  C3  UNL     1     -33.295   6.157   2.990  1.00 20.00     0.114 A 
HETATM    4  C4  UNL     1     -34.485   5.119   5.309  1.00 20.00     0.120 A 
HETATM    5  C5  UNL     1     -33.551   4.774   3.101  1.00 20.00     0.149 A 
HETATM    6  C6  UNL     1     -33.646   6.993   4.056  1.00 20.00     0.042 A 
HETATM    7  C7  UNL     1     -32.632   8.085   2.146  1.00 20.00     0.145 A 
HETATM    8  N8  UNL     1     -32.716   6.798   1.905  1.00 20.00    -0.230 NA
HETATM    9  F9  UNL     1     -35.053   4.616   6.414  1.00 20.00    -0.206 F 
HETATM   10  F10 UNL     1     -33.232   3.940   2.101  1.00 20.00    -0.203 F 
HETATM   11  S11 UNL     1     -33.227   8.617   3.659  1.00 20.00    -0.060 SA
HETATM   12 BR12 UNL     1     -31.884   9.297   0.875  1.00 20.00    -0.021 Br
ENDROOT
TORSDOF 0
ENDMDL
MODEL 3
REMARK VINA RESULT:      -4.5     11.894     12.332
REMARK  0 active torsions:
REMARK  status: ('A' for Active; 'I' for Inactive)
ROOT
HETATM    1  C1  UNL     1     -35.491  13.927  -4.937  1.00 20.00     0.087 A 
HETATM    2  C2  UNL     1     -36.986  15.618  -4.052  1.00 20.00     0.063 A 
HETATM    3  C3  UNL     1     -34.612  15.630  -3.444  1.00 20.00     0.114 A 
HETATM    4  C4  UNL     1     -36.761  14.487  -4.840  1.00 20.00     0.120 A 
HETATM    5  C5  UNL     1     -34.413  14.487  -4.247  1.00 20.00     0.149 A 
HETATM    6  C6  UNL     1     -35.898  16.176  -3.362  1.00 20.00     0.042 A 
HETATM    7  C7  UNL     1     -34.183  17.311  -2.081  1.00 20.00     0.145 A 
HETATM    8  N8  UNL     1     -33.642  16.292  -2.705  1.00 20.00    -0.230 NA
HETATM    9  F9  UNL     1     -37.782  13.936  -5.510  1.00 20.00    -0.206 F 
HETATM   10  F10 UNL     1     -33.196  13.934  -4.353  1.00 20.00    -0.203 F 
HETATM   11  S11 UNL     1     -35.859  17.552  -2.324  1.00 20.00    -0.060 SA
HETATM   12 BR12 UNL     1     -33.151  18.462  -0.961  1.00 20.00    -0.021 Br
ENDROOT
TORSDOF 0
ENDMDL
MODEL 4
REMARK VINA RESULT:      -4.4     12.296     13.001
REMARK  0 active torsions:
REMARK  status: ('A' for Active; 'I' for Inactive)
ROOT
HETATM    1  C1  UNL     1     -34.688  14.313  -4.269  1.00 20.00     0.087 A 
HETATM    2  C2  UNL     1     -35.825  16.301  -3.474  1.00 20.00     0.063 A 
HETATM    3  C3  UNL     1     -37.032  14.643  -4.815  1.00 20.00     0.114 A 
HETATM    4  C4  UNL     1     -34.674  15.514  -3.568  1.00 20.00     0.120 A 
HETATM    5  C5  UNL     1     -35.856  13.868  -4.895  1.00 20.00     0.149 A 
HETATM    6  C6  UNL     1     -36.995  15.848  -4.104  1.00 20.00     0.042 A 
HETATM    7  C7  UNL     1     -39.126  15.276  -5.105  1.00 20.00     0.145 A 
HETATM    8  N8  UNL     1     -38.259  14.331  -5.381  1.00 20.00    -0.230 NA
HETATM    9  F9  UNL     1     -33.544  15.924  -2.975  1.00 20.00    -0.206 F 
HETATM   10  F10 UNL     1     -35.850  12.707  -5.565  1.00 20.00    -0.203 F 
HETATM   11  S11 UNL     1     -38.552  16.586  -4.166  1.00 20.00    -0.060 SA
HETATM   12 BR12 UNL     1     -40.930  15.193  -5.721  1.00 20.00    -0.021 Br
ENDROOT
TORSDOF 0
ENDMDL
MODEL 5
REMARK VINA RESULT:      -4.4     12.258     12.863
REMARK  0 active torsions:
REMARK  status: ('A' for Active; 'I' for Inactive)
ROOT
HETATM    1  C1  UNL     1     -35.891  13.744  -6.447  1.00 20.00     0.087 A 
HETATM    2  C2  UNL     1     -33.775  14.796  -5.906  1.00 20.00     0.063 A 
HETATM    3  C3  UNL     1     -35.705  15.076  -4.424  1.00 20.00     0.114 A 
HETATM    4  C4  UNL     1     -34.558  14.004  -6.749  1.00 20.00     0.120 A 
HETATM    5  C5  UNL     1     -36.474  14.272  -5.292  1.00 20.00     0.149 A 
HETATM    6  C6  UNL     1     -34.367  15.323  -4.747  1.00 20.00     0.042 A 
HETATM    7  C7  UNL     1     -35.164  16.339  -2.698  1.00 20.00     0.145 A 
HETATM    8  N8  UNL     1     -36.146  15.664  -3.247  1.00 20.00    -0.230 NA
HETATM    9  F9  UNL     1     -34.017  13.488  -7.861  1.00 20.00    -0.206 F 
HETATM   10  F10 UNL     1     -37.760  14.010  -5.017  1.00 20.00    -0.203 F 
HETATM   11  S11 UNL     1     -33.669  16.322  -3.528  1.00 20.00    -0.060 SA
HETATM   12 BR12 UNL     1     -35.395  17.289  -1.059  1.00 20.00    -0.021 Br
ENDROOT
TORSDOF 0
ENDMDL
MODEL 6
REMARK VINA RESULT:      -4.4     12.264     12.717
REMARK  0 active torsions:
REMARK  status: ('A' for Active; 'I' for Inactive)
ROOT
HETATM    1  C1  UNL     1     -35.920  16.892  -2.156  1.00 20.00     0.087 A 
HETATM    2  C2  UNL     1     -33.581  16.530  -2.679  1.00 20.00     0.063 A 
HETATM    3  C3  UNL     1     -35.312  15.964  -4.317  1.00 20.00     0.114 A 
HETATM    4  C4  UNL     1     -34.578  16.955  -1.798  1.00 20.00     0.120 A 
HETATM    5  C5  UNL     1     -36.300  16.399  -3.408  1.00 20.00     0.149 A 
HETATM    6  C6  UNL     1     -33.969  16.038  -3.936  1.00 20.00     0.042 A 
HETATM    7  C7  UNL     1     -34.391  15.152  -6.151  1.00 20.00     0.145 A 
HETATM    8  N8  UNL     1     -35.537  15.455  -5.588  1.00 20.00    -0.230 NA
HETATM    9  F9  UNL     1     -34.235  17.430  -0.592  1.00 20.00    -0.206 F 
HETATM   10  F10 UNL     1     -37.598  16.347  -3.736  1.00 20.00    -0.203 F 
HETATM   11  S11 UNL     1     -32.985  15.447  -5.222  1.00 20.00    -0.060 SA
HETATM   12 BR12 UNL     1     -34.301  14.422  -7.912  1.00 20.00    -0.021 Br
ENDROOT
TORSDOF 0
ENDMDL
MODEL 7
REMARK VINA RESULT:      -4.2     11.893     12.208
REMARK  0 active torsions:
REMARK  status: ('A' for Active; 'I' for Inactive)
ROOT
HETATM    1  C1  UNL     1     -33.797  18.632   1.196  1.00 20.00     0.087 A 
HETATM    2  C2  UNL     1     -35.721  17.501   0.251  1.00 20.00     0.063 A 
HETATM    3  C3  UNL     1     -33.677  17.768  -1.071  1.00 20.00     0.114 A 
HETATM    4  C4  UNL     1     -35.103  18.169   1.311  1.00 20.00     0.120 A 
HETATM    5  C5  UNL     1     -33.075  18.439   0.015  1.00 20.00     0.149 A 
HETATM    6  C6  UNL     1     -34.991  17.309  -0.932  1.00 20.00     0.042 A 
HETATM    7  C7  UNL     1     -33.936  16.863  -3.067  1.00 20.00     0.145 A 
HETATM    8  N8  UNL     1     -33.087  17.504  -2.299  1.00 20.00    -0.230 NA
HETATM    9  F9  UNL     1     -35.778  18.363   2.452  1.00 20.00    -0.206 F 
HETATM   10  F10 UNL     1     -31.817  18.892  -0.078  1.00 20.00    -0.203 F 
HETATM   11  S11 UNL     1     -35.473  16.533  -2.394  1.00 20.00    -0.060 SA
HETATM   12 BR12 UNL     1     -33.477  16.329  -4.841  1.00 20.00    -0.021 Br
ENDROOT
TORSDOF 0
ENDMDL
MODEL 8
REMARK VINA RESULT:      -4.1     12.090     12.534
REMARK  0 active torsions:
REMARK  status: ('A' for Active; 'I' for Inactive)
ROOT
HETATM    1  C1  UNL     1     -32.107  18.735   2.762  1.00 20.00     0.087 A 
HETATM    2  C2  UNL     1     -34.361  18.283   1.991  1.00 20.00     0.063 A 
HETATM    3  C3  UNL     1     -32.570  18.720   0.377  1.00 20.00     0.114 A 
HETATM    4  C4  UNL     1     -33.441  18.443   3.030  1.00 20.00     0.120 A 
HETATM    5  C5  UNL     1     -31.661  18.876   1.445  1.00 20.00     0.149 A 
HETATM    6  C6  UNL     1     -33.906  18.424   0.670  1.00 20.00     0.042 A 
HETATM    7  C7  UNL     1     -33.358  18.622  -1.681  1.00 20.00     0.145 A 
HETATM    8  N8  UNL     1     -32.273  18.829  -0.973  1.00 20.00    -0.230 NA
HETATM    9  F9  UNL     1     -33.849  18.312   4.299  1.00 20.00    -0.206 F 
HETATM   10  F10 UNL     1     -30.372  19.158   1.207  1.00 20.00    -0.203 F 
HETATM   11  S11 UNL     1     -34.788  18.287  -0.804  1.00 20.00    -0.060 SA
HETATM   12 BR12 UNL     1     -33.339  18.691  -3.588  1.00 20.00    -0.021 Br
ENDROOT
TORSDOF 0
ENDMDL
MODEL 9
REMARK VINA RESULT:      -4.1     12.075     13.372
REMARK  0 active torsions:
REMARK  status: ('A' for Active; 'I' for Inactive)
ROOT
HETATM    1  C1  UNL     1     -34.195  14.772  -5.865  1.00 20.00     0.087 A 
HETATM    2  C2  UNL     1     -33.684  17.141  -5.933  1.00 20.00     0.063 A 
HETATM    3  C3  UNL     1     -34.125  16.035  -3.792  1.00 20.00     0.114 A 
HETATM    4  C4  UNL     1     -33.881  15.921  -6.584  1.00 20.00     0.120 A 
HETATM    5  C5  UNL     1     -34.319  14.816  -4.474  1.00 20.00     0.149 A 
HETATM    6  C6  UNL     1     -33.809  17.178  -4.535  1.00 20.00     0.042 A 
HETATM    7  C7  UNL     1     -33.972  17.489  -2.138  1.00 20.00     0.145 A 
HETATM    8  N8  UNL     1     -34.214  16.230  -2.421  1.00 20.00    -0.230 NA
HETATM    9  F9  UNL     1     -33.767  15.858  -7.918  1.00 20.00    -0.206 F 
HETATM   10  F10 UNL     1     -34.621  13.698  -3.798  1.00 20.00    -0.203 F 
HETATM   11  S11 UNL     1     -33.627  18.515  -3.463  1.00 20.00    -0.060 SA
HETATM   12 BR12 UNL     1     -34.006  18.137  -0.343  1.00 20.00    -0.021 Br
ENDROOT
TORSDOF 0
ENDMDL
