MODEL 1
REMARK VINA RESULT:      -5.6      0.000      0.000
REMARK  0 active torsions:
REMARK  status: ('A' for Active; 'I' for Inactive)
ROOT
HETATM    1  C1  UNL     1     -33.544   6.653   3.357  1.00 20.00     0.050 A 
HETATM    2  C2  UNL     1     -33.018   7.392   4.398  1.00 20.00     0.010 A 
HETATM    3  C3  UNL     1     -32.230   7.978   2.212  1.00 20.00     0.168 A 
HETATM    4  C4  UNL     1     -34.555   5.578   3.557  1.00 20.00     0.060 C 
HETATM    5  C5  UNL     1     -33.336   7.195   5.841  1.00 20.00     0.048 C 
HETATM    6  C6  UNL     1     -34.618   5.139   5.031  1.00 20.00     0.006 C 
HETATM    7  C7  UNL     1     -34.610   6.343   5.991  1.00 20.00     0.006 C 
HETATM    8  N8  UNL     1     -33.095   6.993   2.098  1.00 20.00    -0.233 NA
HETATM    9  S9  UNL     1     -31.915   8.544   3.806  1.00 20.00    -0.061 SA
HETATM   10 CL10 UNL     1     -31.435   8.691   0.871  1.00 20.00    -0.054 Cl
ENDROOT
TORSDOF 0
ENDMDL
MODEL 2
REMARK VINA RESULT:      -5.3      1.286      2.060
REMARK  0 active torsions:
REMARK  status: ('A' for Active; 'I' for Inactive)
ROOT
HETATM    1  C1  UNL     1     -33.284   7.136   4.350  1.00 20.00     0.050 A 
HETATM    2  C2  UNL     1     -33.729   6.065   3.601  1.00 20.00     0.010 A 
HETATM    3  C3  UNL     1     -32.447   7.700   2.408  1.00 20.00     0.168 A 
HETATM    4  C4  UNL     1     -33.549   7.268   5.810  1.00 20.00     0.060 C 
HETATM    5  C5  UNL     1     -34.562   4.940   4.114  1.00 20.00     0.048 C 
HETATM    6  C6  UNL     1     -34.678   6.323   6.259  1.00 20.00     0.006 C 
HETATM    7  C7  UNL     1     -34.526   4.916   5.654  1.00 20.00     0.006 C 
HETATM    8  N8  UNL     1     -32.542   8.075   3.666  1.00 20.00    -0.233 NA
HETATM    9  S9  UNL     1     -33.226   6.226   1.984  1.00 20.00    -0.061 SA
HETATM   10 CL10 UNL     1     -31.603   8.603   1.220  1.00 20.00    -0.054 Cl
ENDROOT
TORSDOF 0
ENDMDL
MODEL 3
REMARK VINA RESULT:      -4.0     11.814     12.678
REMARK  0 active torsions:
REMARK  status: ('A' for Active; 'I' for Inactive)
ROOT
HETATM    1  C1  UNL     1     -34.960  14.638  -5.183  1.00 20.00     0.050 A 
HETATM    2  C2  UNL     1     -34.114  15.467  -5.893  1.00 20.00     0.010 A 
HETATM    3  C3  UNL     1     -34.389  16.011  -3.576  1.00 20.00     0.168 A 
HETATM    4  C4  UNL     1     -35.641  13.462  -5.792  1.00 20.00     0.060 C 
HETATM    5  C5  UNL     1     -33.807  15.343  -7.347  1.00 20.00     0.048 C 
HETATM    6  C6  UNL     1     -35.614  13.538  -7.329  1.00 20.00     0.006 C 
HETATM    7  C7  UNL     1     -34.230  13.955  -7.861  1.00 20.00     0.006 C 
HETATM    8  N8  UNL     1     -35.114  14.947  -3.848  1.00 20.00    -0.233 NA
HETATM    9  S9  UNL     1     -33.494  16.685  -4.881  1.00 20.00    -0.061 SA
HETATM   10 CL10 UNL     1     -34.311  16.721  -2.018  1.00 20.00    -0.054 Cl
ENDROOT
TORSDOF 0
ENDMDL
MODEL 4
REMARK VINA RESULT:      -4.0     11.664     11.959
REMARK  0 active torsions:
REMARK  status: ('A' for Active; 'I' for Inactive)
ROOT
HETATM    1  C1  UNL     1     -34.431  15.020  -4.398  1.00 20.00     0.050 A 
HETATM    2  C2  UNL     1     -35.769  15.329  -4.249  1.00 20.00     0.010 A 
HETATM    3  C3  UNL     1     -35.256  13.770  -5.994  1.00 20.00     0.168 A 
HETATM    4  C4  UNL     1     -33.367  15.587  -3.523  1.00 20.00     0.060 C 
HETATM    5  C5  UNL     1     -36.326  16.289  -3.253  1.00 20.00     0.048 C 
HETATM    6  C6  UNL     1     -33.878  16.816  -2.750  1.00 20.00     0.006 C 
HETATM    7  C7  UNL     1     -35.281  16.584  -2.161  1.00 20.00     0.006 C 
HETATM    8  N8  UNL     1     -34.136  14.119  -5.398  1.00 20.00    -0.233 NA
HETATM    9  S9  UNL     1     -36.701  14.487  -5.396  1.00 20.00    -0.061 SA
HETATM   10 CL10 UNL     1     -35.319  12.662  -7.302  1.00 20.00    -0.054 Cl
ENDROOT
TORSDOF 0
ENDMDL
MODEL 5
REMARK VINA RESULT:      -3.9     11.595     11.884
REMARK  0 active torsions:
REMARK  status: ('A' for Active; 'I' for Inactive)
ROOT
HETATM    1  C1  UNL     1     -34.824  15.215  -4.028  1.00 20.00     0.050 A 
HETATM    2  C2  UNL     1     -36.046  15.758  -3.683  1.00 20.00     0.010 A 
HETATM    3  C3  UNL     1     -34.142  16.711  -2.583  1.00 20.00     0.168 A 
HETATM    4  C4  UNL     1     -34.677  14.128  -5.036  1.00 20.00     0.060 C 
HETATM    5  C5  UNL     1     -37.367  15.315  -4.214  1.00 20.00     0.048 C 
HETATM    6  C6  UNL     1     -36.025  13.440  -5.314  1.00 20.00     0.006 C 
HETATM    7  C7  UNL     1     -37.169  14.458  -5.478  1.00 20.00     0.006 C 
HETATM    8  N8  UNL     1     -33.727  15.766  -3.400  1.00 20.00    -0.233 NA
HETATM    9  S9  UNL     1     -35.839  16.989  -2.527  1.00 20.00    -0.061 SA
HETATM   10 CL10 UNL     1     -33.083  17.642  -1.607  1.00 20.00    -0.054 Cl
ENDROOT
TORSDOF 0
ENDMDL
MODEL 6
REMARK VINA RESULT:      -3.9     12.043     12.338
REMARK  0 active torsions:
REMARK  status: ('A' for Active; 'I' for Inactive)
ROOT
HETATM    1  C1  UNL     1     -31.955  18.637   0.843  1.00 20.00     0.050 A 
HETATM    2  C2  UNL     1     -33.115  18.639   1.594  1.00 20.00     0.010 A 
HETATM    3  C3  UNL     1     -31.087  18.981   2.823  1.00 20.00     0.168 A 
HETATM    4  C4  UNL     1     -31.949  18.464  -0.636  1.00 20.00     0.060 C 
HETATM    5  C5  UNL     1     -34.489  18.422   1.058  1.00 20.00     0.048 C 
HETATM    6  C6  UNL     1     -33.290  17.897  -1.136  1.00 20.00     0.006 C 
HETATM    7  C7  UNL     1     -34.493  18.593  -0.473  1.00 20.00     0.006 C 
HETATM    8  N8  UNL     1     -30.788  18.839   1.549  1.00 20.00    -0.233 NA
HETATM    9  S9  UNL     1     -32.753  18.885   3.238  1.00 20.00    -0.061 SA
HETATM   10 CL10 UNL     1     -29.909  19.248   4.040  1.00 20.00    -0.054 Cl
ENDROOT
TORSDOF 0
ENDMDL
MODEL 7
REMARK VINA RESULT:      -3.8     12.180     12.578
REMARK  0 active torsions:
REMARK  status: ('A' for Active; 'I' for Inactive)
ROOT
HETATM    1  C1  UNL     1     -32.095  18.926   2.473  1.00 20.00     0.050 A 
HETATM    2  C2  UNL     1     -33.425  18.768   2.135  1.00 20.00     0.010 A 
HETATM    3  C3  UNL     1     -32.980  19.077   4.469  1.00 20.00     0.168 A 
HETATM    4  C4  UNL     1     -30.999  18.936   1.464  1.00 20.00     0.060 C 
HETATM    5  C5  UNL     1     -33.942  18.537   0.756  1.00 20.00     0.048 C 
HETATM    6  C6  UNL     1     -31.475  18.356   0.120  1.00 20.00     0.006 C 
HETATM    7  C7  UNL     1     -32.861  18.893  -0.281  1.00 20.00     0.006 C 
HETATM    8  N8  UNL     1     -31.839  19.110   3.815  1.00 20.00    -0.233 NA
HETATM    9  S9  UNL     1     -34.399  18.833   3.528  1.00 20.00    -0.061 SA
HETATM   10 CL10 UNL     1     -33.094  19.263   6.169  1.00 20.00    -0.054 Cl
ENDROOT
TORSDOF 0
ENDMDL
MODEL 8
REMARK VINA RESULT:      -3.8     11.711     12.150
REMARK  0 active torsions:
REMARK  status: ('A' for Active; 'I' for Inactive)
ROOT
HETATM    1  C1  UNL     1     -34.796  17.775   0.115  1.00 20.00     0.050 A 
HETATM    2  C2  UNL     1     -33.521  18.267  -0.082  1.00 20.00     0.010 A 
HETATM    3  C3  UNL     1     -34.444  18.626   2.101  1.00 20.00     0.168 A 
HETATM    4  C4  UNL     1     -35.552  17.042  -0.939  1.00 20.00     0.060 C 
HETATM    5  C5  UNL     1     -32.754  18.188  -1.357  1.00 20.00     0.048 C 
HETATM    6  C6  UNL     1     -34.928  17.264  -2.328  1.00 20.00     0.006 C 
HETATM    7  C7  UNL     1     -33.393  17.148  -2.295  1.00 20.00     0.006 C 
HETATM    8  N8  UNL     1     -35.326  17.975   1.372  1.00 20.00    -0.233 NA
HETATM    9  S9  UNL     1     -32.955  19.022   1.334  1.00 20.00    -0.061 SA
HETATM   10 CL10 UNL     1     -34.720  19.075   3.732  1.00 20.00    -0.054 Cl
ENDROOT
TORSDOF 0
ENDMDL
MODEL 9
REMARK VINA RESULT:      -3.8     11.639     11.989
REMARK  0 active torsions:
REMARK  status: ('A' for Active; 'I' for Inactive)
ROOT
HETATM    1  C1  UNL     1     -34.719  17.527  -0.736  1.00 20.00     0.050 A 
HETATM    2  C2  UNL     1     -33.518  17.715  -1.392  1.00 20.00     0.010 A 
HETATM    3  C3  UNL     1     -35.176  16.480  -2.603  1.00 20.00     0.168 A 
HETATM    4  C4  UNL     1     -34.994  18.073   0.622  1.00 20.00     0.060 C 
HETATM    5  C5  UNL     1     -32.333  18.427  -0.833  1.00 20.00     0.048 C 
HETATM    6  C6  UNL     1     -33.692  18.487   1.330  1.00 20.00     0.006 C 
HETATM    7  C7  UNL     1     -32.748  19.262   0.393  1.00 20.00     0.006 C 
HETATM    8  N8  UNL     1     -35.675  16.821  -1.435  1.00 20.00    -0.233 NA
HETATM    9  S9  UNL     1     -33.562  16.981  -2.926  1.00 20.00    -0.061 SA
HETATM   10 CL10 UNL     1     -36.050  15.583  -3.774  1.00 20.00    -0.054 Cl
ENDROOT
TORSDOF 0
ENDMDL
