MODEL 1
REMARK VINA RESULT:      -5.7      0.000      0.000
REMARK  2 active torsions:
REMARK  status: ('A' for Active; 'I' for Inactive)
REMARK    1  A    between atoms: C2_2  and  C7_7 
REMARK    2  A    between atoms: C3_3  and  C6_6 
ROOT
HETATM    1  C1  UNL     1     -33.113   7.508   2.209  1.00 20.00     0.066 A 
HETATM    2  C2  UNL     1     -32.944   7.291   3.587  1.00 20.00     0.068 A 
HETATM    3  C3  UNL     1     -32.138   8.419   1.901  1.00 20.00     0.094 A 
HETATM    4  N8  UNL     1     -31.943   8.014   4.095  1.00 20.00    -0.133 NA
HETATM    5  O9  UNL     1     -31.433   8.730   3.018  1.00 20.00    -0.216 OA
ENDROOT
BRANCH   2   6
HETATM    6  C7  UNL     1     -33.748   6.372   4.490  1.00 20.00     0.032 C 
HETATM    7  C4  UNL     1     -35.072   5.963   3.840  1.00 20.00     0.016 C 
HETATM    8  C5  UNL     1     -33.986   7.001   5.864  1.00 20.00     0.016 C 
ENDBRANCH   2   6
BRANCH   3   9
HETATM    9  C6  UNL     1     -31.731   9.092   0.661  1.00 20.00     0.181 C 
HETATM   10 CL10 UNL     1     -33.145   9.487  -0.359  1.00 20.00    -0.123 Cl
ENDBRANCH   3   9
TORSDOF 2
ENDMDL
MODEL 2
REMARK VINA RESULT:      -5.7      0.980      1.421
REMARK  2 active torsions:
REMARK  status: ('A' for Active; 'I' for Inactive)
REMARK    1  A    between atoms: C2_2  and  C7_7 
REMARK    2  A    between atoms: C3_3  and  C6_6 
ROOT
HETATM    1  C1  UNL     1     -33.350   7.113   2.384  1.00 20.00     0.066 A 
HETATM    2  C2  UNL     1     -33.489   6.889   3.764  1.00 20.00     0.068 A 
HETATM    3  C3  UNL     1     -32.322   8.014   2.302  1.00 20.00     0.094 A 
HETATM    4  N8  UNL     1     -32.614   7.598   4.483  1.00 20.00    -0.133 NA
HETATM    5  O9  UNL     1     -31.874   8.312   3.548  1.00 20.00    -0.216 OA
ENDROOT
BRANCH   2   6
HETATM    6  C7  UNL     1     -34.479   5.977   4.464  1.00 20.00     0.032 C 
HETATM    7  C4  UNL     1     -34.455   6.178   5.981  1.00 20.00     0.016 C 
HETATM    8  C5  UNL     1     -34.242   4.508   4.105  1.00 20.00     0.016 C 
ENDBRANCH   2   6
BRANCH   3   9
HETATM    9  C6  UNL     1     -31.647   8.687   1.184  1.00 20.00     0.181 C 
HETATM   10 CL10 UNL     1     -32.480  10.204   0.739  1.00 20.00    -0.123 Cl
ENDBRANCH   3   9
TORSDOF 2
ENDMDL
MODEL 3
REMARK VINA RESULT:      -5.1      2.471      4.442
REMARK  2 active torsions:
REMARK  status: ('A' for Active; 'I' for Inactive)
REMARK    1  A    between atoms: C2_2  and  C7_7 
REMARK    2  A    between atoms: C3_3  and  C6_6 
ROOT
HETATM    1  C1  UNL     1     -33.482   7.532   2.127  1.00 20.00     0.066 A 
HETATM    2  C2  UNL     1     -32.449   8.479   2.039  1.00 20.00     0.068 A 
HETATM    3  C3  UNL     1     -33.305   6.969   3.363  1.00 20.00     0.094 A 
HETATM    4  N8  UNL     1     -31.688   8.501   3.136  1.00 20.00    -0.133 NA
HETATM    5  O9  UNL     1     -32.237   7.539   3.975  1.00 20.00    -0.216 OA
ENDROOT
BRANCH   2   6
HETATM    6  C7  UNL     1     -32.139   9.415   0.885  1.00 20.00     0.032 C 
HETATM    7  C4  UNL     1     -32.371  10.878   1.269  1.00 20.00     0.016 C 
HETATM    8  C5  UNL     1     -32.939   9.048  -0.367  1.00 20.00     0.016 C 
ENDBRANCH   2   6
BRANCH   3   9
HETATM    9  C6  UNL     1     -34.009   5.921   4.113  1.00 20.00     0.181 C 
HETATM   10 CL10 UNL     1     -34.219   6.378   5.828  1.00 20.00    -0.123 Cl
ENDBRANCH   3   9
TORSDOF 2
ENDMDL
MODEL 4
REMARK VINA RESULT:      -4.6      2.896      4.615
REMARK  2 active torsions:
REMARK  status: ('A' for Active; 'I' for Inactive)
REMARK    1  A    between atoms: C2_2  and  C7_7 
REMARK    2  A    between atoms: C3_3  and  C6_6 
ROOT
HETATM    1  C1  UNL     1     -32.848   8.076   4.104  1.00 20.00     0.066 A 
HETATM    2  C2  UNL     1     -32.684   8.031   2.709  1.00 20.00     0.068 A 
HETATM    3  C3  UNL     1     -33.591   6.959   4.381  1.00 20.00     0.094 A 
HETATM    4  N8  UNL     1     -33.280   6.968   2.163  1.00 20.00    -0.133 NA
HETATM    5  O9  UNL     1     -33.856   6.289   3.231  1.00 20.00    -0.216 OA
ENDROOT
BRANCH   2   6
HETATM    6  C7  UNL     1     -31.940   9.017   1.828  1.00 20.00     0.032 C 
HETATM    7  C4  UNL     1     -32.827  10.202   1.437  1.00 20.00     0.016 C 
HETATM    8  C5  UNL     1     -31.361   8.337   0.586  1.00 20.00     0.016 C 
ENDBRANCH   2   6
BRANCH   3   9
HETATM    9  C6  UNL     1     -34.131   6.379   5.617  1.00 20.00     0.181 C 
HETATM   10 CL10 UNL     1     -34.581   4.665   5.389  1.00 20.00    -0.123 Cl
ENDBRANCH   3   9
TORSDOF 2
ENDMDL
MODEL 5
REMARK VINA RESULT:      -4.2     10.471     10.867
REMARK  2 active torsions:
REMARK  status: ('A' for Active; 'I' for Inactive)
REMARK    1  A    between atoms: C2_2  and  C7_7 
REMARK    2  A    between atoms: C3_3  and  C6_6 
ROOT
HETATM    1  C1  UNL     1     -35.339  15.252  -3.966  1.00 20.00     0.066 A 
HETATM    2  C2  UNL     1     -34.062  15.666  -3.554  1.00 20.00     0.068 A 
HETATM    3  C3  UNL     1     -35.085  14.223  -4.833  1.00 20.00     0.094 A 
HETATM    4  N8  UNL     1     -33.089  14.949  -4.123  1.00 20.00    -0.133 NA
HETATM    5  O9  UNL     1     -33.745  14.032  -4.935  1.00 20.00    -0.216 OA
ENDROOT
BRANCH   2   6
HETATM    6  C7  UNL     1     -33.712  16.782  -2.587  1.00 20.00     0.032 C 
HETATM    7  C4  UNL     1     -34.788  16.952  -1.511  1.00 20.00     0.016 C 
HETATM    8  C5  UNL     1     -33.460  18.102  -3.318  1.00 20.00     0.016 C 
ENDBRANCH   2   6
BRANCH   3   9
HETATM    9  C6  UNL     1     -35.937  13.334  -5.633  1.00 20.00     0.181 C 
HETATM   10 CL10 UNL     1     -35.179  12.948  -7.205  1.00 20.00    -0.123 Cl
ENDBRANCH   3   9
TORSDOF 2
ENDMDL
MODEL 6
REMARK VINA RESULT:      -4.1     10.904     11.398
REMARK  2 active torsions:
REMARK  status: ('A' for Active; 'I' for Inactive)
REMARK    1  A    between atoms: C2_2  and  C7_7 
REMARK    2  A    between atoms: C3_3  and  C6_6 
ROOT
HETATM    1  C1  UNL     1     -33.369  18.517   0.543  1.00 20.00     0.066 A 
HETATM    2  C2  UNL     1     -33.188  18.111  -0.790  1.00 20.00     0.068 A 
HETATM    3  C3  UNL     1     -32.100  18.795   0.975  1.00 20.00     0.094 A 
HETATM    4  N8  UNL     1     -31.904  18.135  -1.156  1.00 20.00    -0.133 NA
HETATM    5  O9  UNL     1     -31.216  18.571  -0.030  1.00 20.00    -0.216 OA
ENDROOT
BRANCH   2   6
HETATM    6  C7  UNL     1     -34.250  17.675  -1.783  1.00 20.00     0.032 C 
HETATM    7  C4  UNL     1     -35.482  17.107  -1.075  1.00 20.00     0.016 C 
HETATM    8  C5  UNL     1     -33.694  16.675  -2.798  1.00 20.00     0.016 C 
ENDBRANCH   2   6
BRANCH   3   9
HETATM    9  C6  UNL     1     -31.540  19.263   2.250  1.00 20.00     0.181 C 
HETATM   10 CL10 UNL     1     -32.600  18.835   3.623  1.00 20.00    -0.123 Cl
ENDBRANCH   3   9
TORSDOF 2
ENDMDL
MODEL 7
REMARK VINA RESULT:      -4.1     10.745     11.406
REMARK  2 active torsions:
REMARK  status: ('A' for Active; 'I' for Inactive)
REMARK    1  A    between atoms: C2_2  and  C7_7 
REMARK    2  A    between atoms: C3_3  and  C6_6 
ROOT
HETATM    1  C1  UNL     1     -36.386  15.423  -4.439  1.00 20.00     0.066 A 
HETATM    2  C2  UNL     1     -35.189  14.686  -4.425  1.00 20.00     0.068 A 
HETATM    3  C3  UNL     1     -37.310  14.534  -4.921  1.00 20.00     0.094 A 
HETATM    4  N8  UNL     1     -35.359  13.436  -4.864  1.00 20.00    -0.133 NA
HETATM    5  O9  UNL     1     -36.710  13.345  -5.178  1.00 20.00    -0.216 OA
ENDROOT
BRANCH   2   6
HETATM    6  C7  UNL     1     -33.814  15.154  -3.986  1.00 20.00     0.032 C 
HETATM    7  C4  UNL     1     -33.905  16.305  -2.981  1.00 20.00     0.016 C 
HETATM    8  C5  UNL     1     -32.943  15.542  -5.182  1.00 20.00     0.016 C 
ENDBRANCH   2   6
BRANCH   3   9
HETATM    9  C6  UNL     1     -38.750  14.617  -5.199  1.00 20.00     0.181 C 
HETATM   10 CL10 UNL     1     -39.522  15.920  -4.252  1.00 20.00    -0.123 Cl
ENDBRANCH   3   9
TORSDOF 2
ENDMDL
MODEL 8
REMARK VINA RESULT:      -4.1     10.478     10.817
REMARK  2 active torsions:
REMARK  status: ('A' for Active; 'I' for Inactive)
REMARK    1  A    between atoms: C2_2  and  C7_7 
REMARK    2  A    between atoms: C3_3  and  C6_6 
ROOT
HETATM    1  C1  UNL     1     -35.260  15.483  -3.859  1.00 20.00     0.066 A 
HETATM    2  C2  UNL     1     -34.982  14.363  -4.660  1.00 20.00     0.068 A 
HETATM    3  C3  UNL     1     -34.029  15.875  -3.406  1.00 20.00     0.094 A 
HETATM    4  N8  UNL     1     -33.677  14.081  -4.700  1.00 20.00    -0.133 NA
HETATM    5  O9  UNL     1     -33.075  15.046  -3.901  1.00 20.00    -0.216 OA
ENDROOT
BRANCH   2   6
HETATM    6  C7  UNL     1     -35.966  13.501  -5.429  1.00 20.00     0.032 C 
HETATM    7  C4  UNL     1     -35.457  13.187  -6.838  1.00 20.00     0.016 C 
HETATM    8  C5  UNL     1     -37.354  14.142  -5.482  1.00 20.00     0.016 C 
ENDBRANCH   2   6
BRANCH   3   9
HETATM    9  C6  UNL     1     -33.565  16.961  -2.533  1.00 20.00     0.181 C 
HETATM   10 CL10 UNL     1     -34.600  17.118  -1.085  1.00 20.00    -0.123 Cl
ENDBRANCH   3   9
TORSDOF 2
ENDMDL
MODEL 9
REMARK VINA RESULT:      -3.9     10.579     10.984
REMARK  2 active torsions:
REMARK  status: ('A' for Active; 'I' for Inactive)
REMARK    1  A    between atoms: C2_2  and  C7_7 
REMARK    2  A    between atoms: C3_3  and  C6_6 
ROOT
HETATM    1  C1  UNL     1     -34.348  15.027  -3.888  1.00 20.00     0.066 A 
HETATM    2  C2  UNL     1     -34.820  16.035  -3.030  1.00 20.00     0.068 A 
HETATM    3  C3  UNL     1     -35.473  14.604  -4.545  1.00 20.00     0.094 A 
HETATM    4  N8  UNL     1     -36.137  16.222  -3.147  1.00 20.00    -0.133 NA
HETATM    5  O9  UNL     1     -36.547  15.310  -4.112  1.00 20.00    -0.216 OA
ENDROOT
BRANCH   2   6
HETATM    6  C7  UNL     1     -34.021  16.871  -2.048  1.00 20.00     0.032 C 
HETATM    7  C4  UNL     1     -34.894  17.375  -0.896  1.00 20.00     0.016 C 
HETATM    8  C5  UNL     1     -33.314  18.035  -2.746  1.00 20.00     0.016 C 
ENDBRANCH   2   6
BRANCH   3   9
HETATM    9  C6  UNL     1     -35.727  13.587  -5.573  1.00 20.00     0.181 C 
HETATM   10 CL10 UNL     1     -34.507  13.660  -6.877  1.00 20.00    -0.123 Cl
ENDBRANCH   3   9
TORSDOF 2
ENDMDL
