MODEL 1
REMARK VINA RESULT:      -5.2      0.000      0.000
REMARK  0 active torsions:
REMARK  status: ('A' for Active; 'I' for Inactive)
ROOT
HETATM    1  C1  UNL     1     -35.333  13.871  -5.210  1.00 20.00     0.135 C 
HETATM    2  C2  UNL     1     -33.915  15.055  -6.836  1.00 20.00     0.017 C 
HETATM    3  C3  UNL     1     -33.092  14.610  -4.507  1.00 20.00     0.017 C 
HETATM    4  C4  UNL     1     -35.988  16.142  -5.900  1.00 20.00     0.037 C 
HETATM    5  C5  UNL     1     -35.163  15.697  -3.565  1.00 20.00     0.037 C 
HETATM    6  C6  UNL     1     -33.707  16.949  -5.195  1.00 20.00     0.030 C 
HETATM    7  C7  UNL     1     -35.365  14.829  -6.392  1.00 20.00     0.058 C 
HETATM    8  C8  UNL     1     -34.529  14.375  -4.021  1.00 20.00     0.058 C 
HETATM    9  C9  UNL     1     -33.083  15.624  -5.669  1.00 20.00    -0.011 C 
HETATM   10  C10 UNL     1     -35.157  16.712  -4.729  1.00 20.00     0.039 C 
HETATM   11  O11 UNL     1     -35.908  12.786  -5.215  1.00 20.00    -0.297 OA
HETATM   12 CL12 UNL     1     -35.873  18.256  -4.180  1.00 20.00    -0.119 Cl
ENDROOT
TORSDOF 0
ENDMDL
MODEL 2
REMARK VINA RESULT:      -5.0      1.265      1.974
REMARK  0 active torsions:
REMARK  status: ('A' for Active; 'I' for Inactive)
ROOT
HETATM    1  C1  UNL     1     -35.448  13.920  -5.117  1.00 20.00     0.135 C 
HETATM    2  C2  UNL     1     -36.260  16.109  -5.897  1.00 20.00     0.017 C 
HETATM    3  C3  UNL     1     -33.994  15.270  -6.575  1.00 20.00     0.017 C 
HETATM    4  C4  UNL     1     -35.675  15.739  -3.473  1.00 20.00     0.037 C 
HETATM    5  C5  UNL     1     -33.404  14.898  -4.152  1.00 20.00     0.037 C 
HETATM    6  C6  UNL     1     -34.191  17.161  -4.929  1.00 20.00     0.030 C 
HETATM    7  C7  UNL     1     -36.303  15.117  -4.728  1.00 20.00     0.058 C 
HETATM    8  C8  UNL     1     -33.997  14.262  -5.418  1.00 20.00     0.058 C 
HETATM    9  C9  UNL     1     -34.804  16.524  -6.189  1.00 20.00    -0.011 C 
HETATM   10  C10 UNL     1     -34.216  16.154  -3.764  1.00 20.00     0.039 C 
HETATM   11  O11 UNL     1     -35.891  12.777  -5.181  1.00 20.00    -0.297 OA
HETATM   12 CL12 UNL     1     -33.502  16.901  -2.306  1.00 20.00    -0.119 Cl
ENDROOT
TORSDOF 0
ENDMDL
MODEL 3
REMARK VINA RESULT:      -4.9      1.291      1.991
REMARK  0 active torsions:
REMARK  status: ('A' for Active; 'I' for Inactive)
ROOT
HETATM    1  C1  UNL     1     -35.347  13.950  -5.084  1.00 20.00     0.135 C 
HETATM    2  C2  UNL     1     -33.060  14.575  -4.421  1.00 20.00     0.017 C 
HETATM    3  C3  UNL     1     -35.048  15.627  -3.307  1.00 20.00     0.017 C 
HETATM    4  C4  UNL     1     -33.973  15.231  -6.677  1.00 20.00     0.037 C 
HETATM    5  C5  UNL     1     -35.966  16.286  -5.561  1.00 20.00     0.037 C 
HETATM    6  C6  UNL     1     -33.638  16.977  -4.892  1.00 20.00     0.030 C 
HETATM    7  C7  UNL     1     -33.929  14.133  -5.605  1.00 20.00     0.058 C 
HETATM    8  C8  UNL     1     -35.953  15.204  -4.472  1.00 20.00     0.058 C 
HETATM    9  C9  UNL     1     -33.613  15.880  -3.813  1.00 20.00    -0.011 C 
HETATM   10  C10 UNL     1     -34.529  16.538  -6.070  1.00 20.00     0.039 C 
HETATM   11  O11 UNL     1     -35.950  12.883  -5.154  1.00 20.00    -0.297 OA
HETATM   12 CL12 UNL     1     -34.552  17.818  -7.318  1.00 20.00    -0.119 Cl
ENDROOT
TORSDOF 0
ENDMDL
MODEL 4
REMARK VINA RESULT:      -4.8      1.512      2.159
REMARK  0 active torsions:
REMARK  status: ('A' for Active; 'I' for Inactive)
ROOT
HETATM    1  C1  UNL     1     -37.050  14.298  -5.296  1.00 20.00     0.135 C 
HETATM    2  C2  UNL     1     -36.170  15.829  -7.011  1.00 20.00     0.017 C 
HETATM    3  C3  UNL     1     -35.109  13.587  -6.633  1.00 20.00     0.017 C 
HETATM    4  C4  UNL     1     -35.926  16.362  -4.559  1.00 20.00     0.037 C 
HETATM    5  C5  UNL     1     -34.862  14.114  -4.180  1.00 20.00     0.037 C 
HETATM    6  C6  UNL     1     -33.914  15.678  -5.912  1.00 20.00     0.030 C 
HETATM    7  C7  UNL     1     -36.845  15.767  -5.635  1.00 20.00     0.058 C 
HETATM    8  C8  UNL     1     -35.765  13.484  -5.250  1.00 20.00     0.058 C 
HETATM    9  C9  UNL     1     -34.832  15.063  -6.983  1.00 20.00    -0.011 C 
HETATM   10  C10 UNL     1     -34.586  15.593  -4.528  1.00 20.00     0.039 C 
HETATM   11  O11 UNL     1     -38.156  13.812  -5.077  1.00 20.00    -0.297 OA
HETATM   12 CL12 UNL     1     -33.512  16.310  -3.291  1.00 20.00    -0.119 Cl
ENDROOT
TORSDOF 0
ENDMDL
MODEL 5
REMARK VINA RESULT:      -4.8      1.865      2.787
REMARK  0 active torsions:
REMARK  status: ('A' for Active; 'I' for Inactive)
ROOT
HETATM    1  C1  UNL     1     -33.244  14.438  -4.558  1.00 20.00     0.135 C 
HETATM    2  C2  UNL     1     -33.493  16.821  -5.120  1.00 20.00     0.017 C 
HETATM    3  C3  UNL     1     -35.028  15.732  -3.460  1.00 20.00     0.017 C 
HETATM    4  C4  UNL     1     -34.045  15.033  -6.809  1.00 20.00     0.037 C 
HETATM    5  C5  UNL     1     -35.583  13.940  -5.146  1.00 20.00     0.037 C 
HETATM    6  C6  UNL     1     -35.889  16.371  -5.734  1.00 20.00     0.030 C 
HETATM    7  C7  UNL     1     -33.091  15.452  -5.682  1.00 20.00     0.058 C 
HETATM    8  C8  UNL     1     -34.652  14.342  -3.992  1.00 20.00     0.058 C 
HETATM    9  C9  UNL     1     -34.941  16.776  -4.592  1.00 20.00    -0.011 C 
HETATM   10  C10 UNL     1     -35.496  14.985  -6.281  1.00 20.00     0.039 C 
HETATM   11  O11 UNL     1     -32.311  13.756  -4.145  1.00 20.00    -0.297 OA
HETATM   12 CL12 UNL     1     -36.602  14.522  -7.606  1.00 20.00    -0.119 Cl
ENDROOT
TORSDOF 0
ENDMDL
MODEL 6
REMARK VINA RESULT:      -4.7      1.451      2.904
REMARK  0 active torsions:
REMARK  status: ('A' for Active; 'I' for Inactive)
ROOT
HETATM    1  C1  UNL     1     -35.328  13.283  -6.473  1.00 20.00     0.135 C 
HETATM    2  C2  UNL     1     -37.205  14.272  -5.226  1.00 20.00     0.017 C 
HETATM    3  C3  UNL     1     -36.420  15.295  -7.379  1.00 20.00     0.017 C 
HETATM    4  C4  UNL     1     -34.856  14.374  -4.317  1.00 20.00     0.037 C 
HETATM    5  C5  UNL     1     -34.068  15.400  -6.475  1.00 20.00     0.037 C 
HETATM    6  C6  UNL     1     -35.964  16.459  -5.197  1.00 20.00     0.030 C 
HETATM    7  C7  UNL     1     -35.879  13.517  -5.075  1.00 20.00     0.058 C 
HETATM    8  C8  UNL     1     -35.079  14.557  -7.266  1.00 20.00     0.058 C 
HETATM    9  C9  UNL     1     -36.978  15.601  -5.975  1.00 20.00    -0.011 C 
HETATM   10  C10 UNL     1     -34.626  15.705  -5.067  1.00 20.00     0.039 C 
HETATM   11  O11 UNL     1     -35.102  12.163  -6.923  1.00 20.00    -0.297 OA
HETATM   12 CL12 UNL     1     -33.454  16.708  -4.164  1.00 20.00    -0.119 Cl
ENDROOT
TORSDOF 0
ENDMDL
MODEL 7
REMARK VINA RESULT:      -4.6      1.148      2.420
REMARK  0 active torsions:
REMARK  status: ('A' for Active; 'I' for Inactive)
ROOT
HETATM    1  C1  UNL     1     -33.246  14.444  -4.552  1.00 20.00     0.135 C 
HETATM    2  C2  UNL     1     -35.566  13.985  -5.234  1.00 20.00     0.017 C 
HETATM    3  C3  UNL     1     -33.976  15.134  -6.799  1.00 20.00     0.017 C 
HETATM    4  C4  UNL     1     -35.059  15.698  -3.456  1.00 20.00     0.037 C 
HETATM    5  C5  UNL     1     -33.466  16.851  -5.024  1.00 20.00     0.037 C 
HETATM    6  C6  UNL     1     -35.846  16.433  -5.733  1.00 20.00     0.030 C 
HETATM    7  C7  UNL     1     -34.673  14.331  -4.036  1.00 20.00     0.058 C 
HETATM    8  C8  UNL     1     -33.054  15.501  -5.629  1.00 20.00     0.058 C 
HETATM    9  C9  UNL     1     -35.441  15.070  -6.322  1.00 20.00    -0.011 C 
HETATM   10  C10 UNL     1     -34.932  16.787  -4.544  1.00 20.00     0.039 C 
HETATM   11  O11 UNL     1     -32.328  13.743  -4.133  1.00 20.00    -0.297 OA
HETATM   12 CL12 UNL     1     -35.410  18.371  -3.867  1.00 20.00    -0.119 Cl
ENDROOT
TORSDOF 0
ENDMDL
MODEL 8
REMARK VINA RESULT:      -4.6      2.000      2.963
REMARK  0 active torsions:
REMARK  status: ('A' for Active; 'I' for Inactive)
ROOT
HETATM    1  C1  UNL     1     -34.947  15.910  -3.520  1.00 20.00     0.135 C 
HETATM    2  C2  UNL     1     -33.042  14.689  -4.488  1.00 20.00     0.017 C 
HETATM    3  C3  UNL     1     -33.609  17.004  -5.273  1.00 20.00     0.017 C 
HETATM    4  C4  UNL     1     -35.410  13.953  -4.940  1.00 20.00     0.037 C 
HETATM    5  C5  UNL     1     -35.979  16.273  -5.728  1.00 20.00     0.037 C 
HETATM    6  C6  UNL     1     -34.050  15.030  -6.767  1.00 20.00     0.030 C 
HETATM    7  C7  UNL     1     -34.446  14.523  -3.892  1.00 20.00     0.058 C 
HETATM    8  C8  UNL     1     -35.023  16.880  -4.690  1.00 20.00     0.058 C 
HETATM    9  C9  UNL     1     -33.093  15.620  -5.716  1.00 20.00    -0.011 C 
HETATM   10  C10 UNL     1     -35.463  14.886  -6.170  1.00 20.00     0.039 C 
HETATM   11  O11 UNL     1     -35.266  16.220  -2.376  1.00 20.00    -0.297 OA
HETATM   12 CL12 UNL     1     -36.568  14.200  -7.397  1.00 20.00    -0.119 Cl
ENDROOT
TORSDOF 0
ENDMDL
MODEL 9
REMARK VINA RESULT:      -4.6      1.659      2.914
REMARK  0 active torsions:
REMARK  status: ('A' for Active; 'I' for Inactive)
ROOT
HETATM    1  C1  UNL     1     -33.395  14.441  -4.456  1.00 20.00     0.135 C 
HETATM    2  C2  UNL     1     -34.894  15.882  -3.139  1.00 20.00     0.017 C 
HETATM    3  C3  UNL     1     -35.826  14.233  -4.787  1.00 20.00     0.017 C 
HETATM    4  C4  UNL     1     -33.423  16.855  -4.940  1.00 20.00     0.037 C 
HETATM    5  C5  UNL     1     -34.356  15.203  -6.592  1.00 20.00     0.037 C 
HETATM    6  C6  UNL     1     -35.913  16.696  -5.289  1.00 20.00     0.030 C 
HETATM    7  C7  UNL     1     -33.519  15.815  -3.815  1.00 20.00     0.058 C 
HETATM    8  C8  UNL     1     -34.467  14.137  -5.492  1.00 20.00     0.058 C 
HETATM    9  C9  UNL     1     -36.009  15.637  -4.176  1.00 20.00    -0.011 C 
HETATM   10  C10 UNL     1     -34.538  16.610  -5.980  1.00 20.00     0.039 C 
HETATM   11  O11 UNL     1     -32.506  13.646  -4.163  1.00 20.00    -0.297 OA
HETATM   12 CL12 UNL     1     -34.435  17.842  -7.272  1.00 20.00    -0.119 Cl
ENDROOT
TORSDOF 0
ENDMDL
