MODEL 1
REMARK VINA RESULT:      -5.4      0.000      0.000
REMARK  3 active torsions:
REMARK  status: ('A' for Active; 'I' for Inactive)
REMARK    1  A    between atoms: C1_1  and  C6_6 
REMARK    2  A    between atoms: C4_4  and  C7_7 
REMARK    3  A    between atoms: C6_6  and  C7_7 
ROOT
HETATM    1  C7  UNL     1     -33.064   6.595   2.830  1.00 20.00     0.019 C 
ENDROOT
BRANCH   1   2
HETATM    2  C4  UNL     1     -33.938   6.356   4.030  1.00 20.00    -0.043 A 
HETATM    3  C2  UNL     1     -34.378   4.939   4.316  1.00 20.00     0.010 A 
HETATM    4  C3  UNL     1     -35.370   5.937   3.791  1.00 20.00     0.010 A 
HETATM    5  C5  UNL     1     -33.652   7.256   5.201  1.00 20.00     0.015 C 
ENDBRANCH   1   2
BRANCH   1   6
HETATM    6  C6  UNL     1     -32.245   7.874   2.953  1.00 20.00     0.114 C 
BRANCH   6   7
HETATM    7  C1  UNL     1     -32.163   8.762   1.705  1.00 20.00     0.172 C 
HETATM    8  O8  UNL     1     -32.974   9.727   1.648  1.00 20.00    -0.648 OA
HETATM    9  O9  UNL     1     -31.270   8.416   0.880  1.00 20.00    -0.648 OA
ENDBRANCH   6   7
ENDBRANCH   1   6
TORSDOF 3
ENDMDL
MODEL 2
REMARK VINA RESULT:      -5.1      0.804      1.373
REMARK  3 active torsions:
REMARK  status: ('A' for Active; 'I' for Inactive)
REMARK    1  A    between atoms: C1_1  and  C6_6 
REMARK    2  A    between atoms: C4_4  and  C7_7 
REMARK    3  A    between atoms: C6_6  and  C7_7 
ROOT
HETATM    1  C7  UNL     1     -33.500   7.549   3.483  1.00 20.00     0.019 C 
ENDROOT
BRANCH   1   2
HETATM    2  C4  UNL     1     -33.924   6.111   3.601  1.00 20.00    -0.043 A 
HETATM    3  C2  UNL     1     -35.391   5.821   3.821  1.00 20.00     0.010 A 
HETATM    4  C3  UNL     1     -34.414   5.625   4.945  1.00 20.00     0.010 A 
HETATM    5  C5  UNL     1     -33.135   5.155   2.750  1.00 20.00     0.015 C 
ENDBRANCH   1   2
BRANCH   1   6
HETATM    6  C6  UNL     1     -32.162   7.703   2.771  1.00 20.00     0.114 C 
BRANCH   6   7
HETATM    7  C1  UNL     1     -32.108   8.712   1.617  1.00 20.00     0.172 C 
HETATM    8  O8  UNL     1     -32.940   9.660   1.660  1.00 20.00    -0.648 OA
HETATM    9  O9  UNL     1     -31.213   8.470   0.758  1.00 20.00    -0.648 OA
ENDBRANCH   6   7
ENDBRANCH   1   6
TORSDOF 3
ENDMDL
MODEL 3
REMARK VINA RESULT:      -5.0      1.181      1.827
REMARK  3 active torsions:
REMARK  status: ('A' for Active; 'I' for Inactive)
REMARK    1  A    between atoms: C1_1  and  C6_6 
REMARK    2  A    between atoms: C4_4  and  C7_7 
REMARK    3  A    between atoms: C6_6  and  C7_7 
ROOT
HETATM    1  C7  UNL     1     -33.416   6.743   4.260  1.00 20.00     0.019 C 
ENDROOT
BRANCH   1   2
HETATM    2  C4  UNL     1     -34.522   5.730   4.360  1.00 20.00    -0.043 A 
HETATM    3  C2  UNL     1     -34.691   4.991   5.667  1.00 20.00     0.010 A 
HETATM    4  C3  UNL     1     -34.140   4.272   4.469  1.00 20.00     0.010 A 
HETATM    5  C5  UNL     1     -35.761   6.079   3.581  1.00 20.00     0.015 C 
ENDBRANCH   1   2
BRANCH   1   6
HETATM    6  C6  UNL     1     -32.995   7.003   2.819  1.00 20.00     0.114 C 
BRANCH   6   7
HETATM    7  C1  UNL     1     -32.010   8.156   2.586  1.00 20.00     0.172 C 
HETATM    8  O8  UNL     1     -32.024   8.685   1.441  1.00 20.00    -0.648 OA
HETATM    9  O9  UNL     1     -31.302   8.443   3.593  1.00 20.00    -0.648 OA
ENDBRANCH   6   7
ENDBRANCH   1   6
TORSDOF 3
ENDMDL
MODEL 4
REMARK VINA RESULT:      -5.0      3.203      4.494
REMARK  3 active torsions:
REMARK  status: ('A' for Active; 'I' for Inactive)
REMARK    1  A    between atoms: C1_1  and  C6_6 
REMARK    2  A    between atoms: C4_4  and  C7_7 
REMARK    3  A    between atoms: C6_6  and  C7_7 
ROOT
HETATM    1  C7  UNL     1     -34.041   7.214   3.981  1.00 20.00     0.019 C 
ENDROOT
BRANCH   1   2
HETATM    2  C4  UNL     1     -32.894   7.166   3.010  1.00 20.00    -0.043 A 
HETATM    3  C2  UNL     1     -31.686   8.027   3.297  1.00 20.00     0.010 A 
HETATM    4  C3  UNL     1     -32.618   8.398   2.179  1.00 20.00     0.010 A 
HETATM    5  C5  UNL     1     -32.668   5.822   2.375  1.00 20.00     0.015 C 
ENDBRANCH   1   2
BRANCH   1   6
HETATM    6  C6  UNL     1     -34.927   5.977   3.896  1.00 20.00     0.114 C 
BRANCH   6   7
HETATM    7  C1  UNL     1     -34.649   4.859   4.908  1.00 20.00     0.172 C 
HETATM    8  O8  UNL     1     -34.660   5.187   6.126  1.00 20.00    -0.648 OA
HETATM    9  O9  UNL     1     -34.450   3.725   4.385  1.00 20.00    -0.648 OA
ENDBRANCH   6   7
ENDBRANCH   1   6
TORSDOF 3
ENDMDL
MODEL 5
REMARK VINA RESULT:      -5.0      3.190      4.495
REMARK  3 active torsions:
REMARK  status: ('A' for Active; 'I' for Inactive)
REMARK    1  A    between atoms: C1_1  and  C6_6 
REMARK    2  A    between atoms: C4_4  and  C7_7 
REMARK    3  A    between atoms: C6_6  and  C7_7 
ROOT
HETATM    1  C7  UNL     1     -33.366   6.155   2.911  1.00 20.00     0.019 C 
ENDROOT
BRANCH   1   2
HETATM    2  C4  UNL     1     -32.771   7.470   3.332  1.00 20.00    -0.043 A 
HETATM    3  C2  UNL     1     -32.748   8.594   2.322  1.00 20.00     0.010 A 
HETATM    4  C3  UNL     1     -31.470   7.897   2.693  1.00 20.00     0.010 A 
HETATM    5  C5  UNL     1     -32.996   7.825   4.777  1.00 20.00     0.015 C 
ENDBRANCH   1   2
BRANCH   1   6
HETATM    6  C6  UNL     1     -34.649   5.830   3.666  1.00 20.00     0.114 C 
BRANCH   6   7
HETATM    7  C1  UNL     1     -34.578   4.686   4.685  1.00 20.00     0.172 C 
HETATM    8  O8  UNL     1     -34.300   3.543   4.229  1.00 20.00    -0.648 OA
HETATM    9  O9  UNL     1     -34.800   5.040   5.878  1.00 20.00    -0.648 OA
ENDBRANCH   6   7
ENDBRANCH   1   6
TORSDOF 3
ENDMDL
MODEL 6
REMARK VINA RESULT:      -4.8      2.587      4.281
REMARK  3 active torsions:
REMARK  status: ('A' for Active; 'I' for Inactive)
REMARK    1  A    between atoms: C1_1  and  C6_6 
REMARK    2  A    between atoms: C4_4  and  C7_7 
REMARK    3  A    between atoms: C6_6  and  C7_7 
ROOT
HETATM    1  C7  UNL     1     -33.316   7.348   2.153  1.00 20.00     0.019 C 
ENDROOT
BRANCH   1   2
HETATM    2  C4  UNL     1     -32.209   8.365   2.154  1.00 20.00    -0.043 A 
HETATM    3  C2  UNL     1     -32.447   9.674   1.439  1.00 20.00     0.010 A 
HETATM    4  C3  UNL     1     -31.514   8.658   0.845  1.00 20.00     0.010 A 
HETATM    5  C5  UNL     1     -31.383   8.387   3.411  1.00 20.00     0.015 C 
ENDBRANCH   1   2
BRANCH   1   6
HETATM    6  C6  UNL     1     -33.180   6.338   3.285  1.00 20.00     0.114 C 
BRANCH   6   7
HETATM    7  C1  UNL     1     -34.293   6.331   4.340  1.00 20.00     0.172 C 
HETATM    8  O8  UNL     1     -35.347   5.705   4.042  1.00 20.00    -0.648 OA
HETATM    9  O9  UNL     1     -34.005   6.955   5.401  1.00 20.00    -0.648 OA
ENDBRANCH   6   7
ENDBRANCH   1   6
TORSDOF 3
ENDMDL
MODEL 7
REMARK VINA RESULT:      -4.4      2.370      4.469
REMARK  3 active torsions:
REMARK  status: ('A' for Active; 'I' for Inactive)
REMARK    1  A    between atoms: C1_1  and  C6_6 
REMARK    2  A    between atoms: C4_4  and  C7_7 
REMARK    3  A    between atoms: C6_6  and  C7_7 
ROOT
HETATM    1  C7  UNL     1     -32.112   8.466   2.696  1.00 20.00     0.019 C 
ENDROOT
BRANCH   1   2
HETATM    2  C4  UNL     1     -32.134   9.145   1.355  1.00 20.00    -0.043 A 
HETATM    3  C2  UNL     1     -32.374  10.636   1.319  1.00 20.00     0.010 A 
HETATM    4  C3  UNL     1     -33.452   9.696   0.861  1.00 20.00     0.010 A 
HETATM    5  C5  UNL     1     -31.192   8.557   0.341  1.00 20.00     0.015 C 
ENDBRANCH   1   2
BRANCH   1   6
HETATM    6  C6  UNL     1     -32.852   7.134   2.686  1.00 20.00     0.114 C 
BRANCH   6   7
HETATM    7  C1  UNL     1     -33.763   6.843   3.885  1.00 20.00     0.172 C 
HETATM    8  O8  UNL     1     -33.416   7.343   4.990  1.00 20.00    -0.648 OA
HETATM    9  O9  UNL     1     -34.774   6.136   3.608  1.00 20.00    -0.648 OA
ENDBRANCH   6   7
ENDBRANCH   1   6
TORSDOF 3
ENDMDL
MODEL 8
REMARK VINA RESULT:      -4.2     10.775     11.593
REMARK  3 active torsions:
REMARK  status: ('A' for Active; 'I' for Inactive)
REMARK    1  A    between atoms: C1_1  and  C6_6 
REMARK    2  A    between atoms: C4_4  and  C7_7 
REMARK    3  A    between atoms: C6_6  and  C7_7 
ROOT
HETATM    1  C7  UNL     1     -35.620  15.745  -3.814  1.00 20.00     0.019 C 
ENDROOT
BRANCH   1   2
HETATM    2  C4  UNL     1     -34.153  16.029  -3.647  1.00 20.00    -0.043 A 
HETATM    3  C2  UNL     1     -33.711  16.764  -2.403  1.00 20.00     0.010 A 
HETATM    4  C3  UNL     1     -33.697  17.467  -3.730  1.00 20.00     0.010 A 
HETATM    5  C5  UNL     1     -33.244  14.967  -4.201  1.00 20.00     0.015 C 
ENDBRANCH   1   2
BRANCH   1   6
HETATM    6  C6  UNL     1     -35.941  15.117  -5.165  1.00 20.00     0.114 C 
BRANCH   6   7
HETATM    7  C1  UNL     1     -36.643  13.754  -5.143  1.00 20.00     0.172 C 
HETATM    8  O8  UNL     1     -35.903  12.738  -5.253  1.00 20.00    -0.648 OA
HETATM    9  O9  UNL     1     -37.898  13.820  -5.003  1.00 20.00    -0.648 OA
ENDBRANCH   6   7
ENDBRANCH   1   6
TORSDOF 3
ENDMDL
MODEL 9
REMARK VINA RESULT:      -4.1     10.681     11.465
REMARK  3 active torsions:
REMARK  status: ('A' for Active; 'I' for Inactive)
REMARK    1  A    between atoms: C1_1  and  C6_6 
REMARK    2  A    between atoms: C4_4  and  C7_7 
REMARK    3  A    between atoms: C6_6  and  C7_7 
ROOT
HETATM    1  C7  UNL     1     -34.684  15.164  -3.654  1.00 20.00     0.019 C 
ENDROOT
BRANCH   1   2
HETATM    2  C4  UNL     1     -34.771  16.562  -3.108  1.00 20.00    -0.043 A 
HETATM    3  C2  UNL     1     -33.701  17.015  -2.141  1.00 20.00     0.010 A 
HETATM    4  C3  UNL     1     -35.089  16.732  -1.640  1.00 20.00     0.010 A 
HETATM    5  C5  UNL     1     -35.326  17.576  -4.071  1.00 20.00     0.015 C 
ENDBRANCH   1   2
BRANCH   1   6
HETATM    6  C6  UNL     1     -35.443  15.003  -4.965  1.00 20.00     0.114 C 
BRANCH   6   7
HETATM    7  C1  UNL     1     -36.252  13.712  -5.139  1.00 20.00     0.172 C 
HETATM    8  O8  UNL     1     -35.610  12.691  -5.509  1.00 20.00    -0.648 OA
HETATM    9  O9  UNL     1     -37.482  13.832  -4.873  1.00 20.00    -0.648 OA
ENDBRANCH   6   7
ENDBRANCH   1   6
TORSDOF 3
ENDMDL
