MODEL 1
REMARK VINA RESULT:      -5.5      0.000      0.000
REMARK  0 active torsions:
REMARK  status: ('A' for Active; 'I' for Inactive)
ROOT
HETATM    1  C1  UNL     1     -32.306   8.155   2.019  1.00 20.00     0.105 C 
HETATM    2  C2  UNL     1     -34.482   5.681   3.752  1.00 20.00     0.068 A 
HETATM    3  C3  UNL     1     -33.337   7.013   5.409  1.00 20.00     0.068 A 
HETATM    4  C4  UNL     1     -32.956   7.421   3.059  1.00 20.00     0.121 A 
HETATM    5  C5  UNL     1     -33.847   6.397   2.737  1.00 20.00     0.141 A 
HETATM    6  C6  UNL     1     -32.702   7.730   4.396  1.00 20.00     0.141 A 
HETATM    7  C7  UNL     1     -34.227   5.989   5.088  1.00 20.00     0.040 A 
HETATM    8  N8  UNL     1     -31.777   8.751   1.176  1.00 20.00    -0.191 NA
HETATM    9  F9  UNL     1     -34.102   6.088   1.458  1.00 20.00    -0.204 F 
HETATM   10  F10 UNL     1     -31.848   8.710   4.721  1.00 20.00    -0.204 F 
HETATM   11 CL11 UNL     1     -35.010   5.105   6.340  1.00 20.00    -0.084 Cl
ENDROOT
TORSDOF 0
ENDMDL
MODEL 2
REMARK VINA RESULT:      -5.4      0.009      2.496
REMARK  0 active torsions:
REMARK  status: ('A' for Active; 'I' for Inactive)
ROOT
HETATM    1  C1  UNL     1     -32.308   8.157   2.029  1.00 20.00     0.105 C 
HETATM    2  C2  UNL     1     -33.341   7.011   5.416  1.00 20.00     0.068 A 
HETATM    3  C3  UNL     1     -34.480   5.676   3.757  1.00 20.00     0.068 A 
HETATM    4  C4  UNL     1     -32.958   7.421   3.067  1.00 20.00     0.121 A 
HETATM    5  C5  UNL     1     -32.707   7.730   4.403  1.00 20.00     0.141 A 
HETATM    6  C6  UNL     1     -33.846   6.393   2.743  1.00 20.00     0.141 A 
HETATM    7  C7  UNL     1     -34.228   5.984   5.093  1.00 20.00     0.040 A 
HETATM    8  N8  UNL     1     -31.780   8.754   1.185  1.00 20.00    -0.191 NA
HETATM    9  F9  UNL     1     -31.857   8.714   4.730  1.00 20.00    -0.204 F 
HETATM   10  F10 UNL     1     -34.099   6.086   1.464  1.00 20.00    -0.204 F 
HETATM   11 CL11 UNL     1     -35.012   5.098   6.343  1.00 20.00    -0.084 Cl
ENDROOT
TORSDOF 0
ENDMDL
MODEL 3
REMARK VINA RESULT:      -4.7      3.190      4.526
REMARK  0 active torsions:
REMARK  status: ('A' for Active; 'I' for Inactive)
ROOT
HETATM    1  C1  UNL     1     -34.393   5.570   5.330  1.00 20.00     0.105 C 
HETATM    2  C2  UNL     1     -32.367   8.290   3.795  1.00 20.00     0.068 A 
HETATM    3  C3  UNL     1     -32.946   6.684   2.086  1.00 20.00     0.068 A 
HETATM    4  C4  UNL     1     -33.688   6.348   4.361  1.00 20.00     0.121 A 
HETATM    5  C5  UNL     1     -33.055   7.531   4.742  1.00 20.00     0.141 A 
HETATM    6  C6  UNL     1     -33.634   5.924   3.032  1.00 20.00     0.141 A 
HETATM    7  C7  UNL     1     -32.313   7.866   2.467  1.00 20.00     0.040 A 
HETATM    8  N8  UNL     1     -34.965   4.938   6.118  1.00 20.00    -0.191 NA
HETATM    9  F9  UNL     1     -33.097   7.951   6.014  1.00 20.00    -0.204 F 
HETATM   10  F10 UNL     1     -34.237   4.789   2.650  1.00 20.00    -0.204 F 
HETATM   11 CL11 UNL     1     -31.463   8.802   1.299  1.00 20.00    -0.084 Cl
ENDROOT
TORSDOF 0
ENDMDL
MODEL 4
REMARK VINA RESULT:      -4.7      3.191      3.804
REMARK  0 active torsions:
REMARK  status: ('A' for Active; 'I' for Inactive)
ROOT
HETATM    1  C1  UNL     1     -34.352   5.564   5.324  1.00 20.00     0.105 C 
HETATM    2  C2  UNL     1     -32.956   6.651   2.049  1.00 20.00     0.068 A 
HETATM    3  C3  UNL     1     -32.368   8.282   3.730  1.00 20.00     0.068 A 
HETATM    4  C4  UNL     1     -33.667   6.336   4.336  1.00 20.00     0.121 A 
HETATM    5  C5  UNL     1     -33.626   5.898   3.012  1.00 20.00     0.141 A 
HETATM    6  C6  UNL     1     -33.037   7.529   4.695  1.00 20.00     0.141 A 
HETATM    7  C7  UNL     1     -32.328   7.843   2.408  1.00 20.00     0.040 A 
HETATM    8  N8  UNL     1     -34.909   4.937   6.126  1.00 20.00    -0.191 NA
HETATM    9  F9  UNL     1     -34.226   4.754   2.651  1.00 20.00    -0.204 F 
HETATM   10  F10 UNL     1     -33.068   7.964   5.963  1.00 20.00    -0.204 F 
HETATM   11 CL11 UNL     1     -31.502   8.774   1.218  1.00 20.00    -0.084 Cl
ENDROOT
TORSDOF 0
ENDMDL
MODEL 5
REMARK VINA RESULT:      -4.6     11.413     11.841
REMARK  0 active torsions:
REMARK  status: ('A' for Active; 'I' for Inactive)
ROOT
HETATM    1  C1  UNL     1     -35.587  13.728  -4.906  1.00 20.00     0.105 C 
HETATM    2  C2  UNL     1     -36.043  16.837  -2.910  1.00 20.00     0.068 A 
HETATM    3  C3  UNL     1     -33.683  16.344  -3.063  1.00 20.00     0.068 A 
HETATM    4  C4  UNL     1     -35.293  14.889  -4.127  1.00 20.00     0.121 A 
HETATM    5  C5  UNL     1     -36.330  15.703  -3.670  1.00 20.00     0.141 A 
HETATM    6  C6  UNL     1     -33.969  15.210  -3.824  1.00 20.00     0.141 A 
HETATM    7  C7  UNL     1     -34.719  17.157  -2.607  1.00 20.00     0.040 A 
HETATM    8  N8  UNL     1     -35.825  12.784  -5.538  1.00 20.00    -0.191 NA
HETATM    9  F9  UNL     1     -37.607  15.408  -3.952  1.00 20.00    -0.204 F 
HETATM   10  F10 UNL     1     -32.962  14.437  -4.255  1.00 20.00    -0.204 F 
HETATM   11 CL11 UNL     1     -34.365  18.556  -1.668  1.00 20.00    -0.084 Cl
ENDROOT
TORSDOF 0
ENDMDL
MODEL 6
REMARK VINA RESULT:      -4.6     11.418     11.943
REMARK  0 active torsions:
REMARK  status: ('A' for Active; 'I' for Inactive)
ROOT
HETATM    1  C1  UNL     1     -35.586  13.753  -4.852  1.00 20.00     0.105 C 
HETATM    2  C2  UNL     1     -33.683  16.400  -3.055  1.00 20.00     0.068 A 
HETATM    3  C3  UNL     1     -36.043  16.893  -2.905  1.00 20.00     0.068 A 
HETATM    4  C4  UNL     1     -35.293  14.927  -4.092  1.00 20.00     0.121 A 
HETATM    5  C5  UNL     1     -33.969  15.254  -3.797  1.00 20.00     0.141 A 
HETATM    6  C6  UNL     1     -36.330  15.747  -3.646  1.00 20.00     0.141 A 
HETATM    7  C7  UNL     1     -34.720  17.219  -2.609  1.00 20.00     0.040 A 
HETATM    8  N8  UNL     1     -35.824  12.799  -5.469  1.00 20.00    -0.191 NA
HETATM    9  F9  UNL     1     -32.962  14.477  -4.218  1.00 20.00    -0.204 F 
HETATM   10  F10 UNL     1     -37.607  15.446  -3.923  1.00 20.00    -0.204 F 
HETATM   11 CL11 UNL     1     -34.368  18.634  -1.694  1.00 20.00    -0.084 Cl
ENDROOT
TORSDOF 0
ENDMDL
MODEL 7
REMARK VINA RESULT:      -4.3     11.536     12.790
REMARK  0 active torsions:
REMARK  status: ('A' for Active; 'I' for Inactive)
ROOT
HETATM    1  C1  UNL     1     -34.536  13.807  -6.500  1.00 20.00     0.105 C 
HETATM    2  C2  UNL     1     -33.883  15.879  -3.477  1.00 20.00     0.068 A 
HETATM    3  C3  UNL     1     -33.600  17.253  -5.444  1.00 20.00     0.068 A 
HETATM    4  C4  UNL     1     -34.214  14.927  -5.673  1.00 20.00     0.121 A 
HETATM    5  C5  UNL     1     -34.197  14.787  -4.285  1.00 20.00     0.141 A 
HETATM    6  C6  UNL     1     -33.915  16.161  -6.253  1.00 20.00     0.141 A 
HETATM    7  C7  UNL     1     -33.584  17.113  -4.057  1.00 20.00     0.040 A 
HETATM    8  N8  UNL     1     -34.798  12.898  -7.172  1.00 20.00    -0.191 NA
HETATM    9  F9  UNL     1     -34.481  13.608  -3.712  1.00 20.00    -0.204 F 
HETATM   10  F10 UNL     1     -33.926  16.311  -7.585  1.00 20.00    -0.204 F 
HETATM   11 CL11 UNL     1     -33.195  18.461  -3.061  1.00 20.00    -0.084 Cl
ENDROOT
TORSDOF 0
ENDMDL
MODEL 8
REMARK VINA RESULT:      -4.3     11.730     12.225
REMARK  0 active torsions:
REMARK  status: ('A' for Active; 'I' for Inactive)
ROOT
HETATM    1  C1  UNL     1     -34.055  18.801   1.860  1.00 20.00     0.105 C 
HETATM    2  C2  UNL     1     -32.921  17.784  -1.536  1.00 20.00     0.068 A 
HETATM    3  C3  UNL     1     -35.186  17.015  -1.205  1.00 20.00     0.068 A 
HETATM    4  C4  UNL     1     -34.054  18.232   0.549  1.00 20.00     0.121 A 
HETATM    5  C5  UNL     1     -32.921  18.339  -0.257  1.00 20.00     0.141 A 
HETATM    6  C6  UNL     1     -35.188  17.570   0.075  1.00 20.00     0.141 A 
HETATM    7  C7  UNL     1     -34.053  17.122  -2.010  1.00 20.00     0.040 A 
HETATM    8  N8  UNL     1     -34.056  19.263   2.924  1.00 20.00    -0.191 NA
HETATM    9  F9  UNL     1     -31.824  18.971   0.184  1.00 20.00    -0.204 F 
HETATM   10  F10 UNL     1     -36.284  17.459   0.838  1.00 20.00    -0.204 F 
HETATM   11 CL11 UNL     1     -34.053  16.436  -3.589  1.00 20.00    -0.084 Cl
ENDROOT
TORSDOF 0
ENDMDL
MODEL 9
REMARK VINA RESULT:      -4.3     11.798     12.073
REMARK  0 active torsions:
REMARK  status: ('A' for Active; 'I' for Inactive)
ROOT
HETATM    1  C1  UNL     1     -33.749  18.756   1.445  1.00 20.00     0.105 C 
HETATM    2  C2  UNL     1     -35.543  16.998  -1.303  1.00 20.00     0.068 A 
HETATM    3  C3  UNL     1     -33.273  17.435  -2.003  1.00 20.00     0.068 A 
HETATM    4  C4  UNL     1     -34.016  18.131   0.188  1.00 20.00     0.121 A 
HETATM    5  C5  UNL     1     -35.282  17.608  -0.076  1.00 20.00     0.141 A 
HETATM    6  C6  UNL     1     -33.011  18.045  -0.776  1.00 20.00     0.141 A 
HETATM    7  C7  UNL     1     -34.538  16.912  -2.267  1.00 20.00     0.040 A 
HETATM    8  N8  UNL     1     -33.531  19.263   2.466  1.00 20.00    -0.191 NA
HETATM    9  F9  UNL     1     -36.258  17.684   0.840  1.00 20.00    -0.204 F 
HETATM   10  F10 UNL     1     -31.790  18.544  -0.538  1.00 20.00    -0.204 F 
HETATM   11 CL11 UNL     1     -34.860  16.161  -3.781  1.00 20.00    -0.084 Cl
ENDROOT
TORSDOF 0
ENDMDL
