MODEL 1
REMARK VINA RESULT:      -5.6      0.000      0.000
REMARK  1 active torsions:
REMARK  status: ('A' for Active; 'I' for Inactive)
REMARK    1  A    between atoms: C3_3  and  C8_8 
ROOT
HETATM    1  C1  UNL     1     -33.517   4.657   4.179  1.00 20.00    -0.026 C 
HETATM    2  C2  UNL     1     -33.469   5.121   2.923  1.00 20.00    -0.025 C 
HETATM    3  C4  UNL     1     -35.480   5.824   3.812  1.00 20.00     0.018 C 
HETATM    4  C5  UNL     1     -33.822   6.920   5.124  1.00 20.00     0.022 C 
HETATM    5  C6  UNL     1     -34.483   5.535   4.940  1.00 20.00     0.009 C 
HETATM    6  C7  UNL     1     -34.394   6.317   2.848  1.00 20.00     0.021 C 
HETATM    7  C8  UNL     1     -33.797   7.482   3.673  1.00 20.00     0.080 C 
ENDROOT
BRANCH   7   8
HETATM    8  C3  UNL     1     -32.427   7.889   3.224  1.00 20.00     0.223 C 
HETATM    9  O9  UNL     1     -31.476   7.914   4.000  1.00 20.00    -0.279 OA
HETATM   10 CL10 UNL     1     -32.387   8.298   1.537  1.00 20.00    -0.043 Cl
ENDBRANCH   7   8
TORSDOF 1
ENDMDL
MODEL 2
REMARK VINA RESULT:      -4.4     11.517     12.521
REMARK  1 active torsions:
REMARK  status: ('A' for Active; 'I' for Inactive)
REMARK    1  A    between atoms: C3_3  and  C8_8 
ROOT
HETATM    1  C1  UNL     1     -33.216  16.135  -5.277  1.00 20.00    -0.026 C 
HETATM    2  C2  UNL     1     -33.212  14.883  -4.797  1.00 20.00    -0.025 C 
HETATM    3  C4  UNL     1     -34.197  16.208  -3.184  1.00 20.00     0.018 C 
HETATM    4  C5  UNL     1     -35.669  16.335  -5.053  1.00 20.00     0.022 C 
HETATM    5  C6  UNL     1     -34.312  16.884  -4.555  1.00 20.00     0.009 C 
HETATM    6  C7  UNL     1     -34.314  14.793  -3.764  1.00 20.00     0.021 C 
HETATM    7  C8  UNL     1     -35.689  14.893  -4.468  1.00 20.00     0.080 C 
ENDROOT
BRANCH   7   8
HETATM    8  C3  UNL     1     -35.903  13.839  -5.510  1.00 20.00     0.223 C 
HETATM    9  O9  UNL     1     -35.887  12.644  -5.230  1.00 20.00    -0.279 OA
HETATM   10 CL10 UNL     1     -36.162  14.521  -7.086  1.00 20.00    -0.043 Cl
ENDBRANCH   7   8
TORSDOF 1
ENDMDL
MODEL 3
REMARK VINA RESULT:      -4.3     11.845     12.712
REMARK  1 active torsions:
REMARK  status: ('A' for Active; 'I' for Inactive)
REMARK    1  A    between atoms: C3_3  and  C8_8 
ROOT
HETATM    1  C1  UNL     1     -33.552  15.391  -3.861  1.00 20.00    -0.026 C 
HETATM    2  C2  UNL     1     -34.833  15.742  -3.677  1.00 20.00    -0.025 C 
HETATM    3  C4  UNL     1     -34.116  16.825  -5.585  1.00 20.00     0.018 C 
HETATM    4  C5  UNL     1     -34.000  14.507  -6.124  1.00 20.00     0.022 C 
HETATM    5  C6  UNL     1     -33.243  15.592  -5.325  1.00 20.00     0.009 C 
HETATM    6  C7  UNL     1     -35.382  16.166  -5.022  1.00 20.00     0.021 C 
HETATM    7  C8  UNL     1     -35.488  14.930  -5.947  1.00 20.00     0.080 C 
ENDROOT
BRANCH   7   8
HETATM    8  C3  UNL     1     -36.346  13.839  -5.386  1.00 20.00     0.223 C 
HETATM    9  O9  UNL     1     -35.914  12.702  -5.217  1.00 20.00    -0.279 OA
HETATM   10 CL10 UNL     1     -37.954  14.389  -5.030  1.00 20.00    -0.043 Cl
ENDBRANCH   7   8
TORSDOF 1
ENDMDL
MODEL 4
REMARK VINA RESULT:      -4.3     11.402     12.550
REMARK  1 active torsions:
REMARK  status: ('A' for Active; 'I' for Inactive)
REMARK    1  A    between atoms: C3_3  and  C8_8 
ROOT
HETATM    1  C1  UNL     1     -35.251  16.133  -3.567  1.00 20.00    -0.026 C 
HETATM    2  C2  UNL     1     -35.698  16.275  -4.823  1.00 20.00    -0.025 C 
HETATM    3  C4  UNL     1     -33.398  16.435  -4.917  1.00 20.00     0.018 C 
HETATM    4  C5  UNL     1     -33.820  14.212  -4.174  1.00 20.00     0.022 C 
HETATM    5  C6  UNL     1     -33.816  15.669  -3.657  1.00 20.00     0.009 C 
HETATM    6  C7  UNL     1     -34.565  15.894  -5.751  1.00 20.00     0.021 C 
HETATM    7  C8  UNL     1     -34.303  14.373  -5.645  1.00 20.00     0.080 C 
ENDROOT
BRANCH   7   8
HETATM    8  C3  UNL     1     -35.504  13.538  -5.964  1.00 20.00     0.223 C 
HETATM    9  O9  UNL     1     -35.912  12.674  -5.192  1.00 20.00    -0.279 OA
HETATM   10 CL10 UNL     1     -36.196  13.948  -7.503  1.00 20.00    -0.043 Cl
ENDBRANCH   7   8
TORSDOF 1
ENDMDL
MODEL 5
REMARK VINA RESULT:      -4.3      2.578      3.583
REMARK  1 active torsions:
REMARK  status: ('A' for Active; 'I' for Inactive)
REMARK    1  A    between atoms: C3_3  and  C8_8 
ROOT
HETATM    1  C1  UNL     1     -32.107   7.448   4.086  1.00 20.00    -0.026 C 
HETATM    2  C2  UNL     1     -33.207   7.479   4.853  1.00 20.00    -0.025 C 
HETATM    3  C4  UNL     1     -33.881   7.986   2.704  1.00 20.00     0.018 C 
HETATM    4  C5  UNL     1     -33.071   5.750   2.573  1.00 20.00     0.022 C 
HETATM    5  C6  UNL     1     -32.562   7.206   2.667  1.00 20.00     0.009 C 
HETATM    6  C7  UNL     1     -34.395   7.246   3.945  1.00 20.00     0.021 C 
HETATM    7  C8  UNL     1     -34.370   5.787   3.430  1.00 20.00     0.080 C 
ENDROOT
BRANCH   7   8
HETATM    8  C3  UNL     1     -34.379   4.767   4.527  1.00 20.00     0.223 C 
HETATM    9  O9  UNL     1     -34.099   3.591   4.315  1.00 20.00    -0.279 OA
HETATM   10 CL10 UNL     1     -34.820   5.458   6.058  1.00 20.00    -0.043 Cl
ENDBRANCH   7   8
TORSDOF 1
ENDMDL
MODEL 6
REMARK VINA RESULT:      -4.0     11.896     13.057
REMARK  1 active torsions:
REMARK  status: ('A' for Active; 'I' for Inactive)
REMARK    1  A    between atoms: C3_3  and  C8_8 
ROOT
HETATM    1  C1  UNL     1     -34.300  16.147  -7.117  1.00 20.00    -0.026 C 
HETATM    2  C2  UNL     1     -33.944  14.869  -6.918  1.00 20.00    -0.025 C 
HETATM    3  C4  UNL     1     -33.171  16.063  -5.101  1.00 20.00     0.018 C 
HETATM    4  C5  UNL     1     -35.542  16.252  -4.984  1.00 20.00     0.022 C 
HETATM    5  C6  UNL     1     -34.331  16.815  -5.763  1.00 20.00     0.009 C 
HETATM    6  C7  UNL     1     -33.750  14.682  -5.429  1.00 20.00     0.021 C 
HETATM    7  C8  UNL     1     -35.120  14.778  -4.716  1.00 20.00     0.080 C 
ENDROOT
BRANCH   7   8
HETATM    8  C3  UNL     1     -36.121  13.781  -5.212  1.00 20.00     0.223 C 
HETATM    9  O9  UNL     1     -35.876  12.578  -5.232  1.00 20.00    -0.279 OA
HETATM   10 CL10 UNL     1     -37.597  14.536  -5.726  1.00 20.00    -0.043 Cl
ENDBRANCH   7   8
TORSDOF 1
ENDMDL
MODEL 7
REMARK VINA RESULT:      -4.0     12.089     13.126
REMARK  1 active torsions:
REMARK  status: ('A' for Active; 'I' for Inactive)
REMARK    1  A    between atoms: C3_3  and  C8_8 
ROOT
HETATM    1  C1  UNL     1     -34.829  15.895  -7.128  1.00 20.00    -0.026 C 
HETATM    2  C2  UNL     1     -36.003  15.337  -7.456  1.00 20.00    -0.025 C 
HETATM    3  C4  UNL     1     -34.442  13.636  -7.441  1.00 20.00     0.018 C 
HETATM    4  C5  UNL     1     -34.531  14.397  -5.185  1.00 20.00     0.022 C 
HETATM    5  C6  UNL     1     -33.958  14.797  -6.564  1.00 20.00     0.009 C 
HETATM    6  C7  UNL     1     -35.919  13.868  -7.100  1.00 20.00     0.021 C 
HETATM    7  C8  UNL     1     -35.878  13.714  -5.561  1.00 20.00     0.080 C 
ENDROOT
BRANCH   7   8
HETATM    8  C3  UNL     1     -37.058  14.322  -4.869  1.00 20.00     0.223 C 
HETATM    9  O9  UNL     1     -38.195  13.885  -5.029  1.00 20.00    -0.279 OA
HETATM   10 CL10 UNL     1     -36.607  15.664  -3.864  1.00 20.00    -0.043 Cl
ENDBRANCH   7   8
TORSDOF 1
ENDMDL
MODEL 8
REMARK VINA RESULT:      -4.0      2.274      2.881
REMARK  1 active torsions:
REMARK  status: ('A' for Active; 'I' for Inactive)
REMARK    1  A    between atoms: C3_3  and  C8_8 
ROOT
HETATM    1  C1  UNL     1     -33.085   5.053   2.634  1.00 20.00    -0.026 C 
HETATM    2  C2  UNL     1     -32.320   5.941   3.284  1.00 20.00    -0.025 C 
HETATM    3  C4  UNL     1     -33.717   7.154   1.905  1.00 20.00     0.018 C 
HETATM    4  C5  UNL     1     -35.176   6.083   3.454  1.00 20.00     0.022 C 
HETATM    5  C6  UNL     1     -34.333   5.780   2.194  1.00 20.00     0.009 C 
HETATM    6  C7  UNL     1     -33.063   7.259   3.288  1.00 20.00     0.021 C 
HETATM    7  C8  UNL     1     -34.310   7.143   4.196  1.00 20.00     0.080 C 
ENDROOT
BRANCH   7   8
HETATM    8  C3  UNL     1     -33.987   6.755   5.606  1.00 20.00     0.223 C 
HETATM    9  O9  UNL     1     -33.374   7.508   6.357  1.00 20.00    -0.279 OA
HETATM   10 CL10 UNL     1     -34.577   5.170   5.999  1.00 20.00    -0.043 Cl
ENDBRANCH   7   8
TORSDOF 1
ENDMDL
MODEL 9
REMARK VINA RESULT:      -4.0     11.716     12.548
REMARK  1 active torsions:
REMARK  status: ('A' for Active; 'I' for Inactive)
REMARK    1  A    between atoms: C3_3  and  C8_8 
ROOT
HETATM    1  C1  UNL     1     -33.766  16.570  -5.523  1.00 20.00    -0.026 C 
HETATM    2  C2  UNL     1     -34.187  15.503  -6.216  1.00 20.00    -0.025 C 
HETATM    3  C4  UNL     1     -32.905  14.698  -4.473  1.00 20.00     0.018 C 
HETATM    4  C5  UNL     1     -34.769  15.744  -3.422  1.00 20.00     0.022 C 
HETATM    5  C6  UNL     1     -33.439  16.093  -4.128  1.00 20.00     0.009 C 
HETATM    6  C7  UNL     1     -34.152  14.315  -5.279  1.00 20.00     0.021 C 
HETATM    7  C8  UNL     1     -35.246  14.481  -4.197  1.00 20.00     0.080 C 
ENDROOT
BRANCH   7   8
HETATM    8  C3  UNL     1     -36.625  14.625  -4.761  1.00 20.00     0.223 C 
HETATM    9  O9  UNL     1     -37.186  13.696  -5.336  1.00 20.00    -0.279 OA
HETATM   10 CL10 UNL     1     -37.278  16.212  -4.498  1.00 20.00    -0.043 Cl
ENDBRANCH   7   8
TORSDOF 1
ENDMDL
