MODEL 1
REMARK VINA RESULT:      -4.9      0.000      0.000
REMARK  3 active torsions:
REMARK  status: ('A' for Active; 'I' for Inactive)
REMARK    1  A    between atoms: C2_2  and  O6_6 
REMARK    2  A    between atoms: C3_3  and  C4_4 
REMARK    3  A    between atoms: C3_3  and  O6_6 
ROOT
HETATM    1  C1  UNL     1     -32.129   8.574   1.863  1.00 20.00     0.085 C 
HETATM    2  C2  UNL     1     -32.159   7.761   3.079  1.00 20.00     0.291 C 
HETATM    3  N5  UNL     1     -32.104   9.219   0.899  1.00 20.00    -0.195 NA
ENDROOT
BRANCH   2   4
HETATM    4  O6  UNL     1     -33.492   7.380   3.389  1.00 20.00    -0.369 OA
BRANCH   4   5
HETATM    5  C3  UNL     1     -33.666   5.973   3.303  1.00 20.00     0.286 C 
BRANCH   5   6
HETATM    6  C4  UNL     1     -34.756   5.551   4.254  1.00 20.00     0.408 C 
HETATM    7  F7  UNL     1     -34.732   4.214   4.441  1.00 20.00    -0.169 F 
HETATM    8  F8  UNL     1     -35.975   5.879   3.777  1.00 20.00    -0.169 F 
HETATM    9  F9  UNL     1     -34.606   6.137   5.461  1.00 20.00    -0.169 F 
ENDBRANCH   5   6
ENDBRANCH   4   5
ENDBRANCH   2   4
TORSDOF 3
ENDMDL
MODEL 2
REMARK VINA RESULT:      -4.9      0.058      1.253
REMARK  3 active torsions:
REMARK  status: ('A' for Active; 'I' for Inactive)
REMARK    1  A    between atoms: C2_2  and  O6_6 
REMARK    2  A    between atoms: C3_3  and  C4_4 
REMARK    3  A    between atoms: C3_3  and  O6_6 
ROOT
HETATM    1  C1  UNL     1     -32.138   8.617   1.870  1.00 20.00     0.085 C 
HETATM    2  C2  UNL     1     -32.178   7.744   3.043  1.00 20.00     0.291 C 
HETATM    3  N5  UNL     1     -32.106   9.310   0.941  1.00 20.00    -0.195 NA
ENDROOT
BRANCH   2   4
HETATM    4  O6  UNL     1     -33.515   7.353   3.327  1.00 20.00    -0.369 OA
BRANCH   4   5
HETATM    5  C3  UNL     1     -33.656   5.939   3.325  1.00 20.00     0.286 C 
BRANCH   5   6
HETATM    6  C4  UNL     1     -34.754   5.553   4.282  1.00 20.00     0.408 C 
HETATM    7  F7  UNL     1     -35.962   5.883   3.777  1.00 20.00    -0.169 F 
HETATM    8  F8  UNL     1     -34.616   6.185   5.466  1.00 20.00    -0.169 F 
HETATM    9  F9  UNL     1     -34.756   4.223   4.515  1.00 20.00    -0.169 F 
ENDBRANCH   5   6
ENDBRANCH   4   5
ENDBRANCH   2   4
TORSDOF 3
ENDMDL
MODEL 3
REMARK VINA RESULT:      -4.9      0.054      1.264
REMARK  3 active torsions:
REMARK  status: ('A' for Active; 'I' for Inactive)
REMARK    1  A    between atoms: C2_2  and  O6_6 
REMARK    2  A    between atoms: C3_3  and  C4_4 
REMARK    3  A    between atoms: C3_3  and  O6_6 
ROOT
HETATM    1  C1  UNL     1     -32.145   8.639   1.881  1.00 20.00     0.085 C 
HETATM    2  C2  UNL     1     -32.150   7.768   3.057  1.00 20.00     0.291 C 
HETATM    3  N5  UNL     1     -32.140   9.330   0.950  1.00 20.00    -0.195 NA
ENDROOT
BRANCH   2   4
HETATM    4  O6  UNL     1     -33.478   7.388   3.388  1.00 20.00    -0.369 OA
BRANCH   4   5
HETATM    5  C3  UNL     1     -33.654   5.980   3.304  1.00 20.00     0.286 C 
BRANCH   5   6
HETATM    6  C4  UNL     1     -34.760   5.565   4.240  1.00 20.00     0.408 C 
HETATM    7  F7  UNL     1     -34.619   6.171   5.439  1.00 20.00    -0.169 F 
HETATM    8  F8  UNL     1     -34.749   4.231   4.449  1.00 20.00    -0.169 F 
HETATM    9  F9  UNL     1     -35.971   5.902   3.749  1.00 20.00    -0.169 F 
ENDBRANCH   5   6
ENDBRANCH   4   5
ENDBRANCH   2   4
TORSDOF 3
ENDMDL
MODEL 4
REMARK VINA RESULT:      -4.8      3.362      4.211
REMARK  3 active torsions:
REMARK  status: ('A' for Active; 'I' for Inactive)
REMARK    1  A    between atoms: C2_2  and  O6_6 
REMARK    2  A    between atoms: C3_3  and  C4_4 
REMARK    3  A    between atoms: C3_3  and  O6_6 
ROOT
HETATM    1  C1  UNL     1     -34.477   4.938   5.050  1.00 20.00     0.085 C 
HETATM    2  C2  UNL     1     -34.406   6.179   5.820  1.00 20.00     0.291 C 
HETATM    3  N5  UNL     1     -34.534   3.953   4.440  1.00 20.00    -0.195 NA
ENDROOT
BRANCH   2   4
HETATM    4  O6  UNL     1     -33.506   7.093   5.209  1.00 20.00    -0.369 OA
BRANCH   4   5
HETATM    5  C3  UNL     1     -33.884   7.379   3.869  1.00 20.00     0.286 C 
BRANCH   5   6
HETATM    6  C4  UNL     1     -32.665   7.305   2.986  1.00 20.00     0.408 C 
HETATM    7  F7  UNL     1     -32.383   6.022   2.673  1.00 20.00    -0.169 F 
HETATM    8  F8  UNL     1     -31.583   7.826   3.602  1.00 20.00    -0.169 F 
HETATM    9  F9  UNL     1     -32.855   7.978   1.832  1.00 20.00    -0.169 F 
ENDBRANCH   5   6
ENDBRANCH   4   5
ENDBRANCH   2   4
TORSDOF 3
ENDMDL
MODEL 5
REMARK VINA RESULT:      -4.5      4.252      5.020
REMARK  3 active torsions:
REMARK  status: ('A' for Active; 'I' for Inactive)
REMARK    1  A    between atoms: C2_2  and  O6_6 
REMARK    2  A    between atoms: C3_3  and  C4_4 
REMARK    3  A    between atoms: C3_3  and  O6_6 
ROOT
HETATM    1  C1  UNL     1     -33.445   7.077   4.289  1.00 20.00     0.085 C 
HETATM    2  C2  UNL     1     -33.154   6.754   2.893  1.00 20.00     0.291 C 
HETATM    3  N5  UNL     1     -33.676   7.333   5.397  1.00 20.00    -0.195 NA
ENDROOT
BRANCH   2   4
HETATM    4  O6  UNL     1     -32.217   7.676   2.353  1.00 20.00    -0.369 OA
BRANCH   4   5
HETATM    5  C3  UNL     1     -32.842   8.897   1.982  1.00 20.00     0.286 C 
BRANCH   5   6
HETATM    6  C4  UNL     1     -32.323   9.326   0.634  1.00 20.00     0.408 C 
HETATM    7  F7  UNL     1     -33.189   8.973  -0.341  1.00 20.00    -0.169 F 
HETATM    8  F8  UNL     1     -31.135   8.747   0.360  1.00 20.00    -0.169 F 
HETATM    9  F9  UNL     1     -32.161  10.665   0.575  1.00 20.00    -0.169 F 
ENDBRANCH   5   6
ENDBRANCH   4   5
ENDBRANCH   2   4
TORSDOF 3
ENDMDL
MODEL 6
REMARK VINA RESULT:      -4.5      4.197      5.011
REMARK  3 active torsions:
REMARK  status: ('A' for Active; 'I' for Inactive)
REMARK    1  A    between atoms: C2_2  and  O6_6 
REMARK    2  A    between atoms: C3_3  and  C4_4 
REMARK    3  A    between atoms: C3_3  and  O6_6 
ROOT
HETATM    1  C1  UNL     1     -33.492   7.075   4.258  1.00 20.00     0.085 C 
HETATM    2  C2  UNL     1     -33.237   6.750   2.855  1.00 20.00     0.291 C 
HETATM    3  N5  UNL     1     -33.697   7.334   5.371  1.00 20.00    -0.195 NA
ENDROOT
BRANCH   2   4
HETATM    4  O6  UNL     1     -32.211   7.582   2.331  1.00 20.00    -0.369 OA
BRANCH   4   5
HETATM    5  C3  UNL     1     -32.682   8.900   2.089  1.00 20.00     0.286 C 
BRANCH   5   6
HETATM    6  C4  UNL     1     -32.289   9.316   0.695  1.00 20.00     0.408 C 
HETATM    7  F7  UNL     1     -32.187  10.660   0.611  1.00 20.00    -0.169 F 
HETATM    8  F8  UNL     1     -33.204   8.914  -0.212  1.00 20.00    -0.169 F 
HETATM    9  F9  UNL     1     -31.095   8.792   0.346  1.00 20.00    -0.169 F 
ENDBRANCH   5   6
ENDBRANCH   4   5
ENDBRANCH   2   4
TORSDOF 3
ENDMDL
MODEL 7
REMARK VINA RESULT:      -4.5      3.775      4.574
REMARK  3 active torsions:
REMARK  status: ('A' for Active; 'I' for Inactive)
REMARK    1  A    between atoms: C2_2  and  O6_6 
REMARK    2  A    between atoms: C3_3  and  C4_4 
REMARK    3  A    between atoms: C3_3  and  O6_6 
ROOT
HETATM    1  C1  UNL     1     -34.415   5.104   4.339  1.00 20.00     0.085 C 
HETATM    2  C2  UNL     1     -34.476   6.563   4.260  1.00 20.00     0.291 C 
HETATM    3  N5  UNL     1     -34.367   3.946   4.403  1.00 20.00    -0.195 NA
ENDROOT
BRANCH   2   4
HETATM    4  O6  UNL     1     -33.182   7.103   4.032  1.00 20.00    -0.369 OA
BRANCH   4   5
HETATM    5  C3  UNL     1     -32.835   7.062   2.655  1.00 20.00     0.286 C 
BRANCH   5   6
HETATM    6  C4  UNL     1     -32.132   8.343   2.285  1.00 20.00     0.408 C 
HETATM    7  F7  UNL     1     -31.429   8.819   3.335  1.00 20.00    -0.169 F 
HETATM    8  F8  UNL     1     -33.015   9.294   1.914  1.00 20.00    -0.169 F 
HETATM    9  F9  UNL     1     -31.269   8.151   1.265  1.00 20.00    -0.169 F 
ENDBRANCH   5   6
ENDBRANCH   4   5
ENDBRANCH   2   4
TORSDOF 3
ENDMDL
MODEL 8
REMARK VINA RESULT:      -4.4      4.218      5.063
REMARK  3 active torsions:
REMARK  status: ('A' for Active; 'I' for Inactive)
REMARK    1  A    between atoms: C2_2  and  O6_6 
REMARK    2  A    between atoms: C3_3  and  C4_4 
REMARK    3  A    between atoms: C3_3  and  O6_6 
ROOT
HETATM    1  C1  UNL     1     -34.229   6.383   3.824  1.00 20.00     0.085 C 
HETATM    2  C2  UNL     1     -33.031   7.199   3.628  1.00 20.00     0.291 C 
HETATM    3  N5  UNL     1     -35.178   5.733   3.980  1.00 20.00    -0.195 NA
ENDROOT
BRANCH   2   4
HETATM    4  O6  UNL     1     -32.954   7.653   2.283  1.00 20.00    -0.369 OA
BRANCH   4   5
HETATM    5  C3  UNL     1     -32.233   8.874   2.185  1.00 20.00     0.286 C 
BRANCH   5   6
HETATM    6  C4  UNL     1     -32.169   9.294   0.740  1.00 20.00     0.408 C 
HETATM    7  F7  UNL     1     -31.040   8.831   0.160  1.00 20.00    -0.169 F 
HETATM    8  F8  UNL     1     -32.171  10.638   0.621  1.00 20.00    -0.169 F 
HETATM    9  F9  UNL     1     -33.218   8.810   0.042  1.00 20.00    -0.169 F 
ENDBRANCH   5   6
ENDBRANCH   4   5
ENDBRANCH   2   4
TORSDOF 3
ENDMDL
MODEL 9
REMARK VINA RESULT:      -4.3      3.108      3.660
REMARK  3 active torsions:
REMARK  status: ('A' for Active; 'I' for Inactive)
REMARK    1  A    between atoms: C2_2  and  O6_6 
REMARK    2  A    between atoms: C3_3  and  C4_4 
REMARK    3  A    between atoms: C3_3  and  O6_6 
ROOT
HETATM    1  C1  UNL     1     -33.978   6.806   5.849  1.00 20.00     0.085 C 
HETATM    2  C2  UNL     1     -34.715   5.543   5.805  1.00 20.00     0.291 C 
HETATM    3  N5  UNL     1     -33.394   7.808   5.885  1.00 20.00    -0.195 NA
ENDROOT
BRANCH   2   4
HETATM    4  O6  UNL     1     -35.018   5.191   4.462  1.00 20.00    -0.369 OA
BRANCH   4   5
HETATM    5  C3  UNL     1     -33.987   4.400   3.886  1.00 20.00     0.286 C 
BRANCH   5   6
HETATM    6  C4  UNL     1     -33.397   5.139   2.712  1.00 20.00     0.408 C 
HETATM    7  F7  UNL     1     -32.787   4.279   1.868  1.00 20.00    -0.169 F 
HETATM    8  F8  UNL     1     -32.479   6.042   3.115  1.00 20.00    -0.169 F 
HETATM    9  F9  UNL     1     -34.350   5.792   2.015  1.00 20.00    -0.169 F 
ENDBRANCH   5   6
ENDBRANCH   4   5
ENDBRANCH   2   4
TORSDOF 3
ENDMDL
