MODEL 1
REMARK VINA RESULT:      -4.3      0.000      0.000
REMARK  0 active torsions:
REMARK  status: ('A' for Active; 'I' for Inactive)
ROOT
HETATM    1  C1  UNL     1     -33.877  14.505  -5.223  1.00 20.00     0.042 C 
HETATM    2  C2  UNL     1     -36.114  13.728  -6.143  1.00 20.00     0.042 C 
HETATM    3  C3  UNL     1     -35.870  16.504  -5.569  1.00 20.00     0.174 C 
HETATM    4  C4  UNL     1     -36.016  15.525  -4.394  1.00 20.00     0.017 C 
HETATM    5  C5  UNL     1     -34.607  15.037  -3.974  1.00 20.00    -0.009 C 
HETATM    6  C6  UNL     1     -36.798  14.278  -4.876  1.00 20.00    -0.009 C 
HETATM    7  C7  UNL     1     -34.829  14.527  -6.435  1.00 20.00     0.058 C 
HETATM    8  C8  UNL     1     -33.789  16.111  -3.255  1.00 20.00     0.010 C 
HETATM    9  C9  UNL     1     -38.283  14.555  -5.110  1.00 20.00     0.010 C 
HETATM   10  C10 UNL     1     -34.132  14.004  -7.687  1.00 20.00     0.046 C 
HETATM   11  O11 UNL     1     -35.204  15.896  -6.684  1.00 20.00    -0.380 OA
ENDROOT
TORSDOF 0
ENDMDL
MODEL 2
REMARK VINA RESULT:      -4.3      1.612      3.389
REMARK  0 active torsions:
REMARK  status: ('A' for Active; 'I' for Inactive)
ROOT
HETATM    1  C1  UNL     1     -35.401  15.700  -6.076  1.00 20.00     0.042 C 
HETATM    2  C2  UNL     1     -34.267  17.478  -4.659  1.00 20.00     0.042 C 
HETATM    3  C3  UNL     1     -33.158  14.859  -4.542  1.00 20.00     0.174 C 
HETATM    4  C4  UNL     1     -34.484  15.125  -3.811  1.00 20.00     0.017 C 
HETATM    5  C5  UNL     1     -35.654  14.880  -4.796  1.00 20.00    -0.009 C 
HETATM    6  C6  UNL     1     -34.541  16.620  -3.408  1.00 20.00    -0.009 C 
HETATM    7  C7  UNL     1     -34.143  16.571  -5.899  1.00 20.00     0.058 C 
HETATM    8  C8  UNL     1     -35.877  13.399  -5.106  1.00 20.00     0.010 C 
HETATM    9  C9  UNL     1     -33.590  16.969  -2.263  1.00 20.00     0.010 C 
HETATM   10  C10 UNL     1     -33.869  17.397  -7.153  1.00 20.00     0.046 C 
HETATM   11  O11 UNL     1     -33.017  15.695  -5.699  1.00 20.00    -0.380 OA
ENDROOT
TORSDOF 0
ENDMDL
MODEL 3
REMARK VINA RESULT:      -4.3      2.388      3.773
REMARK  0 active torsions:
REMARK  status: ('A' for Active; 'I' for Inactive)
ROOT
HETATM    1  C1  UNL     1     -33.328  18.314  -2.821  1.00 20.00     0.042 C 
HETATM    2  C2  UNL     1     -33.532  16.633  -4.715  1.00 20.00     0.042 C 
HETATM    3  C3  UNL     1     -35.871  17.084  -3.158  1.00 20.00     0.174 C 
HETATM    4  C4  UNL     1     -34.733  16.252  -2.545  1.00 20.00     0.017 C 
HETATM    5  C5  UNL     1     -33.745  17.208  -1.832  1.00 20.00    -0.009 C 
HETATM    6  C6  UNL     1     -33.947  15.562  -3.687  1.00 20.00    -0.009 C 
HETATM    7  C7  UNL     1     -33.936  18.031  -4.208  1.00 20.00     0.058 C 
HETATM    8  C8  UNL     1     -34.304  17.791  -0.533  1.00 20.00     0.010 C 
HETATM    9  C9  UNL     1     -34.721  14.419  -4.343  1.00 20.00     0.010 C 
HETATM   10  C10 UNL     1     -33.539  19.111  -5.210  1.00 20.00     0.046 C 
HETATM   11  O11 UNL     1     -35.371  18.060  -4.082  1.00 20.00    -0.380 OA
ENDROOT
TORSDOF 0
ENDMDL
MODEL 4
REMARK VINA RESULT:      -4.3      1.371      2.039
REMARK  0 active torsions:
REMARK  status: ('A' for Active; 'I' for Inactive)
ROOT
HETATM    1  C1  UNL     1     -33.328  16.821  -4.827  1.00 20.00     0.042 C 
HETATM    2  C2  UNL     1     -34.438  15.051  -6.273  1.00 20.00     0.042 C 
HETATM    3  C3  UNL     1     -36.095  16.357  -4.363  1.00 20.00     0.174 C 
HETATM    4  C4  UNL     1     -35.086  15.312  -3.862  1.00 20.00     0.017 C 
HETATM    5  C5  UNL     1     -33.736  16.017  -3.578  1.00 20.00    -0.009 C 
HETATM    6  C6  UNL     1     -34.827  14.286  -4.993  1.00 20.00    -0.009 C 
HETATM    7  C7  UNL     1     -34.328  16.559  -5.969  1.00 20.00     0.058 C 
HETATM    8  C8  UNL     1     -33.770  16.896  -2.326  1.00 20.00     0.010 C 
HETATM    9  C9  UNL     1     -36.009  13.346  -5.233  1.00 20.00     0.010 C 
HETATM   10  C10 UNL     1     -33.946  17.341  -7.222  1.00 20.00     0.046 C 
HETATM   11  O11 UNL     1     -35.624  17.022  -5.543  1.00 20.00    -0.380 OA
ENDROOT
TORSDOF 0
ENDMDL
MODEL 5
REMARK VINA RESULT:      -4.3      1.513      3.124
REMARK  0 active torsions:
REMARK  status: ('A' for Active; 'I' for Inactive)
ROOT
HETATM    1  C1  UNL     1     -34.407  14.900  -6.528  1.00 20.00     0.042 C 
HETATM    2  C2  UNL     1     -34.344  14.704  -3.996  1.00 20.00     0.042 C 
HETATM    3  C3  UNL     1     -35.584  17.033  -5.061  1.00 20.00     0.174 C 
HETATM    4  C4  UNL     1     -34.051  16.936  -5.104  1.00 20.00     0.017 C 
HETATM    5  C5  UNL     1     -33.633  16.228  -6.417  1.00 20.00    -0.009 C 
HETATM    6  C6  UNL     1     -33.574  16.037  -3.937  1.00 20.00    -0.009 C 
HETATM    7  C7  UNL     1     -35.238  14.669  -5.251  1.00 20.00     0.058 C 
HETATM    8  C8  UNL     1     -33.825  17.101  -7.657  1.00 20.00     0.010 C 
HETATM    9  C9  UNL     1     -33.709  16.708  -2.570  1.00 20.00     0.010 C 
HETATM   10  C10 UNL     1     -36.014  13.359  -5.333  1.00 20.00     0.046 C 
HETATM   11  O11 UNL     1     -36.197  15.739  -5.143  1.00 20.00    -0.380 OA
ENDROOT
TORSDOF 0
ENDMDL
MODEL 6
REMARK VINA RESULT:      -4.2      1.948      4.062
REMARK  0 active torsions:
REMARK  status: ('A' for Active; 'I' for Inactive)
ROOT
HETATM    1  C1  UNL     1     -35.851  15.410  -4.086  1.00 20.00     0.042 C 
HETATM    2  C2  UNL     1     -35.903  17.036  -2.134  1.00 20.00     0.042 C 
HETATM    3  C3  UNL     1     -33.993  17.561  -4.178  1.00 20.00     0.174 C 
HETATM    4  C4  UNL     1     -33.722  16.404  -3.204  1.00 20.00     0.017 C 
HETATM    5  C5  UNL     1     -34.372  15.116  -3.767  1.00 20.00    -0.009 C 
HETATM    6  C6  UNL     1     -34.422  16.710  -1.857  1.00 20.00    -0.009 C 
HETATM    7  C7  UNL     1     -36.211  16.837  -3.632  1.00 20.00     0.058 C 
HETATM    8  C8  UNL     1     -33.633  14.550  -4.980  1.00 20.00     0.010 C 
HETATM    9  C9  UNL     1     -33.737  17.823  -1.064  1.00 20.00     0.010 C 
HETATM   10  C10 UNL     1     -37.672  17.156  -3.935  1.00 20.00     0.046 C 
HETATM   11  O11 UNL     1     -35.399  17.763  -4.379  1.00 20.00    -0.380 OA
ENDROOT
TORSDOF 0
ENDMDL
MODEL 7
REMARK VINA RESULT:      -4.2      1.650      2.933
REMARK  0 active torsions:
REMARK  status: ('A' for Active; 'I' for Inactive)
ROOT
HETATM    1  C1  UNL     1     -35.373  15.379  -3.831  1.00 20.00     0.042 C 
HETATM    2  C2  UNL     1     -35.456  15.555  -6.364  1.00 20.00     0.042 C 
HETATM    3  C3  UNL     1     -32.874  15.342  -5.188  1.00 20.00     0.174 C 
HETATM    4  C4  UNL     1     -33.621  16.680  -5.072  1.00 20.00     0.017 C 
HETATM    5  C5  UNL     1     -34.502  16.650  -3.798  1.00 20.00    -0.009 C 
HETATM    6  C6  UNL     1     -34.581  16.822  -6.279  1.00 20.00    -0.009 C 
HETATM    7  C7  UNL     1     -35.163  14.634  -5.163  1.00 20.00     0.058 C 
HETATM    8  C8  UNL     1     -33.691  16.748  -2.506  1.00 20.00     0.010 C 
HETATM    9  C9  UNL     1     -33.853  17.095  -7.596  1.00 20.00     0.010 C 
HETATM   10  C10 UNL     1     -36.015  13.371  -5.224  1.00 20.00     0.046 C 
HETATM   11  O11 UNL     1     -33.781  14.233  -5.238  1.00 20.00    -0.380 OA
ENDROOT
TORSDOF 0
ENDMDL
MODEL 8
REMARK VINA RESULT:      -4.1      1.238      3.005
REMARK  0 active torsions:
REMARK  status: ('A' for Active; 'I' for Inactive)
ROOT
HETATM    1  C1  UNL     1     -34.218  15.532  -5.803  1.00 20.00     0.042 C 
HETATM    2  C2  UNL     1     -36.336  15.801  -4.426  1.00 20.00     0.042 C 
HETATM    3  C3  UNL     1     -35.730  13.171  -5.330  1.00 20.00     0.174 C 
HETATM    4  C4  UNL     1     -36.266  14.189  -6.349  1.00 20.00     0.017 C 
HETATM    5  C5  UNL     1     -35.070  14.965  -6.955  1.00 20.00    -0.009 C 
HETATM    6  C6  UNL     1     -37.145  15.225  -5.606  1.00 20.00    -0.009 C 
HETATM    7  C7  UNL     1     -34.900  15.241  -4.453  1.00 20.00     0.058 C 
HETATM    8  C8  UNL     1     -34.233  14.122  -7.917  1.00 20.00     0.010 C 
HETATM    9  C9  UNL     1     -38.486  14.654  -5.146  1.00 20.00     0.010 C 
HETATM   10  C10 UNL     1     -34.077  15.794  -3.293  1.00 20.00     0.046 C 
HETATM   11  O11 UNL     1     -34.978  13.811  -4.291  1.00 20.00    -0.380 OA
ENDROOT
TORSDOF 0
ENDMDL
MODEL 9
REMARK VINA RESULT:      -4.1      1.609      3.604
REMARK  0 active torsions:
REMARK  status: ('A' for Active; 'I' for Inactive)
ROOT
HETATM    1  C1  UNL     1     -34.419  14.739  -3.995  1.00 20.00     0.042 C 
HETATM    2  C2  UNL     1     -33.346  16.790  -5.044  1.00 20.00     0.042 C 
HETATM    3  C3  UNL     1     -36.144  16.467  -5.454  1.00 20.00     0.174 C 
HETATM    4  C4  UNL     1     -35.181  15.564  -6.240  1.00 20.00     0.017 C 
HETATM    5  C5  UNL     1     -34.883  14.299  -5.397  1.00 20.00    -0.009 C 
HETATM    6  C6  UNL     1     -33.836  16.308  -6.424  1.00 20.00    -0.009 C 
HETATM    7  C7  UNL     1     -34.294  16.274  -3.943  1.00 20.00     0.058 C 
HETATM    8  C8  UNL     1     -36.067  13.334  -5.323  1.00 20.00     0.010 C 
HETATM    9  C9  UNL     1     -33.919  17.458  -7.428  1.00 20.00     0.010 C 
HETATM   10  C10 UNL     1     -33.833  16.739  -2.565  1.00 20.00     0.046 C 
HETATM   11  O11 UNL     1     -35.598  16.837  -4.180  1.00 20.00    -0.380 OA
ENDROOT
TORSDOF 0
ENDMDL
