MODEL 1
REMARK VINA RESULT:      -5.1      0.000      0.000
REMARK  2 active torsions:
REMARK  status: ('A' for Active; 'I' for Inactive)
REMARK    1  A    between atoms: C1_1  and  C2_2 
REMARK    2  A    between atoms: C2_2  and  C3_3 
ROOT
HETATM    1  C2  UNL     1     -34.852   6.054   3.860  1.00 20.00     0.213 C 
ENDROOT
BRANCH   1   2
HETATM    2  C1  UNL     1     -34.430   5.816   5.299  1.00 20.00     0.227 C 
HETATM    3  O4  UNL     1     -34.522   4.725   5.852  1.00 20.00    -0.280 OA
HETATM    4 CL8  UNL     1     -33.811   7.271   6.031  1.00 20.00    -0.043 Cl
ENDBRANCH   1   2
BRANCH   1   5
HETATM    5  C3  UNL     1     -33.735   5.804   2.873  1.00 20.00     0.395 C 
HETATM    6  F5  UNL     1     -33.247   4.550   2.983  1.00 20.00    -0.171 F 
HETATM    7  F6  UNL     1     -32.715   6.670   3.049  1.00 20.00    -0.171 F 
HETATM    8  F7  UNL     1     -34.185   5.956   1.607  1.00 20.00    -0.171 F 
ENDBRANCH   1   5
TORSDOF 2
ENDMDL
MODEL 2
REMARK VINA RESULT:      -5.1      0.044      1.317
REMARK  2 active torsions:
REMARK  status: ('A' for Active; 'I' for Inactive)
REMARK    1  A    between atoms: C1_1  and  C2_2 
REMARK    2  A    between atoms: C2_2  and  C3_3 
ROOT
HETATM    1  C2  UNL     1     -34.867   6.034   3.870  1.00 20.00     0.213 C 
ENDROOT
BRANCH   1   2
HETATM    2  C1  UNL     1     -34.434   5.816   5.308  1.00 20.00     0.227 C 
HETATM    3  O4  UNL     1     -34.515   4.731   5.874  1.00 20.00    -0.280 OA
HETATM    4 CL8  UNL     1     -33.824   7.284   6.021  1.00 20.00    -0.043 Cl
ENDBRANCH   1   2
BRANCH   1   5
HETATM    5  C3  UNL     1     -33.748   5.800   2.880  1.00 20.00     0.395 C 
HETATM    6  F5  UNL     1     -32.699   6.617   3.115  1.00 20.00    -0.171 F 
HETATM    7  F6  UNL     1     -34.161   5.999   1.610  1.00 20.00    -0.171 F 
HETATM    8  F7  UNL     1     -33.301   4.527   2.968  1.00 20.00    -0.171 F 
ENDBRANCH   1   5
TORSDOF 2
ENDMDL
MODEL 3
REMARK VINA RESULT:      -5.0      1.320      1.690
REMARK  2 active torsions:
REMARK  status: ('A' for Active; 'I' for Inactive)
REMARK    1  A    between atoms: C1_1  and  C2_2 
REMARK    2  A    between atoms: C2_2  and  C3_3 
ROOT
HETATM    1  C2  UNL     1     -34.569   6.102   3.368  1.00 20.00     0.213 C 
ENDROOT
BRANCH   1   2
HETATM    2  C1  UNL     1     -34.547   5.102   4.510  1.00 20.00     0.227 C 
HETATM    3  O4  UNL     1     -34.521   3.888   4.336  1.00 20.00    -0.280 OA
HETATM    4 CL8  UNL     1     -34.561   5.901   6.058  1.00 20.00    -0.043 Cl
ENDBRANCH   1   2
BRANCH   1   5
HETATM    5  C3  UNL     1     -33.188   6.575   2.976  1.00 20.00     0.395 C 
HETATM    6  F5  UNL     1     -32.574   7.212   3.996  1.00 20.00    -0.171 F 
HETATM    7  F6  UNL     1     -33.233   7.416   1.921  1.00 20.00    -0.171 F 
HETATM    8  F7  UNL     1     -32.413   5.524   2.627  1.00 20.00    -0.171 F 
ENDBRANCH   1   5
TORSDOF 2
ENDMDL
MODEL 4
REMARK VINA RESULT:      -4.9      1.317      1.889
REMARK  2 active torsions:
REMARK  status: ('A' for Active; 'I' for Inactive)
REMARK    1  A    between atoms: C1_1  and  C2_2 
REMARK    2  A    between atoms: C2_2  and  C3_3 
ROOT
HETATM    1  C2  UNL     1     -34.580   6.100   3.381  1.00 20.00     0.213 C 
ENDROOT
BRANCH   1   2
HETATM    2  C1  UNL     1     -34.554   5.090   4.514  1.00 20.00     0.227 C 
HETATM    3  O4  UNL     1     -34.527   3.878   4.330  1.00 20.00    -0.280 OA
HETATM    4 CL8  UNL     1     -34.568   5.876   6.069  1.00 20.00    -0.043 Cl
ENDBRANCH   1   2
BRANCH   1   5
HETATM    5  C3  UNL     1     -33.198   6.552   2.968  1.00 20.00     0.395 C 
HETATM    6  F5  UNL     1     -33.247   7.406   1.922  1.00 20.00    -0.171 F 
HETATM    7  F6  UNL     1     -32.417   5.507   2.622  1.00 20.00    -0.171 F 
HETATM    8  F7  UNL     1     -32.589   7.195   3.990  1.00 20.00    -0.171 F 
ENDBRANCH   1   5
TORSDOF 2
ENDMDL
MODEL 5
REMARK VINA RESULT:      -4.9      1.748      1.770
REMARK  2 active torsions:
REMARK  status: ('A' for Active; 'I' for Inactive)
REMARK    1  A    between atoms: C1_1  and  C2_2 
REMARK    2  A    between atoms: C2_2  and  C3_3 
ROOT
HETATM    1  C2  UNL     1     -34.278   6.881   3.790  1.00 20.00     0.213 C 
ENDROOT
BRANCH   1   2
HETATM    2  C1  UNL     1     -34.142   6.515   5.256  1.00 20.00     0.227 C 
HETATM    3  O4  UNL     1     -33.795   7.317   6.117  1.00 20.00    -0.280 OA
HETATM    4 CL8  UNL     1     -34.537   4.841   5.536  1.00 20.00    -0.043 Cl
ENDBRANCH   1   2
BRANCH   1   5
HETATM    5  C3  UNL     1     -32.951   6.902   3.065  1.00 20.00     0.395 C 
HETATM    6  F5  UNL     1     -32.540   5.656   2.748  1.00 20.00    -0.171 F 
HETATM    7  F6  UNL     1     -31.989   7.487   3.810  1.00 20.00    -0.171 F 
HETATM    8  F7  UNL     1     -33.057   7.602   1.913  1.00 20.00    -0.171 F 
ENDBRANCH   1   5
TORSDOF 2
ENDMDL
MODEL 6
REMARK VINA RESULT:      -4.8      2.641      3.068
REMARK  2 active torsions:
REMARK  status: ('A' for Active; 'I' for Inactive)
REMARK    1  A    between atoms: C1_1  and  C2_2 
REMARK    2  A    between atoms: C2_2  and  C3_3 
ROOT
HETATM    1  C2  UNL     1     -33.808   6.861   4.684  1.00 20.00     0.213 C 
ENDROOT
BRANCH   1   2
HETATM    2  C1  UNL     1     -33.090   7.076   3.364  1.00 20.00     0.227 C 
HETATM    3  O4  UNL     1     -33.468   6.578   2.308  1.00 20.00    -0.280 OA
HETATM    4 CL8  UNL     1     -31.694   8.101   3.555  1.00 20.00    -0.043 Cl
ENDBRANCH   1   2
BRANCH   1   5
HETATM    5  C3  UNL     1     -34.662   5.614   4.691  1.00 20.00     0.395 C 
HETATM    6  F5  UNL     1     -33.997   4.555   4.183  1.00 20.00    -0.171 F 
HETATM    7  F6  UNL     1     -35.793   5.784   3.975  1.00 20.00    -0.171 F 
HETATM    8  F7  UNL     1     -35.023   5.300   5.956  1.00 20.00    -0.171 F 
ENDBRANCH   1   5
TORSDOF 2
ENDMDL
MODEL 7
REMARK VINA RESULT:      -4.8      2.644      2.968
REMARK  2 active torsions:
REMARK  status: ('A' for Active; 'I' for Inactive)
REMARK    1  A    between atoms: C1_1  and  C2_2 
REMARK    2  A    between atoms: C2_2  and  C3_3 
ROOT
HETATM    1  C2  UNL     1     -33.826   6.884   4.665  1.00 20.00     0.213 C 
ENDROOT
BRANCH   1   2
HETATM    2  C1  UNL     1     -33.095   7.064   3.347  1.00 20.00     0.227 C 
HETATM    3  O4  UNL     1     -33.470   6.551   2.298  1.00 20.00    -0.280 OA
HETATM    4 CL8  UNL     1     -31.688   8.076   3.530  1.00 20.00    -0.043 Cl
ENDBRANCH   1   2
BRANCH   1   5
HETATM    5  C3  UNL     1     -34.653   5.620   4.708  1.00 20.00     0.395 C 
HETATM    6  F5  UNL     1     -35.011   5.304   5.971  1.00 20.00    -0.171 F 
HETATM    7  F6  UNL     1     -33.984   4.571   4.185  1.00 20.00    -0.171 F 
HETATM    8  F7  UNL     1     -35.789   5.777   3.991  1.00 20.00    -0.171 F 
ENDBRANCH   1   5
TORSDOF 2
ENDMDL
MODEL 8
REMARK VINA RESULT:      -4.8      2.641      3.072
REMARK  2 active torsions:
REMARK  status: ('A' for Active; 'I' for Inactive)
REMARK    1  A    between atoms: C1_1  and  C2_2 
REMARK    2  A    between atoms: C2_2  and  C3_3 
ROOT
HETATM    1  C2  UNL     1     -33.816   6.880   4.704  1.00 20.00     0.213 C 
ENDROOT
BRANCH   1   2
HETATM    2  C1  UNL     1     -33.101   7.090   3.382  1.00 20.00     0.227 C 
HETATM    3  O4  UNL     1     -33.490   6.603   2.326  1.00 20.00    -0.280 OA
HETATM    4 CL8  UNL     1     -31.689   8.093   3.572  1.00 20.00    -0.043 Cl
ENDBRANCH   1   2
BRANCH   1   5
HETATM    5  C3  UNL     1     -34.663   5.628   4.720  1.00 20.00     0.395 C 
HETATM    6  F5  UNL     1     -35.783   5.778   3.982  1.00 20.00    -0.171 F 
HETATM    7  F6  UNL     1     -35.027   5.293   5.976  1.00 20.00    -0.171 F 
HETATM    8  F7  UNL     1     -33.971   4.587   4.204  1.00 20.00    -0.171 F 
ENDBRANCH   1   5
TORSDOF 2
ENDMDL
MODEL 9
REMARK VINA RESULT:      -4.6      2.635      3.003
REMARK  2 active torsions:
REMARK  status: ('A' for Active; 'I' for Inactive)
REMARK    1  A    between atoms: C1_1  and  C2_2 
REMARK    2  A    between atoms: C2_2  and  C3_3 
ROOT
HETATM    1  C2  UNL     1     -33.602   5.802   3.380  1.00 20.00     0.213 C 
ENDROOT
BRANCH   1   2
HETATM    2  C1  UNL     1     -33.042   7.186   3.648  1.00 20.00     0.227 C 
HETATM    3  O4  UNL     1     -32.839   7.620   4.777  1.00 20.00    -0.280 OA
HETATM    4 CL8  UNL     1     -32.734   8.048   2.165  1.00 20.00    -0.043 Cl
ENDBRANCH   1   2
BRANCH   1   5
HETATM    5  C3  UNL     1     -34.784   5.467   4.261  1.00 20.00     0.395 C 
HETATM    6  F5  UNL     1     -35.941   5.922   3.733  1.00 20.00    -0.171 F 
HETATM    7  F6  UNL     1     -34.648   5.997   5.495  1.00 20.00    -0.171 F 
HETATM    8  F7  UNL     1     -34.900   4.127   4.403  1.00 20.00    -0.171 F 
ENDBRANCH   1   5
TORSDOF 2
ENDMDL
