MODEL 1
REMARK VINA RESULT:      -3.8      0.000      0.000
REMARK  1 active torsions:
REMARK  status: ('A' for Active; 'I' for Inactive)
REMARK    1  A    between atoms: C1_1  and  C2_2 
ROOT
HETATM    1  C1  UNL     1     -34.326   4.994   4.467  1.00 20.00     0.208 C 
HETATM    2  O3  UNL     1     -34.424   3.789   4.290  1.00 20.00    -0.284 OA
HETATM    3 BR5  UNL     1     -33.749   6.019   2.962  1.00 20.00    -0.008 Br
ENDROOT
BRANCH   1   4
HETATM    4  C2  UNL     1     -34.611   5.743   5.737  1.00 20.00     0.205 C 
HETATM    5 CL4  UNL     1     -33.676   7.245   5.783  1.00 20.00    -0.122 Cl
ENDBRANCH   1   4
TORSDOF 1
ENDMDL
MODEL 2
REMARK VINA RESULT:      -3.5      1.904      1.982
REMARK  1 active torsions:
REMARK  status: ('A' for Active; 'I' for Inactive)
REMARK    1  A    between atoms: C1_1  and  C2_2 
ROOT
HETATM    1  C1  UNL     1     -33.625   5.747   3.167  1.00 20.00     0.208 C 
HETATM    2  O3  UNL     1     -33.083   4.763   2.685  1.00 20.00    -0.284 OA
HETATM    3 BR5  UNL     1     -32.730   7.413   2.899  1.00 20.00    -0.008 Br
ENDROOT
BRANCH   1   4
HETATM    4  C2  UNL     1     -34.911   5.776   3.941  1.00 20.00     0.205 C 
HETATM    5 CL4  UNL     1     -34.647   5.173   5.585  1.00 20.00    -0.122 Cl
ENDBRANCH   1   4
TORSDOF 1
ENDMDL
MODEL 3
REMARK VINA RESULT:      -3.5      2.597      2.676
REMARK  1 active torsions:
REMARK  status: ('A' for Active; 'I' for Inactive)
REMARK    1  A    between atoms: C1_1  and  C2_2 
ROOT
HETATM    1  C1  UNL     1     -33.862   6.868   4.443  1.00 20.00     0.208 C 
HETATM    2  O3  UNL     1     -33.756   7.355   5.558  1.00 20.00    -0.284 OA
HETATM    3 BR5  UNL     1     -32.595   7.465   3.144  1.00 20.00    -0.008 Br
ENDROOT
BRANCH   1   4
HETATM    4  C2  UNL     1     -34.879   5.858   3.995  1.00 20.00     0.205 C 
HETATM    5 CL4  UNL     1     -34.511   4.272   4.691  1.00 20.00    -0.122 Cl
ENDBRANCH   1   4
TORSDOF 1
ENDMDL
MODEL 4
REMARK VINA RESULT:      -3.5      2.931      3.008
REMARK  1 active torsions:
REMARK  status: ('A' for Active; 'I' for Inactive)
REMARK    1  A    between atoms: C1_1  and  C2_2 
ROOT
HETATM    1  C1  UNL     1     -33.887   6.867   3.991  1.00 20.00     0.208 C 
HETATM    2  O3  UNL     1     -33.189   7.474   3.194  1.00 20.00    -0.284 OA
HETATM    3 BR5  UNL     1     -33.651   7.324   5.830  1.00 20.00    -0.008 Br
ENDROOT
BRANCH   1   4
HETATM    4  C2  UNL     1     -34.903   5.807   3.672  1.00 20.00     0.205 C 
HETATM    5 CL4  UNL     1     -34.545   4.327   4.576  1.00 20.00    -0.122 Cl
ENDBRANCH   1   4
TORSDOF 1
ENDMDL
MODEL 5
REMARK VINA RESULT:      -3.5      2.996      3.105
REMARK  1 active torsions:
REMARK  status: ('A' for Active; 'I' for Inactive)
REMARK    1  A    between atoms: C1_1  and  C2_2 
ROOT
HETATM    1  C1  UNL     1     -33.884   6.772   5.069  1.00 20.00     0.208 C 
HETATM    2  O3  UNL     1     -33.801   7.504   6.043  1.00 20.00    -0.284 OA
HETATM    3 BR5  UNL     1     -34.653   5.051   5.376  1.00 20.00    -0.008 Br
ENDROOT
BRANCH   1   4
HETATM    4  C2  UNL     1     -33.447   7.087   3.667  1.00 20.00     0.205 C 
HETATM    5 CL4  UNL     1     -33.267   5.594   2.733  1.00 20.00    -0.122 Cl
ENDBRANCH   1   4
TORSDOF 1
ENDMDL
MODEL 6
REMARK VINA RESULT:      -3.5      2.444      2.628
REMARK  1 active torsions:
REMARK  status: ('A' for Active; 'I' for Inactive)
REMARK    1  A    between atoms: C1_1  and  C2_2 
ROOT
HETATM    1  C1  UNL     1     -34.236   6.294   4.072  1.00 20.00     0.208 C 
HETATM    2  O3  UNL     1     -35.316   5.723   4.053  1.00 20.00    -0.284 OA
HETATM    3 BR5  UNL     1     -33.775   7.163   5.709  1.00 20.00    -0.008 Br
ENDROOT
BRANCH   1   4
HETATM    4  C2  UNL     1     -33.245   6.381   2.947  1.00 20.00     0.205 C 
HETATM    5 CL4  UNL     1     -32.114   7.712   3.231  1.00 20.00    -0.122 Cl
ENDBRANCH   1   4
TORSDOF 1
ENDMDL
MODEL 7
REMARK VINA RESULT:      -3.4      2.026      2.026
REMARK  1 active torsions:
REMARK  status: ('A' for Active; 'I' for Inactive)
REMARK    1  A    between atoms: C1_1  and  C2_2 
ROOT
HETATM    1  C1  UNL     1     -33.818   5.899   3.654  1.00 20.00     0.208 C 
HETATM    2  O3  UNL     1     -33.500   5.477   2.553  1.00 20.00    -0.284 OA
HETATM    3 BR5  UNL     1     -34.629   4.635   4.835  1.00 20.00    -0.008 Br
ENDROOT
BRANCH   1   4
HETATM    4  C2  UNL     1     -33.639   7.299   4.167  1.00 20.00     0.205 C 
HETATM    5 CL4  UNL     1     -33.734   7.319   5.935  1.00 20.00    -0.122 Cl
ENDBRANCH   1   4
TORSDOF 1
ENDMDL
MODEL 8
REMARK VINA RESULT:      -3.4      2.641      2.641
REMARK  1 active torsions:
REMARK  status: ('A' for Active; 'I' for Inactive)
REMARK    1  A    between atoms: C1_1  and  C2_2 
ROOT
HETATM    1  C1  UNL     1     -33.095   7.190   4.161  1.00 20.00     0.208 C 
HETATM    2  O3  UNL     1     -32.180   7.904   3.779  1.00 20.00    -0.284 OA
HETATM    3 BR5  UNL     1     -33.756   5.924   2.894  1.00 20.00    -0.008 Br
ENDROOT
BRANCH   1   4
HETATM    4  C2  UNL     1     -33.747   7.210   5.514  1.00 20.00     0.205 C 
HETATM    5 CL4  UNL     1     -34.523   5.653   5.841  1.00 20.00    -0.122 Cl
ENDBRANCH   1   4
TORSDOF 1
ENDMDL
MODEL 9
REMARK VINA RESULT:      -3.2      4.738      4.866
REMARK  1 active torsions:
REMARK  status: ('A' for Active; 'I' for Inactive)
REMARK    1  A    between atoms: C1_1  and  C2_2 
ROOT
HETATM    1  C1  UNL     1     -32.020   8.135   2.613  1.00 20.00     0.208 C 
HETATM    2  O3  UNL     1     -31.359   8.482   3.580  1.00 20.00    -0.284 OA
HETATM    3 BR5  UNL     1     -33.208   6.666   2.894  1.00 20.00    -0.008 Br
ENDROOT
BRANCH   1   4
HETATM    4  C2  UNL     1     -31.992   8.741   1.240  1.00 20.00     0.205 C 
HETATM    5 CL4  UNL     1     -32.673  10.375   1.279  1.00 20.00    -0.122 Cl
ENDBRANCH   1   4
TORSDOF 1
ENDMDL
