MODEL 1
REMARK VINA RESULT:      -3.3      0.000      0.000
REMARK  0 active torsions:
REMARK  status: ('A' for Active; 'I' for Inactive)
ROOT
HETATM    1  C1  UNL     1     -33.075   7.520   3.512  1.00 20.00     0.345 C 
HETATM    2  C2  UNL     1     -33.847   7.287   5.805  1.00 20.00     0.345 C 
HETATM    3  C3  UNL     1     -34.969   5.576   3.964  1.00 20.00     0.151 C 
HETATM    4  N4  UNL     1     -32.705   7.517   4.924  1.00 20.00     0.101 N 
HETATM    5  S5  UNL     1     -33.554   5.887   2.876  1.00 20.00    -0.129 SA
HETATM    6  S6  UNL     1     -34.512   5.598   5.717  1.00 20.00    -0.129 SA
HETATM    7  H13 UNL     1     -32.001   6.799   5.088  1.00 20.00     0.317 HD
ENDROOT
TORSDOF 0
ENDMDL
MODEL 2
REMARK VINA RESULT:      -3.0      1.774      2.061
REMARK  0 active torsions:
REMARK  status: ('A' for Active; 'I' for Inactive)
ROOT
HETATM    1  C1  UNL     1     -33.744   5.209   2.874  1.00 20.00     0.345 C 
HETATM    2  C2  UNL     1     -33.385   7.434   3.786  1.00 20.00     0.345 C 
HETATM    3  C3  UNL     1     -34.839   5.698   5.351  1.00 20.00     0.151 C 
HETATM    4  N4  UNL     1     -32.807   6.314   3.048  1.00 20.00     0.101 N 
HETATM    5  S5  UNL     1     -34.124   4.322   4.414  1.00 20.00    -0.129 SA
HETATM    6  S6  UNL     1     -33.681   7.079   5.543  1.00 20.00    -0.129 SA
HETATM    7  H13 UNL     1     -31.977   5.981   3.535  1.00 20.00     0.317 HD
ENDROOT
TORSDOF 0
ENDMDL
MODEL 3
REMARK VINA RESULT:      -3.0      1.467      2.320
REMARK  0 active torsions:
REMARK  status: ('A' for Active; 'I' for Inactive)
ROOT
HETATM    1  C1  UNL     1     -34.265   6.135   5.690  1.00 20.00     0.345 C 
HETATM    2  C2  UNL     1     -32.665   7.688   4.720  1.00 20.00     0.345 C 
HETATM    3  C3  UNL     1     -33.563   5.677   3.069  1.00 20.00     0.151 C 
HETATM    4  N4  UNL     1     -33.831   7.525   5.584  1.00 20.00     0.101 N 
HETATM    5  S5  UNL     1     -34.994   5.477   4.161  1.00 20.00    -0.129 SA
HETATM    6  S6  UNL     1     -33.012   7.400   2.960  1.00 20.00    -0.129 SA
HETATM    7  H13 UNL     1     -34.598   8.093   5.228  1.00 20.00     0.317 HD
ENDROOT
TORSDOF 0
ENDMDL
MODEL 4
REMARK VINA RESULT:      -2.9      1.815      3.027
REMARK  0 active torsions:
REMARK  status: ('A' for Active; 'I' for Inactive)
ROOT
HETATM    1  C1  UNL     1     -34.663   5.918   5.967  1.00 20.00     0.345 C 
HETATM    2  C2  UNL     1     -34.435   4.503   4.003  1.00 20.00     0.345 C 
HETATM    3  C3  UNL     1     -33.754   7.150   3.680  1.00 20.00     0.151 C 
HETATM    4  N4  UNL     1     -34.259   4.615   5.448  1.00 20.00     0.101 N 
HETATM    5  S5  UNL     1     -33.558   7.275   5.476  1.00 20.00    -0.129 SA
HETATM    6  S6  UNL     1     -33.277   5.522   3.043  1.00 20.00    -0.129 SA
HETATM    7  H13 UNL     1     -33.284   4.444   5.685  1.00 20.00     0.317 HD
ENDROOT
TORSDOF 0
ENDMDL
MODEL 5
REMARK VINA RESULT:      -2.9      1.906      2.426
REMARK  0 active torsions:
REMARK  status: ('A' for Active; 'I' for Inactive)
ROOT
HETATM    1  C1  UNL     1     -34.081   4.576   3.662  1.00 20.00     0.345 C 
HETATM    2  C2  UNL     1     -34.302   5.463   5.914  1.00 20.00     0.345 C 
HETATM    3  C3  UNL     1     -32.930   7.034   4.117  1.00 20.00     0.151 C 
HETATM    4  N4  UNL     1     -34.952   4.747   4.821  1.00 20.00     0.101 N 
HETATM    5  S5  UNL     1     -33.733   6.122   2.773  1.00 20.00    -0.129 SA
HETATM    6  S6  UNL     1     -34.005   7.222   5.564  1.00 20.00    -0.129 SA
HETATM    7  H13 UNL     1     -35.793   5.247   4.541  1.00 20.00     0.317 HD
ENDROOT
TORSDOF 0
ENDMDL
MODEL 6
REMARK VINA RESULT:      -2.9     12.211     12.953
REMARK  0 active torsions:
REMARK  status: ('A' for Active; 'I' for Inactive)
ROOT
HETATM    1  C1  UNL     1     -34.659  14.623  -4.073  1.00 20.00     0.345 C 
HETATM    2  C2  UNL     1     -35.769  13.430  -5.878  1.00 20.00     0.345 C 
HETATM    3  C3  UNL     1     -33.888  15.293  -6.628  1.00 20.00     0.151 C 
HETATM    4  N4  UNL     1     -35.179  13.343  -4.545  1.00 20.00     0.101 N 
HETATM    5  S5  UNL     1     -33.179  15.185  -4.965  1.00 20.00    -0.129 SA
HETATM    6  S6  UNL     1     -34.555  13.709  -7.200  1.00 20.00    -0.129 SA
HETATM    7  H13 UNL     1     -34.428  12.655  -4.552  1.00 20.00     0.317 HD
ENDROOT
TORSDOF 0
ENDMDL
MODEL 7
REMARK VINA RESULT:      -2.8      1.715      2.325
REMARK  0 active torsions:
REMARK  status: ('A' for Active; 'I' for Inactive)
ROOT
HETATM    1  C1  UNL     1     -32.578   7.545   4.324  1.00 20.00     0.345 C 
HETATM    2  C2  UNL     1     -33.777   6.004   2.875  1.00 20.00     0.345 C 
HETATM    3  C3  UNL     1     -34.281   5.780   5.571  1.00 20.00     0.151 C 
HETATM    4  N4  UNL     1     -33.287   7.367   3.061  1.00 20.00     0.101 N 
HETATM    5  S5  UNL     1     -33.654   7.466   5.786  1.00 20.00    -0.129 SA
HETATM    6  S6  UNL     1     -35.139   5.556   3.991  1.00 20.00    -0.129 SA
HETATM    7  H13 UNL     1     -34.071   8.017   3.018  1.00 20.00     0.317 HD
ENDROOT
TORSDOF 0
ENDMDL
MODEL 8
REMARK VINA RESULT:      -2.7     12.054     12.962
REMARK  0 active torsions:
REMARK  status: ('A' for Active; 'I' for Inactive)
ROOT
HETATM    1  C1  UNL     1     -32.968  15.462  -5.337  1.00 20.00     0.345 C 
HETATM    2  C2  UNL     1     -34.486  13.969  -4.163  1.00 20.00     0.345 C 
HETATM    3  C3  UNL     1     -35.563  15.403  -6.251  1.00 20.00     0.151 C 
HETATM    4  N4  UNL     1     -33.141  14.160  -4.700  1.00 20.00     0.101 N 
HETATM    5  S5  UNL     1     -33.887  15.645  -6.894  1.00 20.00    -0.129 SA
HETATM    6  S6  UNL     1     -35.767  13.795  -5.440  1.00 20.00    -0.129 SA
HETATM    7  H13 UNL     1     -32.939  13.425  -5.375  1.00 20.00     0.317 HD
ENDROOT
TORSDOF 0
ENDMDL
MODEL 9
REMARK VINA RESULT:      -2.7     12.645     12.730
REMARK  0 active torsions:
REMARK  status: ('A' for Active; 'I' for Inactive)
ROOT
HETATM    1  C1  UNL     1     -34.789  13.830  -6.433  1.00 20.00     0.345 C 
HETATM    2  C2  UNL     1     -33.364  15.261  -5.079  1.00 20.00     0.345 C 
HETATM    3  C3  UNL     1     -36.062  15.370  -4.540  1.00 20.00     0.151 C 
HETATM    4  N4  UNL     1     -33.525  13.956  -5.715  1.00 20.00     0.101 N 
HETATM    5  S5  UNL     1     -36.245  13.759  -5.348  1.00 20.00    -0.129 SA
HETATM    6  S6  UNL     1     -34.480  15.532  -3.671  1.00 20.00    -0.129 SA
HETATM    7  H13 UNL     1     -33.463  13.225  -5.008  1.00 20.00     0.317 HD
ENDROOT
TORSDOF 0
ENDMDL
