MODEL 1
REMARK VINA RESULT:      -4.5      0.000      0.000
REMARK  4 active torsions:
REMARK  status: ('A' for Active; 'I' for Inactive)
REMARK    1  A    between atoms: C1_1  and  N8_8 
REMARK    2  A    between atoms: C1_1  and  N9_9 
REMARK    3  A    between atoms: C6_6  and  N8_8 
REMARK    4  A    between atoms: C7_7  and  N9_9 
ROOT
HETATM    1  N9  UNL     1     -33.181   5.984   3.296  1.00 20.00    -0.220 NA
ENDROOT
BRANCH   1   2
HETATM    2  C1  UNL     1     -33.040   7.105   2.986  1.00 20.00     0.091 C 
BRANCH   2   3
HETATM    3  N8  UNL     1     -32.913   8.225   2.658  1.00 20.00    -0.231 NA
BRANCH   3   4
HETATM    4  C6  UNL     1     -31.882   8.448   1.641  1.00 20.00     0.156 C 
HETATM    5  C2  UNL     1     -32.281   9.632   0.784  1.00 20.00     0.029 C 
ENDBRANCH   3   4
ENDBRANCH   2   3
ENDBRANCH   1   2
BRANCH   1   6
HETATM    6  C7  UNL     1     -34.279   5.753   4.247  1.00 20.00     0.053 C 
HETATM    7  C3  UNL     1     -34.034   6.617   5.483  1.00 20.00     0.041 C 
HETATM    8  C4  UNL     1     -35.585   6.153   3.562  1.00 20.00     0.041 C 
HETATM    9  C5  UNL     1     -34.296   4.270   4.613  1.00 20.00     0.041 C 
ENDBRANCH   1   6
TORSDOF 4
ENDMDL
MODEL 2
REMARK VINA RESULT:      -4.5      0.041      1.451
REMARK  4 active torsions:
REMARK  status: ('A' for Active; 'I' for Inactive)
REMARK    1  A    between atoms: C1_1  and  N8_8 
REMARK    2  A    between atoms: C1_1  and  N9_9 
REMARK    3  A    between atoms: C6_6  and  N8_8 
REMARK    4  A    between atoms: C7_7  and  N9_9 
ROOT
HETATM    1  N9  UNL     1     -33.164   5.962   3.329  1.00 20.00    -0.220 NA
ENDROOT
BRANCH   1   2
HETATM    2  C1  UNL     1     -33.045   7.074   2.979  1.00 20.00     0.091 C 
BRANCH   2   3
HETATM    3  N8  UNL     1     -32.944   8.194   2.640  1.00 20.00    -0.231 NA
BRANCH   3   4
HETATM    4  C6  UNL     1     -31.853   8.445   1.695  1.00 20.00     0.156 C 
HETATM    5  C2  UNL     1     -32.247   9.583   0.775  1.00 20.00     0.029 C 
ENDBRANCH   3   4
ENDBRANCH   2   3
ENDBRANCH   1   2
BRANCH   1   6
HETATM    6  C7  UNL     1     -34.279   5.737   4.261  1.00 20.00     0.053 C 
HETATM    7  C3  UNL     1     -35.578   6.139   3.563  1.00 20.00     0.041 C 
HETATM    8  C4  UNL     1     -34.299   4.251   4.619  1.00 20.00     0.041 C 
HETATM    9  C5  UNL     1     -34.045   6.589   5.508  1.00 20.00     0.041 C 
ENDBRANCH   1   6
TORSDOF 4
ENDMDL
MODEL 3
REMARK VINA RESULT:      -4.5      0.034      1.461
REMARK  4 active torsions:
REMARK  status: ('A' for Active; 'I' for Inactive)
REMARK    1  A    between atoms: C1_1  and  N8_8 
REMARK    2  A    between atoms: C1_1  and  N9_9 
REMARK    3  A    between atoms: C6_6  and  N8_8 
REMARK    4  A    between atoms: C7_7  and  N9_9 
ROOT
HETATM    1  N9  UNL     1     -33.182   5.989   3.285  1.00 20.00    -0.220 NA
ENDROOT
BRANCH   1   2
HETATM    2  C1  UNL     1     -33.063   7.112   2.971  1.00 20.00     0.091 C 
BRANCH   2   3
HETATM    3  N8  UNL     1     -32.921   8.235   2.660  1.00 20.00    -0.231 NA
BRANCH   3   4
HETATM    4  C6  UNL     1     -31.877   8.461   1.658  1.00 20.00     0.156 C 
HETATM    5  C2  UNL     1     -32.290   9.612   0.764  1.00 20.00     0.029 C 
ENDBRANCH   3   4
ENDBRANCH   2   3
ENDBRANCH   1   2
BRANCH   1   6
HETATM    6  C7  UNL     1     -34.288   5.738   4.221  1.00 20.00     0.053 C 
HETATM    7  C3  UNL     1     -34.308   4.246   4.554  1.00 20.00     0.041 C 
HETATM    8  C4  UNL     1     -34.036   6.566   5.480  1.00 20.00     0.041 C 
HETATM    9  C5  UNL     1     -35.594   6.162   3.550  1.00 20.00     0.041 C 
ENDBRANCH   1   6
TORSDOF 4
ENDMDL
MODEL 4
REMARK VINA RESULT:      -3.8      1.433      4.262
REMARK  4 active torsions:
REMARK  status: ('A' for Active; 'I' for Inactive)
REMARK    1  A    between atoms: C1_1  and  N8_8 
REMARK    2  A    between atoms: C1_1  and  N9_9 
REMARK    3  A    between atoms: C6_6  and  N8_8 
REMARK    4  A    between atoms: C7_7  and  N9_9 
ROOT
HETATM    1  N9  UNL     1     -33.832   7.835   3.737  1.00 20.00    -0.220 NA
ENDROOT
BRANCH   1   2
HETATM    2  C1  UNL     1     -33.812   7.184   4.712  1.00 20.00     0.091 C 
BRANCH   2   3
HETATM    3  N8  UNL     1     -33.798   6.550   5.700  1.00 20.00    -0.231 NA
BRANCH   3   4
HETATM    4  C6  UNL     1     -34.802   5.484   5.751  1.00 20.00     0.156 C 
HETATM    5  C2  UNL     1     -34.429   4.405   4.755  1.00 20.00     0.029 C 
ENDBRANCH   3   4
ENDBRANCH   2   3
ENDBRANCH   1   2
BRANCH   1   6
HETATM    6  C7  UNL     1     -32.638   7.695   2.892  1.00 20.00     0.053 C 
HETATM    7  C3  UNL     1     -32.801   8.602   1.673  1.00 20.00     0.041 C 
HETATM    8  C4  UNL     1     -31.424   8.119   3.718  1.00 20.00     0.041 C 
HETATM    9  C5  UNL     1     -32.516   6.231   2.469  1.00 20.00     0.041 C 
ENDBRANCH   1   6
TORSDOF 4
ENDMDL
MODEL 5
REMARK VINA RESULT:      -3.7      1.334      4.708
REMARK  4 active torsions:
REMARK  status: ('A' for Active; 'I' for Inactive)
REMARK    1  A    between atoms: C1_1  and  N8_8 
REMARK    2  A    between atoms: C1_1  and  N9_9 
REMARK    3  A    between atoms: C6_6  and  N8_8 
REMARK    4  A    between atoms: C7_7  and  N9_9 
ROOT
HETATM    1  N9  UNL     1     -33.292   8.210   1.563  1.00 20.00    -0.220 NA
ENDROOT
BRANCH   1   2
HETATM    2  C1  UNL     1     -32.801   7.925   2.588  1.00 20.00     0.091 C 
BRANCH   2   3
HETATM    3  N8  UNL     1     -32.314   7.618   3.611  1.00 20.00    -0.231 NA
BRANCH   3   4
HETATM    4  C6  UNL     1     -33.270   7.430   4.706  1.00 20.00     0.156 C 
HETATM    5  C2  UNL     1     -34.206   6.291   4.356  1.00 20.00     0.029 C 
ENDBRANCH   3   4
ENDBRANCH   2   3
ENDBRANCH   1   2
BRANCH   1   6
HETATM    6  C7  UNL     1     -32.554   9.228   0.800  1.00 20.00     0.053 C 
HETATM    7  C3  UNL     1     -32.659  10.558   1.545  1.00 20.00     0.041 C 
HETATM    8  C4  UNL     1     -31.096   8.778   0.707  1.00 20.00     0.041 C 
HETATM    9  C5  UNL     1     -33.175   9.333  -0.592  1.00 20.00     0.041 C 
ENDBRANCH   1   6
TORSDOF 4
ENDMDL
MODEL 6
REMARK VINA RESULT:      -3.5     10.947     11.935
REMARK  4 active torsions:
REMARK  status: ('A' for Active; 'I' for Inactive)
REMARK    1  A    between atoms: C1_1  and  N8_8 
REMARK    2  A    between atoms: C1_1  and  N9_9 
REMARK    3  A    between atoms: C6_6  and  N8_8 
REMARK    4  A    between atoms: C7_7  and  N9_9 
ROOT
HETATM    1  N9  UNL     1     -35.384  14.740  -4.232  1.00 20.00    -0.220 NA
ENDROOT
BRANCH   1   2
HETATM    2  C1  UNL     1     -35.467  13.820  -4.954  1.00 20.00     0.091 C 
BRANCH   2   3
HETATM    3  N8  UNL     1     -35.569  12.892  -5.667  1.00 20.00    -0.231 NA
BRANCH   3   4
HETATM    4  C6  UNL     1     -35.184  13.150  -7.057  1.00 20.00     0.156 C 
HETATM    5  C2  UNL     1     -36.229  14.035  -7.704  1.00 20.00     0.029 C 
ENDBRANCH   3   4
ENDBRANCH   2   3
ENDBRANCH   1   2
BRANCH   1   6
HETATM    6  C7  UNL     1     -34.092  15.439  -4.291  1.00 20.00     0.053 C 
HETATM    7  C3  UNL     1     -34.058  16.281  -5.566  1.00 20.00     0.041 C 
HETATM    8  C4  UNL     1     -33.985  16.332  -3.055  1.00 20.00     0.041 C 
HETATM    9  C5  UNL     1     -32.977  14.395  -4.299  1.00 20.00     0.041 C 
ENDBRANCH   1   6
TORSDOF 4
ENDMDL
MODEL 7
REMARK VINA RESULT:      -3.5     10.952     11.948
REMARK  4 active torsions:
REMARK  status: ('A' for Active; 'I' for Inactive)
REMARK    1  A    between atoms: C1_1  and  N8_8 
REMARK    2  A    between atoms: C1_1  and  N9_9 
REMARK    3  A    between atoms: C6_6  and  N8_8 
REMARK    4  A    between atoms: C7_7  and  N9_9 
ROOT
HETATM    1  N9  UNL     1     -35.361  14.734  -4.215  1.00 20.00    -0.220 NA
ENDROOT
BRANCH   1   2
HETATM    2  C1  UNL     1     -35.452  13.816  -4.937  1.00 20.00     0.091 C 
BRANCH   2   3
HETATM    3  N8  UNL     1     -35.565  12.899  -5.661  1.00 20.00    -0.231 NA
BRANCH   3   4
HETATM    4  C6  UNL     1     -35.183  13.170  -7.049  1.00 20.00     0.156 C 
HETATM    5  C2  UNL     1     -36.246  14.035  -7.695  1.00 20.00     0.029 C 
ENDBRANCH   3   4
ENDBRANCH   2   3
ENDBRANCH   1   2
BRANCH   1   6
HETATM    6  C7  UNL     1     -34.076  15.443  -4.296  1.00 20.00     0.053 C 
HETATM    7  C3  UNL     1     -33.941  16.339  -3.065  1.00 20.00     0.041 C 
HETATM    8  C4  UNL     1     -32.963  14.395  -4.322  1.00 20.00     0.041 C 
HETATM    9  C5  UNL     1     -34.063  16.274  -5.578  1.00 20.00     0.041 C 
ENDBRANCH   1   6
TORSDOF 4
ENDMDL
MODEL 8
REMARK VINA RESULT:      -3.4      1.095      4.534
REMARK  4 active torsions:
REMARK  status: ('A' for Active; 'I' for Inactive)
REMARK    1  A    between atoms: C1_1  and  N8_8 
REMARK    2  A    between atoms: C1_1  and  N9_9 
REMARK    3  A    between atoms: C6_6  and  N8_8 
REMARK    4  A    between atoms: C7_7  and  N9_9 
ROOT
HETATM    1  N9  UNL     1     -33.154   7.501   1.946  1.00 20.00    -0.220 NA
ENDROOT
BRANCH   1   2
HETATM    2  C1  UNL     1     -33.467   7.186   3.030  1.00 20.00     0.091 C 
BRANCH   2   3
HETATM    3  N8  UNL     1     -33.802   6.867   4.110  1.00 20.00    -0.231 NA
BRANCH   3   4
HETATM    4  C6  UNL     1     -34.766   5.763   4.145  1.00 20.00     0.156 C 
HETATM    5  C2  UNL     1     -34.763   5.148   5.530  1.00 20.00     0.029 C 
ENDBRANCH   3   4
ENDBRANCH   2   3
ENDBRANCH   1   2
BRANCH   1   6
HETATM    6  C7  UNL     1     -32.195   8.614   1.894  1.00 20.00     0.053 C 
HETATM    7  C3  UNL     1     -31.259   8.388   0.707  1.00 20.00     0.041 C 
HETATM    8  C4  UNL     1     -32.987   9.909   1.713  1.00 20.00     0.041 C 
HETATM    9  C5  UNL     1     -31.413   8.640   3.206  1.00 20.00     0.041 C 
ENDBRANCH   1   6
TORSDOF 4
ENDMDL
MODEL 9
REMARK VINA RESULT:      -3.3      9.317     10.749
REMARK  4 active torsions:
REMARK  status: ('A' for Active; 'I' for Inactive)
REMARK    1  A    between atoms: C1_1  and  N8_8 
REMARK    2  A    between atoms: C1_1  and  N9_9 
REMARK    3  A    between atoms: C6_6  and  N8_8 
REMARK    4  A    between atoms: C7_7  and  N9_9 
ROOT
HETATM    1  N9  UNL     1     -43.139   6.207  -1.345  1.00 20.00    -0.220 NA
ENDROOT
BRANCH   1   2
HETATM    2  C1  UNL     1     -43.224   5.056  -1.551  1.00 20.00     0.091 C 
BRANCH   2   3
HETATM    3  N8  UNL     1     -43.288   3.903  -1.763  1.00 20.00    -0.231 NA
BRANCH   3   4
HETATM    4  C6  UNL     1     -43.241   3.543  -3.183  1.00 20.00     0.156 C 
HETATM    5  C2  UNL     1     -41.960   2.782  -3.459  1.00 20.00     0.029 C 
ENDBRANCH   3   4
ENDBRANCH   2   3
ENDBRANCH   1   2
BRANCH   1   6
HETATM    6  C7  UNL     1     -42.044   6.580  -0.438  1.00 20.00     0.053 C 
HETATM    7  C3  UNL     1     -41.597   8.001  -0.782  1.00 20.00     0.041 C 
HETATM    8  C4  UNL     1     -42.576   6.515   0.993  1.00 20.00     0.041 C 
HETATM    9  C5  UNL     1     -40.898   5.588  -0.632  1.00 20.00     0.041 C 
ENDBRANCH   1   6
TORSDOF 4
ENDMDL
