MODEL 1
REMARK VINA RESULT:      -5.1      0.000      0.000
REMARK  2 active torsions:
REMARK  status: ('A' for Active; 'I' for Inactive)
REMARK    1  A    between atoms: C1_1  and  C3_3 
REMARK    2  A    between atoms: C2_2  and  C5_5 
ROOT
HETATM    1  C1  UNL     1     -33.795   7.023   5.319  1.00 20.00     0.003 C 
HETATM    2  C2  UNL     1     -34.408   5.886   5.670  1.00 20.00     0.041 C 
ENDROOT
BRANCH   1   3
HETATM    3  C3  UNL     1     -33.530   7.372   3.940  1.00 20.00    -0.004 C 
HETATM    4  C4  UNL     1     -32.323   7.759   3.501  1.00 20.00    -0.031 C 
HETATM    5  C6  UNL     1     -32.037   8.121   2.081  1.00 20.00     0.036 C 
ENDBRANCH   1   3
BRANCH   2   6
HETATM    6  C5  UNL     1     -34.831   4.945   4.616  1.00 20.00     0.258 C 
HETATM    7  O7  UNL     1     -34.279   3.863   4.455  1.00 20.00    -0.302 OA
ENDBRANCH   2   6
TORSDOF 2
ENDMDL
MODEL 2
REMARK VINA RESULT:      -4.6      1.680      1.962
REMARK  2 active torsions:
REMARK  status: ('A' for Active; 'I' for Inactive)
REMARK    1  A    between atoms: C1_1  and  C3_3 
REMARK    2  A    between atoms: C2_2  and  C5_5 
ROOT
HETATM    1  C1  UNL     1     -34.471   5.834   3.272  1.00 20.00     0.003 C 
HETATM    2  C2  UNL     1     -34.984   5.604   4.486  1.00 20.00     0.041 C 
ENDROOT
BRANCH   1   3
HETATM    3  C3  UNL     1     -33.163   6.420   3.076  1.00 20.00    -0.004 C 
HETATM    4  C4  UNL     1     -32.978   7.705   2.740  1.00 20.00    -0.031 C 
HETATM    5  C6  UNL     1     -31.633   8.321   2.535  1.00 20.00     0.036 C 
ENDBRANCH   1   3
BRANCH   2   6
HETATM    6  C5  UNL     1     -34.192   5.962   5.678  1.00 20.00     0.258 C 
HETATM    7  O7  UNL     1     -34.153   7.108   6.110  1.00 20.00    -0.302 OA
ENDBRANCH   2   6
TORSDOF 2
ENDMDL
MODEL 3
REMARK VINA RESULT:      -4.4      3.156      4.986
REMARK  2 active torsions:
REMARK  status: ('A' for Active; 'I' for Inactive)
REMARK    1  A    between atoms: C1_1  and  C3_3 
REMARK    2  A    between atoms: C2_2  and  C5_5 
ROOT
HETATM    1  C1  UNL     1     -31.688   8.263   1.908  1.00 20.00     0.003 C 
HETATM    2  C2  UNL     1     -31.690   9.071   0.841  1.00 20.00     0.041 C 
ENDROOT
BRANCH   1   3
HETATM    3  C3  UNL     1     -32.903   7.852   2.577  1.00 20.00    -0.004 C 
HETATM    4  C4  UNL     1     -33.157   6.580   2.918  1.00 20.00    -0.031 C 
HETATM    5  C6  UNL     1     -34.408   6.142   3.609  1.00 20.00     0.036 C 
ENDBRANCH   1   3
BRANCH   2   6
HETATM    6  C5  UNL     1     -32.978   9.566   0.320  1.00 20.00     0.258 C 
HETATM    7  O7  UNL     1     -33.455   9.152  -0.730  1.00 20.00    -0.302 OA
ENDBRANCH   2   6
TORSDOF 2
ENDMDL
MODEL 4
REMARK VINA RESULT:      -4.4      2.987      4.601
REMARK  2 active torsions:
REMARK  status: ('A' for Active; 'I' for Inactive)
REMARK    1  A    between atoms: C1_1  and  C3_3 
REMARK    2  A    between atoms: C2_2  and  C5_5 
ROOT
HETATM    1  C1  UNL     1     -32.011   7.798   3.181  1.00 20.00     0.003 C 
HETATM    2  C2  UNL     1     -31.672   8.753   2.306  1.00 20.00     0.041 C 
ENDROOT
BRANCH   1   3
HETATM    3  C3  UNL     1     -33.214   7.007   3.046  1.00 20.00    -0.004 C 
HETATM    4  C4  UNL     1     -33.940   6.592   4.094  1.00 20.00    -0.031 C 
HETATM    5  C6  UNL     1     -35.185   5.775   3.967  1.00 20.00     0.036 C 
ENDBRANCH   1   3
BRANCH   2   6
HETATM    6  C5  UNL     1     -32.557   9.016   1.155  1.00 20.00     0.258 C 
HETATM    7  O7  UNL     1     -32.869  10.154   0.825  1.00 20.00    -0.302 OA
ENDBRANCH   2   6
TORSDOF 2
ENDMDL
MODEL 5
REMARK VINA RESULT:      -4.3      1.839      2.913
REMARK  2 active torsions:
REMARK  status: ('A' for Active; 'I' for Inactive)
REMARK    1  A    between atoms: C1_1  and  C3_3 
REMARK    2  A    between atoms: C2_2  and  C5_5 
ROOT
HETATM    1  C1  UNL     1     -31.763   8.299   3.014  1.00 20.00     0.003 C 
HETATM    2  C2  UNL     1     -32.456   7.523   3.856  1.00 20.00     0.041 C 
ENDROOT
BRANCH   1   3
HETATM    3  C3  UNL     1     -32.098   8.422   1.612  1.00 20.00    -0.004 C 
HETATM    4  C4  UNL     1     -32.626   9.534   1.080  1.00 20.00    -0.031 C 
HETATM    5  C6  UNL     1     -32.977   9.674  -0.366  1.00 20.00     0.036 C 
ENDBRANCH   1   3
BRANCH   2   6
HETATM    6  C5  UNL     1     -33.608   6.758   3.342  1.00 20.00     0.258 C 
HETATM    7  O7  UNL     1     -33.543   5.554   3.128  1.00 20.00    -0.302 OA
ENDBRANCH   2   6
TORSDOF 2
ENDMDL
MODEL 6
REMARK VINA RESULT:      -4.0      2.405      4.128
REMARK  2 active torsions:
REMARK  status: ('A' for Active; 'I' for Inactive)
REMARK    1  A    between atoms: C1_1  and  C3_3 
REMARK    2  A    between atoms: C2_2  and  C5_5 
ROOT
HETATM    1  C1  UNL     1     -33.737   6.230   2.421  1.00 20.00     0.003 C 
HETATM    2  C2  UNL     1     -33.003   7.346   2.334  1.00 20.00     0.041 C 
ENDROOT
BRANCH   1   3
HETATM    3  C3  UNL     1     -33.790   5.423   3.620  1.00 20.00    -0.004 C 
HETATM    4  C4  UNL     1     -34.678   5.631   4.604  1.00 20.00    -0.031 C 
HETATM    5  C6  UNL     1     -34.743   4.805   5.847  1.00 20.00     0.036 C 
ENDBRANCH   1   3
BRANCH   2   6
HETATM    6  C5  UNL     1     -32.212   7.777   3.502  1.00 20.00     0.258 C 
HETATM    7  O7  UNL     1     -31.132   8.342   3.381  1.00 20.00    -0.302 OA
ENDBRANCH   2   6
TORSDOF 2
ENDMDL
MODEL 7
REMARK VINA RESULT:      -3.8     11.935     12.114
REMARK  2 active torsions:
REMARK  status: ('A' for Active; 'I' for Inactive)
REMARK    1  A    between atoms: C1_1  and  C3_3 
REMARK    2  A    between atoms: C2_2  and  C5_5 
ROOT
HETATM    1  C1  UNL     1     -33.888  15.376  -3.985  1.00 20.00     0.003 C 
HETATM    2  C2  UNL     1     -34.221  14.421  -4.861  1.00 20.00     0.041 C 
ENDROOT
BRANCH   1   3
HETATM    3  C3  UNL     1     -34.828  15.917  -3.027  1.00 20.00    -0.004 C 
HETATM    4  C4  UNL     1     -34.459  16.691  -1.996  1.00 20.00    -0.031 C 
HETATM    5  C6  UNL     1     -35.419  17.256  -1.000  1.00 20.00     0.036 C 
ENDBRANCH   1   3
BRANCH   2   6
HETATM    6  C5  UNL     1     -35.600  13.895  -4.858  1.00 20.00     0.258 C 
HETATM    7  O7  UNL     1     -35.854  12.744  -5.193  1.00 20.00    -0.302 OA
ENDBRANCH   2   6
TORSDOF 2
ENDMDL
MODEL 8
REMARK VINA RESULT:      -3.6     11.898     12.287
REMARK  2 active torsions:
REMARK  status: ('A' for Active; 'I' for Inactive)
REMARK    1  A    between atoms: C1_1  and  C3_3 
REMARK    2  A    between atoms: C2_2  and  C5_5 
ROOT
HETATM    1  C1  UNL     1     -33.432  15.034  -4.814  1.00 20.00     0.003 C 
HETATM    2  C2  UNL     1     -34.208  14.283  -5.605  1.00 20.00     0.041 C 
ENDROOT
BRANCH   1   3
HETATM    3  C3  UNL     1     -33.833  15.435  -3.483  1.00 20.00    -0.004 C 
HETATM    4  C4  UNL     1     -33.661  16.678  -3.010  1.00 20.00    -0.031 C 
HETATM    5  C6  UNL     1     -34.071  17.106  -1.638  1.00 20.00     0.036 C 
ENDBRANCH   1   3
BRANCH   2   6
HETATM    6  C5  UNL     1     -35.527  13.845  -5.108  1.00 20.00     0.258 C 
HETATM    7  O7  UNL     1     -35.929  12.698  -5.264  1.00 20.00    -0.302 OA
ENDBRANCH   2   6
TORSDOF 2
ENDMDL
MODEL 9
REMARK VINA RESULT:      -3.5     11.930     12.225
REMARK  2 active torsions:
REMARK  status: ('A' for Active; 'I' for Inactive)
REMARK    1  A    between atoms: C1_1  and  C3_3 
REMARK    2  A    between atoms: C2_2  and  C5_5 
ROOT
HETATM    1  C1  UNL     1     -34.789  15.899  -3.119  1.00 20.00     0.003 C 
HETATM    2  C2  UNL     1     -34.615  14.920  -4.015  1.00 20.00     0.041 C 
ENDROOT
BRANCH   1   3
HETATM    3  C3  UNL     1     -33.699  16.721  -2.640  1.00 20.00    -0.004 C 
HETATM    4  C4  UNL     1     -33.766  17.442  -1.511  1.00 20.00    -0.031 C 
HETATM    5  C6  UNL     1     -32.648  18.294  -1.006  1.00 20.00     0.036 C 
ENDBRANCH   1   3
BRANCH   2   6
HETATM    6  C5  UNL     1     -33.260  14.661  -4.539  1.00 20.00     0.258 C 
HETATM    7  O7  UNL     1     -32.608  13.683  -4.194  1.00 20.00    -0.302 OA
ENDBRANCH   2   6
TORSDOF 2
ENDMDL
