MODEL 1
REMARK VINA RESULT:      -4.8      0.000      0.000
REMARK  3 active torsions:
REMARK  status: ('A' for Active; 'I' for Inactive)
REMARK    1  A    between atoms: C1_1  and  C2_2 
REMARK    2  A    between atoms: C4_4  and  C6_6 
REMARK    3  A    between atoms: C6_6  and  O7_7 
ROOT
HETATM    1  C2  UNL     1     -33.691   7.244   3.940  1.00 20.00    -0.002 C 
HETATM    2  C4  UNL     1     -32.472   7.641   3.550  1.00 20.00    -0.001 C 
ENDROOT
BRANCH   1   3
HETATM    3  C1  UNL     1     -34.018   6.925   5.312  1.00 20.00    -0.005 C 
HETATM    4  C3  UNL     1     -34.431   5.711   5.704  1.00 20.00    -0.031 C 
HETATM    5  C5  UNL     1     -34.601   4.553   4.776  1.00 20.00     0.036 C 
ENDBRANCH   1   3
BRANCH   2   6
HETATM    6  C6  UNL     1     -32.126   7.977   2.134  1.00 20.00     0.191 C 
BRANCH   6   7
HETATM    7  O7  UNL     1     -32.659   9.253   1.800  1.00 20.00    -0.397 OA
HETATM    8  H17 UNL     1     -32.914   9.212   0.865  1.00 20.00     0.209 HD
ENDBRANCH   6   7
ENDBRANCH   2   6
TORSDOF 3
ENDMDL
MODEL 2
REMARK VINA RESULT:      -4.6      2.574      4.398
REMARK  3 active torsions:
REMARK  status: ('A' for Active; 'I' for Inactive)
REMARK    1  A    between atoms: C1_1  and  C2_2 
REMARK    2  A    between atoms: C4_4  and  C6_6 
REMARK    3  A    between atoms: C6_6  and  O7_7 
ROOT
HETATM    1  C2  UNL     1     -33.300   6.959   3.073  1.00 20.00    -0.002 C 
HETATM    2  C4  UNL     1     -33.955   6.455   4.128  1.00 20.00    -0.001 C 
ENDROOT
BRANCH   1   3
HETATM    3  C1  UNL     1     -32.081   7.728   3.192  1.00 20.00    -0.005 C 
HETATM    4  C3  UNL     1     -31.715   8.663   2.303  1.00 20.00    -0.031 C 
HETATM    5  C5  UNL     1     -32.517   9.018   1.094  1.00 20.00     0.036 C 
ENDBRANCH   1   3
BRANCH   2   6
HETATM    6  C6  UNL     1     -35.214   5.655   4.014  1.00 20.00     0.191 C 
BRANCH   6   7
HETATM    7  O7  UNL     1     -35.074   4.436   4.733  1.00 20.00    -0.397 OA
HETATM    8  H17 UNL     1     -34.127   4.226   4.745  1.00 20.00     0.209 HD
ENDBRANCH   6   7
ENDBRANCH   2   6
TORSDOF 3
ENDMDL
MODEL 3
REMARK VINA RESULT:      -4.6      0.986      1.354
REMARK  3 active torsions:
REMARK  status: ('A' for Active; 'I' for Inactive)
REMARK    1  A    between atoms: C1_1  and  C2_2 
REMARK    2  A    between atoms: C4_4  and  C6_6 
REMARK    3  A    between atoms: C6_6  and  O7_7 
ROOT
HETATM    1  C2  UNL     1     -33.690   7.000   3.359  1.00 20.00    -0.002 C 
HETATM    2  C4  UNL     1     -32.581   7.170   2.626  1.00 20.00    -0.001 C 
ENDROOT
BRANCH   1   3
HETATM    3  C1  UNL     1     -34.426   5.757   3.404  1.00 20.00    -0.005 C 
HETATM    4  C3  UNL     1     -34.798   5.167   4.549  1.00 20.00    -0.031 C 
HETATM    5  C5  UNL     1     -34.499   5.721   5.904  1.00 20.00     0.036 C 
ENDBRANCH   1   3
BRANCH   2   6
HETATM    6  C6  UNL     1     -31.810   8.451   2.576  1.00 20.00     0.191 C 
BRANCH   6   7
HETATM    7  O7  UNL     1     -31.752   8.924   1.236  1.00 20.00    -0.397 OA
HETATM    8  H17 UNL     1     -31.017   8.457   0.807  1.00 20.00     0.209 HD
ENDBRANCH   6   7
ENDBRANCH   2   6
TORSDOF 3
ENDMDL
MODEL 4
REMARK VINA RESULT:      -4.5      2.089      4.566
REMARK  3 active torsions:
REMARK  status: ('A' for Active; 'I' for Inactive)
REMARK    1  A    between atoms: C1_1  and  C2_2 
REMARK    2  A    between atoms: C4_4  and  C6_6 
REMARK    3  A    between atoms: C6_6  and  O7_7 
ROOT
HETATM    1  C2  UNL     1     -32.357   8.125   2.945  1.00 20.00    -0.002 C 
HETATM    2  C4  UNL     1     -33.149   7.114   3.330  1.00 20.00    -0.001 C 
ENDROOT
BRANCH   1   3
HETATM    3  C1  UNL     1     -31.751   8.201   1.635  1.00 20.00    -0.005 C 
HETATM    4  C3  UNL     1     -31.942   9.231   0.798  1.00 20.00    -0.031 C 
HETATM    5  C5  UNL     1     -32.796  10.414   1.119  1.00 20.00     0.036 C 
ENDBRANCH   1   3
BRANCH   2   6
HETATM    6  C6  UNL     1     -33.783   7.029   4.682  1.00 20.00     0.191 C 
BRANCH   6   7
HETATM    7  O7  UNL     1     -32.931   7.630   5.650  1.00 20.00    -0.397 OA
HETATM    8  H17 UNL     1     -32.852   6.998   6.381  1.00 20.00     0.209 HD
ENDBRANCH   6   7
ENDBRANCH   2   6
TORSDOF 3
ENDMDL
MODEL 5
REMARK VINA RESULT:      -4.4      2.281      4.667
REMARK  3 active torsions:
REMARK  status: ('A' for Active; 'I' for Inactive)
REMARK    1  A    between atoms: C1_1  and  C2_2 
REMARK    2  A    between atoms: C4_4  and  C6_6 
REMARK    3  A    between atoms: C6_6  and  O7_7 
ROOT
HETATM    1  C2  UNL     1     -32.410   8.001   2.800  1.00 20.00    -0.002 C 
HETATM    2  C4  UNL     1     -33.212   6.952   3.031  1.00 20.00    -0.001 C 
ENDROOT
BRANCH   1   3
HETATM    3  C1  UNL     1     -31.720   8.207   1.546  1.00 20.00    -0.005 C 
HETATM    4  C3  UNL     1     -31.898   9.294   0.781  1.00 20.00    -0.031 C 
HETATM    5  C5  UNL     1     -32.825  10.412   1.132  1.00 20.00     0.036 C 
ENDBRANCH   1   3
BRANCH   2   6
HETATM    6  C6  UNL     1     -33.933   6.733   4.323  1.00 20.00     0.191 C 
BRANCH   6   7
HETATM    7  O7  UNL     1     -35.007   5.821   4.124  1.00 20.00    -0.397 OA
HETATM    8  H17 UNL     1     -35.708   6.075   4.744  1.00 20.00     0.209 HD
ENDBRANCH   6   7
ENDBRANCH   2   6
TORSDOF 3
ENDMDL
MODEL 6
REMARK VINA RESULT:      -4.4      2.597      4.287
REMARK  3 active torsions:
REMARK  status: ('A' for Active; 'I' for Inactive)
REMARK    1  A    between atoms: C1_1  and  C2_2 
REMARK    2  A    between atoms: C4_4  and  C6_6 
REMARK    3  A    between atoms: C6_6  and  O7_7 
ROOT
HETATM    1  C2  UNL     1     -33.418   6.209   3.346  1.00 20.00    -0.002 C 
HETATM    2  C4  UNL     1     -34.354   6.388   4.288  1.00 20.00    -0.001 C 
ENDROOT
BRANCH   1   3
HETATM    3  C1  UNL     1     -33.148   7.175   2.305  1.00 20.00    -0.005 C 
HETATM    4  C3  UNL     1     -32.217   8.134   2.419  1.00 20.00    -0.031 C 
HETATM    5  C5  UNL     1     -31.355   8.314   3.625  1.00 20.00     0.036 C 
ENDBRANCH   1   3
BRANCH   2   6
HETATM    6  C6  UNL     1     -34.638   5.397   5.372  1.00 20.00     0.191 C 
BRANCH   6   7
HETATM    7  O7  UNL     1     -35.060   4.166   4.797  1.00 20.00    -0.397 OA
HETATM    8  H17 UNL     1     -34.771   3.463   5.399  1.00 20.00     0.209 HD
ENDBRANCH   6   7
ENDBRANCH   2   6
TORSDOF 3
ENDMDL
MODEL 7
REMARK VINA RESULT:      -3.9     11.368     11.705
REMARK  3 active torsions:
REMARK  status: ('A' for Active; 'I' for Inactive)
REMARK    1  A    between atoms: C1_1  and  C2_2 
REMARK    2  A    between atoms: C4_4  and  C6_6 
REMARK    3  A    between atoms: C6_6  and  O7_7 
ROOT
HETATM    1  C2  UNL     1     -34.880  15.872  -3.798  1.00 20.00    -0.002 C 
HETATM    2  C4  UNL     1     -34.875  14.614  -4.260  1.00 20.00    -0.001 C 
ENDROOT
BRANCH   1   3
HETATM    3  C1  UNL     1     -33.789  16.440  -3.038  1.00 20.00    -0.005 C 
HETATM    4  C3  UNL     1     -33.948  16.988  -1.825  1.00 20.00    -0.031 C 
HETATM    5  C5  UNL     1     -35.262  17.077  -1.120  1.00 20.00     0.036 C 
ENDBRANCH   1   3
BRANCH   2   6
HETATM    6  C6  UNL     1     -35.998  14.019  -5.050  1.00 20.00     0.191 C 
BRANCH   6   7
HETATM    7  O7  UNL     1     -35.895  12.601  -5.036  1.00 20.00    -0.397 OA
HETATM    8  H17 UNL     1     -34.970  12.390  -4.834  1.00 20.00     0.209 HD
ENDBRANCH   6   7
ENDBRANCH   2   6
TORSDOF 3
ENDMDL
MODEL 8
REMARK VINA RESULT:      -3.7     11.279     11.685
REMARK  3 active torsions:
REMARK  status: ('A' for Active; 'I' for Inactive)
REMARK    1  A    between atoms: C1_1  and  C2_2 
REMARK    2  A    between atoms: C4_4  and  C6_6 
REMARK    3  A    between atoms: C6_6  and  O7_7 
ROOT
HETATM    1  C2  UNL     1     -33.984  16.211  -3.094  1.00 20.00    -0.002 C 
HETATM    2  C4  UNL     1     -34.356  15.089  -3.727  1.00 20.00    -0.001 C 
ENDROOT
BRANCH   1   3
HETATM    3  C1  UNL     1     -34.687  16.743  -1.948  1.00 20.00    -0.005 C 
HETATM    4  C3  UNL     1     -34.131  17.601  -1.082  1.00 20.00    -0.031 C 
HETATM    5  C5  UNL     1     -32.730  18.106  -1.197  1.00 20.00     0.036 C 
ENDBRANCH   1   3
BRANCH   2   6
HETATM    6  C6  UNL     1     -33.633  14.528  -4.910  1.00 20.00     0.191 C 
BRANCH   6   7
HETATM    7  O7  UNL     1     -32.562  13.702  -4.470  1.00 20.00    -0.397 OA
HETATM    8  H17 UNL     1     -31.968  14.268  -3.952  1.00 20.00     0.209 HD
ENDBRANCH   6   7
ENDBRANCH   2   6
TORSDOF 3
ENDMDL
MODEL 9
REMARK VINA RESULT:      -3.2     11.592     11.973
REMARK  3 active torsions:
REMARK  status: ('A' for Active; 'I' for Inactive)
REMARK    1  A    between atoms: C1_1  and  C2_2 
REMARK    2  A    between atoms: C4_4  and  C6_6 
REMARK    3  A    between atoms: C6_6  and  O7_7 
ROOT
HETATM    1  C2  UNL     1     -33.828  17.046  -2.200  1.00 20.00    -0.002 C 
HETATM    2  C4  UNL     1     -34.018  17.792  -1.103  1.00 20.00    -0.001 C 
ENDROOT
BRANCH   1   3
HETATM    3  C1  UNL     1     -34.827  16.141  -2.723  1.00 20.00    -0.005 C 
HETATM    4  C3  UNL     1     -34.586  15.288  -3.729  1.00 20.00    -0.031 C 
HETATM    5  C5  UNL     1     -33.268  15.172  -4.423  1.00 20.00     0.036 C 
ENDBRANCH   1   3
BRANCH   2   6
HETATM    6  C6  UNL     1     -32.993  18.734  -0.556  1.00 20.00     0.191 C 
BRANCH   6   7
HETATM    7  O7  UNL     1     -31.689  18.248  -0.851  1.00 20.00    -0.397 OA
HETATM    8  H17 UNL     1     -31.425  17.688  -0.104  1.00 20.00     0.209 HD
ENDBRANCH   6   7
ENDBRANCH   2   6
TORSDOF 3
ENDMDL
