MODEL 1
REMARK VINA RESULT:      -4.1      0.000      0.000
REMARK  0 active torsions:
REMARK  status: ('A' for Active; 'I' for Inactive)
ROOT
HETATM    1  C1  UNL     1     -35.612  13.808  -5.283  1.00 20.00     0.129 C 
HETATM    2  C2  UNL     1     -34.467  14.284  -6.163  1.00 20.00     0.093 C 
HETATM    3  C3  UNL     1     -36.503  14.849  -4.620  1.00 20.00     0.093 C 
HETATM    4  C4  UNL     1     -33.343  15.421  -4.187  1.00 20.00     0.017 C 
HETATM    5  C5  UNL     1     -34.541  15.752  -3.278  1.00 20.00     0.017 C 
HETATM    6  C6  UNL     1     -33.769  15.545  -5.653  1.00 20.00     0.054 C 
HETATM    7  C7  UNL     1     -35.756  16.096  -4.146  1.00 20.00     0.054 C 
HETATM    8  O8  UNL     1     -35.880  12.607  -5.195  1.00 20.00    -0.298 OA
HETATM    9  S9  UNL     1     -34.978  16.884  -5.572  1.00 20.00    -0.159 SA
ENDROOT
TORSDOF 0
ENDMDL
MODEL 2
REMARK VINA RESULT:      -3.9      1.551      2.072
REMARK  0 active torsions:
REMARK  status: ('A' for Active; 'I' for Inactive)
ROOT
HETATM    1  C1  UNL     1     -34.592  14.830  -4.029  1.00 20.00     0.129 C 
HETATM    2  C2  UNL     1     -33.447  15.799  -4.284  1.00 20.00     0.093 C 
HETATM    3  C3  UNL     1     -36.004  15.387  -3.906  1.00 20.00     0.093 C 
HETATM    4  C4  UNL     1     -33.855  16.957  -2.058  1.00 20.00     0.017 C 
HETATM    5  C5  UNL     1     -35.359  16.713  -1.835  1.00 20.00     0.017 C 
HETATM    6  C6  UNL     1     -33.587  17.136  -3.555  1.00 20.00     0.054 C 
HETATM    7  C7  UNL     1     -36.081  16.733  -3.186  1.00 20.00     0.054 C 
HETATM    8  O8  UNL     1     -34.397  13.613  -4.031  1.00 20.00    -0.298 OA
HETATM    9  S9  UNL     1     -35.106  17.942  -4.107  1.00 20.00    -0.159 SA
ENDROOT
TORSDOF 0
ENDMDL
MODEL 3
REMARK VINA RESULT:      -3.9      1.084      2.030
REMARK  0 active torsions:
REMARK  status: ('A' for Active; 'I' for Inactive)
ROOT
HETATM    1  C1  UNL     1     -35.557  13.867  -5.002  1.00 20.00     0.129 C 
HETATM    2  C2  UNL     1     -36.424  15.019  -5.486  1.00 20.00     0.093 C 
HETATM    3  C3  UNL     1     -34.395  14.172  -4.067  1.00 20.00     0.093 C 
HETATM    4  C4  UNL     1     -34.450  16.076  -6.688  1.00 20.00     0.017 C 
HETATM    5  C5  UNL     1     -33.256  15.576  -5.854  1.00 20.00     0.017 C 
HETATM    6  C6  UNL     1     -35.651  16.308  -5.766  1.00 20.00     0.054 C 
HETATM    7  C7  UNL     1     -33.670  15.481  -4.382  1.00 20.00     0.054 C 
HETATM    8  O8  UNL     1     -35.853  12.701  -5.273  1.00 20.00    -0.298 OA
HETATM    9  S9  UNL     1     -34.846  16.844  -4.241  1.00 20.00    -0.159 SA
ENDROOT
TORSDOF 0
ENDMDL
MODEL 4
REMARK VINA RESULT:      -3.9      1.076      1.512
REMARK  0 active torsions:
REMARK  status: ('A' for Active; 'I' for Inactive)
ROOT
HETATM    1  C1  UNL     1     -35.319  13.916  -5.105  1.00 20.00     0.129 C 
HETATM    2  C2  UNL     1     -34.009  14.130  -4.361  1.00 20.00     0.093 C 
HETATM    3  C3  UNL     1     -35.863  15.050  -5.962  1.00 20.00     0.093 C 
HETATM    4  C4  UNL     1     -35.031  16.002  -2.979  1.00 20.00     0.017 C 
HETATM    5  C5  UNL     1     -36.123  16.543  -3.921  1.00 20.00     0.017 C 
HETATM    6  C6  UNL     1     -33.828  15.544  -3.809  1.00 20.00     0.054 C 
HETATM    7  C7  UNL     1     -35.638  16.441  -5.370  1.00 20.00     0.054 C 
HETATM    8  O8  UNL     1     -35.871  12.814  -5.100  1.00 20.00    -0.298 OA
HETATM    9  S9  UNL     1     -33.863  16.713  -5.184  1.00 20.00    -0.159 SA
ENDROOT
TORSDOF 0
ENDMDL
MODEL 5
REMARK VINA RESULT:      -3.8     12.295     12.902
REMARK  0 active torsions:
REMARK  status: ('A' for Active; 'I' for Inactive)
ROOT
HETATM    1  C1  UNL     1     -32.774   7.489   4.101  1.00 20.00     0.129 C 
HETATM    2  C2  UNL     1     -33.710   7.236   5.274  1.00 20.00     0.093 C 
HETATM    3  C3  UNL     1     -33.247   7.125   2.701  1.00 20.00     0.093 C 
HETATM    4  C4  UNL     1     -33.666   4.731   4.843  1.00 20.00     0.017 C 
HETATM    5  C5  UNL     1     -33.392   4.666   3.329  1.00 20.00     0.017 C 
HETATM    6  C6  UNL     1     -34.535   5.954   5.149  1.00 20.00     0.054 C 
HETATM    7  C7  UNL     1     -34.082   5.846   2.638  1.00 20.00     0.054 C 
HETATM    8  O8  UNL     1     -31.703   8.075   4.268  1.00 20.00    -0.298 OA
HETATM    9  S9  UNL     1     -35.553   6.063   3.661  1.00 20.00    -0.159 SA
ENDROOT
TORSDOF 0
ENDMDL
MODEL 6
REMARK VINA RESULT:      -3.8      1.933      3.265
REMARK  0 active torsions:
REMARK  status: ('A' for Active; 'I' for Inactive)
ROOT
HETATM    1  C1  UNL     1     -33.727  14.381  -4.963  1.00 20.00     0.129 C 
HETATM    2  C2  UNL     1     -35.179  13.940  -4.862  1.00 20.00     0.093 C 
HETATM    3  C3  UNL     1     -33.374  15.514  -5.916  1.00 20.00     0.093 C 
HETATM    4  C4  UNL     1     -35.189  13.214  -7.298  1.00 20.00     0.017 C 
HETATM    5  C5  UNL     1     -34.126  14.140  -7.918  1.00 20.00     0.017 C 
HETATM    6  C6  UNL     1     -35.934  13.967  -6.192  1.00 20.00     0.054 C 
HETATM    7  C7  UNL     1     -34.172  15.503  -7.220  1.00 20.00     0.054 C 
HETATM    8  O8  UNL     1     -32.872  13.905  -4.213  1.00 20.00    -0.298 OA
HETATM    9  S9  UNL     1     -35.928  15.657  -6.828  1.00 20.00    -0.159 SA
ENDROOT
TORSDOF 0
ENDMDL
MODEL 7
REMARK VINA RESULT:      -3.8      1.247      1.417
REMARK  0 active torsions:
REMARK  status: ('A' for Active; 'I' for Inactive)
ROOT
HETATM    1  C1  UNL     1     -36.955  14.396  -5.278  1.00 20.00     0.129 C 
HETATM    2  C2  UNL     1     -35.807  13.684  -5.978  1.00 20.00     0.093 C 
HETATM    3  C3  UNL     1     -36.851  15.898  -5.052  1.00 20.00     0.093 C 
HETATM    4  C4  UNL     1     -34.209  14.286  -4.096  1.00 20.00     0.017 C 
HETATM    5  C5  UNL     1     -34.824  15.588  -3.550  1.00 20.00     0.017 C 
HETATM    6  C6  UNL     1     -34.423  14.220  -5.610  1.00 20.00     0.054 C 
HETATM    7  C7  UNL     1     -35.442  16.380  -4.707  1.00 20.00     0.054 C 
HETATM    8  O8  UNL     1     -37.991  13.791  -4.997  1.00 20.00    -0.298 OA
HETATM    9  S9  UNL     1     -34.335  15.964  -6.071  1.00 20.00    -0.159 SA
ENDROOT
TORSDOF 0
ENDMDL
MODEL 8
REMARK VINA RESULT:      -3.7      1.351      2.418
REMARK  0 active torsions:
REMARK  status: ('A' for Active; 'I' for Inactive)
ROOT
HETATM    1  C1  UNL     1     -35.256  13.692  -5.353  1.00 20.00     0.129 C 
HETATM    2  C2  UNL     1     -34.943  14.578  -4.157  1.00 20.00     0.093 C 
HETATM    3  C3  UNL     1     -34.555  13.976  -6.674  1.00 20.00     0.093 C 
HETATM    4  C4  UNL     1     -35.883  16.617  -5.348  1.00 20.00     0.017 C 
HETATM    5  C5  UNL     1     -35.657  16.262  -6.829  1.00 20.00     0.017 C 
HETATM    6  C6  UNL     1     -34.733  16.051  -4.509  1.00 20.00     0.054 C 
HETATM    7  C7  UNL     1     -34.356  15.464  -6.966  1.00 20.00     0.054 C 
HETATM    8  O8  UNL     1     -35.978  12.700  -5.229  1.00 20.00    -0.298 OA
HETATM    9  S9  UNL     1     -33.344  16.182  -5.655  1.00 20.00    -0.159 SA
ENDROOT
TORSDOF 0
ENDMDL
MODEL 9
REMARK VINA RESULT:      -3.6      2.107      3.182
REMARK  0 active torsions:
REMARK  status: ('A' for Active; 'I' for Inactive)
ROOT
HETATM    1  C1  UNL     1     -35.049  16.462  -2.640  1.00 20.00     0.129 C 
HETATM    2  C2  UNL     1     -36.218  16.107  -3.546  1.00 20.00     0.093 C 
HETATM    3  C3  UNL     1     -33.710  16.806  -3.278  1.00 20.00     0.093 C 
HETATM    4  C4  UNL     1     -34.992  14.060  -4.423  1.00 20.00     0.017 C 
HETATM    5  C5  UNL     1     -33.517  14.471  -4.264  1.00 20.00     0.017 C 
HETATM    6  C6  UNL     1     -35.826  15.294  -4.781  1.00 20.00     0.054 C 
HETATM    7  C7  UNL     1     -33.380  15.976  -4.518  1.00 20.00     0.054 C 
HETATM    8  O8  UNL     1     -35.209  16.573  -1.422  1.00 20.00    -0.298 OA
HETATM    9  S9  UNL     1     -34.657  16.257  -5.763  1.00 20.00    -0.159 SA
ENDROOT
TORSDOF 0
ENDMDL
