MODEL 1
REMARK VINA RESULT:      -4.8      0.000      0.000
REMARK  2 active torsions:
REMARK  status: ('A' for Active; 'I' for Inactive)
REMARK    1  A    between atoms: C4_4  and  C10_10 
REMARK    2  A    between atoms: C10_10  and  O11_11 
ROOT
HETATM    1  C1  UNL     1     -33.183   6.998   4.039  1.00 20.00    -0.069 C 
HETATM    2  C2  UNL     1     -33.887   6.797   5.156  1.00 20.00    -0.085 C 
HETATM    3  C3  UNL     1     -32.023   7.914   3.727  1.00 20.00     0.043 C 
HETATM    4  C4  UNL     1     -32.299   7.572   2.240  1.00 20.00     0.025 C 
HETATM    5  C5  UNL     1     -33.247   6.382   2.644  1.00 20.00    -0.018 C 
HETATM    6  C6  UNL     1     -35.020   5.812   5.220  1.00 20.00     0.043 C 
HETATM    7  C7  UNL     1     -33.597   7.543   6.428  1.00 20.00     0.043 C 
HETATM    8  C8  UNL     1     -34.637   6.359   2.010  1.00 20.00     0.020 C 
HETATM    9  C9  UNL     1     -32.571   5.012   2.536  1.00 20.00     0.020 C 
ENDROOT
BRANCH   4  10
HETATM   10  C10 UNL     1     -32.858   8.734   1.424  1.00 20.00     0.170 C 
BRANCH  10  11
HETATM   11  O11 UNL     1     -31.905   9.101   0.441  1.00 20.00    -0.400 OA
HETATM   12  H29 UNL     1     -32.256   8.809  -0.416  1.00 20.00     0.209 HD
ENDBRANCH  10  11
ENDBRANCH   4  10
TORSDOF 2
ENDMDL
MODEL 2
REMARK VINA RESULT:      -4.7     10.757     11.666
REMARK  2 active torsions:
REMARK  status: ('A' for Active; 'I' for Inactive)
REMARK    1  A    between atoms: C4_4  and  C10_10 
REMARK    2  A    between atoms: C10_10  and  O11_11 
ROOT
HETATM    1  C1  UNL     1     -35.045  16.169  -3.398  1.00 20.00    -0.069 C 
HETATM    2  C2  UNL     1     -34.670  16.783  -2.272  1.00 20.00    -0.085 C 
HETATM    3  C3  UNL     1     -36.387  15.674  -3.880  1.00 20.00     0.043 C 
HETATM    4  C4  UNL     1     -35.590  14.922  -4.976  1.00 20.00     0.025 C 
HETATM    5  C5  UNL     1     -34.285  15.737  -4.649  1.00 20.00    -0.018 C 
HETATM    6  C6  UNL     1     -33.244  17.184  -2.017  1.00 20.00     0.043 C 
HETATM    7  C7  UNL     1     -35.648  17.115  -1.180  1.00 20.00     0.043 C 
HETATM    8  C8  UNL     1     -33.013  14.932  -4.388  1.00 20.00     0.020 C 
HETATM    9  C9  UNL     1     -34.021  16.873  -5.642  1.00 20.00     0.020 C 
ENDROOT
BRANCH   4  10
HETATM   10  C10 UNL     1     -35.587  13.403  -4.817  1.00 20.00     0.170 C 
BRANCH  10  11
HETATM   11  O11 UNL     1     -35.488  12.811  -6.100  1.00 20.00    -0.400 OA
HETATM   12  H29 UNL     1     -34.591  12.447  -6.176  1.00 20.00     0.209 HD
ENDBRANCH  10  11
ENDBRANCH   4  10
TORSDOF 2
ENDMDL
MODEL 3
REMARK VINA RESULT:      -4.1     11.107     12.892
REMARK  2 active torsions:
REMARK  status: ('A' for Active; 'I' for Inactive)
REMARK    1  A    between atoms: C4_4  and  C10_10 
REMARK    2  A    between atoms: C10_10  and  O11_11 
ROOT
HETATM    1  C1  UNL     1     -34.009  16.151  -6.066  1.00 20.00    -0.069 C 
HETATM    2  C2  UNL     1     -33.890  17.479  -6.135  1.00 20.00    -0.085 C 
HETATM    3  C3  UNL     1     -34.229  15.100  -7.128  1.00 20.00     0.043 C 
HETATM    4  C4  UNL     1     -34.532  14.137  -5.952  1.00 20.00     0.025 C 
HETATM    5  C5  UNL     1     -33.955  15.161  -4.906  1.00 20.00    -0.018 C 
HETATM    6  C6  UNL     1     -33.672  18.327  -4.914  1.00 20.00     0.043 C 
HETATM    7  C7  UNL     1     -33.967  18.222  -7.440  1.00 20.00     0.043 C 
HETATM    8  C8  UNL     1     -34.846  15.510  -3.715  1.00 20.00     0.020 C 
HETATM    9  C9  UNL     1     -32.535  14.816  -4.447  1.00 20.00     0.020 C 
ENDROOT
BRANCH   4  10
HETATM   10  C10 UNL     1     -35.993  13.707  -5.855  1.00 20.00     0.170 C 
BRANCH  10  11
HETATM   11  O11 UNL     1     -36.077  12.561  -5.025  1.00 20.00    -0.400 OA
HETATM   12  H29 UNL     1     -36.878  12.660  -4.485  1.00 20.00     0.209 HD
ENDBRANCH  10  11
ENDBRANCH   4  10
TORSDOF 2
ENDMDL
MODEL 4
REMARK VINA RESULT:      -4.1     10.834     12.006
REMARK  2 active torsions:
REMARK  status: ('A' for Active; 'I' for Inactive)
REMARK    1  A    between atoms: C4_4  and  C10_10 
REMARK    2  A    between atoms: C10_10  and  O11_11 
ROOT
HETATM    1  C1  UNL     1     -35.216  15.617  -4.082  1.00 20.00    -0.069 C 
HETATM    2  C2  UNL     1     -36.239  15.197  -4.831  1.00 20.00    -0.085 C 
HETATM    3  C3  UNL     1     -35.150  16.158  -2.673  1.00 20.00     0.043 C 
HETATM    4  C4  UNL     1     -33.702  16.585  -3.025  1.00 20.00     0.025 C 
HETATM    5  C5  UNL     1     -33.713  15.706  -4.330  1.00 20.00    -0.018 C 
HETATM    6  C6  UNL     1     -36.048  14.694  -6.234  1.00 20.00     0.043 C 
HETATM    7  C7  UNL     1     -37.654  15.199  -4.324  1.00 20.00     0.043 C 
HETATM    8  C8  UNL     1     -33.311  16.396  -5.633  1.00 20.00     0.020 C 
HETATM    9  C9  UNL     1     -32.974  14.375  -4.164  1.00 20.00     0.020 C 
ENDROOT
BRANCH   4  10
HETATM   10  C10 UNL     1     -33.505  18.095  -3.138  1.00 20.00     0.170 C 
BRANCH  10  11
HETATM   11  O11 UNL     1     -32.587  18.510  -2.141  1.00 20.00    -0.400 OA
HETATM   12  H29 UNL     1     -32.494  19.473  -2.225  1.00 20.00     0.209 HD
ENDBRANCH  10  11
ENDBRANCH   4  10
TORSDOF 2
ENDMDL
MODEL 5
REMARK VINA RESULT:      -4.1     10.834     11.988
REMARK  2 active torsions:
REMARK  status: ('A' for Active; 'I' for Inactive)
REMARK    1  A    between atoms: C4_4  and  C10_10 
REMARK    2  A    between atoms: C10_10  and  O11_11 
ROOT
HETATM    1  C1  UNL     1     -35.577  15.461  -4.093  1.00 20.00    -0.069 C 
HETATM    2  C2  UNL     1     -35.744  16.432  -3.192  1.00 20.00    -0.085 C 
HETATM    3  C3  UNL     1     -34.577  14.333  -4.190  1.00 20.00     0.043 C 
HETATM    4  C4  UNL     1     -35.087  14.155  -5.642  1.00 20.00     0.025 C 
HETATM    5  C5  UNL     1     -36.326  15.086  -5.369  1.00 20.00    -0.018 C 
HETATM    6  C6  UNL     1     -36.833  17.460  -3.317  1.00 20.00     0.043 C 
HETATM    7  C7  UNL     1     -34.853  16.567  -1.989  1.00 20.00     0.043 C 
HETATM    8  C8  UNL     1     -36.557  16.237  -6.346  1.00 20.00     0.020 C 
HETATM    9  C9  UNL     1     -37.621  14.305  -5.124  1.00 20.00     0.020 C 
ENDROOT
BRANCH   4  10
HETATM   10  C10 UNL     1     -34.074  14.550  -6.714  1.00 20.00     0.170 C 
BRANCH  10  11
HETATM   11  O11 UNL     1     -33.990  13.505  -7.669  1.00 20.00    -0.400 OA
HETATM   12  H29 UNL     1     -33.064  13.211  -7.687  1.00 20.00     0.209 HD
ENDBRANCH  10  11
ENDBRANCH   4  10
TORSDOF 2
ENDMDL
MODEL 6
REMARK VINA RESULT:      -4.0     10.860     12.414
REMARK  2 active torsions:
REMARK  status: ('A' for Active; 'I' for Inactive)
REMARK    1  A    between atoms: C4_4  and  C10_10 
REMARK    2  A    between atoms: C10_10  and  O11_11 
ROOT
HETATM    1  C1  UNL     1     -34.942  14.473  -5.817  1.00 20.00    -0.069 C 
HETATM    2  C2  UNL     1     -34.816  14.236  -7.125  1.00 20.00    -0.085 C 
HETATM    3  C3  UNL     1     -36.009  14.091  -4.819  1.00 20.00     0.043 C 
HETATM    4  C4  UNL     1     -35.328  15.109  -3.870  1.00 20.00     0.025 C 
HETATM    5  C5  UNL     1     -34.064  15.200  -4.802  1.00 20.00    -0.018 C 
HETATM    6  C6  UNL     1     -33.639  14.732  -7.917  1.00 20.00     0.043 C 
HETATM    7  C7  UNL     1     -35.844  13.459  -7.899  1.00 20.00     0.043 C 
HETATM    8  C8  UNL     1     -33.611  16.598  -5.222  1.00 20.00     0.020 C 
HETATM    9  C9  UNL     1     -32.881  14.370  -4.293  1.00 20.00     0.020 C 
ENDROOT
BRANCH   4  10
HETATM   10  C10 UNL     1     -36.155  16.365  -3.602  1.00 20.00     0.170 C 
BRANCH  10  11
HETATM   11  O11 UNL     1     -36.148  16.626  -2.209  1.00 20.00    -0.400 OA
HETATM   12  H29 UNL     1     -35.595  17.412  -2.070  1.00 20.00     0.209 HD
ENDBRANCH  10  11
ENDBRANCH   4  10
TORSDOF 2
ENDMDL
MODEL 7
REMARK VINA RESULT:      -3.9     11.116     12.217
REMARK  2 active torsions:
REMARK  status: ('A' for Active; 'I' for Inactive)
REMARK    1  A    between atoms: C4_4  and  C10_10 
REMARK    2  A    between atoms: C10_10  and  O11_11 
ROOT
HETATM    1  C1  UNL     1     -35.256  15.688  -4.577  1.00 20.00    -0.069 C 
HETATM    2  C2  UNL     1     -34.091  15.620  -3.928  1.00 20.00    -0.085 C 
HETATM    3  C3  UNL     1     -36.448  16.603  -4.421  1.00 20.00     0.043 C 
HETATM    4  C4  UNL     1     -37.196  15.600  -5.334  1.00 20.00     0.025 C 
HETATM    5  C5  UNL     1     -35.849  14.893  -5.737  1.00 20.00    -0.018 C 
HETATM    6  C6  UNL     1     -33.043  14.600  -4.273  1.00 20.00     0.043 C 
HETATM    7  C7  UNL     1     -33.745  16.559  -2.807  1.00 20.00     0.043 C 
HETATM    8  C8  UNL     1     -35.790  13.374  -5.578  1.00 20.00     0.020 C 
HETATM    9  C9  UNL     1     -35.333  15.321  -7.114  1.00 20.00     0.020 C 
ENDROOT
BRANCH   4  10
HETATM   10  C10 UNL     1     -38.283  14.797  -4.624  1.00 20.00     0.170 C 
BRANCH  10  11
HETATM   11  O11 UNL     1     -39.133  14.219  -5.600  1.00 20.00    -0.400 OA
HETATM   12  H29 UNL     1     -39.412  14.935  -6.193  1.00 20.00     0.209 HD
ENDBRANCH  10  11
ENDBRANCH   4  10
TORSDOF 2
ENDMDL
MODEL 8
REMARK VINA RESULT:      -3.9     10.801     12.373
REMARK  2 active torsions:
REMARK  status: ('A' for Active; 'I' for Inactive)
REMARK    1  A    between atoms: C4_4  and  C10_10 
REMARK    2  A    between atoms: C10_10  and  O11_11 
ROOT
HETATM    1  C1  UNL     1     -35.694  16.038  -4.912  1.00 20.00    -0.069 C 
HETATM    2  C2  UNL     1     -36.357  17.071  -5.437  1.00 20.00    -0.085 C 
HETATM    3  C3  UNL     1     -35.062  15.826  -3.557  1.00 20.00     0.043 C 
HETATM    4  C4  UNL     1     -34.377  14.590  -4.193  1.00 20.00     0.025 C 
HETATM    5  C5  UNL     1     -35.322  14.659  -5.450  1.00 20.00    -0.018 C 
HETATM    6  C6  UNL     1     -36.900  17.043  -6.838  1.00 20.00     0.043 C 
HETATM    7  C7  UNL     1     -36.605  18.337  -4.665  1.00 20.00     0.043 C 
HETATM    8  C8  UNL     1     -34.650  14.658  -6.822  1.00 20.00     0.020 C 
HETATM    9  C9  UNL     1     -36.465  13.640  -5.399  1.00 20.00     0.020 C 
ENDROOT
BRANCH   4  10
HETATM   10  C10 UNL     1     -32.869  14.736  -4.378  1.00 20.00     0.170 C 
BRANCH  10  11
HETATM   11  O11 UNL     1     -32.268  13.459  -4.249  1.00 20.00    -0.400 OA
HETATM   12  H29 UNL     1     -32.925  12.806  -4.543  1.00 20.00     0.209 HD
ENDBRANCH  10  11
ENDBRANCH   4  10
TORSDOF 2
ENDMDL
MODEL 9
REMARK VINA RESULT:      -3.8     10.762     12.173
REMARK  2 active torsions:
REMARK  status: ('A' for Active; 'I' for Inactive)
REMARK    1  A    between atoms: C4_4  and  C10_10 
REMARK    2  A    between atoms: C10_10  and  O11_11 
ROOT
HETATM    1  C1  UNL     1     -34.168  16.565  -3.779  1.00 20.00    -0.069 C 
HETATM    2  C2  UNL     1     -34.109  17.103  -2.558  1.00 20.00    -0.085 C 
HETATM    3  C3  UNL     1     -33.350  16.797  -5.026  1.00 20.00     0.043 C 
HETATM    4  C4  UNL     1     -34.453  15.997  -5.764  1.00 20.00     0.025 C 
HETATM    5  C5  UNL     1     -35.064  15.497  -4.402  1.00 20.00    -0.018 C 
HETATM    6  C6  UNL     1     -35.053  16.701  -1.460  1.00 20.00     0.043 C 
HETATM    7  C7  UNL     1     -33.093  18.150  -2.195  1.00 20.00     0.043 C 
HETATM    8  C8  UNL     1     -36.563  15.709  -4.196  1.00 20.00     0.020 C 
HETATM    9  C9  UNL     1     -34.659  14.062  -4.052  1.00 20.00     0.020 C 
ENDROOT
BRANCH   4  10
HETATM   10  C10 UNL     1     -35.310  16.837  -6.708  1.00 20.00     0.170 C 
BRANCH  10  11
HETATM   11  O11 UNL     1     -35.744  16.018  -7.780  1.00 20.00    -0.400 OA
HETATM   12  H29 UNL     1     -35.951  15.146  -7.405  1.00 20.00     0.209 HD
ENDBRANCH  10  11
ENDBRANCH   4  10
TORSDOF 2
ENDMDL
