MODEL 1
REMARK VINA RESULT:      -4.9      0.000      0.000
REMARK  1 active torsions:
REMARK  status: ('A' for Active; 'I' for Inactive)
REMARK    1  A    between atoms: C2_2  and  C3_3 
ROOT
HETATM    1  C1  UNL     1     -33.185   7.317   3.353  1.00 20.00     0.010 C 
HETATM    2  C2  UNL     1     -32.543   8.469   3.128  1.00 20.00     0.074 C 
HETATM    3  C4  UNL     1     -33.542   6.355   2.245  1.00 20.00     0.058 C 
HETATM    4  C5  UNL     1     -33.796   5.050   3.004  1.00 20.00     0.026 C 
HETATM    5  C6  UNL     1     -34.278   5.493   4.387  1.00 20.00     0.122 C 
HETATM    6  C8  UNL     1     -33.624   7.432   5.843  1.00 20.00     0.149 C 
HETATM    7  N9  UNL     1     -33.620   6.781   4.552  1.00 20.00    -0.388 N 
ENDROOT
BRANCH   2   8
HETATM    8  C3  UNL     1     -32.144   8.859   1.749  1.00 20.00     0.147 C 
HETATM    9  C7  UNL     1     -32.892  10.011   1.132  1.00 20.00     0.096 C 
HETATM   10  O10 UNL     1     -31.236   8.294   1.145  1.00 20.00    -0.294 OA
ENDBRANCH   2   8
TORSDOF 1
ENDMDL
MODEL 2
REMARK VINA RESULT:      -4.7      1.124      2.269
REMARK  1 active torsions:
REMARK  status: ('A' for Active; 'I' for Inactive)
REMARK    1  A    between atoms: C2_2  and  C3_3 
ROOT
HETATM    1  C1  UNL     1     -33.296   6.701   3.953  1.00 20.00     0.010 C 
HETATM    2  C2  UNL     1     -32.839   6.922   2.715  1.00 20.00     0.074 C 
HETATM    3  C4  UNL     1     -33.080   7.674   5.087  1.00 20.00     0.058 C 
HETATM    4  C5  UNL     1     -34.143   7.247   6.102  1.00 20.00     0.026 C 
HETATM    5  C6  UNL     1     -34.343   5.752   5.849  1.00 20.00     0.122 C 
HETATM    6  C8  UNL     1     -34.320   4.396   3.735  1.00 20.00     0.149 C 
HETATM    7  N9  UNL     1     -34.022   5.626   4.435  1.00 20.00    -0.388 N 
ENDROOT
BRANCH   2   8
HETATM    8  C3  UNL     1     -32.084   8.163   2.396  1.00 20.00     0.147 C 
HETATM    9  C7  UNL     1     -32.610   9.000   1.261  1.00 20.00     0.096 C 
HETATM   10  O10 UNL     1     -31.094   8.510   3.037  1.00 20.00    -0.294 OA
ENDBRANCH   2   8
TORSDOF 1
ENDMDL
MODEL 3
REMARK VINA RESULT:      -4.0     10.734     11.611
REMARK  1 active torsions:
REMARK  status: ('A' for Active; 'I' for Inactive)
REMARK    1  A    between atoms: C2_2  and  C3_3 
ROOT
HETATM    1  C1  UNL     1     -35.715  15.601  -4.141  1.00 20.00     0.010 C 
HETATM    2  C2  UNL     1     -36.370  14.932  -5.097  1.00 20.00     0.074 C 
HETATM    3  C4  UNL     1     -34.351  15.186  -3.646  1.00 20.00     0.058 C 
HETATM    4  C5  UNL     1     -33.840  16.459  -2.965  1.00 20.00     0.026 C 
HETATM    5  C6  UNL     1     -35.103  17.176  -2.487  1.00 20.00     0.122 C 
HETATM    6  C8  UNL     1     -37.391  17.386  -3.500  1.00 20.00     0.149 C 
HETATM    7  N9  UNL     1     -36.099  16.740  -3.455  1.00 20.00    -0.388 N 
ENDROOT
BRANCH   2   8
HETATM    8  C3  UNL     1     -35.769  13.725  -5.725  1.00 20.00     0.147 C 
HETATM    9  C7  UNL     1     -34.995  13.942  -6.998  1.00 20.00     0.096 C 
HETATM   10  O10 UNL     1     -35.871  12.607  -5.226  1.00 20.00    -0.294 OA
ENDBRANCH   2   8
TORSDOF 1
ENDMDL
MODEL 4
REMARK VINA RESULT:      -4.0     11.196     12.281
REMARK  1 active torsions:
REMARK  status: ('A' for Active; 'I' for Inactive)
REMARK    1  A    between atoms: C2_2  and  C3_3 
ROOT
HETATM    1  C1  UNL     1     -34.950  15.808  -5.097  1.00 20.00     0.010 C 
HETATM    2  C2  UNL     1     -35.605  15.001  -5.941  1.00 20.00     0.074 C 
HETATM    3  C4  UNL     1     -35.015  15.643  -3.598  1.00 20.00     0.058 C 
HETATM    4  C5  UNL     1     -33.791  16.429  -3.121  1.00 20.00     0.026 C 
HETATM    5  C6  UNL     1     -33.586  17.509  -4.184  1.00 20.00     0.122 C 
HETATM    6  C8  UNL     1     -33.899  17.484  -6.676  1.00 20.00     0.149 C 
HETATM    7  N9  UNL     1     -34.122  16.879  -5.381  1.00 20.00    -0.388 N 
ENDROOT
BRANCH   2   8
HETATM    8  C3  UNL     1     -36.441  13.884  -5.426  1.00 20.00     0.147 C 
HETATM    9  C7  UNL     1     -37.899  14.183  -5.199  1.00 20.00     0.096 C 
HETATM   10  O10 UNL     1     -35.982  12.764  -5.219  1.00 20.00    -0.294 OA
ENDBRANCH   2   8
TORSDOF 1
ENDMDL
MODEL 5
REMARK VINA RESULT:      -3.9     10.844     11.663
REMARK  1 active torsions:
REMARK  status: ('A' for Active; 'I' for Inactive)
REMARK    1  A    between atoms: C2_2  and  C3_3 
ROOT
HETATM    1  C1  UNL     1     -35.426  15.275  -4.269  1.00 20.00     0.010 C 
HETATM    2  C2  UNL     1     -35.942  14.468  -5.204  1.00 20.00     0.074 C 
HETATM    3  C4  UNL     1     -36.263  16.265  -3.497  1.00 20.00     0.058 C 
HETATM    4  C5  UNL     1     -35.383  16.573  -2.283  1.00 20.00     0.026 C 
HETATM    5  C6  UNL     1     -33.951  16.369  -2.780  1.00 20.00     0.122 C 
HETATM    6  C8  UNL     1     -32.960  14.716  -4.391  1.00 20.00     0.149 C 
HETATM    7  N9  UNL     1     -34.119  15.368  -3.823  1.00 20.00    -0.388 N 
ENDROOT
BRANCH   2   8
HETATM    8  C3  UNL     1     -37.393  14.514  -5.528  1.00 20.00     0.147 C 
HETATM    9  C7  UNL     1     -37.795  15.375  -6.695  1.00 20.00     0.096 C 
HETATM   10  O10 UNL     1     -38.225  13.866  -4.899  1.00 20.00    -0.294 OA
ENDBRANCH   2   8
TORSDOF 1
ENDMDL
MODEL 6
REMARK VINA RESULT:      -3.9     10.787     11.983
REMARK  1 active torsions:
REMARK  status: ('A' for Active; 'I' for Inactive)
REMARK    1  A    between atoms: C2_2  and  C3_3 
ROOT
HETATM    1  C1  UNL     1     -33.630  16.974  -3.634  1.00 20.00     0.010 C 
HETATM    2  C2  UNL     1     -33.482  16.111  -4.646  1.00 20.00     0.074 C 
HETATM    3  C4  UNL     1     -34.073  16.545  -2.257  1.00 20.00     0.058 C 
HETATM    4  C5  UNL     1     -33.637  17.723  -1.382  1.00 20.00     0.026 C 
HETATM    5  C6  UNL     1     -33.680  18.934  -2.314  1.00 20.00     0.122 C 
HETATM    6  C8  UNL     1     -33.131  19.189  -4.751  1.00 20.00     0.149 C 
HETATM    7  N9  UNL     1     -33.414  18.341  -3.616  1.00 20.00    -0.388 N 
ENDROOT
BRANCH   2   8
HETATM    8  C3  UNL     1     -33.754  14.661  -4.452  1.00 20.00     0.147 C 
HETATM    9  C7  UNL     1     -35.187  14.220  -4.590  1.00 20.00     0.096 C 
HETATM   10  O10 UNL     1     -32.859  13.853  -4.217  1.00 20.00    -0.294 OA
ENDBRANCH   2   8
TORSDOF 1
ENDMDL
MODEL 7
REMARK VINA RESULT:      -3.8     10.823     11.246
REMARK  1 active torsions:
REMARK  status: ('A' for Active; 'I' for Inactive)
REMARK    1  A    between atoms: C2_2  and  C3_3 
ROOT
HETATM    1  C1  UNL     1     -34.120  17.150  -1.782  1.00 20.00     0.010 C 
HETATM    2  C2  UNL     1     -33.568  16.617  -2.878  1.00 20.00     0.074 C 
HETATM    3  C4  UNL     1     -35.585  16.995  -1.452  1.00 20.00     0.058 C 
HETATM    4  C5  UNL     1     -35.628  17.324   0.043  1.00 20.00     0.026 C 
HETATM    5  C6  UNL     1     -34.462  18.289   0.261  1.00 20.00     0.122 C 
HETATM    6  C8  UNL     1     -32.172  18.404  -0.763  1.00 20.00     0.149 C 
HETATM    7  N9  UNL     1     -33.523  17.890  -0.776  1.00 20.00    -0.388 N 
ENDROOT
BRANCH   2   8
HETATM    8  C3  UNL     1     -34.391  15.834  -3.838  1.00 20.00     0.147 C 
HETATM    9  C7  UNL     1     -35.022  16.602  -4.968  1.00 20.00     0.096 C 
HETATM   10  O10 UNL     1     -34.534  14.618  -3.737  1.00 20.00    -0.294 OA
ENDBRANCH   2   8
TORSDOF 1
ENDMDL
MODEL 8
REMARK VINA RESULT:      -3.8     10.616     11.403
REMARK  1 active torsions:
REMARK  status: ('A' for Active; 'I' for Inactive)
REMARK    1  A    between atoms: C2_2  and  C3_3 
ROOT
HETATM    1  C1  UNL     1     -34.425  17.358  -1.327  1.00 20.00     0.010 C 
HETATM    2  C2  UNL     1     -35.263  16.716  -2.149  1.00 20.00     0.074 C 
HETATM    3  C4  UNL     1     -33.019  17.732  -1.727  1.00 20.00     0.058 C 
HETATM    4  C5  UNL     1     -32.657  18.815  -0.708  1.00 20.00     0.026 C 
HETATM    5  C6  UNL     1     -33.481  18.470   0.534  1.00 20.00     0.122 C 
HETATM    6  C8  UNL     1     -35.793  17.527   0.796  1.00 20.00     0.149 C 
HETATM    7  N9  UNL     1     -34.642  17.803  -0.034  1.00 20.00    -0.388 N 
ENDROOT
BRANCH   2   8
HETATM    8  C3  UNL     1     -34.835  16.335  -3.521  1.00 20.00     0.147 C 
HETATM    9  C7  UNL     1     -34.390  14.910  -3.718  1.00 20.00     0.096 C 
HETATM   10  O10 UNL     1     -34.863  17.127  -4.460  1.00 20.00    -0.294 OA
ENDBRANCH   2   8
TORSDOF 1
ENDMDL
MODEL 9
REMARK VINA RESULT:      -3.8     10.659     11.568
REMARK  1 active torsions:
REMARK  status: ('A' for Active; 'I' for Inactive)
REMARK    1  A    between atoms: C2_2  and  C3_3 
ROOT
HETATM    1  C1  UNL     1     -35.686  15.672  -3.925  1.00 20.00     0.010 C 
HETATM    2  C2  UNL     1     -34.902  14.612  -4.158  1.00 20.00     0.074 C 
HETATM    3  C4  UNL     1     -36.872  16.013  -4.794  1.00 20.00     0.058 C 
HETATM    4  C5  UNL     1     -37.688  16.946  -3.896  1.00 20.00     0.026 C 
HETATM    5  C6  UNL     1     -36.653  17.616  -2.991  1.00 20.00     0.122 C 
HETATM    6  C8  UNL     1     -34.537  16.756  -1.947  1.00 20.00     0.149 C 
HETATM    7  N9  UNL     1     -35.605  16.610  -2.911  1.00 20.00    -0.388 N 
ENDROOT
BRANCH   2   8
HETATM    8  C3  UNL     1     -35.171  13.708  -5.307  1.00 20.00     0.147 C 
HETATM    9  C7  UNL     1     -34.450  14.016  -6.592  1.00 20.00     0.096 C 
HETATM   10  O10 UNL     1     -35.922  12.740  -5.216  1.00 20.00    -0.294 OA
ENDBRANCH   2   8
TORSDOF 1
ENDMDL
