MODEL 1
REMARK VINA RESULT:      -5.2      0.000      0.000
REMARK  1 active torsions:
REMARK  status: ('A' for Active; 'I' for Inactive)
REMARK    1  A    between atoms: C6_6  and  C10_10 
ROOT
HETATM    1  C1  UNL     1     -34.139   5.097   4.054  1.00 20.00     0.053 C 
HETATM    2  C2  UNL     1     -34.379   5.629   5.262  1.00 20.00    -0.080 C 
HETATM    3  C3  UNL     1     -33.528   5.911   2.973  1.00 20.00     0.154 C 
HETATM    4  C4  UNL     1     -33.999   7.041   5.626  1.00 20.00     0.034 C 
HETATM    5  C5  UNL     1     -32.952   7.632   4.684  1.00 20.00     0.017 C 
HETATM    6  C6  UNL     1     -33.327   7.401   3.222  1.00 20.00     0.063 C 
HETATM    7  C7  UNL     1     -35.056   4.836   6.343  1.00 20.00     0.043 C 
HETATM    8  O11 UNL     1     -33.266   5.375   1.897  1.00 20.00    -0.293 OA
ENDROOT
BRANCH   6   9
HETATM    9  C10 UNL     1     -32.259   7.977   2.297  1.00 20.00    -0.011 C 
HETATM   10  C8  UNL     1     -32.820   9.144   1.487  1.00 20.00     0.010 C 
HETATM   11  C9  UNL     1     -31.035   8.417   3.097  1.00 20.00     0.010 C 
ENDBRANCH   6   9
TORSDOF 1
ENDMDL
MODEL 2
REMARK VINA RESULT:      -5.0      1.722      2.502
REMARK  1 active torsions:
REMARK  status: ('A' for Active; 'I' for Inactive)
REMARK    1  A    between atoms: C6_6  and  C10_10 
ROOT
HETATM    1  C1  UNL     1     -33.122   7.200   4.982  1.00 20.00     0.053 C 
HETATM    2  C2  UNL     1     -33.947   6.260   4.497  1.00 20.00    -0.080 C 
HETATM    3  C3  UNL     1     -32.295   8.031   4.068  1.00 20.00     0.154 C 
HETATM    4  C4  UNL     1     -34.143   6.023   3.022  1.00 20.00     0.034 C 
HETATM    5  C5  UNL     1     -33.683   7.203   2.168  1.00 20.00     0.017 C 
HETATM    6  C6  UNL     1     -32.294   7.682   2.585  1.00 20.00     0.063 C 
HETATM    7  C7  UNL     1     -34.738   5.371   5.412  1.00 20.00     0.043 C 
HETATM    8  O11 UNL     1     -31.594   8.923   4.543  1.00 20.00    -0.293 OA
ENDROOT
BRANCH   6   9
HETATM    9  C10 UNL     1     -31.861   8.875   1.738  1.00 20.00    -0.011 C 
HETATM   10  C8  UNL     1     -31.237   8.405   0.425  1.00 20.00     0.010 C 
HETATM   11  C9  UNL     1     -33.045   9.801   1.469  1.00 20.00     0.010 C 
ENDBRANCH   6   9
TORSDOF 1
ENDMDL
MODEL 3
REMARK VINA RESULT:      -4.8      1.073      4.132
REMARK  1 active torsions:
REMARK  status: ('A' for Active; 'I' for Inactive)
REMARK    1  A    between atoms: C6_6  and  C10_10 
ROOT
HETATM    1  C1  UNL     1     -33.180   7.400   1.664  1.00 20.00     0.053 C 
HETATM    2  C2  UNL     1     -32.090   8.122   1.966  1.00 20.00    -0.080 C 
HETATM    3  C3  UNL     1     -33.906   6.642   2.716  1.00 20.00     0.154 C 
HETATM    4  C4  UNL     1     -31.568   8.268   3.372  1.00 20.00     0.034 C 
HETATM    5  C5  UNL     1     -32.609   7.908   4.430  1.00 20.00     0.017 C 
HETATM    6  C6  UNL     1     -33.291   6.580   4.109  1.00 20.00     0.063 C 
HETATM    7  C7  UNL     1     -31.311   8.839   0.902  1.00 20.00     0.043 C 
HETATM    8  O11 UNL     1     -34.935   6.039   2.415  1.00 20.00    -0.293 OA
ENDROOT
BRANCH   6   9
HETATM    9  C10 UNL     1     -34.345   6.250   5.163  1.00 20.00    -0.011 C 
HETATM   10  C8  UNL     1     -34.334   4.757   5.486  1.00 20.00     0.010 C 
HETATM   11  C9  UNL     1     -34.118   7.075   6.427  1.00 20.00     0.010 C 
ENDBRANCH   6   9
TORSDOF 1
ENDMDL
MODEL 4
REMARK VINA RESULT:      -4.6      1.644      4.468
REMARK  1 active torsions:
REMARK  status: ('A' for Active; 'I' for Inactive)
REMARK    1  A    between atoms: C6_6  and  C10_10 
ROOT
HETATM    1  C1  UNL     1     -32.369   8.055   3.757  1.00 20.00     0.053 C 
HETATM    2  C2  UNL     1     -32.327   7.939   2.421  1.00 20.00    -0.080 C 
HETATM    3  C3  UNL     1     -33.324   7.249   4.560  1.00 20.00     0.154 C 
HETATM    4  C4  UNL     1     -33.179   6.960   1.656  1.00 20.00     0.034 C 
HETATM    5  C5  UNL     1     -33.737   5.845   2.540  1.00 20.00     0.017 C 
HETATM    6  C6  UNL     1     -34.355   6.408   3.818  1.00 20.00     0.063 C 
HETATM    7  C7  UNL     1     -31.413   8.795   1.593  1.00 20.00     0.043 C 
HETATM    8  O11 UNL     1     -33.295   7.336   5.787  1.00 20.00    -0.293 OA
ENDROOT
BRANCH   6   9
HETATM    9  C10 UNL     1     -34.884   5.279   4.699  1.00 20.00    -0.011 C 
HETATM   10  C8  UNL     1     -34.148   3.974   4.402  1.00 20.00     0.010 C 
HETATM   11  C9  UNL     1     -34.756   5.645   6.176  1.00 20.00     0.010 C 
ENDBRANCH   6   9
TORSDOF 1
ENDMDL
MODEL 5
REMARK VINA RESULT:      -4.6     11.611     12.273
REMARK  1 active torsions:
REMARK  status: ('A' for Active; 'I' for Inactive)
REMARK    1  A    between atoms: C6_6  and  C10_10 
ROOT
HETATM    1  C1  UNL     1     -33.525  18.668   0.362  1.00 20.00     0.053 C 
HETATM    2  C2  UNL     1     -34.657  18.308   0.985  1.00 20.00    -0.080 C 
HETATM    3  C3  UNL     1     -33.183  18.116  -0.974  1.00 20.00     0.154 C 
HETATM    4  C4  UNL     1     -35.676  17.388   0.365  1.00 20.00     0.034 C 
HETATM    5  C5  UNL     1     -35.524  17.272  -1.150  1.00 20.00     0.017 C 
HETATM    6  C6  UNL     1     -34.072  17.017  -1.544  1.00 20.00     0.063 C 
HETATM    7  C7  UNL     1     -34.981  18.808   2.363  1.00 20.00     0.043 C 
HETATM    8  O11 UNL     1     -32.167  18.513  -1.543  1.00 20.00    -0.293 OA
ENDROOT
BRANCH   6   9
HETATM    9  C10 UNL     1     -33.935  16.929  -3.062  1.00 20.00    -0.011 C 
HETATM   10  C8  UNL     1     -34.221  15.509  -3.547  1.00 20.00     0.010 C 
HETATM   11  C9  UNL     1     -34.867  17.928  -3.744  1.00 20.00     0.010 C 
ENDBRANCH   6   9
TORSDOF 1
ENDMDL
MODEL 6
REMARK VINA RESULT:      -4.5     11.435     12.150
REMARK  1 active torsions:
REMARK  status: ('A' for Active; 'I' for Inactive)
REMARK    1  A    between atoms: C6_6  and  C10_10 
ROOT
HETATM    1  C1  UNL     1     -36.543  15.378  -4.461  1.00 20.00     0.053 C 
HETATM    2  C2  UNL     1     -35.630  14.445  -4.772  1.00 20.00    -0.080 C 
HETATM    3  C3  UNL     1     -36.290  16.359  -3.375  1.00 20.00     0.154 C 
HETATM    4  C4  UNL     1     -34.283  14.363  -4.102  1.00 20.00     0.034 C 
HETATM    5  C5  UNL     1     -33.896  15.659  -3.392  1.00 20.00     0.017 C 
HETATM    6  C6  UNL     1     -35.039  16.179  -2.524  1.00 20.00     0.063 C 
HETATM    7  C7  UNL     1     -35.901  13.408  -5.822  1.00 20.00     0.043 C 
HETATM    8  O11 UNL     1     -37.123  17.238  -3.157  1.00 20.00    -0.293 OA
ENDROOT
BRANCH   6   9
HETATM    9  C10 UNL     1     -34.643  17.486  -1.842  1.00 20.00    -0.011 C 
HETATM   10  C8  UNL     1     -35.124  17.505  -0.392  1.00 20.00     0.010 C 
HETATM   11  C9  UNL     1     -33.131  17.692  -1.910  1.00 20.00     0.010 C 
ENDBRANCH   6   9
TORSDOF 1
ENDMDL
MODEL 7
REMARK VINA RESULT:      -4.5     11.697     12.284
REMARK  1 active torsions:
REMARK  status: ('A' for Active; 'I' for Inactive)
REMARK    1  A    between atoms: C6_6  and  C10_10 
ROOT
HETATM    1  C1  UNL     1     -33.307  16.830  -2.776  1.00 20.00     0.053 C 
HETATM    2  C2  UNL     1     -34.161  17.164  -1.796  1.00 20.00    -0.080 C 
HETATM    3  C3  UNL     1     -33.740  15.959  -3.899  1.00 20.00     0.154 C 
HETATM    4  C4  UNL     1     -35.608  16.743  -1.792  1.00 20.00     0.034 C 
HETATM    5  C5  UNL     1     -36.101  16.307  -3.171  1.00 20.00     0.017 C 
HETATM    6  C6  UNL     1     -35.126  15.331  -3.826  1.00 20.00     0.063 C 
HETATM    7  C7  UNL     1     -33.718  17.989  -0.623  1.00 20.00     0.043 C 
HETATM    8  O11 UNL     1     -32.949  15.723  -4.811  1.00 20.00    -0.293 OA
ENDROOT
BRANCH   6   9
HETATM    9  C10 UNL     1     -35.622  14.926  -5.211  1.00 20.00    -0.011 C 
HETATM   10  C8  UNL     1     -35.997  13.445  -5.238  1.00 20.00     0.010 C 
HETATM   11  C9  UNL     1     -36.811  15.789  -5.630  1.00 20.00     0.010 C 
ENDBRANCH   6   9
TORSDOF 1
ENDMDL
MODEL 8
REMARK VINA RESULT:      -4.5      1.654      4.568
REMARK  1 active torsions:
REMARK  status: ('A' for Active; 'I' for Inactive)
REMARK    1  A    between atoms: C6_6  and  C10_10 
ROOT
HETATM    1  C1  UNL     1     -32.198   8.418   3.325  1.00 20.00     0.053 C 
HETATM    2  C2  UNL     1     -32.347   8.100   2.030  1.00 20.00    -0.080 C 
HETATM    3  C3  UNL     1     -32.840   7.602   4.388  1.00 20.00     0.154 C 
HETATM    4  C4  UNL     1     -33.106   6.883   1.568  1.00 20.00     0.034 C 
HETATM    5  C5  UNL     1     -33.292   5.846   2.674  1.00 20.00     0.017 C 
HETATM    6  C6  UNL     1     -33.795   6.493   3.962  1.00 20.00     0.063 C 
HETATM    7  C7  UNL     1     -31.758   8.953   0.945  1.00 20.00     0.043 C 
HETATM    8  O11 UNL     1     -32.634   7.887   5.566  1.00 20.00    -0.293 OA
ENDROOT
BRANCH   6   9
HETATM    9  C10 UNL     1     -33.951   5.447   5.062  1.00 20.00    -0.011 C 
HETATM   10  C8  UNL     1     -34.993   5.894   6.086  1.00 20.00     0.010 C 
HETATM   11  C9  UNL     1     -34.330   4.093   4.467  1.00 20.00     0.010 C 
ENDBRANCH   6   9
TORSDOF 1
ENDMDL
MODEL 9
REMARK VINA RESULT:      -4.4     11.897     12.597
REMARK  1 active torsions:
REMARK  status: ('A' for Active; 'I' for Inactive)
REMARK    1  A    between atoms: C6_6  and  C10_10 
ROOT
HETATM    1  C1  UNL     1     -31.539  18.887   0.664  1.00 20.00     0.053 C 
HETATM    2  C2  UNL     1     -31.866  18.877   1.965  1.00 20.00    -0.080 C 
HETATM    3  C3  UNL     1     -32.541  18.537  -0.375  1.00 20.00     0.154 C 
HETATM    4  C4  UNL     1     -33.258  18.578   2.458  1.00 20.00     0.034 C 
HETATM    5  C5  UNL     1     -34.317  18.731   1.367  1.00 20.00     0.017 C 
HETATM    6  C6  UNL     1     -33.898  18.017   0.084  1.00 20.00     0.063 C 
HETATM    7  C7  UNL     1     -30.846  19.165   3.028  1.00 20.00     0.043 C 
HETATM    8  O11 UNL     1     -32.224  18.615  -1.561  1.00 20.00    -0.293 OA
ENDROOT
BRANCH   6   9
HETATM    9  C10 UNL     1     -34.955  18.201  -1.002  1.00 20.00    -0.011 C 
HETATM   10  C8  UNL     1     -35.375  16.850  -1.579  1.00 20.00     0.010 C 
HETATM   11  C9  UNL     1     -36.166  18.951  -0.452  1.00 20.00     0.010 C 
ENDBRANCH   6   9
TORSDOF 1
ENDMDL
