MODEL 1
REMARK VINA RESULT:      -4.3      0.000      0.000
REMARK  2 active torsions:
REMARK  status: ('A' for Active; 'I' for Inactive)
REMARK    1  A    between atoms: C4_4  and  C10_10 
REMARK    2  A    between atoms: C10_10  and  O11_11 
ROOT
HETATM    1  C1  UNL     1     -34.119  16.361  -4.068  1.00 20.00    -0.069 C 
HETATM    2  C2  UNL     1     -33.947  17.440  -3.300  1.00 20.00    -0.085 C 
HETATM    3  C3  UNL     1     -33.852  14.895  -3.825  1.00 20.00     0.043 C 
HETATM    4  C4  UNL     1     -34.686  14.646  -5.107  1.00 20.00     0.025 C 
HETATM    5  C5  UNL     1     -34.632  16.170  -5.492  1.00 20.00    -0.018 C 
HETATM    6  C6  UNL     1     -34.295  18.824  -3.774  1.00 20.00     0.043 C 
HETATM    7  C7  UNL     1     -33.392  17.349  -1.905  1.00 20.00     0.043 C 
HETATM    8  C8  UNL     1     -33.595  16.480  -6.576  1.00 20.00     0.020 C 
HETATM    9  C9  UNL     1     -35.963  16.855  -5.797  1.00 20.00     0.020 C 
ENDROOT
BRANCH   4  10
HETATM   10  C10 UNL     1     -36.037  13.982  -4.854  1.00 20.00     0.170 C 
BRANCH  10  11
HETATM   11  O11 UNL     1     -35.923  12.597  -5.135  1.00 20.00    -0.400 OA
HETATM   12  H29 UNL     1     -35.052  12.462  -5.543  1.00 20.00     0.209 HD
ENDBRANCH  10  11
ENDBRANCH   4  10
TORSDOF 2
ENDMDL
MODEL 2
REMARK VINA RESULT:      -4.2      1.726      2.392
REMARK  2 active torsions:
REMARK  status: ('A' for Active; 'I' for Inactive)
REMARK    1  A    between atoms: C4_4  and  C10_10 
REMARK    2  A    between atoms: C10_10  and  O11_11 
ROOT
HETATM    1  C1  UNL     1     -34.927  16.221  -3.185  1.00 20.00    -0.069 C 
HETATM    2  C2  UNL     1     -34.568  16.867  -2.072  1.00 20.00    -0.085 C 
HETATM    3  C3  UNL     1     -36.225  15.576  -3.604  1.00 20.00     0.043 C 
HETATM    4  C4  UNL     1     -35.606  15.515  -5.023  1.00 20.00     0.025 C 
HETATM    5  C5  UNL     1     -34.177  15.860  -4.464  1.00 20.00    -0.018 C 
HETATM    6  C6  UNL     1     -33.187  17.433  -1.884  1.00 20.00     0.043 C 
HETATM    7  C7  UNL     1     -35.518  17.074  -0.925  1.00 20.00     0.043 C 
HETATM    8  C8  UNL     1     -33.270  14.633  -4.331  1.00 20.00     0.020 C 
HETATM    9  C9  UNL     1     -33.435  17.019  -5.128  1.00 20.00     0.020 C 
ENDROOT
BRANCH   4  10
HETATM   10  C10 UNL     1     -36.265  16.452  -6.033  1.00 20.00     0.170 C 
BRANCH  10  11
HETATM   11  O11 UNL     1     -36.370  15.780  -7.276  1.00 20.00    -0.400 OA
HETATM   12  H29 UNL     1     -35.470  15.711  -7.638  1.00 20.00     0.209 HD
ENDBRANCH  10  11
ENDBRANCH   4  10
TORSDOF 2
ENDMDL
MODEL 3
REMARK VINA RESULT:      -4.1      2.131      3.819
REMARK  2 active torsions:
REMARK  status: ('A' for Active; 'I' for Inactive)
REMARK    1  A    between atoms: C4_4  and  C10_10 
REMARK    2  A    between atoms: C10_10  and  O11_11 
ROOT
HETATM    1  C1  UNL     1     -33.826  16.027  -5.467  1.00 20.00    -0.069 C 
HETATM    2  C2  UNL     1     -33.913  15.988  -6.799  1.00 20.00    -0.085 C 
HETATM    3  C3  UNL     1     -33.627  17.169  -4.500  1.00 20.00     0.043 C 
HETATM    4  C4  UNL     1     -34.024  16.157  -3.397  1.00 20.00     0.025 C 
HETATM    5  C5  UNL     1     -33.875  14.947  -4.390  1.00 20.00    -0.018 C 
HETATM    6  C6  UNL     1     -34.117  14.701  -7.550  1.00 20.00     0.043 C 
HETATM    7  C7  UNL     1     -33.811  17.227  -7.644  1.00 20.00     0.043 C 
HETATM    8  C8  UNL     1     -32.559  14.182  -4.213  1.00 20.00     0.020 C 
HETATM    9  C9  UNL     1     -35.057  13.984  -4.492  1.00 20.00     0.020 C 
ENDROOT
BRANCH   4  10
HETATM   10  C10 UNL     1     -35.379  16.436  -2.750  1.00 20.00     0.170 C 
BRANCH  10  11
HETATM   11  O11 UNL     1     -35.184  16.659  -1.364  1.00 20.00    -0.400 OA
HETATM   12  H29 UNL     1     -36.066  16.758  -0.967  1.00 20.00     0.209 HD
ENDBRANCH  10  11
ENDBRANCH   4  10
TORSDOF 2
ENDMDL
MODEL 4
REMARK VINA RESULT:      -4.1      1.386      2.759
REMARK  2 active torsions:
REMARK  status: ('A' for Active; 'I' for Inactive)
REMARK    1  A    between atoms: C4_4  and  C10_10 
REMARK    2  A    between atoms: C10_10  and  O11_11 
ROOT
HETATM    1  C1  UNL     1     -35.268  16.990  -4.929  1.00 20.00    -0.069 C 
HETATM    2  C2  UNL     1     -34.731  18.151  -5.313  1.00 20.00    -0.085 C 
HETATM    3  C3  UNL     1     -36.526  16.270  -5.349  1.00 20.00     0.043 C 
HETATM    4  C4  UNL     1     -35.945  15.047  -4.597  1.00 20.00     0.025 C 
HETATM    5  C5  UNL     1     -34.846  15.937  -3.907  1.00 20.00    -0.018 C 
HETATM    6  C6  UNL     1     -33.441  18.666  -4.736  1.00 20.00     0.043 C 
HETATM    7  C7  UNL     1     -35.377  19.026  -6.351  1.00 20.00     0.043 C 
HETATM    8  C8  UNL     1     -35.188  16.300  -2.459  1.00 20.00     0.020 C 
HETATM    9  C9  UNL     1     -33.398  15.465  -4.025  1.00 20.00     0.020 C 
ENDROOT
BRANCH   4  10
HETATM   10  C10 UNL     1     -35.518  13.898  -5.507  1.00 20.00     0.170 C 
BRANCH  10  11
HETATM   11  O11 UNL     1     -35.967  12.679  -4.940  1.00 20.00    -0.400 OA
HETATM   12  H29 UNL     1     -36.158  12.076  -5.678  1.00 20.00     0.209 HD
ENDBRANCH  10  11
ENDBRANCH   4  10
TORSDOF 2
ENDMDL
MODEL 5
REMARK VINA RESULT:      -4.0      2.612      4.510
REMARK  2 active torsions:
REMARK  status: ('A' for Active; 'I' for Inactive)
REMARK    1  A    between atoms: C4_4  and  C10_10 
REMARK    2  A    between atoms: C10_10  and  O11_11 
ROOT
HETATM    1  C1  UNL     1     -34.529  15.044  -6.002  1.00 20.00    -0.069 C 
HETATM    2  C2  UNL     1     -35.481  14.169  -6.337  1.00 20.00    -0.085 C 
HETATM    3  C3  UNL     1     -33.728  16.029  -6.820  1.00 20.00     0.043 C 
HETATM    4  C4  UNL     1     -33.297  16.635  -5.462  1.00 20.00     0.025 C 
HETATM    5  C5  UNL     1     -33.856  15.391  -4.677  1.00 20.00    -0.018 C 
HETATM    6  C6  UNL     1     -36.143  13.279  -5.322  1.00 20.00     0.043 C 
HETATM    7  C7  UNL     1     -35.959  14.010  -7.754  1.00 20.00     0.043 C 
HETATM    8  C8  UNL     1     -32.763  14.406  -4.255  1.00 20.00     0.020 C 
HETATM    9  C9  UNL     1     -34.813  15.675  -3.521  1.00 20.00     0.020 C 
ENDROOT
BRANCH   4  10
HETATM   10  C10 UNL     1     -33.875  18.021  -5.184  1.00 20.00     0.170 C 
BRANCH  10  11
HETATM   11  O11 UNL     1     -32.805  18.925  -4.967  1.00 20.00    -0.400 OA
HETATM   12  H29 UNL     1     -33.173  19.822  -5.041  1.00 20.00     0.209 HD
ENDBRANCH  10  11
ENDBRANCH   4  10
TORSDOF 2
ENDMDL
MODEL 6
REMARK VINA RESULT:      -4.0      1.851      2.258
REMARK  2 active torsions:
REMARK  status: ('A' for Active; 'I' for Inactive)
REMARK    1  A    between atoms: C4_4  and  C10_10 
REMARK    2  A    between atoms: C10_10  and  O11_11 
ROOT
HETATM    1  C1  UNL     1     -34.838  16.936  -2.665  1.00 20.00    -0.069 C 
HETATM    2  C2  UNL     1     -35.289  17.502  -1.541  1.00 20.00    -0.085 C 
HETATM    3  C3  UNL     1     -33.476  16.424  -3.062  1.00 20.00     0.043 C 
HETATM    4  C4  UNL     1     -34.199  15.760  -4.261  1.00 20.00     0.025 C 
HETATM    5  C5  UNL     1     -35.503  16.598  -3.996  1.00 20.00    -0.018 C 
HETATM    6  C6  UNL     1     -36.719  17.937  -1.382  1.00 20.00     0.043 C 
HETATM    7  C7  UNL     1     -34.397  17.744  -0.355  1.00 20.00     0.043 C 
HETATM    8  C8  UNL     1     -35.652  17.794  -4.941  1.00 20.00     0.020 C 
HETATM    9  C9  UNL     1     -36.814  15.822  -3.886  1.00 20.00     0.020 C 
ENDROOT
BRANCH   4  10
HETATM   10  C10 UNL     1     -34.257  14.236  -4.190  1.00 20.00     0.170 C 
BRANCH  10  11
HETATM   11  O11 UNL     1     -33.700  13.704  -5.380  1.00 20.00    -0.400 OA
HETATM   12  H29 UNL     1     -33.507  12.767  -5.208  1.00 20.00     0.209 HD
ENDBRANCH  10  11
ENDBRANCH   4  10
TORSDOF 2
ENDMDL
MODEL 7
REMARK VINA RESULT:      -4.0      1.765      3.352
REMARK  2 active torsions:
REMARK  status: ('A' for Active; 'I' for Inactive)
REMARK    1  A    between atoms: C4_4  and  C10_10 
REMARK    2  A    between atoms: C10_10  and  O11_11 
ROOT
HETATM    1  C1  UNL     1     -35.780  16.119  -4.441  1.00 20.00    -0.069 C 
HETATM    2  C2  UNL     1     -36.679  16.913  -5.030  1.00 20.00    -0.085 C 
HETATM    3  C3  UNL     1     -35.558  14.628  -4.499  1.00 20.00     0.043 C 
HETATM    4  C4  UNL     1     -34.200  14.917  -3.810  1.00 20.00     0.025 C 
HETATM    5  C5  UNL     1     -34.636  16.389  -3.468  1.00 20.00    -0.018 C 
HETATM    6  C6  UNL     1     -36.698  18.400  -4.812  1.00 20.00     0.043 C 
HETATM    7  C7  UNL     1     -37.738  16.375  -5.953  1.00 20.00     0.043 C 
HETATM    8  C8  UNL     1     -35.082  16.562  -2.013  1.00 20.00     0.020 C 
HETATM    9  C9  UNL     1     -33.683  17.508  -3.884  1.00 20.00     0.020 C 
ENDROOT
BRANCH   4  10
HETATM   10  C10 UNL     1     -32.984  14.681  -4.702  1.00 20.00     0.170 C 
BRANCH  10  11
HETATM   11  O11 UNL     1     -32.286  13.542  -4.228  1.00 20.00    -0.400 OA
HETATM   12  H29 UNL     1     -31.566  13.867  -3.661  1.00 20.00     0.209 HD
ENDBRANCH  10  11
ENDBRANCH   4  10
TORSDOF 2
ENDMDL
MODEL 8
REMARK VINA RESULT:      -4.0      2.374      3.792
REMARK  2 active torsions:
REMARK  status: ('A' for Active; 'I' for Inactive)
REMARK    1  A    between atoms: C4_4  and  C10_10 
REMARK    2  A    between atoms: C10_10  and  O11_11 
ROOT
HETATM    1  C1  UNL     1     -35.524  15.639  -6.452  1.00 20.00    -0.069 C 
HETATM    2  C2  UNL     1     -36.684  16.289  -6.579  1.00 20.00    -0.085 C 
HETATM    3  C3  UNL     1     -34.092  16.116  -6.453  1.00 20.00     0.043 C 
HETATM    4  C4  UNL     1     -33.739  14.703  -5.925  1.00 20.00     0.025 C 
HETATM    5  C5  UNL     1     -35.174  14.164  -6.275  1.00 20.00    -0.018 C 
HETATM    6  C6  UNL     1     -38.008  15.578  -6.544  1.00 20.00     0.043 C 
HETATM    7  C7  UNL     1     -36.749  17.780  -6.766  1.00 20.00     0.043 C 
HETATM    8  C8  UNL     1     -35.212  13.352  -7.573  1.00 20.00     0.020 C 
HETATM    9  C9  UNL     1     -35.935  13.448  -5.160  1.00 20.00     0.020 C 
ENDROOT
BRANCH   4  10
HETATM   10  C10 UNL     1     -33.258  14.680  -4.476  1.00 20.00     0.170 C 
BRANCH  10  11
HETATM   11  O11 UNL     1     -32.329  13.621  -4.322  1.00 20.00    -0.400 OA
HETATM   12  H29 UNL     1     -32.222  13.475  -3.367  1.00 20.00     0.209 HD
ENDBRANCH  10  11
ENDBRANCH   4  10
TORSDOF 2
ENDMDL
MODEL 9
REMARK VINA RESULT:      -3.9      2.367      3.821
REMARK  2 active torsions:
REMARK  status: ('A' for Active; 'I' for Inactive)
REMARK    1  A    between atoms: C4_4  and  C10_10 
REMARK    2  A    between atoms: C10_10  and  O11_11 
ROOT
HETATM    1  C1  UNL     1     -35.275  15.722  -6.057  1.00 20.00    -0.069 C 
HETATM    2  C2  UNL     1     -34.538  15.856  -7.163  1.00 20.00    -0.085 C 
HETATM    3  C3  UNL     1     -36.137  16.698  -5.294  1.00 20.00     0.043 C 
HETATM    4  C4  UNL     1     -36.683  15.457  -4.545  1.00 20.00     0.025 C 
HETATM    5  C5  UNL     1     -35.530  14.550  -5.113  1.00 20.00    -0.018 C 
HETATM    6  C6  UNL     1     -33.751  14.713  -7.743  1.00 20.00     0.043 C 
HETATM    7  C7  UNL     1     -34.442  17.158  -7.908  1.00 20.00     0.043 C 
HETATM    8  C8  UNL     1     -34.405  14.304  -4.104  1.00 20.00     0.020 C 
HETATM    9  C9  UNL     1     -35.947  13.249  -5.796  1.00 20.00     0.020 C 
ENDROOT
BRANCH   4  10
HETATM   10  C10 UNL     1     -38.136  15.119  -4.870  1.00 20.00     0.170 C 
BRANCH  10  11
HETATM   11  O11 UNL     1     -38.897  15.184  -3.676  1.00 20.00    -0.400 OA
HETATM   12  H29 UNL     1     -39.674  15.737  -3.865  1.00 20.00     0.209 HD
ENDBRANCH  10  11
ENDBRANCH   4  10
TORSDOF 2
ENDMDL
