MODEL 1
REMARK VINA RESULT:      -4.6      0.000      0.000
REMARK  3 active torsions:
REMARK  status: ('A' for Active; 'I' for Inactive)
REMARK    1  A    between atoms: C1_1  and  C4_4 
REMARK    2  A    between atoms: C4_4  and  C5_5 
REMARK    3  A    between atoms: N6_6  and  O7_7 
ROOT
HETATM    1  C1  UNL     1     -33.989   6.273   4.318  1.00 20.00     0.035 C 
HETATM    2  C2  UNL     1     -33.807   7.154   5.532  1.00 20.00     0.068 C 
HETATM    3  N6  UNL     1     -34.605   5.131   4.336  1.00 20.00    -0.146 NA
ENDROOT
BRANCH   1   4
HETATM    4  C4  UNL     1     -33.450   6.772   2.991  1.00 20.00     0.056 C 
BRANCH   4   5
HETATM    5  C5  UNL     1     -32.249   7.696   3.169  1.00 20.00     0.001 C 
HETATM    6  C3  UNL     1     -31.919   8.483   1.909  1.00 20.00     0.005 C 
ENDBRANCH   4   5
ENDBRANCH   1   4
BRANCH   3   7
HETATM    7  O7  UNL     1     -35.066   4.827   5.618  1.00 20.00    -0.266 OA
HETATM    8  H18 UNL     1     -34.432   4.144   5.897  1.00 20.00     0.247 HD
ENDBRANCH   3   7
TORSDOF 3
ENDMDL
MODEL 2
REMARK VINA RESULT:      -4.5      2.746      3.586
REMARK  3 active torsions:
REMARK  status: ('A' for Active; 'I' for Inactive)
REMARK    1  A    between atoms: C1_1  and  C4_4 
REMARK    2  A    between atoms: C4_4  and  C5_5 
REMARK    3  A    between atoms: N6_6  and  O7_7 
ROOT
HETATM    1  C1  UNL     1     -33.416   7.166   4.031  1.00 20.00     0.035 C 
HETATM    2  C2  UNL     1     -33.387   7.510   5.502  1.00 20.00     0.068 C 
HETATM    3  N6  UNL     1     -32.509   7.535   3.180  1.00 20.00    -0.146 NA
ENDROOT
BRANCH   1   4
HETATM    4  C4  UNL     1     -34.558   6.304   3.526  1.00 20.00     0.056 C 
BRANCH   4   5
HETATM    5  C5  UNL     1     -34.992   5.265   4.556  1.00 20.00     0.001 C 
HETATM    6  C3  UNL     1     -34.183   3.977   4.470  1.00 20.00     0.005 C 
ENDBRANCH   4   5
ENDBRANCH   1   4
BRANCH   3   7
HETATM    7  O7  UNL     1     -31.515   8.294   3.802  1.00 20.00    -0.266 OA
HETATM    8  H18 UNL     1     -30.747   7.700   3.737  1.00 20.00     0.247 HD
ENDBRANCH   3   7
TORSDOF 3
ENDMDL
MODEL 3
REMARK VINA RESULT:      -4.5      1.049      1.113
REMARK  3 active torsions:
REMARK  status: ('A' for Active; 'I' for Inactive)
REMARK    1  A    between atoms: C1_1  and  C4_4 
REMARK    2  A    between atoms: C4_4  and  C5_5 
REMARK    3  A    between atoms: N6_6  and  O7_7 
ROOT
HETATM    1  C1  UNL     1     -33.670   6.916   4.357  1.00 20.00     0.035 C 
HETATM    2  C2  UNL     1     -33.915   7.064   5.841  1.00 20.00     0.068 C 
HETATM    3  N6  UNL     1     -34.400   6.187   3.570  1.00 20.00    -0.146 NA
ENDROOT
BRANCH   1   4
HETATM    4  C4  UNL     1     -32.524   7.698   3.745  1.00 20.00     0.056 C 
BRANCH   4   5
HETATM    5  C5  UNL     1     -32.590   7.716   2.221  1.00 20.00     0.001 C 
HETATM    6  C3  UNL     1     -32.228   9.072   1.631  1.00 20.00     0.005 C 
ENDBRANCH   4   5
ENDBRANCH   1   4
BRANCH   3   7
HETATM    7  O7  UNL     1     -35.428   5.558   4.276  1.00 20.00    -0.266 OA
HETATM    8  H18 UNL     1     -36.023   5.289   3.555  1.00 20.00     0.247 HD
ENDBRANCH   3   7
TORSDOF 3
ENDMDL
MODEL 4
REMARK VINA RESULT:      -4.4      1.563      1.693
REMARK  3 active torsions:
REMARK  status: ('A' for Active; 'I' for Inactive)
REMARK    1  A    between atoms: C1_1  and  C4_4 
REMARK    2  A    between atoms: C4_4  and  C5_5 
REMARK    3  A    between atoms: N6_6  and  O7_7 
ROOT
HETATM    1  C1  UNL     1     -33.790   6.701   4.057  1.00 20.00     0.035 C 
HETATM    2  C2  UNL     1     -34.957   5.742   4.104  1.00 20.00     0.068 C 
HETATM    3  N6  UNL     1     -33.360   7.372   5.081  1.00 20.00    -0.146 NA
ENDROOT
BRANCH   1   4
HETATM    4  C4  UNL     1     -33.053   6.859   2.740  1.00 20.00     0.056 C 
BRANCH   4   5
HETATM    5  C5  UNL     1     -32.057   8.014   2.775  1.00 20.00     0.001 C 
HETATM    6  C3  UNL     1     -32.144   8.905   1.543  1.00 20.00     0.005 C 
ENDBRANCH   4   5
ENDBRANCH   1   4
BRANCH   3   7
HETATM    7  O7  UNL     1     -34.120   7.097   6.219  1.00 20.00    -0.266 OA
HETATM    8  H18 UNL     1     -34.028   7.925   6.721  1.00 20.00     0.247 HD
ENDBRANCH   3   7
TORSDOF 3
ENDMDL
MODEL 5
REMARK VINA RESULT:      -4.3      2.721      3.643
REMARK  3 active torsions:
REMARK  status: ('A' for Active; 'I' for Inactive)
REMARK    1  A    between atoms: C1_1  and  C4_4 
REMARK    2  A    between atoms: C4_4  and  C5_5 
REMARK    3  A    between atoms: N6_6  and  O7_7 
ROOT
HETATM    1  C1  UNL     1     -33.727   6.143   3.230  1.00 20.00     0.035 C 
HETATM    2  C2  UNL     1     -32.988   4.979   2.612  1.00 20.00     0.068 C 
HETATM    3  N6  UNL     1     -33.419   7.387   3.028  1.00 20.00    -0.146 NA
ENDROOT
BRANCH   1   4
HETATM    4  C4  UNL     1     -34.926   5.838   4.108  1.00 20.00     0.056 C 
BRANCH   4   5
HETATM    5  C5  UNL     1     -34.549   5.753   5.584  1.00 20.00     0.001 C 
HETATM    6  C3  UNL     1     -33.930   7.041   6.109  1.00 20.00     0.005 C 
ENDBRANCH   4   5
ENDBRANCH   1   4
BRANCH   3   7
HETATM    7  O7  UNL     1     -32.317   7.502   2.178  1.00 20.00    -0.266 OA
HETATM    8  H18 UNL     1     -32.706   7.258   1.321  1.00 20.00     0.247 HD
ENDBRANCH   3   7
TORSDOF 3
ENDMDL
MODEL 6
REMARK VINA RESULT:      -4.2      2.303      3.561
REMARK  3 active torsions:
REMARK  status: ('A' for Active; 'I' for Inactive)
REMARK    1  A    between atoms: C1_1  and  C4_4 
REMARK    2  A    between atoms: C4_4  and  C5_5 
REMARK    3  A    between atoms: N6_6  and  O7_7 
ROOT
HETATM    1  C1  UNL     1     -33.082   7.200   3.599  1.00 20.00     0.035 C 
HETATM    2  C2  UNL     1     -32.179   7.898   2.609  1.00 20.00     0.068 C 
HETATM    3  N6  UNL     1     -33.080   7.434   4.875  1.00 20.00    -0.146 NA
ENDROOT
BRANCH   1   4
HETATM    4  C4  UNL     1     -34.080   6.191   3.061  1.00 20.00     0.056 C 
BRANCH   4   5
HETATM    5  C5  UNL     1     -34.963   5.613   4.163  1.00 20.00     0.001 C 
HETATM    6  C3  UNL     1     -34.468   4.265   4.668  1.00 20.00     0.005 C 
ENDBRANCH   4   5
ENDBRANCH   1   4
BRANCH   3   7
HETATM    7  O7  UNL     1     -32.131   8.404   5.207  1.00 20.00    -0.266 OA
HETATM    8  H18 UNL     1     -32.402   8.640   6.111  1.00 20.00     0.247 HD
ENDBRANCH   3   7
TORSDOF 3
ENDMDL
MODEL 7
REMARK VINA RESULT:      -4.2      1.617      2.121
REMARK  3 active torsions:
REMARK  status: ('A' for Active; 'I' for Inactive)
REMARK    1  A    between atoms: C1_1  and  C4_4 
REMARK    2  A    between atoms: C4_4  and  C5_5 
REMARK    3  A    between atoms: N6_6  and  O7_7 
ROOT
HETATM    1  C1  UNL     1     -32.941   7.270   3.723  1.00 20.00     0.035 C 
HETATM    2  C2  UNL     1     -33.539   6.225   2.809  1.00 20.00     0.068 C 
HETATM    3  N6  UNL     1     -33.290   7.436   4.962  1.00 20.00    -0.146 NA
ENDROOT
BRANCH   1   4
HETATM    4  C4  UNL     1     -31.839   8.152   3.169  1.00 20.00     0.056 C 
BRANCH   4   5
HETATM    5  C5  UNL     1     -31.988   8.381   1.667  1.00 20.00     0.001 C 
HETATM    6  C3  UNL     1     -32.444   9.793   1.329  1.00 20.00     0.005 C 
ENDBRANCH   4   5
ENDBRANCH   1   4
BRANCH   3   7
HETATM    7  O7  UNL     1     -34.289   6.532   5.329  1.00 20.00    -0.266 OA
HETATM    8  H18 UNL     1     -34.650   6.278   4.462  1.00 20.00     0.247 HD
ENDBRANCH   3   7
TORSDOF 3
ENDMDL
MODEL 8
REMARK VINA RESULT:      -4.2      2.325      2.602
REMARK  3 active torsions:
REMARK  status: ('A' for Active; 'I' for Inactive)
REMARK    1  A    between atoms: C1_1  and  C4_4 
REMARK    2  A    between atoms: C4_4  and  C5_5 
REMARK    3  A    between atoms: N6_6  and  O7_7 
ROOT
HETATM    1  C1  UNL     1     -34.347   6.282   4.856  1.00 20.00     0.035 C 
HETATM    2  C2  UNL     1     -34.573   5.271   5.956  1.00 20.00     0.068 C 
HETATM    3  N6  UNL     1     -33.642   7.363   4.997  1.00 20.00    -0.146 NA
ENDROOT
BRANCH   1   4
HETATM    4  C4  UNL     1     -34.950   5.996   3.494  1.00 20.00     0.056 C 
BRANCH   4   5
HETATM    5  C5  UNL     1     -33.887   5.916   2.402  1.00 20.00     0.001 C 
HETATM    6  C3  UNL     1     -32.952   4.727   2.576  1.00 20.00     0.005 C 
ENDBRANCH   4   5
ENDBRANCH   1   4
BRANCH   3   7
HETATM    7  O7  UNL     1     -33.133   7.466   6.293  1.00 20.00    -0.266 OA
HETATM    8  H18 UNL     1     -33.488   6.661   6.707  1.00 20.00     0.247 HD
ENDBRANCH   3   7
TORSDOF 3
ENDMDL
MODEL 9
REMARK VINA RESULT:      -4.0      3.268      4.128
REMARK  3 active torsions:
REMARK  status: ('A' for Active; 'I' for Inactive)
REMARK    1  A    between atoms: C1_1  and  C4_4 
REMARK    2  A    between atoms: C4_4  and  C5_5 
REMARK    3  A    between atoms: N6_6  and  O7_7 
ROOT
HETATM    1  C1  UNL     1     -32.529   7.760   2.664  1.00 20.00     0.035 C 
HETATM    2  C2  UNL     1     -31.501   8.224   3.670  1.00 20.00     0.068 C 
HETATM    3  N6  UNL     1     -32.809   8.393   1.567  1.00 20.00    -0.146 NA
ENDROOT
BRANCH   1   4
HETATM    4  C4  UNL     1     -33.251   6.454   2.938  1.00 20.00     0.056 C 
BRANCH   4   5
HETATM    5  C5  UNL     1     -34.110   6.526   4.197  1.00 20.00     0.001 C 
HETATM    6  C3  UNL     1     -34.704   5.178   4.582  1.00 20.00     0.005 C 
ENDBRANCH   4   5
ENDBRANCH   1   4
BRANCH   3   7
HETATM    7  O7  UNL     1     -32.043   9.555   1.447  1.00 20.00    -0.266 OA
HETATM    8  H18 UNL     1     -31.356   9.271   0.820  1.00 20.00     0.247 HD
ENDBRANCH   3   7
TORSDOF 3
ENDMDL
