MODEL 1
REMARK VINA RESULT:      -6.0      0.000      0.000
REMARK  0 active torsions:
REMARK  status: ('A' for Active; 'I' for Inactive)
ROOT
HETATM    1  C1  UNL     1     -32.237   8.402   4.391  1.00 20.00     0.027 A 
HETATM    2  C2  UNL     1     -31.746   8.291   3.100  1.00 20.00     0.116 A 
HETATM    3  C3  UNL     1     -33.054   6.444   2.619  1.00 20.00     0.124 A 
HETATM    4  C4  UNL     1     -33.171   7.459   4.772  1.00 20.00    -0.049 A 
HETATM    5  C5  UNL     1     -33.590   6.466   3.886  1.00 20.00    -0.030 A 
HETATM    6  C6  UNL     1     -33.892   7.349   6.078  1.00 20.00     0.040 C 
HETATM    7  C7  UNL     1     -34.410   5.904   6.005  1.00 20.00     0.014 C 
HETATM    8  C8  UNL     1     -34.641   5.598   4.509  1.00 20.00     0.017 C 
HETATM    9  C9  UNL     1     -34.522   4.115   4.197  1.00 20.00     0.015 C 
HETATM   10  N10 UNL     1     -32.128   7.339   2.206  1.00 20.00    -0.273 NA
ENDROOT
TORSDOF 0
ENDMDL
MODEL 2
REMARK VINA RESULT:      -5.6      1.703      3.963
REMARK  0 active torsions:
REMARK  status: ('A' for Active; 'I' for Inactive)
ROOT
HETATM    1  C1  UNL     1     -34.642   4.853   4.554  1.00 20.00     0.027 A 
HETATM    2  C2  UNL     1     -34.779   5.281   5.866  1.00 20.00     0.116 A 
HETATM    3  C3  UNL     1     -33.694   7.285   5.466  1.00 20.00     0.124 A 
HETATM    4  C4  UNL     1     -33.981   5.712   3.699  1.00 20.00    -0.049 A 
HETATM    5  C5  UNL     1     -33.498   6.942   4.148  1.00 20.00    -0.030 A 
HETATM    6  C6  UNL     1     -33.715   5.535   2.237  1.00 20.00     0.040 C 
HETATM    7  C7  UNL     1     -32.611   6.580   2.012  1.00 20.00     0.014 C 
HETATM    8  C8  UNL     1     -32.869   7.714   3.028  1.00 20.00     0.017 C 
HETATM    9  C9  UNL     1     -31.598   8.463   3.395  1.00 20.00     0.015 C 
HETATM   10  N10 UNL     1     -34.323   6.470   6.344  1.00 20.00    -0.273 NA
ENDROOT
TORSDOF 0
ENDMDL
MODEL 3
REMARK VINA RESULT:      -4.9      1.111      2.456
REMARK  0 active torsions:
REMARK  status: ('A' for Active; 'I' for Inactive)
ROOT
HETATM    1  C1  UNL     1     -32.775   7.434   1.570  1.00 20.00     0.027 A 
HETATM    2  C2  UNL     1     -31.830   8.428   1.764  1.00 20.00     0.116 A 
HETATM    3  C3  UNL     1     -31.945   8.273   4.070  1.00 20.00     0.124 A 
HETATM    4  C4  UNL     1     -33.312   6.870   2.711  1.00 20.00    -0.049 A 
HETATM    5  C5  UNL     1     -32.900   7.287   3.978  1.00 20.00    -0.030 A 
HETATM    6  C6  UNL     1     -34.316   5.766   2.811  1.00 20.00     0.040 C 
HETATM    7  C7  UNL     1     -34.785   5.929   4.265  1.00 20.00     0.014 C 
HETATM    8  C8  UNL     1     -33.582   6.494   5.052  1.00 20.00     0.017 C 
HETATM    9  C9  UNL     1     -34.013   7.296   6.270  1.00 20.00     0.015 C 
HETATM   10  N10 UNL     1     -31.402   8.863   2.980  1.00 20.00    -0.273 NA
ENDROOT
TORSDOF 0
ENDMDL
MODEL 4
REMARK VINA RESULT:      -4.8      1.494      3.283
REMARK  0 active torsions:
REMARK  status: ('A' for Active; 'I' for Inactive)
ROOT
HETATM    1  C1  UNL     1     -34.554   5.295   5.486  1.00 20.00     0.027 A 
HETATM    2  C2  UNL     1     -34.670   4.247   4.586  1.00 20.00     0.116 A 
HETATM    3  C3  UNL     1     -33.335   5.283   3.005  1.00 20.00     0.124 A 
HETATM    4  C4  UNL     1     -33.793   6.371   5.076  1.00 20.00    -0.049 A 
HETATM    5  C5  UNL     1     -33.173   6.376   3.825  1.00 20.00    -0.030 A 
HETATM    6  C6  UNL     1     -33.467   7.616   5.839  1.00 20.00     0.040 C 
HETATM    7  C7  UNL     1     -32.992   8.538   4.705  1.00 20.00     0.014 C 
HETATM    8  C8  UNL     1     -32.363   7.622   3.632  1.00 20.00     0.017 C 
HETATM    9  C9  UNL     1     -32.434   8.228   2.240  1.00 20.00     0.015 C 
HETATM   10  N10 UNL     1     -34.082   4.213   3.359  1.00 20.00    -0.273 NA
ENDROOT
TORSDOF 0
ENDMDL
MODEL 5
REMARK VINA RESULT:      -4.7     11.872     12.186
REMARK  0 active torsions:
REMARK  status: ('A' for Active; 'I' for Inactive)
ROOT
HETATM    1  C1  UNL     1     -32.593  18.757   1.679  1.00 20.00     0.027 A 
HETATM    2  C2  UNL     1     -31.425  18.757   0.934  1.00 20.00     0.116 A 
HETATM    3  C3  UNL     1     -32.512  18.150  -1.017  1.00 20.00     0.124 A 
HETATM    4  C4  UNL     1     -33.749  18.420   1.003  1.00 20.00    -0.049 A 
HETATM    5  C5  UNL     1     -33.719  18.111  -0.358  1.00 20.00    -0.030 A 
HETATM    6  C6  UNL     1     -35.147  18.368   1.532  1.00 20.00     0.040 C 
HETATM    7  C7  UNL     1     -35.841  17.534   0.445  1.00 20.00     0.014 C 
HETATM    8  C8  UNL     1     -35.098  17.832  -0.876  1.00 20.00     0.017 C 
HETATM    9  C9  UNL     1     -35.194  16.683  -1.867  1.00 20.00     0.015 C 
HETATM   10  N10 UNL     1     -31.353  18.462  -0.393  1.00 20.00    -0.273 NA
ENDROOT
TORSDOF 0
ENDMDL
MODEL 6
REMARK VINA RESULT:      -4.7      1.485      3.384
REMARK  0 active torsions:
REMARK  status: ('A' for Active; 'I' for Inactive)
ROOT
HETATM    1  C1  UNL     1     -33.997   6.746   5.607  1.00 20.00     0.027 A 
HETATM    2  C2  UNL     1     -34.823   5.770   5.074  1.00 20.00     0.116 A 
HETATM    3  C3  UNL     1     -33.958   6.015   2.941  1.00 20.00     0.124 A 
HETATM    4  C4  UNL     1     -33.136   7.367   4.724  1.00 20.00    -0.049 A 
HETATM    5  C5  UNL     1     -33.108   7.006   3.376  1.00 20.00    -0.030 A 
HETATM    6  C6  UNL     1     -32.118   8.423   5.016  1.00 20.00     0.040 C 
HETATM    7  C7  UNL     1     -31.842   8.962   3.604  1.00 20.00     0.014 C 
HETATM    8  C8  UNL     1     -32.060   7.779   2.635  1.00 20.00     0.017 C 
HETATM    9  C9  UNL     1     -32.461   8.238   1.242  1.00 20.00     0.015 C 
HETATM   10  N10 UNL     1     -34.827   5.389   3.767  1.00 20.00    -0.273 NA
ENDROOT
TORSDOF 0
ENDMDL
MODEL 7
REMARK VINA RESULT:      -4.6      1.747      3.606
REMARK  0 active torsions:
REMARK  status: ('A' for Active; 'I' for Inactive)
ROOT
HETATM    1  C1  UNL     1     -33.124   4.697   2.568  1.00 20.00     0.027 A 
HETATM    2  C2  UNL     1     -33.822   3.696   3.225  1.00 20.00     0.116 A 
HETATM    3  C3  UNL     1     -34.502   5.104   4.930  1.00 20.00     0.124 A 
HETATM    4  C4  UNL     1     -33.135   5.942   3.166  1.00 20.00    -0.049 A 
HETATM    5  C5  UNL     1     -33.827   6.158   4.359  1.00 20.00    -0.030 A 
HETATM    6  C6  UNL     1     -32.505   7.207   2.676  1.00 20.00     0.040 C 
HETATM    7  C7  UNL     1     -32.509   8.052   3.960  1.00 20.00     0.014 C 
HETATM    8  C8  UNL     1     -33.735   7.594   4.780  1.00 20.00     0.017 C 
HETATM    9  C9  UNL     1     -33.550   7.818   6.272  1.00 20.00     0.015 C 
HETATM   10  N10 UNL     1     -34.508   3.865   4.387  1.00 20.00    -0.273 NA
ENDROOT
TORSDOF 0
ENDMDL
MODEL 8
REMARK VINA RESULT:      -4.5     11.806     13.204
REMARK  0 active torsions:
REMARK  status: ('A' for Active; 'I' for Inactive)
ROOT
HETATM    1  C1  UNL     1     -34.429  13.920  -7.315  1.00 20.00     0.027 A 
HETATM    2  C2  UNL     1     -35.189  12.850  -6.871  1.00 20.00     0.116 A 
HETATM    3  C3  UNL     1     -35.674  13.863  -4.847  1.00 20.00     0.124 A 
HETATM    4  C4  UNL     1     -34.304  14.984  -6.444  1.00 20.00    -0.049 A 
HETATM    5  C5  UNL     1     -34.928  14.966  -5.196  1.00 20.00    -0.030 A 
HETATM    6  C6  UNL     1     -33.580  16.275  -6.661  1.00 20.00     0.040 C 
HETATM    7  C7  UNL     1     -33.460  16.789  -5.219  1.00 20.00     0.014 C 
HETATM    8  C8  UNL     1     -34.691  16.248  -4.458  1.00 20.00     0.017 C 
HETATM    9  C9  UNL     1     -34.429  16.097  -2.968  1.00 20.00     0.015 C 
HETATM   10  N10 UNL     1     -35.813  12.793  -5.663  1.00 20.00    -0.273 NA
ENDROOT
TORSDOF 0
ENDMDL
MODEL 9
REMARK VINA RESULT:      -4.5     11.935     12.251
REMARK  0 active torsions:
REMARK  status: ('A' for Active; 'I' for Inactive)
ROOT
HETATM    1  C1  UNL     1     -32.510  18.846   2.751  1.00 20.00     0.027 A 
HETATM    2  C2  UNL     1     -31.204  18.941   2.297  1.00 20.00     0.116 A 
HETATM    3  C3  UNL     1     -31.801  18.557   0.094  1.00 20.00     0.124 A 
HETATM    4  C4  UNL     1     -33.471  18.582   1.795  1.00 20.00    -0.049 A 
HETATM    5  C5  UNL     1     -33.124  18.434   0.451  1.00 20.00    -0.030 A 
HETATM    6  C6  UNL     1     -34.950  18.459   1.982  1.00 20.00     0.040 C 
HETATM    7  C7  UNL     1     -35.351  17.752   0.678  1.00 20.00     0.014 C 
HETATM    8  C8  UNL     1     -34.339  18.207  -0.396  1.00 20.00     0.017 C 
HETATM    9  C9  UNL     1     -34.171  17.180  -1.504  1.00 20.00     0.015 C 
HETATM   10  N10 UNL     1     -30.824  18.803   0.998  1.00 20.00    -0.273 NA
ENDROOT
TORSDOF 0
ENDMDL
