MODEL 1
REMARK VINA RESULT:      -5.6      0.000      0.000
REMARK  1 active torsions:
REMARK  status: ('A' for Active; 'I' for Inactive)
REMARK    1  A    between atoms: C1_1  and  C2_2 
ROOT
HETATM    1  C1  UNL     1     -33.594   6.620   3.494  1.00 20.00     0.028 C 
HETATM    2  C4  UNL     1     -33.802   5.160   3.150  1.00 20.00     0.059 C 
HETATM    3  C5  UNL     1     -33.974   4.288   4.378  1.00 20.00     0.008 C 
HETATM    4  C6  UNL     1     -34.866   5.003   5.374  1.00 20.00     0.022 C 
HETATM    5  C7  UNL     1     -34.210   6.311   5.784  1.00 20.00     0.149 C 
HETATM    6  N9  UNL     1     -33.801   7.142   4.653  1.00 20.00    -0.294 NA
ENDROOT
BRANCH   1   7
HETATM    7  C2  UNL     1     -33.159   7.492   2.380  1.00 20.00     0.022 C 
HETATM    8  C3  UNL     1     -32.081   8.244   2.466  1.00 20.00    -0.029 C 
HETATM    9  C8  UNL     1     -31.227   8.267   3.690  1.00 20.00     0.036 C 
ENDBRANCH   1   7
TORSDOF 1
ENDMDL
MODEL 2
REMARK VINA RESULT:      -5.5      1.368      2.218
REMARK  1 active torsions:
REMARK  status: ('A' for Active; 'I' for Inactive)
REMARK    1  A    between atoms: C1_1  and  C2_2 
ROOT
HETATM    1  C1  UNL     1     -32.827   7.209   3.285  1.00 20.00     0.028 C 
HETATM    2  C4  UNL     1     -32.762   7.649   4.733  1.00 20.00     0.059 C 
HETATM    3  C5  UNL     1     -34.019   7.304   5.507  1.00 20.00     0.008 C 
HETATM    4  C6  UNL     1     -34.473   5.911   5.123  1.00 20.00     0.022 C 
HETATM    5  C7  UNL     1     -34.783   5.878   3.635  1.00 20.00     0.149 C 
HETATM    6  N9  UNL     1     -33.704   6.400   2.799  1.00 20.00    -0.294 NA
ENDROOT
BRANCH   1   7
HETATM    7  C2  UNL     1     -31.763   7.733   2.401  1.00 20.00     0.022 C 
HETATM    8  C3  UNL     1     -31.951   8.791   1.640  1.00 20.00    -0.029 C 
HETATM    9  C8  UNL     1     -33.246   9.533   1.619  1.00 20.00     0.036 C 
ENDBRANCH   1   7
TORSDOF 1
ENDMDL
MODEL 3
REMARK VINA RESULT:      -5.4      1.034      1.510
REMARK  1 active torsions:
REMARK  status: ('A' for Active; 'I' for Inactive)
REMARK    1  A    between atoms: C1_1  and  C2_2 
ROOT
HETATM    1  C1  UNL     1     -32.650   7.218   3.577  1.00 20.00     0.028 C 
HETATM    2  C4  UNL     1     -33.051   6.043   2.710  1.00 20.00     0.059 C 
HETATM    3  C5  UNL     1     -33.927   5.047   3.443  1.00 20.00     0.008 C 
HETATM    4  C6  UNL     1     -34.944   5.798   4.278  1.00 20.00     0.022 C 
HETATM    5  C7  UNL     1     -34.216   6.660   5.296  1.00 20.00     0.149 C 
HETATM    6  N9  UNL     1     -33.183   7.514   4.712  1.00 20.00    -0.294 NA
ENDROOT
BRANCH   1   7
HETATM    7  C2  UNL     1     -31.591   8.095   3.030  1.00 20.00     0.022 C 
HETATM    8  C3  UNL     1     -31.828   8.942   2.050  1.00 20.00    -0.029 C 
HETATM    9  C8  UNL     1     -33.178   9.074   1.425  1.00 20.00     0.036 C 
ENDBRANCH   1   7
TORSDOF 1
ENDMDL
MODEL 4
REMARK VINA RESULT:      -5.0      0.930      4.030
REMARK  1 active torsions:
REMARK  status: ('A' for Active; 'I' for Inactive)
REMARK    1  A    between atoms: C1_1  and  C2_2 
ROOT
HETATM    1  C1  UNL     1     -33.529   6.978   4.391  1.00 20.00     0.028 C 
HETATM    2  C4  UNL     1     -32.460   8.007   4.696  1.00 20.00     0.059 C 
HETATM    3  C5  UNL     1     -31.536   8.259   3.522  1.00 20.00     0.008 C 
HETATM    4  C6  UNL     1     -32.356   8.322   2.249  1.00 20.00     0.022 C 
HETATM    5  C7  UNL     1     -33.066   6.995   2.044  1.00 20.00     0.149 C 
HETATM    6  N9  UNL     1     -33.822   6.547   3.213  1.00 20.00    -0.294 NA
ENDROOT
BRANCH   1   7
HETATM    7  C2  UNL     1     -34.302   6.483   5.551  1.00 20.00     0.022 C 
HETATM    8  C3  UNL     1     -34.654   5.220   5.664  1.00 20.00    -0.029 C 
HETATM    9  C8  UNL     1     -34.296   4.202   4.631  1.00 20.00     0.036 C 
ENDBRANCH   1   7
TORSDOF 1
ENDMDL
MODEL 5
REMARK VINA RESULT:      -4.8      0.773      3.732
REMARK  1 active torsions:
REMARK  status: ('A' for Active; 'I' for Inactive)
REMARK    1  A    between atoms: C1_1  and  C2_2 
ROOT
HETATM    1  C1  UNL     1     -33.676   6.902   4.581  1.00 20.00     0.028 C 
HETATM    2  C4  UNL     1     -33.898   6.636   3.106  1.00 20.00     0.059 C 
HETATM    3  C5  UNL     1     -33.143   7.603   2.216  1.00 20.00     0.008 C 
HETATM    4  C6  UNL     1     -31.754   7.819   2.781  1.00 20.00     0.022 C 
HETATM    5  C7  UNL     1     -31.867   8.414   4.175  1.00 20.00     0.149 C 
HETATM    6  N9  UNL     1     -32.757   7.667   5.062  1.00 20.00    -0.294 NA
ENDROOT
BRANCH   1   7
HETATM    7  C2  UNL     1     -34.571   6.181   5.511  1.00 20.00     0.022 C 
HETATM    8  C3  UNL     1     -34.752   4.879   5.433  1.00 20.00    -0.029 C 
HETATM    9  C8  UNL     1     -34.067   4.044   4.402  1.00 20.00     0.036 C 
ENDBRANCH   1   7
TORSDOF 1
ENDMDL
MODEL 6
REMARK VINA RESULT:      -4.1     11.706     12.626
REMARK  1 active torsions:
REMARK  status: ('A' for Active; 'I' for Inactive)
REMARK    1  A    between atoms: C1_1  and  C2_2 
ROOT
HETATM    1  C1  UNL     1     -34.529  15.620  -4.403  1.00 20.00     0.028 C 
HETATM    2  C4  UNL     1     -34.668  14.120  -4.251  1.00 20.00     0.059 C 
HETATM    3  C5  UNL     1     -35.834  13.557  -5.040  1.00 20.00     0.008 C 
HETATM    4  C6  UNL     1     -35.881  14.222  -6.400  1.00 20.00     0.022 C 
HETATM    5  C7  UNL     1     -36.083  15.717  -6.219  1.00 20.00     0.149 C 
HETATM    6  N9  UNL     1     -35.131  16.331  -5.293  1.00 20.00    -0.294 NA
ENDROOT
BRANCH   1   7
HETATM    7  C2  UNL     1     -33.590  16.282  -3.470  1.00 20.00     0.022 C 
HETATM    8  C3  UNL     1     -33.990  16.779  -2.318  1.00 20.00    -0.029 C 
HETATM    9  C8  UNL     1     -35.414  16.709  -1.876  1.00 20.00     0.036 C 
ENDBRANCH   1   7
TORSDOF 1
ENDMDL
MODEL 7
REMARK VINA RESULT:      -4.1     11.863     12.878
REMARK  1 active torsions:
REMARK  status: ('A' for Active; 'I' for Inactive)
REMARK    1  A    between atoms: C1_1  and  C2_2 
ROOT
HETATM    1  C1  UNL     1     -34.763  16.242  -3.635  1.00 20.00     0.028 C 
HETATM    2  C4  UNL     1     -34.188  14.854  -3.823  1.00 20.00     0.059 C 
HETATM    3  C5  UNL     1     -33.884  14.537  -5.273  1.00 20.00     0.008 C 
HETATM    4  C6  UNL     1     -33.253  15.751  -5.926  1.00 20.00     0.022 C 
HETATM    5  C7  UNL     1     -34.229  16.914  -5.867  1.00 20.00     0.149 C 
HETATM    6  N9  UNL     1     -34.758  17.170  -4.529  1.00 20.00    -0.294 NA
ENDROOT
BRANCH   1   7
HETATM    7  C2  UNL     1     -35.328  16.534  -2.299  1.00 20.00     0.022 C 
HETATM    8  C3  UNL     1     -34.626  17.140  -1.365  1.00 20.00    -0.029 C 
HETATM    9  C8  UNL     1     -33.215  17.573  -1.589  1.00 20.00     0.036 C 
ENDBRANCH   1   7
TORSDOF 1
ENDMDL
MODEL 8
REMARK VINA RESULT:      -4.1     11.707     12.502
REMARK  1 active torsions:
REMARK  status: ('A' for Active; 'I' for Inactive)
REMARK    1  A    between atoms: C1_1  and  C2_2 
ROOT
HETATM    1  C1  UNL     1     -35.493  14.489  -4.605  1.00 20.00     0.028 C 
HETATM    2  C4  UNL     1     -34.076  14.610  -4.085  1.00 20.00     0.059 C 
HETATM    3  C5  UNL     1     -33.803  15.950  -3.433  1.00 20.00     0.008 C 
HETATM    4  C6  UNL     1     -34.994  16.340  -2.581  1.00 20.00     0.022 C 
HETATM    5  C7  UNL     1     -36.223  16.461  -3.466  1.00 20.00     0.149 C 
HETATM    6  N9  UNL     1     -36.458  15.291  -4.310  1.00 20.00    -0.294 NA
ENDROOT
BRANCH   1   7
HETATM    7  C2  UNL     1     -35.766  13.328  -5.480  1.00 20.00     0.022 C 
HETATM    8  C3  UNL     1     -35.429  13.322  -6.753  1.00 20.00    -0.029 C 
HETATM    9  C8  UNL     1     -34.751  14.486  -7.398  1.00 20.00     0.036 C 
ENDBRANCH   1   7
TORSDOF 1
ENDMDL
MODEL 9
REMARK VINA RESULT:      -4.0     11.959     13.185
REMARK  1 active torsions:
REMARK  status: ('A' for Active; 'I' for Inactive)
REMARK    1  A    between atoms: C1_1  and  C2_2 
ROOT
HETATM    1  C1  UNL     1     -34.037  14.712  -5.416  1.00 20.00     0.028 C 
HETATM    2  C4  UNL     1     -33.645  15.628  -6.557  1.00 20.00     0.059 C 
HETATM    3  C5  UNL     1     -33.856  14.994  -7.917  1.00 20.00     0.008 C 
HETATM    4  C6  UNL     1     -35.175  14.248  -7.918  1.00 20.00     0.022 C 
HETATM    5  C7  UNL     1     -35.133  13.155  -6.863  1.00 20.00     0.149 C 
HETATM    6  N9  UNL     1     -34.723  13.629  -5.542  1.00 20.00    -0.294 NA
ENDROOT
BRANCH   1   7
HETATM    7  C2  UNL     1     -33.622  15.146  -4.064  1.00 20.00     0.022 C 
HETATM    8  C3  UNL     1     -34.437  15.799  -3.262  1.00 20.00    -0.029 C 
HETATM    9  C8  UNL     1     -35.834  16.144  -3.662  1.00 20.00     0.036 C 
ENDBRANCH   1   7
TORSDOF 1
ENDMDL
