MODEL 1
REMARK VINA RESULT:      -4.8      0.000      0.000
REMARK  4 active torsions:
REMARK  status: ('A' for Active; 'I' for Inactive)
REMARK    1  A    between atoms: C6_6  and  C8_8 
REMARK    2  A    between atoms: C7_7  and  C9_9 
REMARK    3  A    between atoms: C10_10  and  C11_11 
REMARK    4  A    between atoms: C11_11  and  O12_12 
ROOT
HETATM    1  C4  UNL     1     -35.641  16.269  -5.151  1.00 20.00     0.012 C 
HETATM    2  C5  UNL     1     -34.032  14.485  -5.222  1.00 20.00     0.012 C 
HETATM    3  C8  UNL     1     -34.986  16.226  -3.774  1.00 20.00    -0.006 C 
HETATM    4  C9  UNL     1     -33.952  15.080  -3.820  1.00 20.00    -0.006 C 
HETATM    5  C10 UNL     1     -35.436  14.856  -5.716  1.00 20.00     0.010 C 
ENDROOT
BRANCH   5   6
HETATM    6  C11 UNL     1     -36.501  13.877  -5.225  1.00 20.00     0.168 C 
BRANCH   6   7
HETATM    7  O12 UNL     1     -35.907  12.598  -5.078  1.00 20.00    -0.400 OA
HETATM    8  H30 UNL     1     -36.590  11.941  -5.293  1.00 20.00     0.209 HD
ENDBRANCH   6   7
ENDBRANCH   5   6
BRANCH   3   9
HETATM    9  C6  UNL     1     -34.156  17.424  -3.268  1.00 20.00    -0.010 C 
HETATM   10  C1  UNL     1     -33.556  17.191  -1.872  1.00 20.00     0.005 C 
HETATM   11  C2  UNL     1     -34.784  17.210  -0.953  1.00 20.00     0.005 C 
HETATM   12  C7  UNL     1     -35.949  17.451  -1.928  1.00 20.00    -0.010 C 
HETATM   13  C3  UNL     1     -35.281  18.414  -2.924  1.00 20.00     0.010 C 
ENDBRANCH   3   9
TORSDOF 4
ENDMDL
MODEL 2
REMARK VINA RESULT:      -4.7      9.897     10.936
REMARK  4 active torsions:
REMARK  status: ('A' for Active; 'I' for Inactive)
REMARK    1  A    between atoms: C6_6  and  C8_8 
REMARK    2  A    between atoms: C7_7  and  C9_9 
REMARK    3  A    between atoms: C10_10  and  C11_11 
REMARK    4  A    between atoms: C11_11  and  O12_12 
ROOT
HETATM    1  C4  UNL     1     -32.602   6.488   2.656  1.00 20.00     0.012 C 
HETATM    2  C5  UNL     1     -33.398   7.333   4.760  1.00 20.00     0.012 C 
HETATM    3  C8  UNL     1     -32.926   7.962   2.431  1.00 20.00    -0.006 C 
HETATM    4  C9  UNL     1     -33.437   8.505   3.784  1.00 20.00    -0.006 C 
HETATM    5  C10 UNL     1     -33.457   6.088   3.866  1.00 20.00     0.010 C 
ENDROOT
BRANCH   5   6
HETATM    6  C11 UNL     1     -34.887   5.728   3.469  1.00 20.00     0.168 C 
BRANCH   6   7
HETATM    7  O12 UNL     1     -35.474   4.978   4.520  1.00 20.00    -0.400 OA
HETATM    8  H30 UNL     1     -36.435   4.986   4.372  1.00 20.00     0.209 HD
ENDBRANCH   6   7
ENDBRANCH   5   6
BRANCH   3   9
HETATM    9  C6  UNL     1     -31.808   8.958   2.057  1.00 20.00    -0.010 C 
HETATM   10  C1  UNL     1     -32.341  10.363   1.732  1.00 20.00     0.005 C 
HETATM   11  C2  UNL     1     -33.082  10.160   0.404  1.00 20.00     0.005 C 
HETATM   12  C7  UNL     1     -32.890   8.661   0.119  1.00 20.00    -0.010 C 
HETATM   13  C3  UNL     1     -31.459   8.461   0.644  1.00 20.00     0.010 C 
ENDBRANCH   3   9
TORSDOF 4
ENDMDL
MODEL 3
REMARK VINA RESULT:      -4.4      1.413      2.318
REMARK  4 active torsions:
REMARK  status: ('A' for Active; 'I' for Inactive)
REMARK    1  A    between atoms: C6_6  and  C8_8 
REMARK    2  A    between atoms: C7_7  and  C9_9 
REMARK    3  A    between atoms: C10_10  and  C11_11 
REMARK    4  A    between atoms: C11_11  and  O12_12 
ROOT
HETATM    1  C4  UNL     1     -33.299  15.253  -4.078  1.00 20.00     0.012 C 
HETATM    2  C5  UNL     1     -35.354  14.153  -4.663  1.00 20.00     0.012 C 
HETATM    3  C8  UNL     1     -34.425  16.167  -3.604  1.00 20.00    -0.006 C 
HETATM    4  C9  UNL     1     -35.745  15.460  -3.980  1.00 20.00    -0.006 C 
HETATM    5  C10 UNL     1     -33.935  14.406  -5.188  1.00 20.00     0.010 C 
ENDROOT
BRANCH   5   6
HETATM    6  C11 UNL     1     -33.936  15.126  -6.536  1.00 20.00     0.168 C 
BRANCH   6   7
HETATM    7  O12 UNL     1     -33.546  14.206  -7.541  1.00 20.00    -0.400 OA
HETATM    8  H30 UNL     1     -34.264  14.179  -8.196  1.00 20.00     0.209 HD
ENDBRANCH   6   7
ENDBRANCH   5   6
BRANCH   3   9
HETATM    9  C6  UNL     1     -34.606  16.466  -2.101  1.00 20.00    -0.010 C 
HETATM   10  C1  UNL     1     -35.766  17.435  -1.818  1.00 20.00     0.005 C 
HETATM   11  C2  UNL     1     -35.254  18.770  -2.377  1.00 20.00     0.005 C 
HETATM   12  C7  UNL     1     -33.859  18.413  -2.918  1.00 20.00    -0.010 C 
HETATM   13  C3  UNL     1     -33.404  17.395  -1.859  1.00 20.00     0.010 C 
ENDBRANCH   3   9
TORSDOF 4
ENDMDL
MODEL 4
REMARK VINA RESULT:      -4.3      2.771      4.932
REMARK  4 active torsions:
REMARK  status: ('A' for Active; 'I' for Inactive)
REMARK    1  A    between atoms: C6_6  and  C8_8 
REMARK    2  A    between atoms: C7_7  and  C9_9 
REMARK    3  A    between atoms: C10_10  and  C11_11 
REMARK    4  A    between atoms: C11_11  and  O12_12 
ROOT
HETATM    1  C4  UNL     1     -33.286  18.261  -2.711  1.00 20.00     0.012 C 
HETATM    2  C5  UNL     1     -35.027  18.183  -1.055  1.00 20.00     0.012 C 
HETATM    3  C8  UNL     1     -33.969  16.906  -2.870  1.00 20.00    -0.006 C 
HETATM    4  C9  UNL     1     -35.088  16.856  -1.806  1.00 20.00    -0.006 C 
HETATM    5  C10 UNL     1     -33.589  18.675  -1.264  1.00 20.00     0.010 C 
ENDROOT
BRANCH   5   6
HETATM    6  C11 UNL     1     -32.613  18.051  -0.268  1.00 20.00     0.168 C 
BRANCH   6   7
HETATM    7  O12 UNL     1     -31.290  18.326  -0.696  1.00 20.00    -0.400 OA
HETATM    8  H30 UNL     1     -31.275  18.214  -1.662  1.00 20.00     0.209 HD
ENDBRANCH   6   7
ENDBRANCH   5   6
BRANCH   3   9
HETATM    9  C6  UNL     1     -34.715  16.558  -4.175  1.00 20.00    -0.010 C 
HETATM   10  C1  UNL     1     -35.428  15.197  -4.113  1.00 20.00     0.005 C 
HETATM   11  C2  UNL     1     -34.269  14.192  -4.098  1.00 20.00     0.005 C 
HETATM   12  C7  UNL     1     -33.022  15.091  -4.152  1.00 20.00    -0.010 C 
HETATM   13  C3  UNL     1     -33.526  16.205  -5.085  1.00 20.00     0.010 C 
ENDBRANCH   3   9
TORSDOF 4
ENDMDL
MODEL 5
REMARK VINA RESULT:      -4.2      1.264      1.331
REMARK  4 active torsions:
REMARK  status: ('A' for Active; 'I' for Inactive)
REMARK    1  A    between atoms: C6_6  and  C8_8 
REMARK    2  A    between atoms: C7_7  and  C9_9 
REMARK    3  A    between atoms: C10_10  and  C11_11 
REMARK    4  A    between atoms: C11_11  and  O12_12 
ROOT
HETATM    1  C4  UNL     1     -35.685  16.349  -5.405  1.00 20.00     0.012 C 
HETATM    2  C5  UNL     1     -33.534  15.933  -6.394  1.00 20.00     0.012 C 
HETATM    3  C8  UNL     1     -34.655  16.558  -4.298  1.00 20.00    -0.006 C 
HETATM    4  C9  UNL     1     -33.274  16.291  -4.934  1.00 20.00    -0.006 C 
HETATM    5  C10 UNL     1     -34.982  15.428  -6.411  1.00 20.00     0.010 C 
ENDROOT
BRANCH   5   6
HETATM    6  C11 UNL     1     -35.086  13.955  -6.018  1.00 20.00     0.168 C 
BRANCH   6   7
HETATM    7  O12 UNL     1     -34.025  13.245  -6.634  1.00 20.00    -0.400 OA
HETATM    8  H30 UNL     1     -33.414  12.978  -5.926  1.00 20.00     0.209 HD
ENDBRANCH   6   7
ENDBRANCH   5   6
BRANCH   3   9
HETATM    9  C6  UNL     1     -34.478  17.948  -3.651  1.00 20.00    -0.010 C 
HETATM   10  C1  UNL     1     -33.387  17.970  -2.568  1.00 20.00     0.005 C 
HETATM   11  C2  UNL     1     -33.998  17.137  -1.434  1.00 20.00     0.005 C 
HETATM   12  C7  UNL     1     -35.371  16.730  -1.997  1.00 20.00    -0.010 C 
HETATM   13  C3  UNL     1     -35.740  18.006  -2.773  1.00 20.00     0.010 C 
ENDBRANCH   3   9
TORSDOF 4
ENDMDL
MODEL 6
REMARK VINA RESULT:      -4.1      2.483      4.605
REMARK  4 active torsions:
REMARK  status: ('A' for Active; 'I' for Inactive)
REMARK    1  A    between atoms: C6_6  and  C8_8 
REMARK    2  A    between atoms: C7_7  and  C9_9 
REMARK    3  A    between atoms: C10_10  and  C11_11 
REMARK    4  A    between atoms: C11_11  and  O12_12 
ROOT
HETATM    1  C4  UNL     1     -35.189  16.646  -1.521  1.00 20.00     0.012 C 
HETATM    2  C5  UNL     1     -33.254  17.985  -1.034  1.00 20.00     0.012 C 
HETATM    3  C8  UNL     1     -34.476  16.870  -2.851  1.00 20.00    -0.006 C 
HETATM    4  C9  UNL     1     -33.232  17.730  -2.538  1.00 20.00    -0.006 C 
HETATM    5  C10 UNL     1     -34.725  17.812  -0.637  1.00 20.00     0.010 C 
ENDROOT
BRANCH   5   6
HETATM    6  C11 UNL     1     -35.543  19.081  -0.877  1.00 20.00     0.168 C 
BRANCH   6   7
HETATM    7  O12 UNL     1     -36.918  18.738  -0.891  1.00 20.00    -0.400 OA
HETATM    8  H30 UNL     1     -37.360  19.309  -0.240  1.00 20.00     0.209 HD
ENDBRANCH   6   7
ENDBRANCH   5   6
BRANCH   3   9
HETATM    9  C6  UNL     1     -33.886  15.676  -3.629  1.00 20.00    -0.010 C 
HETATM   10  C1  UNL     1     -33.218  16.092  -4.950  1.00 20.00     0.005 C 
HETATM   11  C2  UNL     1     -34.404  16.522  -5.824  1.00 20.00     0.005 C 
HETATM   12  C7  UNL     1     -35.617  16.304  -4.904  1.00 20.00    -0.010 C 
HETATM   13  C3  UNL     1     -35.176  15.031  -4.163  1.00 20.00     0.010 C 
ENDBRANCH   3   9
TORSDOF 4
ENDMDL
MODEL 7
REMARK VINA RESULT:      -4.0      1.414      1.879
REMARK  4 active torsions:
REMARK  status: ('A' for Active; 'I' for Inactive)
REMARK    1  A    between atoms: C6_6  and  C8_8 
REMARK    2  A    between atoms: C7_7  and  C9_9 
REMARK    3  A    between atoms: C10_10  and  C11_11 
REMARK    4  A    between atoms: C11_11  and  O12_12 
ROOT
HETATM    1  C4  UNL     1     -34.139  15.799  -6.135  1.00 20.00     0.012 C 
HETATM    2  C5  UNL     1     -33.661  14.289  -4.327  1.00 20.00     0.012 C 
HETATM    3  C8  UNL     1     -34.322  16.598  -4.848  1.00 20.00    -0.006 C 
HETATM    4  C9  UNL     1     -34.015  15.628  -3.686  1.00 20.00    -0.006 C 
HETATM    5  C10 UNL     1     -34.328  14.337  -5.707  1.00 20.00     0.010 C 
ENDROOT
BRANCH   5   6
HETATM    6  C11 UNL     1     -35.802  13.937  -5.652  1.00 20.00     0.168 C 
BRANCH   6   7
HETATM    7  O12 UNL     1     -35.905  12.673  -5.019  1.00 20.00    -0.400 OA
HETATM    8  H30 UNL     1     -36.764  12.296  -5.275  1.00 20.00     0.209 HD
ENDBRANCH   6   7
ENDBRANCH   5   6
BRANCH   3   9
HETATM    9  C6  UNL     1     -33.410  17.805  -4.543  1.00 20.00    -0.010 C 
HETATM   10  C1  UNL     1     -33.696  18.442  -3.173  1.00 20.00     0.005 C 
HETATM   11  C2  UNL     1     -35.074  19.090  -3.367  1.00 20.00     0.005 C 
HETATM   12  C7  UNL     1     -35.421  18.750  -4.826  1.00 20.00    -0.010 C 
HETATM   13  C3  UNL     1     -34.031  18.861  -5.474  1.00 20.00     0.010 C 
ENDBRANCH   3   9
TORSDOF 4
ENDMDL
MODEL 8
REMARK VINA RESULT:      -4.0      1.461      1.684
REMARK  4 active torsions:
REMARK  status: ('A' for Active; 'I' for Inactive)
REMARK    1  A    between atoms: C6_6  and  C8_8 
REMARK    2  A    between atoms: C7_7  and  C9_9 
REMARK    3  A    between atoms: C10_10  and  C11_11 
REMARK    4  A    between atoms: C11_11  and  O12_12 
ROOT
HETATM    1  C4  UNL     1     -33.669  17.030  -5.536  1.00 20.00     0.012 C 
HETATM    2  C5  UNL     1     -32.657  14.970  -4.820  1.00 20.00     0.012 C 
HETATM    3  C8  UNL     1     -34.242  16.727  -4.155  1.00 20.00    -0.006 C 
HETATM    4  C9  UNL     1     -33.592  15.404  -3.695  1.00 20.00    -0.006 C 
HETATM    5  C10 UNL     1     -33.215  15.664  -6.069  1.00 20.00     0.010 C 
ENDROOT
BRANCH   5   6
HETATM    6  C11 UNL     1     -34.363  14.880  -6.703  1.00 20.00     0.168 C 
BRANCH   6   7
HETATM    7  O12 UNL     1     -34.023  13.504  -6.710  1.00 20.00    -0.400 OA
HETATM    8  H30 UNL     1     -33.417  13.357  -5.964  1.00 20.00     0.209 HD
ENDBRANCH   6   7
ENDBRANCH   5   6
BRANCH   3   9
HETATM    9  C6  UNL     1     -33.969  17.679  -2.972  1.00 20.00    -0.010 C 
HETATM   10  C1  UNL     1     -34.488  17.134  -1.631  1.00 20.00     0.005 C 
HETATM   11  C2  UNL     1     -36.013  17.207  -1.788  1.00 20.00     0.005 C 
HETATM   12  C7  UNL     1     -36.194  17.785  -3.202  1.00 20.00    -0.010 C 
HETATM   13  C3  UNL     1     -35.015  18.772  -3.250  1.00 20.00     0.010 C 
ENDBRANCH   3   9
TORSDOF 4
ENDMDL
MODEL 9
REMARK VINA RESULT:      -3.9      1.957      3.121
REMARK  4 active torsions:
REMARK  status: ('A' for Active; 'I' for Inactive)
REMARK    1  A    between atoms: C6_6  and  C8_8 
REMARK    2  A    between atoms: C7_7  and  C9_9 
REMARK    3  A    between atoms: C10_10  and  C11_11 
REMARK    4  A    between atoms: C11_11  and  O12_12 
ROOT
HETATM    1  C4  UNL     1     -35.408  14.113  -6.139  1.00 20.00     0.012 C 
HETATM    2  C5  UNL     1     -37.638  14.335  -5.268  1.00 20.00     0.012 C 
HETATM    3  C8  UNL     1     -35.341  15.184  -5.055  1.00 20.00    -0.006 C 
HETATM    4  C9  UNL     1     -36.774  15.326  -4.495  1.00 20.00    -0.006 C 
HETATM    5  C10 UNL     1     -36.878  14.108  -6.582  1.00 20.00     0.010 C 
ENDROOT
BRANCH   5   6
HETATM    6  C11 UNL     1     -37.174  15.194  -7.616  1.00 20.00     0.168 C 
BRANCH   6   7
HETATM    7  O12 UNL     1     -38.578  15.371  -7.698  1.00 20.00    -0.400 OA
HETATM    8  H30 UNL     1     -38.768  15.732  -8.580  1.00 20.00     0.209 HD
ENDBRANCH   6   7
ENDBRANCH   5   6
BRANCH   3   9
HETATM    9  C6  UNL     1     -34.493  14.956  -3.786  1.00 20.00    -0.010 C 
HETATM   10  C1  UNL     1     -34.451  16.186  -2.865  1.00 20.00     0.005 C 
HETATM   11  C2  UNL     1     -33.614  17.195  -3.662  1.00 20.00     0.005 C 
HETATM   12  C7  UNL     1     -33.273  16.429  -4.952  1.00 20.00    -0.010 C 
HETATM   13  C3  UNL     1     -33.078  15.012  -4.387  1.00 20.00     0.010 C 
ENDBRANCH   3   9
TORSDOF 4
ENDMDL
