MODEL 1
REMARK VINA RESULT:      -5.1      0.000      0.000
REMARK  0 active torsions:
REMARK  status: ('A' for Active; 'I' for Inactive)
ROOT
HETATM    1  C1  UNL     1     -32.740   7.726   2.815  1.00 20.00     0.064 C 
HETATM    2  C2  UNL     1     -33.757   5.531   3.324  1.00 20.00     0.045 C 
HETATM    3  C3  UNL     1     -33.456   7.245   5.132  1.00 20.00     0.045 C 
HETATM    4  C4  UNL     1     -34.684   4.790   4.280  1.00 20.00     0.169 C 
HETATM    5  C5  UNL     1     -34.400   6.407   5.986  1.00 20.00     0.169 C 
HETATM    6  C6  UNL     1     -33.739   7.030   3.642  1.00 20.00     0.097 C 
HETATM    7  N7  UNL     1     -31.953   8.275   2.163  1.00 20.00    -0.197 NA
HETATM    8  O8  UNL     1     -34.309   5.027   5.636  1.00 20.00    -0.391 OA
ENDROOT
TORSDOF 0
ENDMDL
MODEL 2
REMARK VINA RESULT:      -5.0      0.634      1.836
REMARK  0 active torsions:
REMARK  status: ('A' for Active; 'I' for Inactive)
ROOT
HETATM    1  C1  UNL     1     -32.551   7.880   2.541  1.00 20.00     0.064 C 
HETATM    2  C2  UNL     1     -33.633   7.498   4.730  1.00 20.00     0.045 C 
HETATM    3  C3  UNL     1     -33.775   5.766   2.920  1.00 20.00     0.045 C 
HETATM    4  C4  UNL     1     -34.126   6.426   5.695  1.00 20.00     0.169 C 
HETATM    5  C5  UNL     1     -34.261   4.792   3.987  1.00 20.00     0.169 C 
HETATM    6  C6  UNL     1     -32.904   6.861   3.543  1.00 20.00     0.097 C 
HETATM    7  N7  UNL     1     -32.273   8.684   1.751  1.00 20.00    -0.197 NA
HETATM    8  O8  UNL     1     -34.958   5.482   5.023  1.00 20.00    -0.391 OA
ENDROOT
TORSDOF 0
ENDMDL
MODEL 3
REMARK VINA RESULT:      -4.0      2.709      3.796
REMARK  0 active torsions:
REMARK  status: ('A' for Active; 'I' for Inactive)
ROOT
HETATM    1  C1  UNL     1     -34.562   5.307   4.445  1.00 20.00     0.064 C 
HETATM    2  C2  UNL     1     -33.182   7.212   5.206  1.00 20.00     0.045 C 
HETATM    3  C3  UNL     1     -33.078   6.437   2.823  1.00 20.00     0.045 C 
HETATM    4  C4  UNL     1     -32.460   8.475   4.752  1.00 20.00     0.169 C 
HETATM    5  C5  UNL     1     -32.361   7.743   2.502  1.00 20.00     0.169 C 
HETATM    6  C6  UNL     1     -33.979   6.600   4.050  1.00 20.00     0.097 C 
HETATM    7  N7  UNL     1     -35.022   4.289   4.757  1.00 20.00    -0.197 NA
HETATM    8  O8  UNL     1     -31.620   8.204   3.631  1.00 20.00    -0.391 OA
ENDROOT
TORSDOF 0
ENDMDL
MODEL 4
REMARK VINA RESULT:      -3.8     12.052     13.009
REMARK  0 active torsions:
REMARK  status: ('A' for Active; 'I' for Inactive)
ROOT
HETATM    1  C1  UNL     1     -36.738  14.032  -5.227  1.00 20.00     0.064 C 
HETATM    2  C2  UNL     1     -35.016  15.387  -6.374  1.00 20.00     0.045 C 
HETATM    3  C3  UNL     1     -34.522  14.303  -4.166  1.00 20.00     0.045 C 
HETATM    4  C4  UNL     1     -33.516  15.617  -6.516  1.00 20.00     0.169 C 
HETATM    5  C5  UNL     1     -33.049  14.593  -4.432  1.00 20.00     0.169 C 
HETATM    6  C6  UNL     1     -35.295  14.172  -5.482  1.00 20.00     0.097 C 
HETATM    7  N7  UNL     1     -37.875  13.922  -5.027  1.00 20.00    -0.197 NA
HETATM    8  O8  UNL     1     -32.902  15.763  -5.236  1.00 20.00    -0.391 OA
ENDROOT
TORSDOF 0
ENDMDL
MODEL 5
REMARK VINA RESULT:      -3.5     12.099     13.109
REMARK  0 active torsions:
REMARK  status: ('A' for Active; 'I' for Inactive)
ROOT
HETATM    1  C1  UNL     1     -36.933  14.530  -4.841  1.00 20.00     0.064 C 
HETATM    2  C2  UNL     1     -34.538  14.200  -4.322  1.00 20.00     0.045 C 
HETATM    3  C3  UNL     1     -35.259  15.993  -5.921  1.00 20.00     0.045 C 
HETATM    4  C4  UNL     1     -33.176  14.883  -4.281  1.00 20.00     0.169 C 
HETATM    5  C5  UNL     1     -33.856  16.576  -5.791  1.00 20.00     0.169 C 
HETATM    6  C6  UNL     1     -35.639  15.210  -4.662  1.00 20.00     0.097 C 
HETATM    7  N7  UNL     1     -37.952  13.994  -4.981  1.00 20.00    -0.197 NA
HETATM    8  O8  UNL     1     -32.906  15.548  -5.514  1.00 20.00    -0.391 OA
ENDROOT
TORSDOF 0
ENDMDL
MODEL 6
REMARK VINA RESULT:      -3.5     12.319     12.499
REMARK  0 active torsions:
REMARK  status: ('A' for Active; 'I' for Inactive)
ROOT
HETATM    1  C1  UNL     1     -32.108  18.322  -0.543  1.00 20.00     0.064 C 
HETATM    2  C2  UNL     1     -33.401  17.113  -2.269  1.00 20.00     0.045 C 
HETATM    3  C3  UNL     1     -34.510  17.884  -0.155  1.00 20.00     0.045 C 
HETATM    4  C4  UNL     1     -34.797  16.885  -2.835  1.00 20.00     0.169 C 
HETATM    5  C5  UNL     1     -35.845  17.613  -0.840  1.00 20.00     0.169 C 
HETATM    6  C6  UNL     1     -33.425  18.200  -1.190  1.00 20.00     0.097 C 
HETATM    7  N7  UNL     1     -31.070  18.419  -0.034  1.00 20.00    -0.197 NA
HETATM    8  O8  UNL     1     -35.719  16.561  -1.795  1.00 20.00    -0.391 OA
ENDROOT
TORSDOF 0
ENDMDL
MODEL 7
REMARK VINA RESULT:      -3.5     11.948     12.438
REMARK  0 active torsions:
REMARK  status: ('A' for Active; 'I' for Inactive)
ROOT
HETATM    1  C1  UNL     1     -35.619  13.867  -4.969  1.00 20.00     0.064 C 
HETATM    2  C2  UNL     1     -36.444  15.795  -3.659  1.00 20.00     0.045 C 
HETATM    3  C3  UNL     1     -34.003  15.217  -3.674  1.00 20.00     0.045 C 
HETATM    4  C4  UNL     1     -36.051  17.135  -3.049  1.00 20.00     0.169 C 
HETATM    5  C5  UNL     1     -33.746  16.590  -3.063  1.00 20.00     0.169 C 
HETATM    6  C6  UNL     1     -35.295  15.223  -4.496  1.00 20.00     0.097 C 
HETATM    7  N7  UNL     1     -35.874  12.799  -5.342  1.00 20.00    -0.197 NA
HETATM    8  O8  UNL     1     -34.859  17.009  -2.274  1.00 20.00    -0.391 OA
ENDROOT
TORSDOF 0
ENDMDL
MODEL 8
REMARK VINA RESULT:      -3.5     12.265     13.070
REMARK  0 active torsions:
REMARK  status: ('A' for Active; 'I' for Inactive)
ROOT
HETATM    1  C1  UNL     1     -34.018  16.568  -5.279  1.00 20.00     0.064 C 
HETATM    2  C2  UNL     1     -34.038  14.642  -6.830  1.00 20.00     0.045 C 
HETATM    3  C3  UNL     1     -35.357  14.573  -4.697  1.00 20.00     0.045 C 
HETATM    4  C4  UNL     1     -34.838  13.426  -7.280  1.00 20.00     0.169 C 
HETATM    5  C5  UNL     1     -36.083  13.360  -5.267  1.00 20.00     0.169 C 
HETATM    6  C6  UNL     1     -34.839  15.473  -5.823  1.00 20.00     0.097 C 
HETATM    7  N7  UNL     1     -33.370  17.430  -4.852  1.00 20.00    -0.197 NA
HETATM    8  O8  UNL     1     -35.237  12.637  -6.160  1.00 20.00    -0.391 OA
ENDROOT
TORSDOF 0
ENDMDL
MODEL 9
REMARK VINA RESULT:      -3.4     12.219     13.053
REMARK  0 active torsions:
REMARK  status: ('A' for Active; 'I' for Inactive)
ROOT
HETATM    1  C1  UNL     1     -35.249  13.804  -4.997  1.00 20.00     0.064 C 
HETATM    2  C2  UNL     1     -34.442  15.996  -5.806  1.00 20.00     0.045 C 
HETATM    3  C3  UNL     1     -34.629  15.537  -3.347  1.00 20.00     0.045 C 
HETATM    4  C4  UNL     1     -33.605  17.217  -5.442  1.00 20.00     0.169 C 
HETATM    5  C5  UNL     1     -33.782  16.784  -3.121  1.00 20.00     0.169 C 
HETATM    6  C6  UNL     1     -34.334  14.923  -4.718  1.00 20.00     0.097 C 
HETATM    7  N7  UNL     1     -35.970  12.922  -5.217  1.00 20.00    -0.197 NA
HETATM    8  O8  UNL     1     -33.987  17.732  -4.167  1.00 20.00    -0.391 OA
ENDROOT
TORSDOF 0
ENDMDL
