MODEL 1
REMARK VINA RESULT:      -3.6      0.000      0.000
REMARK  0 active torsions:
REMARK  status: ('A' for Active; 'I' for Inactive)
ROOT
HETATM    1  C1  UNL     1     -33.812   6.310   5.836  1.00 20.00     0.011 C 
HETATM    2  C2  UNL     1     -34.880   5.422   5.195  1.00 20.00     0.011 C 
HETATM    3  C3  UNL     1     -33.621   7.652   5.131  1.00 20.00     0.075 C 
HETATM    4  C4  UNL     1     -34.366   4.312   4.280  1.00 20.00     0.075 C 
HETATM    5  C5  UNL     1     -33.584   6.435   2.614  1.00 20.00     0.147 C 
HETATM    6  S6  UNL     1     -32.626   7.605   3.611  1.00 20.00    -0.159 SA
HETATM    7  S7  UNL     1     -33.141   4.723   2.999  1.00 20.00    -0.159 SA
ENDROOT
TORSDOF 0
ENDMDL
MODEL 2
REMARK VINA RESULT:      -3.3      1.494      2.627
REMARK  0 active torsions:
REMARK  status: ('A' for Active; 'I' for Inactive)
ROOT
HETATM    1  C1  UNL     1     -32.435   7.559   4.235  1.00 20.00     0.011 C 
HETATM    2  C2  UNL     1     -33.518   7.955   5.241  1.00 20.00     0.011 C 
HETATM    3  C3  UNL     1     -32.964   7.311   2.824  1.00 20.00     0.075 C 
HETATM    4  C4  UNL     1     -34.023   6.841   6.154  1.00 20.00     0.075 C 
HETATM    5  C5  UNL     1     -35.089   5.768   3.786  1.00 20.00     0.147 C 
HETATM    6  S6  UNL     1     -33.761   5.700   2.556  1.00 20.00    -0.159 SA
HETATM    7  S7  UNL     1     -34.504   5.248   5.418  1.00 20.00    -0.159 SA
ENDROOT
TORSDOF 0
ENDMDL
MODEL 3
REMARK VINA RESULT:      -3.1      1.370      2.010
REMARK  0 active torsions:
REMARK  status: ('A' for Active; 'I' for Inactive)
ROOT
HETATM    1  C1  UNL     1     -33.998   4.520   5.233  1.00 20.00     0.011 C 
HETATM    2  C2  UNL     1     -34.403   4.448   3.759  1.00 20.00     0.011 C 
HETATM    3  C3  UNL     1     -34.589   5.715   5.978  1.00 20.00     0.075 C 
HETATM    4  C4  UNL     1     -33.372   4.959   2.756  1.00 20.00     0.075 C 
HETATM    5  C5  UNL     1     -33.914   7.466   3.904  1.00 20.00     0.147 C 
HETATM    6  S6  UNL     1     -33.751   7.304   5.701  1.00 20.00    -0.159 SA
HETATM    7  S7  UNL     1     -32.593   6.578   3.040  1.00 20.00    -0.159 SA
ENDROOT
TORSDOF 0
ENDMDL
MODEL 4
REMARK VINA RESULT:      -3.1      1.412      2.658
REMARK  0 active torsions:
REMARK  status: ('A' for Active; 'I' for Inactive)
ROOT
HETATM    1  C1  UNL     1     -34.083   7.275   5.394  1.00 20.00     0.011 C 
HETATM    2  C2  UNL     1     -32.775   7.554   4.651  1.00 20.00     0.011 C 
HETATM    3  C3  UNL     1     -34.224   5.832   5.876  1.00 20.00     0.075 C 
HETATM    4  C4  UNL     1     -32.861   7.570   3.127  1.00 20.00     0.075 C 
HETATM    5  C5  UNL     1     -33.379   4.822   3.409  1.00 20.00     0.147 C 
HETATM    6  S6  UNL     1     -34.721   4.627   4.609  1.00 20.00    -0.159 SA
HETATM    7  S7  UNL     1     -33.701   6.198   2.277  1.00 20.00    -0.159 SA
ENDROOT
TORSDOF 0
ENDMDL
MODEL 5
REMARK VINA RESULT:      -3.1     12.687     13.431
REMARK  0 active torsions:
REMARK  status: ('A' for Active; 'I' for Inactive)
ROOT
HETATM    1  C1  UNL     1     -35.139  14.429  -4.289  1.00 20.00     0.011 C 
HETATM    2  C2  UNL     1     -33.616  14.439  -4.425  1.00 20.00     0.011 C 
HETATM    3  C3  UNL     1     -35.838  13.457  -5.237  1.00 20.00     0.075 C 
HETATM    4  C4  UNL     1     -33.025  15.582  -5.247  1.00 20.00     0.075 C 
HETATM    5  C5  UNL     1     -34.296  14.312  -7.407  1.00 20.00     0.147 C 
HETATM    6  S6  UNL     1     -36.026  14.031  -6.951  1.00 20.00    -0.159 SA
HETATM    7  S7  UNL     1     -33.733  15.950  -6.882  1.00 20.00    -0.159 SA
ENDROOT
TORSDOF 0
ENDMDL
MODEL 6
REMARK VINA RESULT:      -3.0      1.496      3.340
REMARK  0 active torsions:
REMARK  status: ('A' for Active; 'I' for Inactive)
ROOT
HETATM    1  C1  UNL     1     -33.295   4.698   3.124  1.00 20.00     0.011 C 
HETATM    2  C2  UNL     1     -33.619   6.014   2.413  1.00 20.00     0.011 C 
HETATM    3  C3  UNL     1     -34.358   4.263   4.131  1.00 20.00     0.075 C 
HETATM    4  C4  UNL     1     -32.915   7.257   2.953  1.00 20.00     0.075 C 
HETATM    5  C5  UNL     1     -34.516   6.833   5.223  1.00 20.00     0.147 C 
HETATM    6  S6  UNL     1     -34.308   5.109   5.739  1.00 20.00    -0.159 SA
HETATM    7  S7  UNL     1     -32.934   7.573   4.745  1.00 20.00    -0.159 SA
ENDROOT
TORSDOF 0
ENDMDL
MODEL 7
REMARK VINA RESULT:      -2.9     12.135     13.557
REMARK  0 active torsions:
REMARK  status: ('A' for Active; 'I' for Inactive)
ROOT
HETATM    1  C1  UNL     1     -34.030  15.496  -7.179  1.00 20.00     0.011 C 
HETATM    2  C2  UNL     1     -34.152  13.982  -7.366  1.00 20.00     0.011 C 
HETATM    3  C3  UNL     1     -33.260  15.903  -5.925  1.00 20.00     0.075 C 
HETATM    4  C4  UNL     1     -35.481  13.361  -6.943  1.00 20.00     0.075 C 
HETATM    5  C5  UNL     1     -34.664  14.068  -4.349  1.00 20.00     0.147 C 
HETATM    6  S6  UNL     1     -34.195  15.817  -4.368  1.00 20.00    -0.159 SA
HETATM    7  S7  UNL     1     -36.170  13.778  -5.311  1.00 20.00    -0.159 SA
ENDROOT
TORSDOF 0
ENDMDL
MODEL 8
REMARK VINA RESULT:      -2.9     12.508     13.372
REMARK  0 active torsions:
REMARK  status: ('A' for Active; 'I' for Inactive)
ROOT
HETATM    1  C1  UNL     1     -33.408  14.506  -4.680  1.00 20.00     0.011 C 
HETATM    2  C2  UNL     1     -34.827  14.252  -4.168  1.00 20.00     0.011 C 
HETATM    3  C3  UNL     1     -33.183  15.924  -5.199  1.00 20.00     0.075 C 
HETATM    4  C4  UNL     1     -35.764  13.523  -5.128  1.00 20.00     0.075 C 
HETATM    5  C5  UNL     1     -35.570  15.873  -6.656  1.00 20.00     0.147 C 
HETATM    6  S6  UNL     1     -33.812  16.256  -6.872  1.00 20.00    -0.159 SA
HETATM    7  S7  UNL     1     -35.887  14.102  -6.849  1.00 20.00    -0.159 SA
ENDROOT
TORSDOF 0
ENDMDL
MODEL 9
REMARK VINA RESULT:      -2.9      0.672      2.670
REMARK  0 active torsions:
REMARK  status: ('A' for Active; 'I' for Inactive)
ROOT
HETATM    1  C1  UNL     1     -34.901   5.080   5.145  1.00 20.00     0.011 C 
HETATM    2  C2  UNL     1     -33.999   6.043   5.920  1.00 20.00     0.011 C 
HETATM    3  C3  UNL     1     -34.142   4.128   4.223  1.00 20.00     0.075 C 
HETATM    4  C4  UNL     1     -33.891   7.458   5.357  1.00 20.00     0.075 C 
HETATM    5  C5  UNL     1     -32.558   6.204   3.224  1.00 20.00     0.147 C 
HETATM    6  S6  UNL     1     -33.595   4.838   2.642  1.00 20.00    -0.159 SA
HETATM    7  S7  UNL     1     -33.547   7.677   3.583  1.00 20.00    -0.159 SA
ENDROOT
TORSDOF 0
ENDMDL
