MODEL 1
REMARK VINA RESULT:      -6.0      0.000      0.000
REMARK  0 active torsions:
REMARK  status: ('A' for Active; 'I' for Inactive)
ROOT
HETATM    1  C1  UNL     1     -33.332   7.118   2.347  1.00 20.00     0.029 A 
HETATM    2  C2  UNL     1     -31.805   8.501   3.573  1.00 20.00     0.136 A 
HETATM    3  C3  UNL     1     -33.832   6.705   3.565  1.00 20.00    -0.032 A 
HETATM    4  C4  UNL     1     -32.286   8.037   2.348  1.00 20.00     0.029 A 
HETATM    5  C5  UNL     1     -33.287   7.228   4.732  1.00 20.00     0.040 A 
HETATM    6  C6  UNL     1     -34.955   5.769   3.860  1.00 20.00     0.041 C 
HETATM    7  C7  UNL     1     -34.003   6.694   5.939  1.00 20.00     0.060 C 
HETATM    8  C8  UNL     1     -34.697   5.459   5.345  1.00 20.00     0.011 C 
HETATM    9  N9  UNL     1     -32.285   8.122   4.782  1.00 20.00    -0.264 NA
HETATM   10 BR10 UNL     1     -31.538   8.645   0.728  1.00 20.00    -0.050 Br
ENDROOT
TORSDOF 0
ENDMDL
MODEL 2
REMARK VINA RESULT:      -5.5      1.437      2.090
REMARK  0 active torsions:
REMARK  status: ('A' for Active; 'I' for Inactive)
ROOT
HETATM    1  C1  UNL     1     -33.036   7.899   3.793  1.00 20.00     0.029 A 
HETATM    2  C2  UNL     1     -33.107   6.372   1.946  1.00 20.00     0.136 A 
HETATM    3  C3  UNL     1     -33.608   6.900   4.555  1.00 20.00    -0.032 A 
HETATM    4  C4  UNL     1     -32.783   7.632   2.450  1.00 20.00     0.029 A 
HETATM    5  C5  UNL     1     -33.892   5.676   3.961  1.00 20.00     0.040 A 
HETATM    6  C6  UNL     1     -33.955   6.896   6.006  1.00 20.00     0.041 C 
HETATM    7  C7  UNL     1     -34.456   4.715   4.968  1.00 20.00     0.060 C 
HETATM    8  C8  UNL     1     -34.895   5.681   6.079  1.00 20.00     0.011 C 
HETATM    9  N9  UNL     1     -33.657   5.370   2.674  1.00 20.00    -0.264 NA
HETATM   10 BR10 UNL     1     -32.014   8.944   1.337  1.00 20.00    -0.050 Br
ENDROOT
TORSDOF 0
ENDMDL
MODEL 3
REMARK VINA RESULT:      -4.3     11.528     12.274
REMARK  0 active torsions:
REMARK  status: ('A' for Active; 'I' for Inactive)
ROOT
HETATM    1  C1  UNL     1     -34.981  15.141  -3.839  1.00 20.00     0.029 A 
HETATM    2  C2  UNL     1     -33.202  16.457  -4.762  1.00 20.00     0.136 A 
HETATM    3  C3  UNL     1     -35.030  14.479  -5.048  1.00 20.00    -0.032 A 
HETATM    4  C4  UNL     1     -34.045  16.163  -3.691  1.00 20.00     0.029 A 
HETATM    5  C5  UNL     1     -34.144  14.845  -6.055  1.00 20.00     0.040 A 
HETATM    6  C6  UNL     1     -35.895  13.340  -5.471  1.00 20.00     0.041 C 
HETATM    7  C7  UNL     1     -34.324  13.972  -7.264  1.00 20.00     0.060 C 
HETATM    8  C8  UNL     1     -35.720  13.389  -6.998  1.00 20.00     0.011 C 
HETATM    9  N9  UNL     1     -33.220  15.815  -5.955  1.00 20.00    -0.264 NA
HETATM   10 BR10 UNL     1     -33.919  17.125  -2.074  1.00 20.00    -0.050 Br
ENDROOT
TORSDOF 0
ENDMDL
MODEL 4
REMARK VINA RESULT:      -4.2     11.379     11.781
REMARK  0 active torsions:
REMARK  status: ('A' for Active; 'I' for Inactive)
ROOT
HETATM    1  C1  UNL     1     -35.172  17.009  -1.139  1.00 20.00     0.029 A 
HETATM    2  C2  UNL     1     -33.299  17.452  -2.569  1.00 20.00     0.136 A 
HETATM    3  C3  UNL     1     -34.539  17.776  -0.183  1.00 20.00    -0.032 A 
HETATM    4  C4  UNL     1     -34.533  16.836  -2.365  1.00 20.00     0.029 A 
HETATM    5  C5  UNL     1     -33.309  18.351  -0.483  1.00 20.00     0.040 A 
HETATM    6  C6  UNL     1     -34.997  18.152   1.186  1.00 20.00     0.041 C 
HETATM    7  C7  UNL     1     -32.819  19.186   0.665  1.00 20.00     0.060 C 
HETATM    8  C8  UNL     1     -33.680  18.637   1.814  1.00 20.00     0.011 C 
HETATM    9  N9  UNL     1     -32.661  18.220  -1.652  1.00 20.00    -0.264 NA
HETATM   10 BR10 UNL     1     -35.324  15.794  -3.722  1.00 20.00    -0.050 Br
ENDROOT
TORSDOF 0
ENDMDL
MODEL 5
REMARK VINA RESULT:      -4.2     11.586     12.019
REMARK  0 active torsions:
REMARK  status: ('A' for Active; 'I' for Inactive)
ROOT
HETATM    1  C1  UNL     1     -34.692  17.912   0.235  1.00 20.00     0.029 A 
HETATM    2  C2  UNL     1     -32.440  18.700   0.005  1.00 20.00     0.136 A 
HETATM    3  C3  UNL     1     -34.587  17.434  -1.055  1.00 20.00    -0.032 A 
HETATM    4  C4  UNL     1     -33.592  18.569   0.780  1.00 20.00     0.029 A 
HETATM    5  C5  UNL     1     -33.393  17.612  -1.746  1.00 20.00     0.040 A 
HETATM    6  C6  UNL     1     -35.579  16.673  -1.869  1.00 20.00     0.041 C 
HETATM    7  C7  UNL     1     -33.466  16.974  -3.104  1.00 20.00     0.060 C 
HETATM    8  C8  UNL     1     -34.985  16.830  -3.279  1.00 20.00     0.011 C 
HETATM    9  N9  UNL     1     -32.305  18.229  -1.259  1.00 20.00    -0.264 NA
HETATM   10 BR10 UNL     1     -33.657  19.263   2.531  1.00 20.00    -0.050 Br
ENDROOT
TORSDOF 0
ENDMDL
MODEL 6
REMARK VINA RESULT:      -4.2     11.483     12.077
REMARK  0 active torsions:
REMARK  status: ('A' for Active; 'I' for Inactive)
ROOT
HETATM    1  C1  UNL     1     -35.342  15.236  -3.833  1.00 20.00     0.029 A 
HETATM    2  C2  UNL     1     -33.767  15.815  -5.545  1.00 20.00     0.136 A 
HETATM    3  C3  UNL     1     -34.765  16.224  -3.061  1.00 20.00    -0.032 A 
HETATM    4  C4  UNL     1     -34.827  15.020  -5.109  1.00 20.00     0.029 A 
HETATM    5  C5  UNL     1     -33.713  16.965  -3.587  1.00 20.00     0.040 A 
HETATM    6  C6  UNL     1     -35.128  16.690  -1.691  1.00 20.00     0.041 C 
HETATM    7  C7  UNL     1     -33.267  18.018  -2.615  1.00 20.00     0.060 C 
HETATM    8  C8  UNL     1     -33.867  17.481  -1.307  1.00 20.00     0.011 C 
HETATM    9  N9  UNL     1     -33.191  16.799  -4.813  1.00 20.00    -0.264 NA
HETATM   10 BR10 UNL     1     -35.550  13.683  -6.224  1.00 20.00    -0.050 Br
ENDROOT
TORSDOF 0
ENDMDL
MODEL 7
REMARK VINA RESULT:      -4.1     11.500     11.998
REMARK  0 active torsions:
REMARK  status: ('A' for Active; 'I' for Inactive)
ROOT
HETATM    1  C1  UNL     1     -33.492  16.373  -4.204  1.00 20.00     0.029 A 
HETATM    2  C2  UNL     1     -35.726  15.598  -4.600  1.00 20.00     0.136 A 
HETATM    3  C3  UNL     1     -33.919  16.758  -2.949  1.00 20.00    -0.032 A 
HETATM    4  C4  UNL     1     -34.421  15.782  -5.057  1.00 20.00     0.029 A 
HETATM    5  C5  UNL     1     -35.242  16.528  -2.586  1.00 20.00     0.040 A 
HETATM    6  C6  UNL     1     -33.146  17.375  -1.832  1.00 20.00     0.041 C 
HETATM    7  C7  UNL     1     -35.487  16.967  -1.171  1.00 20.00     0.060 C 
HETATM    8  C8  UNL     1     -34.286  17.896  -0.940  1.00 20.00     0.011 C 
HETATM    9  N9  UNL     1     -36.168  15.954  -3.370  1.00 20.00    -0.264 NA
HETATM   10 BR10 UNL     1     -33.923  15.238  -6.792  1.00 20.00    -0.050 Br
ENDROOT
TORSDOF 0
ENDMDL
MODEL 8
REMARK VINA RESULT:      -4.0     11.492     11.825
REMARK  0 active torsions:
REMARK  status: ('A' for Active; 'I' for Inactive)
ROOT
HETATM    1  C1  UNL     1     -33.393  17.126  -1.940  1.00 20.00     0.029 A 
HETATM    2  C2  UNL     1     -35.456  17.851  -0.958  1.00 20.00     0.136 A 
HETATM    3  C3  UNL     1     -34.151  16.401  -2.837  1.00 20.00    -0.032 A 
HETATM    4  C4  UNL     1     -34.061  17.868  -0.969  1.00 20.00     0.029 A 
HETATM    5  C5  UNL     1     -35.538  16.452  -2.745  1.00 20.00     0.040 A 
HETATM    6  C6  UNL     1     -33.712  15.556  -3.985  1.00 20.00     0.041 C 
HETATM    7  C7  UNL     1     -36.172  15.643  -3.839  1.00 20.00     0.060 C 
HETATM    8  C8  UNL     1     -34.994  14.755  -4.268  1.00 20.00     0.011 C 
HETATM    9  N9  UNL     1     -36.225  17.159  -1.833  1.00 20.00    -0.264 NA
HETATM   10 BR10 UNL     1     -33.100  18.876   0.300  1.00 20.00    -0.050 Br
ENDROOT
TORSDOF 0
ENDMDL
MODEL 9
REMARK VINA RESULT:      -3.9     11.363     12.421
REMARK  0 active torsions:
REMARK  status: ('A' for Active; 'I' for Inactive)
ROOT
HETATM    1  C1  UNL     1     -34.401  16.304  -2.487  1.00 20.00     0.029 A 
HETATM    2  C2  UNL     1     -33.559  18.375  -3.354  1.00 20.00     0.136 A 
HETATM    3  C3  UNL     1     -34.109  15.747  -3.715  1.00 20.00    -0.032 A 
HETATM    4  C4  UNL     1     -34.124  17.657  -2.300  1.00 20.00     0.029 A 
HETATM    5  C5  UNL     1     -33.543  16.546  -4.702  1.00 20.00     0.040 A 
HETATM    6  C6  UNL     1     -34.266  14.338  -4.178  1.00 20.00     0.041 C 
HETATM    7  C7  UNL     1     -33.254  15.741  -5.936  1.00 20.00     0.060 C 
HETATM    8  C8  UNL     1     -34.149  14.515  -5.701  1.00 20.00     0.011 C 
HETATM    9  N9  UNL     1     -33.251  17.850  -4.565  1.00 20.00    -0.264 NA
HETATM   10 BR10 UNL     1     -34.503  18.498  -0.657  1.00 20.00    -0.050 Br
ENDROOT
TORSDOF 0
ENDMDL
