MODEL 1
REMARK VINA RESULT:      -6.1      0.000      0.000
REMARK  5 active torsions:
REMARK  status: ('A' for Active; 'I' for Inactive)
REMARK    1  A    between atoms: C3_3  and  C6_6 
REMARK    2  A    between atoms: C5_5  and  C7_7 
REMARK    3  A    between atoms: C6_6  and  C8_8 
REMARK    4  A    between atoms: C7_7  and  C9_9 
REMARK    5  A    between atoms: C8_8  and  C9_9 
ROOT
HETATM    1  C1  UNL     1     -32.960   9.580   0.106  1.00 20.00     0.059 C 
HETATM    2  C5  UNL     1     -32.190   9.682   1.353  1.00 20.00     0.124 C 
HETATM    3  N10 UNL     1     -33.568   9.501  -0.879  1.00 20.00    -0.197 NA
ENDROOT
BRANCH   2   4
HETATM    4  C7  UNL     1     -31.633   8.330   1.802  1.00 20.00     0.014 C 
BRANCH   4   5
HETATM    5  C9  UNL     1     -32.263   7.832   3.107  1.00 20.00     0.001 C 
BRANCH   5   6
HETATM    6  C8  UNL     1     -32.973   6.490   2.901  1.00 20.00     0.004 C 
BRANCH   6   7
HETATM    7  C6  UNL     1     -34.352   6.427   3.569  1.00 20.00     0.033 C 
BRANCH   7   8
HETATM    8  C3  UNL     1     -34.323   6.103   5.044  1.00 20.00    -0.093 C 
HETATM    9  C2  UNL     1     -34.628   4.876   5.498  1.00 20.00     0.014 C 
HETATM   10  C4  UNL     1     -33.903   7.199   5.980  1.00 20.00     0.042 C 
ENDBRANCH   7   8
ENDBRANCH   6   7
ENDBRANCH   5   6
ENDBRANCH   4   5
ENDBRANCH   2   4
TORSDOF 5
ENDMDL
MODEL 2
REMARK VINA RESULT:      -6.1      2.544      5.491
REMARK  5 active torsions:
REMARK  status: ('A' for Active; 'I' for Inactive)
REMARK    1  A    between atoms: C3_3  and  C6_6 
REMARK    2  A    between atoms: C5_5  and  C7_7 
REMARK    3  A    between atoms: C6_6  and  C8_8 
REMARK    4  A    between atoms: C7_7  and  C9_9 
REMARK    5  A    between atoms: C8_8  and  C9_9 
ROOT
HETATM    1  C1  UNL     1     -34.410   5.074   4.828  1.00 20.00     0.059 C 
HETATM    2  C5  UNL     1     -34.427   6.416   5.425  1.00 20.00     0.124 C 
HETATM    3  N10 UNL     1     -34.400   4.013   4.357  1.00 20.00    -0.197 NA
ENDROOT
BRANCH   2   4
HETATM    4  C7  UNL     1     -33.249   7.272   4.956  1.00 20.00     0.014 C 
BRANCH   4   5
HETATM    5  C9  UNL     1     -33.093   7.285   3.431  1.00 20.00     0.001 C 
BRANCH   5   6
HETATM    6  C8  UNL     1     -31.968   8.230   2.998  1.00 20.00     0.004 C 
BRANCH   6   7
HETATM    7  C6  UNL     1     -31.835   8.352   1.476  1.00 20.00     0.033 C 
BRANCH   7   8
HETATM    8  C3  UNL     1     -32.563   9.530   0.872  1.00 20.00    -0.093 C 
HETATM    9  C2  UNL     1     -32.665  10.699   1.523  1.00 20.00     0.014 C 
HETATM   10  C4  UNL     1     -33.138   9.349  -0.503  1.00 20.00     0.042 C 
ENDBRANCH   7   8
ENDBRANCH   6   7
ENDBRANCH   5   6
ENDBRANCH   4   5
ENDBRANCH   2   4
TORSDOF 5
ENDMDL
MODEL 3
REMARK VINA RESULT:      -6.1      2.601      5.402
REMARK  5 active torsions:
REMARK  status: ('A' for Active; 'I' for Inactive)
REMARK    1  A    between atoms: C3_3  and  C6_6 
REMARK    2  A    between atoms: C5_5  and  C7_7 
REMARK    3  A    between atoms: C6_6  and  C8_8 
REMARK    4  A    between atoms: C7_7  and  C9_9 
REMARK    5  A    between atoms: C8_8  and  C9_9 
ROOT
HETATM    1  C1  UNL     1     -34.463   4.825   5.043  1.00 20.00     0.059 C 
HETATM    2  C5  UNL     1     -34.463   6.039   5.870  1.00 20.00     0.124 C 
HETATM    3  N10 UNL     1     -34.465   3.865   4.391  1.00 20.00    -0.197 NA
ENDROOT
BRANCH   2   4
HETATM    4  C7  UNL     1     -33.674   7.179   5.225  1.00 20.00     0.014 C 
BRANCH   4   5
HETATM    5  C9  UNL     1     -33.872   7.254   3.707  1.00 20.00     0.001 C 
BRANCH   5   6
HETATM    6  C8  UNL     1     -32.534   7.158   2.968  1.00 20.00     0.004 C 
BRANCH   6   7
HETATM    7  C6  UNL     1     -31.840   8.515   2.797  1.00 20.00     0.033 C 
BRANCH   7   8
HETATM    8  C3  UNL     1     -32.005   9.139   1.431  1.00 20.00    -0.093 C 
HETATM    9  C2  UNL     1     -31.424   8.608   0.344  1.00 20.00     0.014 C 
HETATM   10  C4  UNL     1     -32.876  10.358   1.335  1.00 20.00     0.042 C 
ENDBRANCH   7   8
ENDBRANCH   6   7
ENDBRANCH   5   6
ENDBRANCH   4   5
ENDBRANCH   2   4
TORSDOF 5
ENDMDL
MODEL 4
REMARK VINA RESULT:      -6.0      2.605      5.468
REMARK  5 active torsions:
REMARK  status: ('A' for Active; 'I' for Inactive)
REMARK    1  A    between atoms: C3_3  and  C6_6 
REMARK    2  A    between atoms: C5_5  and  C7_7 
REMARK    3  A    between atoms: C6_6  and  C8_8 
REMARK    4  A    between atoms: C7_7  and  C9_9 
REMARK    5  A    between atoms: C8_8  and  C9_9 
ROOT
HETATM    1  C1  UNL     1     -34.446   4.845   5.080  1.00 20.00     0.059 C 
HETATM    2  C5  UNL     1     -34.462   6.068   5.894  1.00 20.00     0.124 C 
HETATM    3  N10 UNL     1     -34.434   3.878   4.439  1.00 20.00    -0.197 NA
ENDROOT
BRANCH   2   4
HETATM    4  C7  UNL     1     -33.697   7.215   5.231  1.00 20.00     0.014 C 
BRANCH   4   5
HETATM    5  C9  UNL     1     -33.895   7.261   3.712  1.00 20.00     0.001 C 
BRANCH   5   6
HETATM    6  C8  UNL     1     -32.554   7.170   2.977  1.00 20.00     0.004 C 
BRANCH   6   7
HETATM    7  C6  UNL     1     -31.860   8.528   2.816  1.00 20.00     0.033 C 
BRANCH   7   8
HETATM    8  C3  UNL     1     -32.074   9.191   1.476  1.00 20.00    -0.093 C 
HETATM    9  C2  UNL     1     -32.854  10.276   1.348  1.00 20.00     0.014 C 
HETATM   10  C4  UNL     1     -31.349   8.607   0.298  1.00 20.00     0.042 C 
ENDBRANCH   7   8
ENDBRANCH   6   7
ENDBRANCH   5   6
ENDBRANCH   4   5
ENDBRANCH   2   4
TORSDOF 5
ENDMDL
MODEL 5
REMARK VINA RESULT:      -6.0      0.569      1.371
REMARK  5 active torsions:
REMARK  status: ('A' for Active; 'I' for Inactive)
REMARK    1  A    between atoms: C3_3  and  C6_6 
REMARK    2  A    between atoms: C5_5  and  C7_7 
REMARK    3  A    between atoms: C6_6  and  C8_8 
REMARK    4  A    between atoms: C7_7  and  C9_9 
REMARK    5  A    between atoms: C8_8  and  C9_9 
ROOT
HETATM    1  C1  UNL     1     -32.544   9.148   0.378  1.00 20.00     0.059 C 
HETATM    2  C5  UNL     1     -31.706   8.670   1.486  1.00 20.00     0.124 C 
HETATM    3  N10 UNL     1     -33.205   9.525  -0.498  1.00 20.00    -0.197 NA
ENDROOT
BRANCH   2   4
HETATM    4  C7  UNL     1     -32.539   8.155   2.662  1.00 20.00     0.014 C 
BRANCH   4   5
HETATM    5  C9  UNL     1     -32.463   6.632   2.821  1.00 20.00     0.001 C 
BRANCH   5   6
HETATM    6  C8  UNL     1     -33.846   5.991   2.670  1.00 20.00     0.004 C 
BRANCH   6   7
HETATM    7  C6  UNL     1     -34.838   6.433   3.753  1.00 20.00     0.033 C 
BRANCH   7   8
HETATM    8  C3  UNL     1     -34.378   6.180   5.170  1.00 20.00    -0.093 C 
HETATM    9  C2  UNL     1     -33.891   7.170   5.935  1.00 20.00     0.014 C 
HETATM   10  C4  UNL     1     -34.524   4.783   5.699  1.00 20.00     0.042 C 
ENDBRANCH   7   8
ENDBRANCH   6   7
ENDBRANCH   5   6
ENDBRANCH   4   5
ENDBRANCH   2   4
TORSDOF 5
ENDMDL
MODEL 6
REMARK VINA RESULT:      -5.9      2.476      5.444
REMARK  5 active torsions:
REMARK  status: ('A' for Active; 'I' for Inactive)
REMARK    1  A    between atoms: C3_3  and  C6_6 
REMARK    2  A    between atoms: C5_5  and  C7_7 
REMARK    3  A    between atoms: C6_6  and  C8_8 
REMARK    4  A    between atoms: C7_7  and  C9_9 
REMARK    5  A    between atoms: C8_8  and  C9_9 
ROOT
HETATM    1  C1  UNL     1     -34.212   6.468   5.474  1.00 20.00     0.059 C 
HETATM    2  C5  UNL     1     -34.541   5.492   4.427  1.00 20.00     0.124 C 
HETATM    3  N10 UNL     1     -33.952   7.238   6.302  1.00 20.00    -0.197 NA
ENDROOT
BRANCH   2   4
HETATM    4  C7  UNL     1     -34.356   6.066   3.021  1.00 20.00     0.014 C 
BRANCH   4   5
HETATM    5  C9  UNL     1     -32.888   6.349   2.683  1.00 20.00     0.001 C 
BRANCH   5   6
HETATM    6  C8  UNL     1     -32.572   7.843   2.801  1.00 20.00     0.004 C 
BRANCH   6   7
HETATM    7  C6  UNL     1     -31.832   8.402   1.580  1.00 20.00     0.033 C 
BRANCH   7   8
HETATM    8  C3  UNL     1     -32.555   9.518   0.862  1.00 20.00    -0.093 C 
HETATM    9  C2  UNL     1     -32.710  10.727   1.423  1.00 20.00     0.014 C 
HETATM   10  C4  UNL     1     -33.061   9.228  -0.522  1.00 20.00     0.042 C 
ENDBRANCH   7   8
ENDBRANCH   6   7
ENDBRANCH   5   6
ENDBRANCH   4   5
ENDBRANCH   2   4
TORSDOF 5
ENDMDL
MODEL 7
REMARK VINA RESULT:      -5.6      1.010      1.525
REMARK  5 active torsions:
REMARK  status: ('A' for Active; 'I' for Inactive)
REMARK    1  A    between atoms: C3_3  and  C6_6 
REMARK    2  A    between atoms: C5_5  and  C7_7 
REMARK    3  A    between atoms: C6_6  and  C8_8 
REMARK    4  A    between atoms: C7_7  and  C9_9 
REMARK    5  A    between atoms: C8_8  and  C9_9 
ROOT
HETATM    1  C1  UNL     1     -32.465   9.234   0.306  1.00 20.00     0.059 C 
HETATM    2  C5  UNL     1     -31.399   8.653   1.133  1.00 20.00     0.124 C 
HETATM    3  N10 UNL     1     -33.306   9.692  -0.349  1.00 20.00    -0.197 NA
ENDROOT
BRANCH   2   4
HETATM    4  C7  UNL     1     -31.844   8.432   2.580  1.00 20.00     0.014 C 
BRANCH   4   5
HETATM    5  C9  UNL     1     -32.611   7.118   2.771  1.00 20.00     0.001 C 
BRANCH   5   6
HETATM    6  C8  UNL     1     -33.860   7.327   3.632  1.00 20.00     0.004 C 
BRANCH   6   7
HETATM    7  C6  UNL     1     -34.806   6.121   3.626  1.00 20.00     0.033 C 
BRANCH   7   8
HETATM    8  C3  UNL     1     -34.487   5.065   4.659  1.00 20.00    -0.093 C 
HETATM    9  C2  UNL     1     -34.658   5.294   5.971  1.00 20.00     0.014 C 
HETATM   10  C4  UNL     1     -34.007   3.735   4.154  1.00 20.00     0.042 C 
ENDBRANCH   7   8
ENDBRANCH   6   7
ENDBRANCH   5   6
ENDBRANCH   4   5
ENDBRANCH   2   4
TORSDOF 5
ENDMDL
MODEL 8
REMARK VINA RESULT:      -5.6      2.443      5.265
REMARK  5 active torsions:
REMARK  status: ('A' for Active; 'I' for Inactive)
REMARK    1  A    between atoms: C3_3  and  C6_6 
REMARK    2  A    between atoms: C5_5  and  C7_7 
REMARK    3  A    between atoms: C6_6  and  C8_8 
REMARK    4  A    between atoms: C7_7  and  C9_9 
REMARK    5  A    between atoms: C8_8  and  C9_9 
ROOT
HETATM    1  C1  UNL     1     -34.074   6.601   5.795  1.00 20.00     0.059 C 
HETATM    2  C5  UNL     1     -34.569   5.300   5.326  1.00 20.00     0.124 C 
HETATM    3  N10 UNL     1     -33.683   7.628   6.168  1.00 20.00    -0.197 NA
ENDROOT
BRANCH   2   4
HETATM    4  C7  UNL     1     -34.247   5.056   3.851  1.00 20.00     0.014 C 
BRANCH   4   5
HETATM    5  C9  UNL     1     -34.242   6.346   3.022  1.00 20.00     0.001 C 
BRANCH   5   6
HETATM    6  C8  UNL     1     -32.835   6.665   2.506  1.00 20.00     0.004 C 
BRANCH   6   7
HETATM    7  C6  UNL     1     -32.419   8.121   2.750  1.00 20.00     0.033 C 
BRANCH   7   8
HETATM    8  C3  UNL     1     -32.161   8.922   1.496  1.00 20.00    -0.093 C 
HETATM    9  C2  UNL     1     -31.277   8.513   0.573  1.00 20.00     0.014 C 
HETATM   10  C4  UNL     1     -32.963  10.177   1.307  1.00 20.00     0.042 C 
ENDBRANCH   7   8
ENDBRANCH   6   7
ENDBRANCH   5   6
ENDBRANCH   4   5
ENDBRANCH   2   4
TORSDOF 5
ENDMDL
MODEL 9
REMARK VINA RESULT:      -4.6      2.234      4.841
REMARK  5 active torsions:
REMARK  status: ('A' for Active; 'I' for Inactive)
REMARK    1  A    between atoms: C3_3  and  C6_6 
REMARK    2  A    between atoms: C5_5  and  C7_7 
REMARK    3  A    between atoms: C6_6  and  C8_8 
REMARK    4  A    between atoms: C7_7  and  C9_9 
REMARK    5  A    between atoms: C8_8  and  C9_9 
ROOT
HETATM    1  C1  UNL     1     -33.698   4.496   3.367  1.00 20.00     0.059 C 
HETATM    2  C5  UNL     1     -34.683   4.424   4.454  1.00 20.00     0.124 C 
HETATM    3  N10 UNL     1     -32.922   4.551   2.506  1.00 20.00    -0.197 NA
ENDROOT
BRANCH   2   4
HETATM    4  C7  UNL     1     -34.149   5.020   5.758  1.00 20.00     0.014 C 
BRANCH   4   5
HETATM    5  C9  UNL     1     -34.456   6.515   5.898  1.00 20.00     0.001 C 
BRANCH   5   6
HETATM    6  C8  UNL     1     -33.334   7.368   5.299  1.00 20.00     0.004 C 
BRANCH   6   7
HETATM    7  C6  UNL     1     -33.601   7.784   3.847  1.00 20.00     0.033 C 
BRANCH   7   8
HETATM    8  C3  UNL     1     -32.368   8.178   3.067  1.00 20.00    -0.093 C 
HETATM    9  C2  UNL     1     -31.150   8.167   3.630  1.00 20.00     0.014 C 
HETATM   10  C4  UNL     1     -32.559   8.548   1.624  1.00 20.00     0.042 C 
ENDBRANCH   7   8
ENDBRANCH   6   7
ENDBRANCH   5   6
ENDBRANCH   4   5
ENDBRANCH   2   4
TORSDOF 5
ENDMDL
