MODEL 1
REMARK VINA RESULT:      -6.3      0.000      0.000
REMARK  6 active torsions:
REMARK  status: ('A' for Active; 'I' for Inactive)
REMARK    1  A    between atoms: C1_1  and  C6_6 
REMARK    2  A    between atoms: C1_1  and  C10_10 
REMARK    3  A    between atoms: C7_7  and  C8_8 
REMARK    4  A    between atoms: C8_8  and  C11_11 
REMARK    5  A    between atoms: C9_9  and  C10_10 
REMARK    6  A    between atoms: C9_9  and  C11_11 
ROOT
HETATM    1  C9  UNL     1     -33.363   7.210   2.289  1.00 20.00     0.016 C 
ENDROOT
BRANCH   1   2
HETATM    2  C10 UNL     1     -33.248   6.055   3.297  1.00 20.00     0.051 C 
HETATM    3  C4  UNL     1     -32.975   4.706   2.634  1.00 20.00     0.018 C 
BRANCH   2   4
HETATM    4  C1  UNL     1     -34.543   5.983   4.108  1.00 20.00     0.130 C 
HETATM    5  O12 UNL     1     -35.645   5.918   3.563  1.00 20.00    -0.298 OA
BRANCH   4   6
HETATM    6  C6  UNL     1     -34.391   6.027   5.620  1.00 20.00     0.074 C 
HETATM    7  C2  UNL     1     -33.753   7.316   6.106  1.00 20.00     0.013 C 
ENDBRANCH   4   6
ENDBRANCH   2   4
ENDBRANCH   1   2
BRANCH   1   8
HETATM    8  C11 UNL     1     -32.438   8.426   2.535  1.00 20.00    -0.018 C 
HETATM    9  C5  UNL     1     -31.407   8.051   3.608  1.00 20.00     0.010 C 
BRANCH   8  10
HETATM   10  C8  UNL     1     -31.763   8.903   1.233  1.00 20.00     0.004 C 
BRANCH  10  11
HETATM   11  C7  UNL     1     -32.513  10.035   0.526  1.00 20.00    -0.004 C 
HETATM   12  C3  UNL     1     -33.288   9.520  -0.677  1.00 20.00     0.005 C 
ENDBRANCH  10  11
ENDBRANCH   8  10
ENDBRANCH   1   8
TORSDOF 6
ENDMDL
MODEL 2
REMARK VINA RESULT:      -5.9      1.873      5.101
REMARK  6 active torsions:
REMARK  status: ('A' for Active; 'I' for Inactive)
REMARK    1  A    between atoms: C1_1  and  C6_6 
REMARK    2  A    between atoms: C1_1  and  C10_10 
REMARK    3  A    between atoms: C7_7  and  C8_8 
REMARK    4  A    between atoms: C8_8  and  C11_11 
REMARK    5  A    between atoms: C9_9  and  C10_10 
REMARK    6  A    between atoms: C9_9  and  C11_11 
ROOT
HETATM    1  C9  UNL     1     -33.637   7.547   2.777  1.00 20.00     0.016 C 
ENDROOT
BRANCH   1   2
HETATM    2  C10 UNL     1     -32.121   7.717   2.588  1.00 20.00     0.051 C 
HETATM    3  C4  UNL     1     -31.428   8.314   3.812  1.00 20.00     0.018 C 
BRANCH   2   4
HETATM    4  C1  UNL     1     -31.876   8.605   1.366  1.00 20.00     0.130 C 
HETATM    5  O12 UNL     1     -30.907   8.435   0.627  1.00 20.00    -0.298 OA
BRANCH   4   6
HETATM    6  C6  UNL     1     -32.878   9.725   1.139  1.00 20.00     0.074 C 
HETATM    7  C2  UNL     1     -33.310   9.838  -0.312  1.00 20.00     0.013 C 
ENDBRANCH   4   6
ENDBRANCH   2   4
ENDBRANCH   1   2
BRANCH   1   8
HETATM    8  C11 UNL     1     -34.169   6.095   2.762  1.00 20.00    -0.018 C 
HETATM    9  C5  UNL     1     -32.974   5.132   2.803  1.00 20.00     0.010 C 
BRANCH   8  10
HETATM   10  C8  UNL     1     -35.152   5.834   3.921  1.00 20.00     0.004 C 
BRANCH  10  11
HETATM   11  C7  UNL     1     -34.468   5.508   5.252  1.00 20.00    -0.004 C 
HETATM   12  C3  UNL     1     -34.088   6.774   6.005  1.00 20.00     0.005 C 
ENDBRANCH  10  11
ENDBRANCH   8  10
ENDBRANCH   1   8
TORSDOF 6
ENDMDL
MODEL 3
REMARK VINA RESULT:      -5.6      1.016      1.931
REMARK  6 active torsions:
REMARK  status: ('A' for Active; 'I' for Inactive)
REMARK    1  A    between atoms: C1_1  and  C6_6 
REMARK    2  A    between atoms: C1_1  and  C10_10 
REMARK    3  A    between atoms: C7_7  and  C8_8 
REMARK    4  A    between atoms: C8_8  and  C11_11 
REMARK    5  A    between atoms: C9_9  and  C10_10 
REMARK    6  A    between atoms: C9_9  and  C11_11 
ROOT
HETATM    1  C9  UNL     1     -33.007   7.036   3.141  1.00 20.00     0.016 C 
ENDROOT
BRANCH   1   2
HETATM    2  C10 UNL     1     -34.074   7.197   4.236  1.00 20.00     0.051 C 
HETATM    3  C4  UNL     1     -33.480   7.348   5.635  1.00 20.00     0.018 C 
BRANCH   2   4
HETATM    4  C1  UNL     1     -35.005   5.983   4.194  1.00 20.00     0.130 C 
HETATM    5  O12 UNL     1     -36.013   5.965   3.489  1.00 20.00    -0.298 OA
BRANCH   4   6
HETATM    6  C6  UNL     1     -34.629   4.819   5.097  1.00 20.00     0.074 C 
HETATM    7  C2  UNL     1     -33.930   3.699   4.346  1.00 20.00     0.013 C 
ENDBRANCH   4   6
ENDBRANCH   2   4
ENDBRANCH   1   2
BRANCH   1   8
HETATM    8  C11 UNL     1     -32.220   8.312   2.761  1.00 20.00    -0.018 C 
HETATM    9  C5  UNL     1     -31.014   8.446   3.701  1.00 20.00     0.010 C 
BRANCH   8  10
HETATM   10  C8  UNL     1     -31.792   8.300   1.279  1.00 20.00     0.004 C 
BRANCH  10  11
HETATM   11  C7  UNL     1     -32.475   9.376   0.429  1.00 20.00    -0.004 C 
HETATM   12  C3  UNL     1     -32.807  10.608   1.256  1.00 20.00     0.005 C 
ENDBRANCH  10  11
ENDBRANCH   8  10
ENDBRANCH   1   8
TORSDOF 6
ENDMDL
MODEL 4
REMARK VINA RESULT:      -5.3      1.129      1.308
REMARK  6 active torsions:
REMARK  status: ('A' for Active; 'I' for Inactive)
REMARK    1  A    between atoms: C1_1  and  C6_6 
REMARK    2  A    between atoms: C1_1  and  C10_10 
REMARK    3  A    between atoms: C7_7  and  C8_8 
REMARK    4  A    between atoms: C8_8  and  C11_11 
REMARK    5  A    between atoms: C9_9  and  C10_10 
REMARK    6  A    between atoms: C9_9  and  C11_11 
ROOT
HETATM    1  C9  UNL     1     -33.173   7.541   2.342  1.00 20.00     0.016 C 
ENDROOT
BRANCH   1   2
HETATM    2  C10 UNL     1     -32.962   6.367   3.311  1.00 20.00     0.051 C 
HETATM    3  C4  UNL     1     -33.159   5.003   2.651  1.00 20.00     0.018 C 
BRANCH   2   4
HETATM    4  C1  UNL     1     -33.932   6.521   4.485  1.00 20.00     0.130 C 
HETATM    5  O12 UNL     1     -33.852   7.464   5.271  1.00 20.00    -0.298 OA
BRANCH   4   6
HETATM    6  C6  UNL     1     -34.977   5.427   4.640  1.00 20.00     0.074 C 
HETATM    7  C2  UNL     1     -34.767   4.590   5.889  1.00 20.00     0.013 C 
ENDBRANCH   4   6
ENDBRANCH   2   4
ENDBRANCH   1   2
BRANCH   1   8
HETATM    8  C11 UNL     1     -32.150   8.698   2.438  1.00 20.00    -0.018 C 
HETATM    9  C5  UNL     1     -31.013   8.273   3.378  1.00 20.00     0.010 C 
BRANCH   8  10
HETATM   10  C8  UNL     1     -31.620   9.109   1.049  1.00 20.00     0.004 C 
BRANCH  10  11
HETATM   11  C7  UNL     1     -32.515  10.116   0.320  1.00 20.00    -0.004 C 
HETATM   12  C3  UNL     1     -33.326   9.444  -0.777  1.00 20.00     0.005 C 
ENDBRANCH  10  11
ENDBRANCH   8  10
ENDBRANCH   1   8
TORSDOF 6
ENDMDL
MODEL 5
REMARK VINA RESULT:      -5.3      1.818      4.946
REMARK  6 active torsions:
REMARK  status: ('A' for Active; 'I' for Inactive)
REMARK    1  A    between atoms: C1_1  and  C6_6 
REMARK    2  A    between atoms: C1_1  and  C10_10 
REMARK    3  A    between atoms: C7_7  and  C8_8 
REMARK    4  A    between atoms: C8_8  and  C11_11 
REMARK    5  A    between atoms: C9_9  and  C10_10 
REMARK    6  A    between atoms: C9_9  and  C11_11 
ROOT
HETATM    1  C9  UNL     1     -34.022   7.630   3.719  1.00 20.00     0.016 C 
ENDROOT
BRANCH   1   2
HETATM    2  C10 UNL     1     -33.196   7.280   2.470  1.00 20.00     0.051 C 
HETATM    3  C4  UNL     1     -32.683   5.841   2.474  1.00 20.00     0.018 C 
BRANCH   2   4
HETATM    4  C1  UNL     1     -32.017   8.252   2.376  1.00 20.00     0.130 C 
HETATM    5  O12 UNL     1     -31.242   8.421   3.318  1.00 20.00    -0.298 OA
BRANCH   4   6
HETATM    6  C6  UNL     1     -31.878   9.014   1.068  1.00 20.00     0.074 C 
HETATM    7  C2  UNL     1     -32.715  10.281   1.038  1.00 20.00     0.013 C 
ENDBRANCH   4   6
ENDBRANCH   2   4
ENDBRANCH   1   2
BRANCH   1   8
HETATM    8  C11 UNL     1     -33.724   6.800   4.989  1.00 20.00    -0.018 C 
HETATM    9  C5  UNL     1     -33.342   7.758   6.125  1.00 20.00     0.010 C 
BRANCH   8  10
HETATM   10  C8  UNL     1     -34.915   5.899   5.377  1.00 20.00     0.004 C 
BRANCH  10  11
HETATM   11  C7  UNL     1     -34.539   4.427   5.571  1.00 20.00    -0.004 C 
HETATM   12  C3  UNL     1     -34.115   3.785   4.259  1.00 20.00     0.005 C 
ENDBRANCH  10  11
ENDBRANCH   8  10
ENDBRANCH   1   8
TORSDOF 6
ENDMDL
MODEL 6
REMARK VINA RESULT:      -5.1      1.725      5.011
REMARK  6 active torsions:
REMARK  status: ('A' for Active; 'I' for Inactive)
REMARK    1  A    between atoms: C1_1  and  C6_6 
REMARK    2  A    between atoms: C1_1  and  C10_10 
REMARK    3  A    between atoms: C7_7  and  C8_8 
REMARK    4  A    between atoms: C8_8  and  C11_11 
REMARK    5  A    between atoms: C9_9  and  C10_10 
REMARK    6  A    between atoms: C9_9  and  C11_11 
ROOT
HETATM    1  C9  UNL     1     -33.720   7.799   3.465  1.00 20.00     0.016 C 
ENDROOT
BRANCH   1   2
HETATM    2  C10 UNL     1     -32.430   7.980   2.649  1.00 20.00     0.051 C 
HETATM    3  C4  UNL     1     -31.195   8.198   3.521  1.00 20.00     0.018 C 
BRANCH   2   4
HETATM    4  C1  UNL     1     -32.613   9.168   1.701  1.00 20.00     0.130 C 
HETATM    5  O12 UNL     1     -33.221  10.182   2.045  1.00 20.00    -0.298 OA
BRANCH   4   6
HETATM    6  C6  UNL     1     -32.030   9.010   0.306  1.00 20.00     0.074 C 
HETATM    7  C2  UNL     1     -33.048   9.277  -0.788  1.00 20.00     0.013 C 
ENDBRANCH   4   6
ENDBRANCH   2   4
ENDBRANCH   1   2
BRANCH   1   8
HETATM    8  C11 UNL     1     -33.672   6.742   4.593  1.00 20.00    -0.018 C 
HETATM    9  C5  UNL     1     -33.770   7.460   5.946  1.00 20.00     0.010 C 
BRANCH   8  10
HETATM   10  C8  UNL     1     -34.777   5.679   4.428  1.00 20.00     0.004 C 
BRANCH  10  11
HETATM   11  C7  UNL     1     -34.248   4.288   4.065  1.00 20.00    -0.004 C 
HETATM   12  C3  UNL     1     -33.237   4.358   2.930  1.00 20.00     0.005 C 
ENDBRANCH  10  11
ENDBRANCH   8  10
ENDBRANCH   1   8
TORSDOF 6
ENDMDL
MODEL 7
REMARK VINA RESULT:      -4.7     10.126     11.435
REMARK  6 active torsions:
REMARK  status: ('A' for Active; 'I' for Inactive)
REMARK    1  A    between atoms: C1_1  and  C6_6 
REMARK    2  A    between atoms: C1_1  and  C10_10 
REMARK    3  A    between atoms: C7_7  and  C8_8 
REMARK    4  A    between atoms: C8_8  and  C11_11 
REMARK    5  A    between atoms: C9_9  and  C10_10 
REMARK    6  A    between atoms: C9_9  and  C11_11 
ROOT
HETATM    1  C9  UNL     1     -34.847  15.674  -3.626  1.00 20.00     0.016 C 
ENDROOT
BRANCH   1   2
HETATM    2  C10 UNL     1     -34.382  14.262  -4.016  1.00 20.00     0.051 C 
HETATM    3  C4  UNL     1     -32.887  14.185  -4.319  1.00 20.00     0.018 C 
BRANCH   2   4
HETATM    4  C1  UNL     1     -35.184  13.802  -5.236  1.00 20.00     0.130 C 
HETATM    5  O12 UNL     1     -35.887  12.793  -5.205  1.00 20.00    -0.298 OA
BRANCH   4   6
HETATM    6  C6  UNL     1     -35.035  14.645  -6.493  1.00 20.00     0.074 C 
HETATM    7  C2  UNL     1     -34.404  13.877  -7.641  1.00 20.00     0.013 C 
ENDBRANCH   4   6
ENDBRANCH   2   4
ENDBRANCH   1   2
BRANCH   1   8
HETATM    8  C11 UNL     1     -33.743  16.653  -3.163  1.00 20.00    -0.018 C 
HETATM    9  C5  UNL     1     -33.715  17.853  -4.120  1.00 20.00     0.010 C 
BRANCH   8  10
HETATM   10  C8  UNL     1     -33.946  17.093  -1.699  1.00 20.00     0.004 C 
BRANCH  10  11
HETATM   11  C7  UNL     1     -35.394  16.979  -1.214  1.00 20.00    -0.004 C 
HETATM   12  C3  UNL     1     -35.551  17.522   0.198  1.00 20.00     0.005 C 
ENDBRANCH  10  11
ENDBRANCH   8  10
ENDBRANCH   1   8
TORSDOF 6
ENDMDL
MODEL 8
REMARK VINA RESULT:      -4.6     10.500     11.725
REMARK  6 active torsions:
REMARK  status: ('A' for Active; 'I' for Inactive)
REMARK    1  A    between atoms: C1_1  and  C6_6 
REMARK    2  A    between atoms: C1_1  and  C10_10 
REMARK    3  A    between atoms: C7_7  and  C8_8 
REMARK    4  A    between atoms: C8_8  and  C11_11 
REMARK    5  A    between atoms: C9_9  and  C10_10 
REMARK    6  A    between atoms: C9_9  and  C11_11 
ROOT
HETATM    1  C9  UNL     1     -34.803  14.856  -3.923  1.00 20.00     0.016 C 
ENDROOT
BRANCH   1   2
HETATM    2  C10 UNL     1     -35.580  14.997  -5.242  1.00 20.00     0.051 C 
HETATM    3  C4  UNL     1     -36.975  15.592  -5.056  1.00 20.00     0.018 C 
BRANCH   2   4
HETATM    4  C1  UNL     1     -35.687  13.618  -5.898  1.00 20.00     0.130 C 
HETATM    5  O12 UNL     1     -35.866  12.598  -5.233  1.00 20.00    -0.298 OA
BRANCH   4   6
HETATM    6  C6  UNL     1     -35.527  13.580  -7.409  1.00 20.00     0.074 C 
HETATM    7  C2  UNL     1     -34.148  14.024  -7.863  1.00 20.00     0.013 C 
ENDBRANCH   4   6
ENDBRANCH   2   4
ENDBRANCH   1   2
BRANCH   1   8
HETATM    8  C11 UNL     1     -33.586  15.793  -3.744  1.00 20.00    -0.018 C 
HETATM    9  C5  UNL     1     -33.242  16.419  -5.102  1.00 20.00     0.010 C 
BRANCH   8  10
HETATM   10  C8  UNL     1     -33.845  16.867  -2.667  1.00 20.00     0.004 C 
BRANCH  10  11
HETATM   11  C7  UNL     1     -35.144  16.656  -1.884  1.00 20.00    -0.004 C 
HETATM   12  C3  UNL     1     -35.094  17.350  -0.531  1.00 20.00     0.005 C 
ENDBRANCH  10  11
ENDBRANCH   8  10
ENDBRANCH   1   8
TORSDOF 6
ENDMDL
MODEL 9
REMARK VINA RESULT:      -4.5     10.221     11.304
REMARK  6 active torsions:
REMARK  status: ('A' for Active; 'I' for Inactive)
REMARK    1  A    between atoms: C1_1  and  C6_6 
REMARK    2  A    between atoms: C1_1  and  C10_10 
REMARK    3  A    between atoms: C7_7  and  C8_8 
REMARK    4  A    between atoms: C8_8  and  C11_11 
REMARK    5  A    between atoms: C9_9  and  C10_10 
REMARK    6  A    between atoms: C9_9  and  C11_11 
ROOT
HETATM    1  C9  UNL     1     -34.956  15.667  -3.413  1.00 20.00     0.016 C 
ENDROOT
BRANCH   1   2
HETATM    2  C10 UNL     1     -34.592  14.296  -4.005  1.00 20.00     0.051 C 
HETATM    3  C4  UNL     1     -33.270  14.305  -4.770  1.00 20.00     0.018 C 
BRANCH   2   4
HETATM    4  C1  UNL     1     -35.725  13.845  -4.930  1.00 20.00     0.130 C 
HETATM    5  O12 UNL     1     -35.832  12.676  -5.299  1.00 20.00    -0.298 OA
BRANCH   4   6
HETATM    6  C6  UNL     1     -36.686  14.929  -5.391  1.00 20.00     0.074 C 
HETATM    7  C2  UNL     1     -38.140  14.560  -5.153  1.00 20.00     0.013 C 
ENDBRANCH   4   6
ENDBRANCH   2   4
ENDBRANCH   1   2
BRANCH   1   8
HETATM    8  C11 UNL     1     -33.797  16.682  -3.277  1.00 20.00    -0.018 C 
HETATM    9  C5  UNL     1     -34.021  17.823  -4.279  1.00 20.00     0.010 C 
BRANCH   8  10
HETATM   10  C8  UNL     1     -33.663  17.207  -1.833  1.00 20.00     0.004 C 
BRANCH  10  11
HETATM   11  C7  UNL     1     -34.962  17.134  -1.025  1.00 20.00    -0.004 C 
HETATM   12  C3  UNL     1     -34.861  17.939   0.261  1.00 20.00     0.005 C 
ENDBRANCH  10  11
ENDBRANCH   8  10
ENDBRANCH   1   8
TORSDOF 6
ENDMDL
