MODEL 1
REMARK VINA RESULT:      -5.2      0.000      0.000
REMARK  1 active torsions:
REMARK  status: ('A' for Active; 'I' for Inactive)
REMARK    1  A    between atoms: C3_3  and  C4_4 
ROOT
HETATM    1  C1  UNL     1     -34.435   4.803   5.008  1.00 20.00     0.087 C 
HETATM    2  C2  UNL     1     -34.342   5.926   5.873  1.00 20.00     0.093 C 
HETATM    3  C3  UNL     1     -33.952   7.127   5.422  1.00 20.00     0.011 C 
HETATM    4  N7  UNL     1     -34.514   3.883   4.305  1.00 20.00    -0.192 NA
ENDROOT
BRANCH   3   5
HETATM    5  C4  UNL     1     -33.601   7.372   4.041  1.00 20.00    -0.004 C 
HETATM    6  C5  UNL     1     -32.377   7.757   3.653  1.00 20.00    -0.031 C 
HETATM    7  C6  UNL     1     -32.001   8.013   2.230  1.00 20.00     0.036 C 
ENDBRANCH   3   5
TORSDOF 1
ENDMDL
MODEL 2
REMARK VINA RESULT:      -4.7      1.920      2.212
REMARK  1 active torsions:
REMARK  status: ('A' for Active; 'I' for Inactive)
REMARK    1  A    between atoms: C3_3  and  C4_4 
ROOT
HETATM    1  C1  UNL     1     -34.175   6.597   5.380  1.00 20.00     0.087 C 
HETATM    2  C2  UNL     1     -34.660   5.712   4.379  1.00 20.00     0.093 C 
HETATM    3  C3  UNL     1     -34.066   5.617   3.182  1.00 20.00     0.011 C 
HETATM    4  N7  UNL     1     -33.782   7.317   6.200  1.00 20.00    -0.192 NA
ENDROOT
BRANCH   3   5
HETATM    5  C4  UNL     1     -32.902   6.394   2.817  1.00 20.00    -0.004 C 
HETATM    6  C5  UNL     1     -32.973   7.661   2.387  1.00 20.00    -0.031 C 
HETATM    7  C6  UNL     1     -31.778   8.475   2.007  1.00 20.00     0.036 C 
ENDBRANCH   3   5
TORSDOF 1
ENDMDL
MODEL 3
REMARK VINA RESULT:      -4.6      3.069      4.865
REMARK  1 active torsions:
REMARK  status: ('A' for Active; 'I' for Inactive)
REMARK    1  A    between atoms: C3_3  and  C4_4 
ROOT
HETATM    1  C1  UNL     1     -32.711   9.178   0.357  1.00 20.00     0.087 C 
HETATM    2  C2  UNL     1     -31.815   9.188   1.460  1.00 20.00     0.093 C 
HETATM    3  C3  UNL     1     -31.947   8.323   2.476  1.00 20.00     0.011 C 
HETATM    4  N7  UNL     1     -33.439   9.173  -0.546  1.00 20.00    -0.192 NA
ENDROOT
BRANCH   3   5
HETATM    5  C4  UNL     1     -32.993   7.327   2.532  1.00 20.00    -0.004 C 
HETATM    6  C5  UNL     1     -33.635   7.000   3.662  1.00 20.00    -0.031 C 
HETATM    7  C6  UNL     1     -34.718   5.973   3.732  1.00 20.00     0.036 C 
ENDBRANCH   3   5
TORSDOF 1
ENDMDL
MODEL 4
REMARK VINA RESULT:      -4.5      1.855      3.034
REMARK  1 active torsions:
REMARK  status: ('A' for Active; 'I' for Inactive)
REMARK    1  A    between atoms: C3_3  and  C4_4 
ROOT
HETATM    1  C1  UNL     1     -33.539   6.811   3.615  1.00 20.00     0.087 C 
HETATM    2  C2  UNL     1     -32.406   7.604   3.944  1.00 20.00     0.093 C 
HETATM    3  C3  UNL     1     -31.776   8.342   3.019  1.00 20.00     0.011 C 
HETATM    4  N7  UNL     1     -34.465   6.164   3.351  1.00 20.00    -0.192 NA
ENDROOT
BRANCH   3   5
HETATM    5  C4  UNL     1     -32.191   8.392   1.635  1.00 20.00    -0.004 C 
HETATM    6  C5  UNL     1     -32.588   9.520   1.029  1.00 20.00    -0.031 C 
HETATM    7  C6  UNL     1     -33.018   9.585  -0.400  1.00 20.00     0.036 C 
ENDBRANCH   3   5
TORSDOF 1
ENDMDL
MODEL 5
REMARK VINA RESULT:      -4.1      2.410      4.145
REMARK  1 active torsions:
REMARK  status: ('A' for Active; 'I' for Inactive)
REMARK    1  A    between atoms: C3_3  and  C4_4 
ROOT
HETATM    1  C1  UNL     1     -32.091   7.886   3.032  1.00 20.00     0.087 C 
HETATM    2  C2  UNL     1     -33.053   7.391   2.111  1.00 20.00     0.093 C 
HETATM    3  C3  UNL     1     -33.833   6.342   2.409  1.00 20.00     0.011 C 
HETATM    4  N7  UNL     1     -31.306   8.294   3.783  1.00 20.00    -0.192 NA
ENDROOT
BRANCH   3   5
HETATM    5  C4  UNL     1     -33.761   5.642   3.671  1.00 20.00    -0.004 C 
HETATM    6  C5  UNL     1     -34.730   5.696   4.596  1.00 20.00    -0.031 C 
HETATM    7  C6  UNL     1     -34.668   4.977   5.904  1.00 20.00     0.036 C 
ENDBRANCH   3   5
TORSDOF 1
ENDMDL
MODEL 6
REMARK VINA RESULT:      -3.7     12.029     12.390
REMARK  1 active torsions:
REMARK  status: ('A' for Active; 'I' for Inactive)
REMARK    1  A    between atoms: C3_3  and  C4_4 
ROOT
HETATM    1  C1  UNL     1     -35.086  13.718  -5.249  1.00 20.00     0.087 C 
HETATM    2  C2  UNL     1     -33.927  14.539  -5.304  1.00 20.00     0.093 C 
HETATM    3  C3  UNL     1     -33.706  15.499  -4.395  1.00 20.00     0.011 C 
HETATM    4  N7  UNL     1     -36.030  13.045  -5.207  1.00 20.00    -0.192 NA
ENDROOT
BRANCH   3   5
HETATM    5  C4  UNL     1     -34.613  15.773  -3.303  1.00 20.00    -0.004 C 
HETATM    6  C5  UNL     1     -34.347  16.661  -2.334  1.00 20.00    -0.031 C 
HETATM    7  C6  UNL     1     -35.276  16.953  -1.201  1.00 20.00     0.036 C 
ENDBRANCH   3   5
TORSDOF 1
ENDMDL
MODEL 7
REMARK VINA RESULT:      -3.7      1.388      2.573
REMARK  1 active torsions:
REMARK  status: ('A' for Active; 'I' for Inactive)
REMARK    1  A    between atoms: C3_3  and  C4_4 
ROOT
HETATM    1  C1  UNL     1     -33.855   4.438   3.602  1.00 20.00     0.087 C 
HETATM    2  C2  UNL     1     -33.230   5.260   2.626  1.00 20.00     0.093 C 
HETATM    3  C3  UNL     1     -33.171   6.592   2.766  1.00 20.00     0.011 C 
HETATM    4  N7  UNL     1     -34.364   3.764   4.398  1.00 20.00    -0.192 NA
ENDROOT
BRANCH   3   5
HETATM    5  C4  UNL     1     -33.728   7.289   3.903  1.00 20.00    -0.004 C 
HETATM    6  C5  UNL     1     -33.266   7.141   5.153  1.00 20.00    -0.031 C 
HETATM    7  C6  UNL     1     -33.831   7.856   6.336  1.00 20.00     0.036 C 
ENDBRANCH   3   5
TORSDOF 1
ENDMDL
MODEL 8
REMARK VINA RESULT:      -3.6      2.424      2.968
REMARK  1 active torsions:
REMARK  status: ('A' for Active; 'I' for Inactive)
REMARK    1  A    between atoms: C3_3  and  C4_4 
ROOT
HETATM    1  C1  UNL     1     -33.698   7.056   5.637  1.00 20.00     0.087 C 
HETATM    2  C2  UNL     1     -34.703   6.138   6.044  1.00 20.00     0.093 C 
HETATM    3  C3  UNL     1     -34.818   4.929   5.476  1.00 20.00     0.011 C 
HETATM    4  N7  UNL     1     -32.878   7.808   5.308  1.00 20.00    -0.192 NA
ENDROOT
BRANCH   3   5
HETATM    5  C4  UNL     1     -33.944   4.469   4.421  1.00 20.00    -0.004 C 
HETATM    6  C5  UNL     1     -33.852   5.074   3.228  1.00 20.00    -0.031 C 
HETATM    7  C6  UNL     1     -32.952   4.608   2.130  1.00 20.00     0.036 C 
ENDBRANCH   3   5
TORSDOF 1
ENDMDL
MODEL 9
REMARK VINA RESULT:      -3.5     12.504     12.777
REMARK  1 active torsions:
REMARK  status: ('A' for Active; 'I' for Inactive)
REMARK    1  A    between atoms: C3_3  and  C4_4 
ROOT
HETATM    1  C1  UNL     1     -32.243  18.450  -0.007  1.00 20.00     0.087 C 
HETATM    2  C2  UNL     1     -33.652  18.524   0.159  1.00 20.00     0.093 C 
HETATM    3  C3  UNL     1     -34.488  17.862  -0.654  1.00 20.00     0.011 C 
HETATM    4  N7  UNL     1     -31.092  18.392  -0.138  1.00 20.00    -0.192 NA
ENDROOT
BRANCH   3   5
HETATM    5  C4  UNL     1     -34.031  17.033  -1.746  1.00 20.00    -0.004 C 
HETATM    6  C5  UNL     1     -34.860  16.316  -2.519  1.00 20.00    -0.031 C 
HETATM    7  C6  UNL     1     -34.401  15.456  -3.651  1.00 20.00     0.036 C 
ENDBRANCH   3   5
TORSDOF 1
ENDMDL
