MODEL 1
REMARK VINA RESULT:      -5.0      0.000      0.000
REMARK  1 active torsions:
REMARK  status: ('A' for Active; 'I' for Inactive)
REMARK    1  A    between atoms: C3_3  and  C4_4 
ROOT
HETATM    1  C1  UNL     1     -34.451   4.909   4.972  1.00 20.00     0.087 C 
HETATM    2  C2  UNL     1     -34.262   6.209   5.512  1.00 20.00     0.093 C 
HETATM    3  C3  UNL     1     -33.865   7.235   4.745  1.00 20.00     0.011 C 
HETATM    4  N7  UNL     1     -34.608   3.845   4.535  1.00 20.00    -0.192 NA
ENDROOT
BRANCH   3   5
HETATM    5  C4  UNL     1     -33.601   7.102   3.329  1.00 20.00    -0.004 C 
HETATM    6  C5  UNL     1     -32.500   7.590   2.740  1.00 20.00    -0.031 C 
HETATM    7  C6  UNL     1     -31.423   8.322   3.473  1.00 20.00     0.036 C 
ENDBRANCH   3   5
TORSDOF 1
ENDMDL
MODEL 2
REMARK VINA RESULT:      -4.8      1.757      2.285
REMARK  1 active torsions:
REMARK  status: ('A' for Active; 'I' for Inactive)
REMARK    1  A    between atoms: C3_3  and  C4_4 
ROOT
HETATM    1  C1  UNL     1     -34.080   6.656   4.923  1.00 20.00     0.087 C 
HETATM    2  C2  UNL     1     -34.111   6.272   3.555  1.00 20.00     0.093 C 
HETATM    3  C3  UNL     1     -33.216   6.744   2.675  1.00 20.00     0.011 C 
HETATM    4  N7  UNL     1     -34.059   6.966   6.041  1.00 20.00    -0.192 NA
ENDROOT
BRANCH   3   5
HETATM    5  C4  UNL     1     -32.165   7.668   3.041  1.00 20.00    -0.004 C 
HETATM    6  C5  UNL     1     -31.809   8.712   2.279  1.00 20.00    -0.031 C 
HETATM    7  C6  UNL     1     -32.452   9.041   0.971  1.00 20.00     0.036 C 
ENDBRANCH   3   5
TORSDOF 1
ENDMDL
MODEL 3
REMARK VINA RESULT:      -4.8      2.310      3.989
REMARK  1 active torsions:
REMARK  status: ('A' for Active; 'I' for Inactive)
REMARK    1  A    between atoms: C3_3  and  C4_4 
ROOT
HETATM    1  C1  UNL     1     -32.057   7.778   2.983  1.00 20.00     0.087 C 
HETATM    2  C2  UNL     1     -33.087   6.887   2.575  1.00 20.00     0.093 C 
HETATM    3  C3  UNL     1     -34.052   6.498   3.420  1.00 20.00     0.011 C 
HETATM    4  N7  UNL     1     -31.215   8.505   3.313  1.00 20.00    -0.192 NA
ENDROOT
BRANCH   3   5
HETATM    5  C4  UNL     1     -34.122   6.945   4.794  1.00 20.00    -0.004 C 
HETATM    6  C5  UNL     1     -34.366   6.119   5.821  1.00 20.00    -0.031 C 
HETATM    7  C6  UNL     1     -34.593   4.650   5.669  1.00 20.00     0.036 C 
ENDBRANCH   3   5
TORSDOF 1
ENDMDL
MODEL 4
REMARK VINA RESULT:      -4.8      2.831      4.269
REMARK  1 active torsions:
REMARK  status: ('A' for Active; 'I' for Inactive)
REMARK    1  A    between atoms: C3_3  and  C4_4 
ROOT
HETATM    1  C1  UNL     1     -32.180   8.763   1.576  1.00 20.00     0.087 C 
HETATM    2  C2  UNL     1     -31.825   8.290   2.868  1.00 20.00     0.093 C 
HETATM    3  C3  UNL     1     -32.485   7.278   3.449  1.00 20.00     0.011 C 
HETATM    4  N7  UNL     1     -32.467   9.152   0.521  1.00 20.00    -0.192 NA
ENDROOT
BRANCH   3   5
HETATM    5  C4  UNL     1     -33.594   6.597   2.819  1.00 20.00    -0.004 C 
HETATM    6  C5  UNL     1     -34.536   5.936   3.507  1.00 20.00    -0.031 C 
HETATM    7  C6  UNL     1     -34.549   5.827   4.997  1.00 20.00     0.036 C 
ENDBRANCH   3   5
TORSDOF 1
ENDMDL
MODEL 5
REMARK VINA RESULT:      -4.6      2.101      2.964
REMARK  1 active torsions:
REMARK  status: ('A' for Active; 'I' for Inactive)
REMARK    1  A    between atoms: C3_3  and  C4_4 
ROOT
HETATM    1  C1  UNL     1     -33.302   6.617   3.122  1.00 20.00     0.087 C 
HETATM    2  C2  UNL     1     -32.455   7.615   3.676  1.00 20.00     0.093 C 
HETATM    3  C3  UNL     1     -31.710   8.412   2.896  1.00 20.00     0.011 C 
HETATM    4  N7  UNL     1     -33.995   5.801   2.673  1.00 20.00    -0.192 NA
ENDROOT
BRANCH   3   5
HETATM    5  C4  UNL     1     -31.707   8.322   1.453  1.00 20.00    -0.004 C 
HETATM    6  C5  UNL     1     -32.185   9.289   0.657  1.00 20.00    -0.031 C 
HETATM    7  C6  UNL     1     -32.773  10.565   1.164  1.00 20.00     0.036 C 
ENDBRANCH   3   5
TORSDOF 1
ENDMDL
MODEL 6
REMARK VINA RESULT:      -4.6      2.496      2.782
REMARK  1 active torsions:
REMARK  status: ('A' for Active; 'I' for Inactive)
REMARK    1  A    between atoms: C3_3  and  C4_4 
ROOT
HETATM    1  C1  UNL     1     -33.951   6.758   5.991  1.00 20.00     0.087 C 
HETATM    2  C2  UNL     1     -34.585   5.503   5.784  1.00 20.00     0.093 C 
HETATM    3  C3  UNL     1     -35.041   5.140   4.577  1.00 20.00     0.011 C 
HETATM    4  N7  UNL     1     -33.433   7.782   6.164  1.00 20.00    -0.192 NA
ENDROOT
BRANCH   3   5
HETATM    5  C4  UNL     1     -34.929   5.982   3.407  1.00 20.00    -0.004 C 
HETATM    6  C5  UNL     1     -33.955   5.846   2.496  1.00 20.00    -0.031 C 
HETATM    7  C6  UNL     1     -32.878   4.814   2.583  1.00 20.00     0.036 C 
ENDBRANCH   3   5
TORSDOF 1
ENDMDL
MODEL 7
REMARK VINA RESULT:      -4.4      2.331      3.786
REMARK  1 active torsions:
REMARK  status: ('A' for Active; 'I' for Inactive)
REMARK    1  A    between atoms: C3_3  and  C4_4 
ROOT
HETATM    1  C1  UNL     1     -32.016   8.010   3.167  1.00 20.00     0.087 C 
HETATM    2  C2  UNL     1     -32.428   7.949   4.525  1.00 20.00     0.093 C 
HETATM    3  C3  UNL     1     -33.538   7.291   4.891  1.00 20.00     0.011 C 
HETATM    4  N7  UNL     1     -31.675   8.061   2.059  1.00 20.00    -0.192 NA
ENDROOT
BRANCH   3   5
HETATM    5  C4  UNL     1     -34.392   6.603   3.948  1.00 20.00    -0.004 C 
HETATM    6  C5  UNL     1     -34.867   5.367   4.157  1.00 20.00    -0.031 C 
HETATM    7  C6  UNL     1     -34.572   4.561   5.380  1.00 20.00     0.036 C 
ENDBRANCH   3   5
TORSDOF 1
ENDMDL
MODEL 8
REMARK VINA RESULT:      -4.0      2.137      3.020
REMARK  1 active torsions:
REMARK  status: ('A' for Active; 'I' for Inactive)
REMARK    1  A    between atoms: C3_3  and  C4_4 
ROOT
HETATM    1  C1  UNL     1     -33.319   5.030   2.586  1.00 20.00     0.087 C 
HETATM    2  C2  UNL     1     -34.390   5.963   2.582  1.00 20.00     0.093 C 
HETATM    3  C3  UNL     1     -35.153   6.157   3.667  1.00 20.00     0.011 C 
HETATM    4  N7  UNL     1     -32.443   4.268   2.585  1.00 20.00    -0.192 NA
ENDROOT
BRANCH   3   5
HETATM    5  C4  UNL     1     -34.953   5.443   4.909  1.00 20.00    -0.004 C 
HETATM    6  C5  UNL     1     -34.290   5.959   5.953  1.00 20.00    -0.031 C 
HETATM    7  C6  UNL     1     -33.685   7.326   5.957  1.00 20.00     0.036 C 
ENDBRANCH   3   5
TORSDOF 1
ENDMDL
MODEL 9
REMARK VINA RESULT:      -3.8     11.724     12.072
REMARK  1 active torsions:
REMARK  status: ('A' for Active; 'I' for Inactive)
REMARK    1  A    between atoms: C3_3  and  C4_4 
ROOT
HETATM    1  C1  UNL     1     -34.326  14.374  -4.293  1.00 20.00     0.087 C 
HETATM    2  C2  UNL     1     -33.464  15.464  -3.997  1.00 20.00     0.093 C 
HETATM    3  C3  UNL     1     -33.806  16.404  -3.104  1.00 20.00     0.011 C 
HETATM    4  N7  UNL     1     -35.028  13.482  -4.538  1.00 20.00    -0.192 NA
ENDROOT
BRANCH   3   5
HETATM    5  C4  UNL     1     -35.060  16.386  -2.383  1.00 20.00    -0.004 C 
HETATM    6  C5  UNL     1     -35.245  17.022  -1.218  1.00 20.00    -0.031 C 
HETATM    7  C6  UNL     1     -34.184  17.819  -0.530  1.00 20.00     0.036 C 
ENDBRANCH   3   5
TORSDOF 1
ENDMDL
