MODEL 1
REMARK VINA RESULT:      -5.7      0.000      0.000
REMARK  2 active torsions:
REMARK  status: ('A' for Active; 'I' for Inactive)
REMARK    1  A    between atoms: C1_1  and  C6_6 
REMARK    2  A    between atoms: C5_5  and  N7_7 
ROOT
HETATM    1  C1  UNL     1     -33.717   6.013   3.446  1.00 20.00     0.108 C 
HETATM    2  C2  UNL     1     -32.983   4.962   2.651  1.00 20.00     0.075 C 
HETATM    3  N7  UNL     1     -33.426   7.269   3.447  1.00 20.00    -0.285 NA
ENDROOT
BRANCH   1   4
HETATM    4  C6  UNL     1     -34.878   5.552   4.284  1.00 20.00     0.430 C 
HETATM    5  F8  UNL     1     -34.834   6.083   5.533  1.00 20.00    -0.165 F 
HETATM    6  F9  UNL     1     -34.917   4.204   4.433  1.00 20.00    -0.165 F 
HETATM    7  F10 UNL     1     -36.065   5.922   3.740  1.00 20.00    -0.165 F 
ENDBRANCH   1   4
BRANCH   3   8
HETATM    8  C5  UNL     1     -32.312   7.723   2.628  1.00 20.00     0.100 C 
HETATM    9  C3  UNL     1     -32.824   8.728   1.608  1.00 20.00     0.034 C 
HETATM   10  C4  UNL     1     -31.250   8.329   3.533  1.00 20.00     0.034 C 
ENDBRANCH   3   8
TORSDOF 2
ENDMDL
MODEL 2
REMARK VINA RESULT:      -5.3      3.395      4.647
REMARK  2 active torsions:
REMARK  status: ('A' for Active; 'I' for Inactive)
REMARK    1  A    between atoms: C1_1  and  C6_6 
REMARK    2  A    between atoms: C5_5  and  N7_7 
ROOT
HETATM    1  C1  UNL     1     -32.406   8.070   2.285  1.00 20.00     0.108 C 
HETATM    2  C2  UNL     1     -31.510   8.248   3.487  1.00 20.00     0.075 C 
HETATM    3  N7  UNL     1     -33.284   7.135   2.157  1.00 20.00    -0.285 NA
ENDROOT
BRANCH   1   4
HETATM    4  C6  UNL     1     -32.263   9.068   1.170  1.00 20.00     0.430 C 
HETATM    5  F8  UNL     1     -31.076   8.930   0.525  1.00 20.00    -0.165 F 
HETATM    6  F9  UNL     1     -32.325  10.354   1.602  1.00 20.00    -0.165 F 
HETATM    7  F10 UNL     1     -33.238   8.920   0.238  1.00 20.00    -0.165 F 
ENDBRANCH   1   4
BRANCH   3   8
HETATM    8  C5  UNL     1     -33.435   6.173   3.239  1.00 20.00     0.100 C 
HETATM    9  C3  UNL     1     -34.886   6.167   3.696  1.00 20.00     0.034 C 
HETATM   10  C4  UNL     1     -32.994   4.804   2.746  1.00 20.00     0.034 C 
ENDBRANCH   3   8
TORSDOF 2
ENDMDL
MODEL 3
REMARK VINA RESULT:      -5.3      3.396      4.625
REMARK  2 active torsions:
REMARK  status: ('A' for Active; 'I' for Inactive)
REMARK    1  A    between atoms: C1_1  and  C6_6 
REMARK    2  A    between atoms: C5_5  and  N7_7 
ROOT
HETATM    1  C1  UNL     1     -32.424   8.077   2.264  1.00 20.00     0.108 C 
HETATM    2  C2  UNL     1     -31.509   8.257   3.450  1.00 20.00     0.075 C 
HETATM    3  N7  UNL     1     -33.309   7.146   2.155  1.00 20.00    -0.285 NA
ENDROOT
BRANCH   1   4
HETATM    4  C6  UNL     1     -32.295   9.069   1.142  1.00 20.00     0.430 C 
HETATM    5  F8  UNL     1     -32.423  10.346   1.586  1.00 20.00    -0.165 F 
HETATM    6  F9  UNL     1     -33.231   8.896   0.174  1.00 20.00    -0.165 F 
HETATM    7  F10 UNL     1     -31.083   8.983   0.536  1.00 20.00    -0.165 F 
ENDBRANCH   1   4
BRANCH   3   8
HETATM    8  C5  UNL     1     -33.447   6.190   3.244  1.00 20.00     0.100 C 
HETATM    9  C3  UNL     1     -34.887   6.203   3.734  1.00 20.00     0.034 C 
HETATM   10  C4  UNL     1     -33.034   4.813   2.746  1.00 20.00     0.034 C 
ENDBRANCH   3   8
TORSDOF 2
ENDMDL
MODEL 4
REMARK VINA RESULT:      -5.3      1.054      1.798
REMARK  2 active torsions:
REMARK  status: ('A' for Active; 'I' for Inactive)
REMARK    1  A    between atoms: C1_1  and  C6_6 
REMARK    2  A    between atoms: C5_5  and  N7_7 
ROOT
HETATM    1  C1  UNL     1     -33.849   6.743   4.299  1.00 20.00     0.108 C 
HETATM    2  C2  UNL     1     -33.614   7.535   5.561  1.00 20.00     0.075 C 
HETATM    3  N7  UNL     1     -33.386   7.058   3.137  1.00 20.00    -0.285 NA
ENDROOT
BRANCH   1   4
HETATM    4  C6  UNL     1     -34.674   5.491   4.419  1.00 20.00     0.430 C 
HETATM    5  F8  UNL     1     -34.877   5.149   5.717  1.00 20.00    -0.165 F 
HETATM    6  F9  UNL     1     -34.097   4.420   3.817  1.00 20.00    -0.165 F 
HETATM    7  F10 UNL     1     -35.900   5.644   3.855  1.00 20.00    -0.165 F 
ENDBRANCH   1   4
BRANCH   3   8
HETATM    8  C5  UNL     1     -32.577   8.262   3.018  1.00 20.00     0.100 C 
HETATM    9  C3  UNL     1     -31.157   7.949   3.462  1.00 20.00     0.034 C 
HETATM   10  C4  UNL     1     -32.623   8.746   1.577  1.00 20.00     0.034 C 
ENDBRANCH   3   8
TORSDOF 2
ENDMDL
MODEL 5
REMARK VINA RESULT:      -4.8      1.477      2.496
REMARK  2 active torsions:
REMARK  status: ('A' for Active; 'I' for Inactive)
REMARK    1  A    between atoms: C1_1  and  C6_6 
REMARK    2  A    between atoms: C5_5  and  N7_7 
ROOT
HETATM    1  C1  UNL     1     -32.944   7.401   3.083  1.00 20.00     0.108 C 
HETATM    2  C2  UNL     1     -32.137   7.974   4.222  1.00 20.00     0.075 C 
HETATM    3  N7  UNL     1     -32.979   7.888   1.890  1.00 20.00    -0.285 NA
ENDROOT
BRANCH   1   4
HETATM    4  C6  UNL     1     -33.751   6.166   3.370  1.00 20.00     0.430 C 
HETATM    5  F8  UNL     1     -33.104   5.041   2.970  1.00 20.00    -0.165 F 
HETATM    6  F9  UNL     1     -34.957   6.167   2.746  1.00 20.00    -0.165 F 
HETATM    7  F10 UNL     1     -33.998   6.026   4.698  1.00 20.00    -0.165 F 
ENDBRANCH   1   4
BRANCH   3   8
HETATM    8  C5  UNL     1     -32.189   9.077   1.604  1.00 20.00     0.100 C 
HETATM    9  C3  UNL     1     -31.174   8.747   0.521  1.00 20.00     0.034 C 
HETATM   10  C4  UNL     1     -33.124  10.198   1.178  1.00 20.00     0.034 C 
ENDBRANCH   3   8
TORSDOF 2
ENDMDL
MODEL 6
REMARK VINA RESULT:      -4.5      3.055      4.227
REMARK  2 active torsions:
REMARK  status: ('A' for Active; 'I' for Inactive)
REMARK    1  A    between atoms: C1_1  and  C6_6 
REMARK    2  A    between atoms: C5_5  and  N7_7 
ROOT
HETATM    1  C1  UNL     1     -32.830   7.180   2.923  1.00 20.00     0.108 C 
HETATM    2  C2  UNL     1     -32.589   5.848   2.255  1.00 20.00     0.075 C 
HETATM    3  N7  UNL     1     -33.536   7.349   3.988  1.00 20.00    -0.285 NA
ENDROOT
BRANCH   1   4
HETATM    4  C6  UNL     1     -32.185   8.386   2.298  1.00 20.00     0.430 C 
HETATM    5  F8  UNL     1     -31.408   9.054   3.189  1.00 20.00    -0.165 F 
HETATM    6  F9  UNL     1     -33.089   9.279   1.821  1.00 20.00    -0.165 F 
HETATM    7  F10 UNL     1     -31.386   8.042   1.257  1.00 20.00    -0.165 F 
ENDBRANCH   1   4
BRANCH   3   8
HETATM    8  C5  UNL     1     -34.153   6.183   4.604  1.00 20.00     0.100 C 
HETATM    9  C3  UNL     1     -34.357   6.456   6.086  1.00 20.00     0.034 C 
HETATM   10  C4  UNL     1     -35.468   5.891   3.898  1.00 20.00     0.034 C 
ENDBRANCH   3   8
TORSDOF 2
ENDMDL
MODEL 7
REMARK VINA RESULT:      -3.9      2.852      4.118
REMARK  2 active torsions:
REMARK  status: ('A' for Active; 'I' for Inactive)
REMARK    1  A    between atoms: C1_1  and  C6_6 
REMARK    2  A    between atoms: C5_5  and  N7_7 
ROOT
HETATM    1  C1  UNL     1     -33.362   6.951   2.953  1.00 20.00     0.108 C 
HETATM    2  C2  UNL     1     -34.179   6.389   1.816  1.00 20.00     0.075 C 
HETATM    3  N7  UNL     1     -33.492   6.609   4.190  1.00 20.00    -0.285 NA
ENDROOT
BRANCH   1   4
HETATM    4  C6  UNL     1     -32.317   7.975   2.606  1.00 20.00     0.430 C 
HETATM    5  F8  UNL     1     -32.876   9.162   2.260  1.00 20.00    -0.165 F 
HETATM    6  F9  UNL     1     -31.532   7.594   1.566  1.00 20.00    -0.165 F 
HETATM    7  F10 UNL     1     -31.489   8.219   3.653  1.00 20.00    -0.165 F 
ENDBRANCH   1   4
BRANCH   3   8
HETATM    8  C5  UNL     1     -34.494   5.610   4.530  1.00 20.00     0.100 C 
HETATM    9  C3  UNL     1     -33.968   4.233   4.153  1.00 20.00     0.034 C 
HETATM   10  C4  UNL     1     -34.803   5.708   6.016  1.00 20.00     0.034 C 
ENDBRANCH   3   8
TORSDOF 2
ENDMDL
MODEL 8
REMARK VINA RESULT:      -3.8     11.160     12.044
REMARK  2 active torsions:
REMARK  status: ('A' for Active; 'I' for Inactive)
REMARK    1  A    between atoms: C1_1  and  C6_6 
REMARK    2  A    between atoms: C5_5  and  N7_7 
ROOT
HETATM    1  C1  UNL     1     -33.716  15.900  -3.929  1.00 20.00     0.108 C 
HETATM    2  C2  UNL     1     -33.569  17.007  -4.943  1.00 20.00     0.075 C 
HETATM    3  N7  UNL     1     -34.004  16.077  -2.685  1.00 20.00    -0.285 NA
ENDROOT
BRANCH   1   4
HETATM    4  C6  UNL     1     -33.524  14.492  -4.420  1.00 20.00     0.430 C 
HETATM    5  F8  UNL     1     -34.429  13.643  -3.870  1.00 20.00    -0.165 F 
HETATM    6  F9  UNL     1     -32.294  13.996  -4.129  1.00 20.00    -0.165 F 
HETATM    7  F10 UNL     1     -33.672  14.408  -5.767  1.00 20.00    -0.165 F 
ENDBRANCH   1   4
BRANCH   3   8
HETATM    8  C5  UNL     1     -34.203  17.437  -2.206  1.00 20.00     0.100 C 
HETATM    9  C3  UNL     1     -35.423  17.469  -1.300  1.00 20.00     0.034 C 
HETATM   10  C4  UNL     1     -32.948  17.892  -1.478  1.00 20.00     0.034 C 
ENDBRANCH   3   8
TORSDOF 2
ENDMDL
MODEL 9
REMARK VINA RESULT:      -3.8     11.165     12.047
REMARK  2 active torsions:
REMARK  status: ('A' for Active; 'I' for Inactive)
REMARK    1  A    between atoms: C1_1  and  C6_6 
REMARK    2  A    between atoms: C5_5  and  N7_7 
ROOT
HETATM    1  C1  UNL     1     -33.747  15.894  -3.928  1.00 20.00     0.108 C 
HETATM    2  C2  UNL     1     -33.630  17.013  -4.933  1.00 20.00     0.075 C 
HETATM    3  N7  UNL     1     -34.017  16.056  -2.677  1.00 20.00    -0.285 NA
ENDROOT
BRANCH   1   4
HETATM    4  C6  UNL     1     -33.545  14.494  -4.435  1.00 20.00     0.430 C 
HETATM    5  F8  UNL     1     -32.304  14.029  -4.140  1.00 20.00    -0.165 F 
HETATM    6  F9  UNL     1     -33.690  14.395  -5.781  1.00 20.00    -0.165 F 
HETATM    7  F10 UNL     1     -34.432  13.628  -3.881  1.00 20.00    -0.165 F 
ENDBRANCH   1   4
BRANCH   3   8
HETATM    8  C5  UNL     1     -34.225  17.409  -2.183  1.00 20.00     0.100 C 
HETATM    9  C3  UNL     1     -35.411  17.410  -1.230  1.00 20.00     0.034 C 
HETATM   10  C4  UNL     1     -32.953  17.885  -1.499  1.00 20.00     0.034 C 
ENDBRANCH   3   8
TORSDOF 2
ENDMDL
