MODEL 1
REMARK VINA RESULT:      -5.4      0.000      0.000
REMARK  1 active torsions:
REMARK  status: ('A' for Active; 'I' for Inactive)
REMARK    1  A    between atoms: C3_3  and  C5_5 
ROOT
HETATM    1  C1  UNL     1     -33.025   7.397   4.804  1.00 20.00     0.025 A 
HETATM    2  C2  UNL     1     -32.255   8.208   3.921  1.00 20.00     0.028 A 
HETATM    3  C3  UNL     1     -33.757   6.446   4.129  1.00 20.00     0.089 A 
HETATM    4  C4  UNL     1     -32.428   7.846   2.603  1.00 20.00     0.052 A 
HETATM    5  S9  UNL     1     -33.515   6.533   2.436  1.00 20.00    -0.078 SA
HETATM    6 BR10 UNL     1     -31.571   8.692   1.134  1.00 20.00    -0.043 Br
ENDROOT
BRANCH   3   7
HETATM    7  C5  UNL     1     -34.670   5.423   4.682  1.00 20.00     0.423 C 
HETATM    8  F6  UNL     1     -34.252   4.133   4.485  1.00 20.00    -0.166 F 
HETATM    9  F7  UNL     1     -34.863   5.521   6.036  1.00 20.00    -0.166 F 
HETATM   10  F8  UNL     1     -35.927   5.475   4.140  1.00 20.00    -0.166 F 
ENDBRANCH   3   7
TORSDOF 1
ENDMDL
MODEL 2
REMARK VINA RESULT:      -5.3      0.029      1.186
REMARK  1 active torsions:
REMARK  status: ('A' for Active; 'I' for Inactive)
REMARK    1  A    between atoms: C3_3  and  C5_5 
ROOT
HETATM    1  C1  UNL     1     -33.011   7.400   4.796  1.00 20.00     0.025 A 
HETATM    2  C2  UNL     1     -32.248   8.209   3.905  1.00 20.00     0.028 A 
HETATM    3  C3  UNL     1     -33.743   6.443   4.129  1.00 20.00     0.089 A 
HETATM    4  C4  UNL     1     -32.427   7.839   2.590  1.00 20.00     0.052 A 
HETATM    5  S9  UNL     1     -33.510   6.522   2.435  1.00 20.00    -0.078 SA
HETATM    6 BR10 UNL     1     -31.580   8.681   1.112  1.00 20.00    -0.043 Br
ENDROOT
BRANCH   3   7
HETATM    7  C5  UNL     1     -34.650   5.420   4.692  1.00 20.00     0.423 C 
HETATM    8  F6  UNL     1     -35.913   5.437   4.158  1.00 20.00    -0.166 F 
HETATM    9  F7  UNL     1     -34.217   4.131   4.514  1.00 20.00    -0.166 F 
HETATM   10  F8  UNL     1     -34.834   5.549   6.043  1.00 20.00    -0.166 F 
ENDBRANCH   3   7
TORSDOF 1
ENDMDL
MODEL 3
REMARK VINA RESULT:      -5.1      4.027      4.689
REMARK  1 active torsions:
REMARK  status: ('A' for Active; 'I' for Inactive)
REMARK    1  A    between atoms: C3_3  and  C5_5 
ROOT
HETATM    1  C1  UNL     1     -33.042   6.217   2.093  1.00 20.00     0.025 A 
HETATM    2  C2  UNL     1     -33.677   5.319   2.999  1.00 20.00     0.028 A 
HETATM    3  C3  UNL     1     -32.787   7.441   2.670  1.00 20.00     0.089 A 
HETATM    4  C4  UNL     1     -33.883   5.892   4.235  1.00 20.00     0.052 A 
HETATM    5  S9  UNL     1     -33.313   7.505   4.298  1.00 20.00    -0.078 SA
HETATM    6 BR10 UNL     1     -34.703   5.011   5.705  1.00 20.00    -0.043 Br
ENDROOT
BRANCH   3   7
HETATM    7  C5  UNL     1     -32.146   8.629   2.065  1.00 20.00     0.423 C 
HETATM    8  F6  UNL     1     -31.244   8.335   1.076  1.00 20.00    -0.166 F 
HETATM    9  F7  UNL     1     -33.028   9.502   1.480  1.00 20.00    -0.166 F 
HETATM   10  F8  UNL     1     -31.448   9.383   2.970  1.00 20.00    -0.166 F 
ENDBRANCH   3   7
TORSDOF 1
ENDMDL
MODEL 4
REMARK VINA RESULT:      -4.8      3.920      4.521
REMARK  1 active torsions:
REMARK  status: ('A' for Active; 'I' for Inactive)
REMARK    1  A    between atoms: C3_3  and  C5_5 
ROOT
HETATM    1  C1  UNL     1     -32.601   8.207   4.122  1.00 20.00     0.025 A 
HETATM    2  C2  UNL     1     -33.206   7.224   4.958  1.00 20.00     0.028 A 
HETATM    3  C3  UNL     1     -32.749   7.912   2.785  1.00 20.00     0.089 A 
HETATM    4  C4  UNL     1     -33.794   6.215   4.227  1.00 20.00     0.052 A 
HETATM    5  S9  UNL     1     -33.615   6.456   2.541  1.00 20.00    -0.078 SA
HETATM    6 BR10 UNL     1     -34.699   4.727   4.985  1.00 20.00    -0.043 Br
ENDROOT
BRANCH   3   7
HETATM    7  C5  UNL     1     -32.268   8.678   1.615  1.00 20.00     0.423 C 
HETATM    8  F6  UNL     1     -31.074   8.236   1.109  1.00 20.00    -0.166 F 
HETATM    9  F7  UNL     1     -33.125   8.658   0.544  1.00 20.00    -0.166 F 
HETATM   10  F8  UNL     1     -32.070  10.006   1.885  1.00 20.00    -0.166 F 
ENDBRANCH   3   7
TORSDOF 1
ENDMDL
MODEL 5
REMARK VINA RESULT:      -4.8      3.910      4.531
REMARK  1 active torsions:
REMARK  status: ('A' for Active; 'I' for Inactive)
REMARK    1  A    between atoms: C3_3  and  C5_5 
ROOT
HETATM    1  C1  UNL     1     -32.605   8.208   4.126  1.00 20.00     0.025 A 
HETATM    2  C2  UNL     1     -33.211   7.224   4.961  1.00 20.00     0.028 A 
HETATM    3  C3  UNL     1     -32.751   7.913   2.788  1.00 20.00     0.089 A 
HETATM    4  C4  UNL     1     -33.797   6.215   4.228  1.00 20.00     0.052 A 
HETATM    5  S9  UNL     1     -33.616   6.456   2.543  1.00 20.00    -0.078 SA
HETATM    6 BR10 UNL     1     -34.702   4.725   4.984  1.00 20.00    -0.043 Br
ENDROOT
BRANCH   3   7
HETATM    7  C5  UNL     1     -32.269   8.680   1.619  1.00 20.00     0.423 C 
HETATM    8  F6  UNL     1     -32.067  10.012   1.868  1.00 20.00    -0.166 F 
HETATM    9  F7  UNL     1     -31.073   8.237   1.116  1.00 20.00    -0.166 F 
HETATM   10  F8  UNL     1     -33.135   8.644   0.558  1.00 20.00    -0.166 F 
ENDBRANCH   3   7
TORSDOF 1
ENDMDL
MODEL 6
REMARK VINA RESULT:      -4.6      1.330      1.680
REMARK  1 active torsions:
REMARK  status: ('A' for Active; 'I' for Inactive)
REMARK    1  A    between atoms: C3_3  and  C5_5 
ROOT
HETATM    1  C1  UNL     1     -33.577   5.214   3.040  1.00 20.00     0.025 A 
HETATM    2  C2  UNL     1     -32.966   6.117   2.124  1.00 20.00     0.028 A 
HETATM    3  C3  UNL     1     -33.887   5.820   4.237  1.00 20.00     0.089 A 
HETATM    4  C4  UNL     1     -32.832   7.381   2.656  1.00 20.00     0.052 A 
HETATM    5  S9  UNL     1     -33.442   7.473   4.253  1.00 20.00    -0.078 SA
HETATM    6 BR10 UNL     1     -32.064   8.857   1.739  1.00 20.00    -0.043 Br
ENDROOT
BRANCH   3   7
HETATM    7  C5  UNL     1     -34.525   5.226   5.432  1.00 20.00     0.423 C 
HETATM    8  F6  UNL     1     -33.711   4.383   6.142  1.00 20.00    -0.166 F 
HETATM    9  F7  UNL     1     -34.954   6.149   6.353  1.00 20.00    -0.166 F 
HETATM   10  F8  UNL     1     -35.635   4.480   5.134  1.00 20.00    -0.166 F 
ENDBRANCH   3   7
TORSDOF 1
ENDMDL
MODEL 7
REMARK VINA RESULT:      -3.9     12.114     12.776
REMARK  1 active torsions:
REMARK  status: ('A' for Active; 'I' for Inactive)
REMARK    1  A    between atoms: C3_3  and  C5_5 
ROOT
HETATM    1  C1  UNL     1     -33.407  14.817  -4.996  1.00 20.00     0.025 A 
HETATM    2  C2  UNL     1     -33.497  15.549  -3.777  1.00 20.00     0.028 A 
HETATM    3  C3  UNL     1     -34.645  14.580  -5.551  1.00 20.00     0.089 A 
HETATM    4  C4  UNL     1     -34.802  15.844  -3.447  1.00 20.00     0.052 A 
HETATM    5  S9  UNL     1     -35.910  15.239  -4.604  1.00 20.00    -0.078 SA
HETATM    6 BR10 UNL     1     -35.327  16.807  -1.895  1.00 20.00    -0.043 Br
ENDROOT
BRANCH   3   7
HETATM    7  C5  UNL     1     -34.971  13.861  -6.802  1.00 20.00     0.423 C 
HETATM    8  F6  UNL     1     -35.944  14.462  -7.556  1.00 20.00    -0.166 F 
HETATM    9  F7  UNL     1     -33.908  13.720  -7.658  1.00 20.00    -0.166 F 
HETATM   10  F8  UNL     1     -35.424  12.586  -6.587  1.00 20.00    -0.166 F 
ENDBRANCH   3   7
TORSDOF 1
ENDMDL
MODEL 8
REMARK VINA RESULT:      -3.9     12.116     12.740
REMARK  1 active torsions:
REMARK  status: ('A' for Active; 'I' for Inactive)
REMARK    1  A    between atoms: C3_3  and  C5_5 
ROOT
HETATM    1  C1  UNL     1     -33.406  14.813  -4.998  1.00 20.00     0.025 A 
HETATM    2  C2  UNL     1     -33.500  15.544  -3.778  1.00 20.00     0.028 A 
HETATM    3  C3  UNL     1     -34.642  14.574  -5.555  1.00 20.00     0.089 A 
HETATM    4  C4  UNL     1     -34.806  15.834  -3.449  1.00 20.00     0.052 A 
HETATM    5  S9  UNL     1     -35.910  15.228  -4.609  1.00 20.00    -0.078 SA
HETATM    6 BR10 UNL     1     -35.336  16.793  -1.897  1.00 20.00    -0.043 Br
ENDROOT
BRANCH   3   7
HETATM    7  C5  UNL     1     -34.963  13.856  -6.807  1.00 20.00     0.423 C 
HETATM    8  F6  UNL     1     -33.905  13.731  -7.669  1.00 20.00    -0.166 F 
HETATM    9  F7  UNL     1     -35.407  12.572  -6.617  1.00 20.00    -0.166 F 
HETATM   10  F8  UNL     1     -35.947  14.466  -7.540  1.00 20.00    -0.166 F 
ENDBRANCH   3   7
TORSDOF 1
ENDMDL
MODEL 9
REMARK VINA RESULT:      -3.8     12.028     12.729
REMARK  1 active torsions:
REMARK  status: ('A' for Active; 'I' for Inactive)
REMARK    1  A    between atoms: C3_3  and  C5_5 
ROOT
HETATM    1  C1  UNL     1     -33.288  16.722  -4.919  1.00 20.00     0.025 A 
HETATM    2  C2  UNL     1     -33.390  15.881  -6.065  1.00 20.00     0.028 A 
HETATM    3  C3  UNL     1     -34.097  16.295  -3.890  1.00 20.00     0.089 A 
HETATM    4  C4  UNL     1     -34.274  14.843  -5.867  1.00 20.00     0.052 A 
HETATM    5  S9  UNL     1     -34.975  14.886  -4.306  1.00 20.00    -0.078 SA
HETATM    6 BR10 UNL     1     -34.678  13.514  -7.163  1.00 20.00    -0.043 Br
ENDROOT
BRANCH   3   7
HETATM    7  C5  UNL     1     -34.272  16.892  -2.548  1.00 20.00     0.423 C 
HETATM    8  F6  UNL     1     -33.119  16.960  -1.811  1.00 20.00    -0.166 F 
HETATM    9  F7  UNL     1     -34.747  18.179  -2.567  1.00 20.00    -0.166 F 
HETATM   10  F8  UNL     1     -35.155  16.200  -1.762  1.00 20.00    -0.166 F 
ENDBRANCH   3   7
TORSDOF 1
ENDMDL
