MODEL 1
REMARK VINA RESULT:      -3.5      0.000      0.000
REMARK  2 active torsions:
REMARK  status: ('A' for Active; 'I' for Inactive)
REMARK    1  A    between atoms: C1_1  and  N7_7 
REMARK    2  A    between atoms: N6_6  and  N8_8 
ROOT
HETATM    1  C1  UNL     1     -33.202   7.230   3.796  1.00 20.00     0.220 C 
HETATM    2  N6  UNL     1     -33.228   7.431   2.516  1.00 20.00    -0.195 NA
ENDROOT
BRANCH   1   3
HETATM    3  N7  UNL     1     -34.156   6.606   4.579  1.00 20.00    -0.383 N 
HETATM    4  C2  UNL     1     -34.119   6.706   6.031  1.00 20.00     0.150 C 
HETATM    5  C3  UNL     1     -35.071   5.623   4.014  1.00 20.00     0.150 C 
ENDBRANCH   1   3
BRANCH   2   6
HETATM    6  N8  UNL     1     -32.118   8.070   2.060  1.00 20.00    -0.216 NA
HETATM    7  C4  UNL     1     -32.379   9.204   1.164  1.00 20.00     0.138 C 
HETATM    8  C5  UNL     1     -31.216   8.508   3.129  1.00 20.00     0.138 C 
ENDBRANCH   2   6
TORSDOF 2
ENDMDL
MODEL 2
REMARK VINA RESULT:      -3.4      1.569      2.395
REMARK  2 active torsions:
REMARK  status: ('A' for Active; 'I' for Inactive)
REMARK    1  A    between atoms: C1_1  and  N7_7 
REMARK    2  A    between atoms: N6_6  and  N8_8 
ROOT
HETATM    1  C1  UNL     1     -32.896   8.074   2.247  1.00 20.00     0.220 C 
HETATM    2  N6  UNL     1     -31.827   8.474   1.633  1.00 20.00    -0.195 NA
ENDROOT
BRANCH   1   3
HETATM    3  N7  UNL     1     -33.012   7.064   3.185  1.00 20.00    -0.383 N 
HETATM    4  C2  UNL     1     -33.161   5.674   2.778  1.00 20.00     0.150 C 
HETATM    5  C3  UNL     1     -33.249   7.364   4.590  1.00 20.00     0.150 C 
ENDBRANCH   1   3
BRANCH   2   6
HETATM    6  N8  UNL     1     -32.065   9.501   0.776  1.00 20.00    -0.216 NA
HETATM    7  C4  UNL     1     -32.852   9.148  -0.412  1.00 20.00     0.138 C 
HETATM    8  C5  UNL     1     -32.674  10.669   1.418  1.00 20.00     0.138 C 
ENDBRANCH   2   6
TORSDOF 2
ENDMDL
MODEL 3
REMARK VINA RESULT:      -3.3      1.059      4.001
REMARK  2 active torsions:
REMARK  status: ('A' for Active; 'I' for Inactive)
REMARK    1  A    between atoms: C1_1  and  N7_7 
REMARK    2  A    between atoms: N6_6  and  N8_8 
ROOT
HETATM    1  C1  UNL     1     -33.184   7.133   3.646  1.00 20.00     0.220 C 
HETATM    2  N6  UNL     1     -33.865   6.106   3.246  1.00 20.00    -0.195 NA
ENDROOT
BRANCH   1   3
HETATM    3  N7  UNL     1     -32.355   7.950   2.898  1.00 20.00    -0.383 N 
HETATM    4  C2  UNL     1     -31.115   8.473   3.453  1.00 20.00     0.150 C 
HETATM    5  C3  UNL     1     -32.803   8.526   1.638  1.00 20.00     0.150 C 
ENDBRANCH   1   3
BRANCH   2   6
HETATM    6  N8  UNL     1     -34.587   5.530   4.244  1.00 20.00    -0.216 NA
HETATM    7  C4  UNL     1     -34.359   4.091   4.424  1.00 20.00     0.138 C 
HETATM    8  C5  UNL     1     -34.431   6.200   5.537  1.00 20.00     0.138 C 
ENDBRANCH   2   6
TORSDOF 2
ENDMDL
MODEL 4
REMARK VINA RESULT:      -3.2      1.574      2.075
REMARK  2 active torsions:
REMARK  status: ('A' for Active; 'I' for Inactive)
REMARK    1  A    between atoms: C1_1  and  N7_7 
REMARK    2  A    between atoms: N6_6  and  N8_8 
ROOT
HETATM    1  C1  UNL     1     -33.009   8.064   2.228  1.00 20.00     0.220 C 
HETATM    2  N6  UNL     1     -31.906   8.428   1.653  1.00 20.00    -0.195 NA
ENDROOT
BRANCH   1   3
HETATM    3  N7  UNL     1     -33.188   7.065   3.169  1.00 20.00    -0.383 N 
HETATM    4  C2  UNL     1     -33.200   7.368   4.593  1.00 20.00     0.150 C 
HETATM    5  C3  UNL     1     -33.112   5.659   2.799  1.00 20.00     0.150 C 
ENDBRANCH   1   3
BRANCH   2   6
HETATM    6  N8  UNL     1     -32.083   9.455   0.779  1.00 20.00    -0.216 NA
HETATM    7  C4  UNL     1     -32.873   9.125  -0.415  1.00 20.00     0.138 C 
HETATM    8  C5  UNL     1     -32.641  10.659   1.399  1.00 20.00     0.138 C 
ENDBRANCH   2   6
TORSDOF 2
ENDMDL
MODEL 5
REMARK VINA RESULT:      -3.2      1.137      4.139
REMARK  2 active torsions:
REMARK  status: ('A' for Active; 'I' for Inactive)
REMARK    1  A    between atoms: C1_1  and  N7_7 
REMARK    2  A    between atoms: N6_6  and  N8_8 
ROOT
HETATM    1  C1  UNL     1     -32.750   8.212   2.672  1.00 20.00     0.220 C 
HETATM    2  N6  UNL     1     -33.136   6.978   2.576  1.00 20.00    -0.195 NA
ENDROOT
BRANCH   1   3
HETATM    3  N7  UNL     1     -32.298   9.043   1.663  1.00 20.00    -0.383 N 
HETATM    4  C2  UNL     1     -32.955  10.312   1.383  1.00 20.00     0.150 C 
HETATM    5  C3  UNL     1     -31.326   8.579   0.683  1.00 20.00     0.150 C 
ENDBRANCH   1   3
BRANCH   2   6
HETATM    6  N8  UNL     1     -33.530   6.455   3.767  1.00 20.00    -0.216 NA
HETATM    7  C4  UNL     1     -33.441   7.375   4.909  1.00 20.00     0.138 C 
HETATM    8  C5  UNL     1     -34.874   5.872   3.732  1.00 20.00     0.138 C 
ENDBRANCH   2   6
TORSDOF 2
ENDMDL
MODEL 6
REMARK VINA RESULT:      -3.0     11.090     11.922
REMARK  2 active torsions:
REMARK  status: ('A' for Active; 'I' for Inactive)
REMARK    1  A    between atoms: C1_1  and  N7_7 
REMARK    2  A    between atoms: N6_6  and  N8_8 
ROOT
HETATM    1  C1  UNL     1     -34.425  15.323  -4.842  1.00 20.00     0.220 C 
HETATM    2  N6  UNL     1     -33.833  14.230  -5.209  1.00 20.00    -0.195 NA
ENDROOT
BRANCH   1   3
HETATM    3  N7  UNL     1     -33.866  16.425  -4.220  1.00 20.00    -0.383 N 
HETATM    4  C2  UNL     1     -33.829  16.530  -2.769  1.00 20.00     0.150 C 
HETATM    5  C3  UNL     1     -33.534  17.627  -4.972  1.00 20.00     0.150 C 
ENDBRANCH   1   3
BRANCH   2   6
HETATM    6  N8  UNL     1     -34.679  13.347  -5.804  1.00 20.00    -0.216 NA
HETATM    7  C4  UNL     1     -36.071  13.413  -5.341  1.00 20.00     0.138 C 
HETATM    8  C5  UNL     1     -34.662  13.418  -7.268  1.00 20.00     0.138 C 
ENDBRANCH   2   6
TORSDOF 2
ENDMDL
MODEL 7
REMARK VINA RESULT:      -2.9     10.793     11.239
REMARK  2 active torsions:
REMARK  status: ('A' for Active; 'I' for Inactive)
REMARK    1  A    between atoms: C1_1  and  N7_7 
REMARK    2  A    between atoms: N6_6  and  N8_8 
ROOT
HETATM    1  C1  UNL     1     -35.022  15.222  -3.952  1.00 20.00     0.220 C 
HETATM    2  N6  UNL     1     -34.516  14.059  -4.217  1.00 20.00    -0.195 NA
ENDROOT
BRANCH   1   3
HETATM    3  N7  UNL     1     -34.649  16.104  -2.953  1.00 20.00    -0.383 N 
HETATM    4  C2  UNL     1     -35.628  16.627  -2.010  1.00 20.00     0.150 C 
HETATM    5  C3  UNL     1     -33.340  16.742  -2.960  1.00 20.00     0.150 C 
ENDBRANCH   1   3
BRANCH   2   6
HETATM    6  N8  UNL     1     -35.114  13.454  -5.278  1.00 20.00    -0.216 NA
HETATM    7  C4  UNL     1     -36.554  13.709  -5.407  1.00 20.00     0.138 C 
HETATM    8  C5  UNL     1     -34.465  13.746  -6.559  1.00 20.00     0.138 C 
ENDBRANCH   2   6
TORSDOF 2
ENDMDL
MODEL 8
REMARK VINA RESULT:      -2.8     10.640     12.004
REMARK  2 active torsions:
REMARK  status: ('A' for Active; 'I' for Inactive)
REMARK    1  A    between atoms: C1_1  and  N7_7 
REMARK    2  A    between atoms: N6_6  and  N8_8 
ROOT
HETATM    1  C1  UNL     1     -37.210  14.834  -4.904  1.00 20.00     0.220 C 
HETATM    2  N6  UNL     1     -37.087  13.550  -5.039  1.00 20.00    -0.195 NA
ENDROOT
BRANCH   1   3
HETATM    3  N7  UNL     1     -38.369  15.561  -4.700  1.00 20.00    -0.383 N 
HETATM    4  C2  UNL     1     -39.620  15.175  -5.336  1.00 20.00     0.150 C 
HETATM    5  C3  UNL     1     -38.335  16.871  -4.064  1.00 20.00     0.150 C 
ENDBRANCH   1   3
BRANCH   2   6
HETATM    6  N8  UNL     1     -35.797  13.161  -5.217  1.00 20.00    -0.216 NA
HETATM    7  C4  UNL     1     -35.332  13.174  -6.610  1.00 20.00     0.138 C 
HETATM    8  C5  UNL     1     -34.843  13.905  -4.392  1.00 20.00     0.138 C 
ENDBRANCH   2   6
TORSDOF 2
ENDMDL
MODEL 9
REMARK VINA RESULT:      -2.7     10.836     11.279
REMARK  2 active torsions:
REMARK  status: ('A' for Active; 'I' for Inactive)
REMARK    1  A    between atoms: C1_1  and  N7_7 
REMARK    2  A    between atoms: N6_6  and  N8_8 
ROOT
HETATM    1  C1  UNL     1     -33.855  16.619  -2.722  1.00 20.00     0.220 C 
HETATM    2  N6  UNL     1     -34.825  15.890  -3.179  1.00 20.00    -0.195 NA
ENDROOT
BRANCH   1   3
HETATM    3  N7  UNL     1     -33.796  17.302  -1.521  1.00 20.00    -0.383 N 
HETATM    4  C2  UNL     1     -34.956  17.381  -0.644  1.00 20.00     0.150 C 
HETATM    5  C3  UNL     1     -32.676  18.178  -1.206  1.00 20.00     0.150 C 
ENDBRANCH   1   3
BRANCH   2   6
HETATM    6  N8  UNL     1     -34.551  15.351  -4.396  1.00 20.00    -0.216 NA
HETATM    7  C4  UNL     1     -33.130  15.350  -4.769  1.00 20.00     0.138 C 
HETATM    8  C5  UNL     1     -35.087  13.999  -4.570  1.00 20.00     0.138 C 
ENDBRANCH   2   6
TORSDOF 2
ENDMDL
