MODEL 1
REMARK VINA RESULT:      -4.3      0.000      0.000
REMARK  3 active torsions:
REMARK  status: ('A' for Active; 'I' for Inactive)
REMARK    1  A    between atoms: C1_1  and  C5_5 
REMARK    2  A    between atoms: C5_5  and  C6_6 
REMARK    3  A    between atoms: C5_5  and  O8_8 
ROOT
HETATM    1  C5  UNL     1     -33.451   5.997   2.884  1.00 20.00     0.186 C 
ENDROOT
BRANCH   1   2
HETATM    2  C1  UNL     1     -32.466   7.138   3.064  1.00 20.00     0.263 C 
HETATM    3  O7  UNL     1     -32.273   8.020   2.234  1.00 20.00    -0.304 OA
ENDBRANCH   1   2
BRANCH   1   4
HETATM    4  C6  UNL     1     -34.386   5.791   4.105  1.00 20.00    -0.019 C 
HETATM    5  C2  UNL     1     -34.344   4.331   4.592  1.00 20.00     0.017 C 
HETATM    6  C3  UNL     1     -35.837   6.115   3.690  1.00 20.00     0.017 C 
HETATM    7  C4  UNL     1     -34.004   6.724   5.271  1.00 20.00     0.017 C 
ENDBRANCH   1   4
BRANCH   1   8
HETATM    8  O8  UNL     1     -32.702   4.815   2.634  1.00 20.00    -0.388 OA
HETATM    9  H20 UNL     1     -33.194   4.307   1.969  1.00 20.00     0.210 HD
ENDBRANCH   1   8
TORSDOF 3
ENDMDL
MODEL 2
REMARK VINA RESULT:      -4.2      0.034      1.530
REMARK  3 active torsions:
REMARK  status: ('A' for Active; 'I' for Inactive)
REMARK    1  A    between atoms: C1_1  and  C5_5 
REMARK    2  A    between atoms: C5_5  and  C6_6 
REMARK    3  A    between atoms: C5_5  and  O8_8 
ROOT
HETATM    1  C5  UNL     1     -33.448   6.002   2.879  1.00 20.00     0.186 C 
ENDROOT
BRANCH   1   2
HETATM    2  C1  UNL     1     -32.467   7.142   3.088  1.00 20.00     0.263 C 
HETATM    3  O7  UNL     1     -32.211   7.995   2.244  1.00 20.00    -0.304 OA
ENDBRANCH   1   2
BRANCH   1   4
HETATM    4  C6  UNL     1     -34.410   5.789   4.078  1.00 20.00    -0.019 C 
HETATM    5  C2  UNL     1     -35.861   6.122   3.686  1.00 20.00     0.017 C 
HETATM    6  C3  UNL     1     -33.997   6.730   5.230  1.00 20.00     0.017 C 
HETATM    7  C4  UNL     1     -34.347   4.340   4.599  1.00 20.00     0.017 C 
ENDBRANCH   1   4
BRANCH   1   8
HETATM    8  O8  UNL     1     -32.693   4.821   2.639  1.00 20.00    -0.388 OA
HETATM    9  H20 UNL     1     -33.327   4.130   2.390  1.00 20.00     0.210 HD
ENDBRANCH   1   8
TORSDOF 3
ENDMDL
MODEL 3
REMARK VINA RESULT:      -4.1      1.571      2.166
REMARK  3 active torsions:
REMARK  status: ('A' for Active; 'I' for Inactive)
REMARK    1  A    between atoms: C1_1  and  C5_5 
REMARK    2  A    between atoms: C5_5  and  C6_6 
REMARK    3  A    between atoms: C5_5  and  O8_8 
ROOT
HETATM    1  C5  UNL     1     -33.271   6.748   4.625  1.00 20.00     0.186 C 
ENDROOT
BRANCH   1   2
HETATM    2  C1  UNL     1     -32.821   7.695   3.527  1.00 20.00     0.263 C 
HETATM    3  O7  UNL     1     -31.665   8.076   3.376  1.00 20.00    -0.304 OA
ENDBRANCH   1   2
BRANCH   1   4
HETATM    4  C6  UNL     1     -34.176   5.596   4.114  1.00 20.00    -0.019 C 
HETATM    5  C2  UNL     1     -34.460   4.579   5.235  1.00 20.00     0.017 C 
HETATM    6  C3  UNL     1     -33.454   4.857   2.968  1.00 20.00     0.017 C 
HETATM    7  C4  UNL     1     -35.514   6.132   3.567  1.00 20.00     0.017 C 
ENDBRANCH   1   4
BRANCH   1   8
HETATM    8  O8  UNL     1     -33.960   7.517   5.603  1.00 20.00    -0.388 OA
HETATM    9  H20 UNL     1     -33.284   7.891   6.191  1.00 20.00     0.210 HD
ENDBRANCH   1   8
TORSDOF 3
ENDMDL
MODEL 4
REMARK VINA RESULT:      -4.1      1.566      2.011
REMARK  3 active torsions:
REMARK  status: ('A' for Active; 'I' for Inactive)
REMARK    1  A    between atoms: C1_1  and  C5_5 
REMARK    2  A    between atoms: C5_5  and  C6_6 
REMARK    3  A    between atoms: C5_5  and  O8_8 
ROOT
HETATM    1  C5  UNL     1     -33.268   6.736   4.606  1.00 20.00     0.186 C 
ENDROOT
BRANCH   1   2
HETATM    2  C1  UNL     1     -32.807   7.679   3.509  1.00 20.00     0.263 C 
HETATM    3  O7  UNL     1     -31.655   8.082   3.384  1.00 20.00    -0.304 OA
ENDBRANCH   1   2
BRANCH   1   4
HETATM    4  C6  UNL     1     -34.144   5.566   4.085  1.00 20.00    -0.019 C 
HETATM    5  C2  UNL     1     -33.453   4.838   2.917  1.00 20.00     0.017 C 
HETATM    6  C3  UNL     1     -35.486   6.129   3.571  1.00 20.00     0.017 C 
HETATM    7  C4  UNL     1     -34.450   4.551   5.204  1.00 20.00     0.017 C 
ENDBRANCH   1   4
BRANCH   1   8
HETATM    8  O8  UNL     1     -33.992   7.504   5.560  1.00 20.00    -0.388 OA
HETATM    9  H20 UNL     1     -33.334   7.926   6.135  1.00 20.00     0.210 HD
ENDBRANCH   1   8
TORSDOF 3
ENDMDL
MODEL 5
REMARK VINA RESULT:      -4.1      1.581      2.379
REMARK  3 active torsions:
REMARK  status: ('A' for Active; 'I' for Inactive)
REMARK    1  A    between atoms: C1_1  and  C5_5 
REMARK    2  A    between atoms: C5_5  and  C6_6 
REMARK    3  A    between atoms: C5_5  and  O8_8 
ROOT
HETATM    1  C5  UNL     1     -33.275   6.746   4.628  1.00 20.00     0.186 C 
ENDROOT
BRANCH   1   2
HETATM    2  C1  UNL     1     -32.821   7.713   3.550  1.00 20.00     0.263 C 
HETATM    3  O7  UNL     1     -31.656   8.053   3.374  1.00 20.00    -0.304 OA
ENDBRANCH   1   2
BRANCH   1   4
HETATM    4  C6  UNL     1     -34.160   5.592   4.089  1.00 20.00    -0.019 C 
HETATM    5  C2  UNL     1     -35.510   6.127   3.574  1.00 20.00     0.017 C 
HETATM    6  C3  UNL     1     -34.446   4.596   5.233  1.00 20.00     0.017 C 
HETATM    7  C4  UNL     1     -33.455   4.824   2.954  1.00 20.00     0.017 C 
ENDBRANCH   1   4
BRANCH   1   8
HETATM    8  O8  UNL     1     -33.985   7.493   5.608  1.00 20.00    -0.388 OA
HETATM    9  H20 UNL     1     -34.613   6.882   6.025  1.00 20.00     0.210 HD
ENDBRANCH   1   8
TORSDOF 3
ENDMDL
MODEL 6
REMARK VINA RESULT:      -3.8     11.441     12.328
REMARK  3 active torsions:
REMARK  status: ('A' for Active; 'I' for Inactive)
REMARK    1  A    between atoms: C1_1  and  C5_5 
REMARK    2  A    between atoms: C5_5  and  C6_6 
REMARK    3  A    between atoms: C5_5  and  O8_8 
ROOT
HETATM    1  C5  UNL     1     -34.439  14.325  -4.222  1.00 20.00     0.186 C 
ENDROOT
BRANCH   1   2
HETATM    2  C1  UNL     1     -35.675  13.806  -4.935  1.00 20.00     0.263 C 
HETATM    3  O7  UNL     1     -35.851  12.632  -5.245  1.00 20.00    -0.304 OA
ENDBRANCH   1   2
BRANCH   1   4
HETATM    4  C6  UNL     1     -34.348  15.873  -4.191  1.00 20.00    -0.019 C 
HETATM    5  C2  UNL     1     -34.000  16.378  -2.779  1.00 20.00     0.017 C 
HETATM    6  C3  UNL     1     -35.717  16.467  -4.588  1.00 20.00     0.017 C 
HETATM    7  C4  UNL     1     -33.295  16.395  -5.188  1.00 20.00     0.017 C 
ENDBRANCH   1   4
BRANCH   1   8
HETATM    8  O8  UNL     1     -33.301  13.779  -4.878  1.00 20.00    -0.388 OA
HETATM    9  H20 UNL     1     -33.020  14.432  -5.539  1.00 20.00     0.210 HD
ENDBRANCH   1   8
TORSDOF 3
ENDMDL
MODEL 7
REMARK VINA RESULT:      -3.8     11.751     12.777
REMARK  3 active torsions:
REMARK  status: ('A' for Active; 'I' for Inactive)
REMARK    1  A    between atoms: C1_1  and  C5_5 
REMARK    2  A    between atoms: C5_5  and  C6_6 
REMARK    3  A    between atoms: C5_5  and  O8_8 
ROOT
HETATM    1  C5  UNL     1     -35.920  13.975  -4.961  1.00 20.00     0.186 C 
ENDROOT
BRANCH   1   2
HETATM    2  C1  UNL     1     -37.299  14.406  -5.427  1.00 20.00     0.263 C 
HETATM    3  O7  UNL     1     -38.350  13.994  -4.946  1.00 20.00    -0.304 OA
ENDBRANCH   1   2
BRANCH   1   4
HETATM    4  C6  UNL     1     -34.767  14.589  -5.797  1.00 20.00    -0.019 C 
HETATM    5  C2  UNL     1     -33.490  14.738  -4.949  1.00 20.00     0.017 C 
HETATM    6  C3  UNL     1     -35.185  15.993  -6.282  1.00 20.00     0.017 C 
HETATM    7  C4  UNL     1     -34.452  13.730  -7.037  1.00 20.00     0.017 C 
ENDBRANCH   1   4
BRANCH   1   8
HETATM    8  O8  UNL     1     -35.868  12.555  -5.020  1.00 20.00    -0.388 OA
HETATM    9  H20 UNL     1     -35.926  12.235  -4.105  1.00 20.00     0.210 HD
ENDBRANCH   1   8
TORSDOF 3
ENDMDL
MODEL 8
REMARK VINA RESULT:      -3.7      2.110      2.992
REMARK  3 active torsions:
REMARK  status: ('A' for Active; 'I' for Inactive)
REMARK    1  A    between atoms: C1_1  and  C5_5 
REMARK    2  A    between atoms: C5_5  and  C6_6 
REMARK    3  A    between atoms: C5_5  and  O8_8 
ROOT
HETATM    1  C5  UNL     1     -34.092   5.863   4.476  1.00 20.00     0.186 C 
ENDROOT
BRANCH   1   2
HETATM    2  C1  UNL     1     -34.058   7.182   5.227  1.00 20.00     0.263 C 
HETATM    3  O7  UNL     1     -33.401   7.382   6.243  1.00 20.00    -0.304 OA
ENDBRANCH   1   2
BRANCH   1   4
HETATM    4  C6  UNL     1     -33.546   5.964   3.027  1.00 20.00    -0.019 C 
HETATM    5  C2  UNL     1     -32.520   7.105   2.902  1.00 20.00     0.017 C 
HETATM    6  C3  UNL     1     -34.716   6.265   2.067  1.00 20.00     0.017 C 
HETATM    7  C4  UNL     1     -32.890   4.643   2.580  1.00 20.00     0.017 C 
ENDBRANCH   1   4
BRANCH   1   8
HETATM    8  O8  UNL     1     -35.439   5.407   4.463  1.00 20.00    -0.388 OA
HETATM    9  H20 UNL     1     -35.707   5.353   3.532  1.00 20.00     0.210 HD
ENDBRANCH   1   8
TORSDOF 3
ENDMDL
MODEL 9
REMARK VINA RESULT:      -3.6     11.587     12.416
REMARK  3 active torsions:
REMARK  status: ('A' for Active; 'I' for Inactive)
REMARK    1  A    between atoms: C1_1  and  C5_5 
REMARK    2  A    between atoms: C5_5  and  C6_6 
REMARK    3  A    between atoms: C5_5  and  O8_8 
ROOT
HETATM    1  C5  UNL     1     -35.812  13.761  -4.865  1.00 20.00     0.186 C 
ENDROOT
BRANCH   1   2
HETATM    2  C1  UNL     1     -37.146  14.262  -5.391  1.00 20.00     0.263 C 
HETATM    3  O7  UNL     1     -38.236  13.908  -4.954  1.00 20.00    -0.304 OA
ENDBRANCH   1   2
BRANCH   1   4
HETATM    4  C6  UNL     1     -34.757  14.885  -4.690  1.00 20.00    -0.019 C 
HETATM    5  C2  UNL     1     -34.647  15.742  -5.965  1.00 20.00     0.017 C 
HETATM    6  C3  UNL     1     -33.378  14.247  -4.422  1.00 20.00     0.017 C 
HETATM    7  C4  UNL     1     -35.101  15.798  -3.497  1.00 20.00     0.017 C 
ENDBRANCH   1   4
BRANCH   1   8
HETATM    8  O8  UNL     1     -35.333  12.775  -5.771  1.00 20.00    -0.388 OA
HETATM    9  H20 UNL     1     -35.971  12.734  -6.502  1.00 20.00     0.210 HD
ENDBRANCH   1   8
TORSDOF 3
ENDMDL
