MODEL 1
REMARK VINA RESULT:      -6.3      0.000      0.000
REMARK  0 active torsions:
REMARK  status: ('A' for Active; 'I' for Inactive)
ROOT
HETATM    1  C1  UNL     1     -32.292   8.303   4.605  1.00 20.00     0.009 A 
HETATM    2  C2  UNL     1     -31.695   8.735   3.420  1.00 20.00     0.024 A 
HETATM    3  C3  UNL     1     -32.943   7.079   2.183  1.00 20.00     0.033 A 
HETATM    4  C4  UNL     1     -33.214   7.249   4.588  1.00 20.00    -0.048 A 
HETATM    5  C5  UNL     1     -33.557   6.644   3.365  1.00 20.00    -0.022 A 
HETATM    6  C6  UNL     1     -32.018   8.123   2.212  1.00 20.00     0.034 A 
HETATM    7  C7  UNL     1     -33.883   6.810   5.865  1.00 20.00     0.069 C 
HETATM    8  C8  UNL     1     -34.527   5.489   3.329  1.00 20.00     0.308 C 
HETATM    9  C9  UNL     1     -34.558   5.442   5.736  1.00 20.00     0.274 C 
HETATM   10  N10 UNL     1     -35.374   5.395   4.524  1.00 20.00     0.087 N 
HETATM   11 CL11 UNL     1     -31.277   8.656   0.752  1.00 20.00    -0.084 Cl
HETATM   12  H21 UNL     1     -36.034   6.173   4.531  1.00 20.00     0.316 HD
ENDROOT
TORSDOF 0
ENDMDL
MODEL 2
REMARK VINA RESULT:      -4.7     11.398     12.498
REMARK  0 active torsions:
REMARK  status: ('A' for Active; 'I' for Inactive)
ROOT
HETATM    1  C1  UNL     1     -33.402  16.415  -5.668  1.00 20.00     0.009 A 
HETATM    2  C2  UNL     1     -33.479  16.889  -4.358  1.00 20.00     0.024 A 
HETATM    3  C3  UNL     1     -34.953  15.065  -3.781  1.00 20.00     0.033 A 
HETATM    4  C4  UNL     1     -34.107  15.265  -6.046  1.00 20.00    -0.048 A 
HETATM    5  C5  UNL     1     -34.875  14.574  -5.091  1.00 20.00    -0.022 A 
HETATM    6  C6  UNL     1     -34.255  16.217  -3.417  1.00 20.00     0.034 A 
HETATM    7  C7  UNL     1     -33.993  14.737  -7.453  1.00 20.00     0.069 C 
HETATM    8  C8  UNL     1     -35.664  13.350  -5.484  1.00 20.00     0.308 C 
HETATM    9  C9  UNL     1     -35.088  13.724  -7.792  1.00 20.00     0.274 C 
HETATM   10  N10 UNL     1     -35.199  12.726  -6.729  1.00 20.00     0.087 N 
HETATM   11 CL11 UNL     1     -34.351  16.807  -1.802  1.00 20.00    -0.084 Cl
HETATM   12  H21 UNL     1     -34.287  12.298  -6.571  1.00 20.00     0.316 HD
ENDROOT
TORSDOF 0
ENDMDL
MODEL 3
REMARK VINA RESULT:      -4.7     11.474     11.822
REMARK  0 active torsions:
REMARK  status: ('A' for Active; 'I' for Inactive)
ROOT
HETATM    1  C1  UNL     1     -32.917  17.813  -1.646  1.00 20.00     0.009 A 
HETATM    2  C2  UNL     1     -33.501  17.058  -2.664  1.00 20.00     0.024 A 
HETATM    3  C3  UNL     1     -35.507  16.817  -1.341  1.00 20.00     0.033 A 
HETATM    4  C4  UNL     1     -33.623  18.070  -0.464  1.00 20.00    -0.048 A 
HETATM    5  C5  UNL     1     -34.935  17.584  -0.316  1.00 20.00    -0.022 A 
HETATM    6  C6  UNL     1     -34.791  16.558  -2.510  1.00 20.00     0.034 A 
HETATM    7  C7  UNL     1     -33.002  18.916   0.618  1.00 20.00     0.069 C 
HETATM    8  C8  UNL     1     -35.702  17.826   0.960  1.00 20.00     0.308 C 
HETATM    9  C9  UNL     1     -33.733  18.789   1.957  1.00 20.00     0.274 C 
HETATM   10  N10 UNL     1     -35.175  18.937   1.760  1.00 20.00     0.087 N 
HETATM   11 CL11 UNL     1     -35.507  15.623  -3.767  1.00 20.00    -0.084 Cl
HETATM   12  H21 UNL     1     -35.361  19.817   1.279  1.00 20.00     0.316 HD
ENDROOT
TORSDOF 0
ENDMDL
MODEL 4
REMARK VINA RESULT:      -4.7     11.546     11.971
REMARK  0 active torsions:
REMARK  status: ('A' for Active; 'I' for Inactive)
ROOT
HETATM    1  C1  UNL     1     -35.513  17.029  -0.909  1.00 20.00     0.009 A 
HETATM    2  C2  UNL     1     -35.143  16.617  -2.189  1.00 20.00     0.024 A 
HETATM    3  C3  UNL     1     -32.981  17.654  -1.903  1.00 20.00     0.033 A 
HETATM    4  C4  UNL     1     -34.620  17.764  -0.118  1.00 20.00    -0.048 A 
HETATM    5  C5  UNL     1     -33.337  18.064  -0.611  1.00 20.00    -0.022 A 
HETATM    6  C6  UNL     1     -33.881  16.931  -2.687  1.00 20.00     0.034 A 
HETATM    7  C7  UNL     1     -35.012  18.177   1.278  1.00 20.00     0.069 C 
HETATM    8  C8  UNL     1     -32.372  18.878   0.214  1.00 20.00     0.308 C 
HETATM    9  C9  UNL     1     -34.097  19.263   1.848  1.00 20.00     0.274 C 
HETATM   10  N10 UNL     1     -32.695  18.900   1.645  1.00 20.00     0.087 N 
HETATM   11 CL11 UNL     1     -33.428  16.424  -4.269  1.00 20.00    -0.084 Cl
HETATM   12  H21 UNL     1     -32.524  17.976   2.043  1.00 20.00     0.316 HD
ENDROOT
TORSDOF 0
ENDMDL
MODEL 5
REMARK VINA RESULT:      -4.6     11.476     11.796
REMARK  0 active torsions:
REMARK  status: ('A' for Active; 'I' for Inactive)
ROOT
HETATM    1  C1  UNL     1     -36.161  16.488  -2.927  1.00 20.00     0.009 A 
HETATM    2  C2  UNL     1     -35.287  17.255  -2.158  1.00 20.00     0.024 A 
HETATM    3  C3  UNL     1     -33.405  16.108  -3.144  1.00 20.00     0.033 A 
HETATM    4  C4  UNL     1     -35.663  15.518  -3.807  1.00 20.00    -0.048 A 
HETATM    5  C5  UNL     1     -34.273  15.338  -3.930  1.00 20.00    -0.022 A 
HETATM    6  C6  UNL     1     -33.912  17.064  -2.263  1.00 20.00     0.034 A 
HETATM    7  C7  UNL     1     -36.610  14.716  -4.662  1.00 20.00     0.069 C 
HETATM    8  C8  UNL     1     -33.717  14.280  -4.851  1.00 20.00     0.308 C 
HETATM    9  C9  UNL     1     -35.948  13.478  -5.271  1.00 20.00     0.274 C 
HETATM   10  N10 UNL     1     -34.667  13.838  -5.878  1.00 20.00     0.087 N 
HETATM   11 CL11 UNL     1     -32.835  18.010  -1.308  1.00 20.00    -0.084 Cl
HETATM   12  H21 UNL     1     -34.812  14.591  -6.550  1.00 20.00     0.316 HD
ENDROOT
TORSDOF 0
ENDMDL
MODEL 6
REMARK VINA RESULT:      -4.6     11.738     12.120
REMARK  0 active torsions:
REMARK  status: ('A' for Active; 'I' for Inactive)
ROOT
HETATM    1  C1  UNL     1     -35.563  17.051  -1.084  1.00 20.00     0.009 A 
HETATM    2  C2  UNL     1     -34.663  17.731  -0.263  1.00 20.00     0.024 A 
HETATM    3  C3  UNL     1     -32.997  17.640  -2.010  1.00 20.00     0.033 A 
HETATM    4  C4  UNL     1     -35.184  16.654  -2.373  1.00 20.00    -0.048 A 
HETATM    5  C5  UNL     1     -33.897  16.967  -2.847  1.00 20.00    -0.022 A 
HETATM    6  C6  UNL     1     -33.381  18.022  -0.724  1.00 20.00     0.034 A 
HETATM    7  C7  UNL     1     -36.172  15.952  -3.268  1.00 20.00     0.069 C 
HETATM    8  C8  UNL     1     -33.459  16.524  -4.221  1.00 20.00     0.308 C 
HETATM    9  C9  UNL     1     -35.502  15.273  -4.465  1.00 20.00     0.274 C 
HETATM   10  N10 UNL     1     -34.576  16.198  -5.116  1.00 20.00     0.087 N 
HETATM   11 CL11 UNL     1     -32.271  18.857   0.293  1.00 20.00    -0.084 Cl
HETATM   12  H21 UNL     1     -35.072  17.055  -5.362  1.00 20.00     0.316 HD
ENDROOT
TORSDOF 0
ENDMDL
MODEL 7
REMARK VINA RESULT:      -4.5     11.265     12.703
REMARK  0 active torsions:
REMARK  status: ('A' for Active; 'I' for Inactive)
ROOT
HETATM    1  C1  UNL     1     -33.389  18.085  -4.794  1.00 20.00     0.009 A 
HETATM    2  C2  UNL     1     -33.409  18.566  -3.485  1.00 20.00     0.024 A 
HETATM    3  C3  UNL     1     -33.852  16.337  -2.668  1.00 20.00     0.033 A 
HETATM    4  C4  UNL     1     -33.609  16.725  -5.050  1.00 20.00    -0.048 A 
HETATM    5  C5  UNL     1     -33.824  15.840  -3.978  1.00 20.00    -0.022 A 
HETATM    6  C6  UNL     1     -33.643  17.694  -2.424  1.00 20.00     0.034 A 
HETATM    7  C7  UNL     1     -33.552  16.203  -6.464  1.00 20.00     0.069 C 
HETATM    8  C8  UNL     1     -34.090  14.377  -4.234  1.00 20.00     0.308 C 
HETATM    9  C9  UNL     1     -34.167  14.809  -6.602  1.00 20.00     0.274 C 
HETATM   10  N10 UNL     1     -33.651  13.924  -5.559  1.00 20.00     0.087 N 
HETATM   11 CL11 UNL     1     -33.670  18.293  -0.810  1.00 20.00    -0.084 Cl
HETATM   12  H21 UNL     1     -32.631  13.921  -5.594  1.00 20.00     0.316 HD
ENDROOT
TORSDOF 0
ENDMDL
MODEL 8
REMARK VINA RESULT:      -4.4      1.152      2.199
REMARK  0 active torsions:
REMARK  status: ('A' for Active; 'I' for Inactive)
ROOT
HETATM    1  C1  UNL     1     -33.265   5.801   2.140  1.00 20.00     0.009 A 
HETATM    2  C2  UNL     1     -32.769   6.973   1.568  1.00 20.00     0.024 A 
HETATM    3  C3  UNL     1     -33.102   8.139   3.656  1.00 20.00     0.033 A 
HETATM    4  C4  UNL     1     -33.690   5.792   3.475  1.00 20.00    -0.048 A 
HETATM    5  C5  UNL     1     -33.591   6.965   4.246  1.00 20.00    -0.022 A 
HETATM    6  C6  UNL     1     -32.690   8.140   2.323  1.00 20.00     0.034 A 
HETATM    7  C7  UNL     1     -34.191   4.515   4.100  1.00 20.00     0.069 C 
HETATM    8  C8  UNL     1     -34.070   6.984   5.676  1.00 20.00     0.308 C 
HETATM    9  C9  UNL     1     -34.946   4.757   5.409  1.00 20.00     0.274 C 
HETATM   10  N10 UNL     1     -34.178   5.649   6.276  1.00 20.00     0.087 N 
HETATM   11 CL11 UNL     1     -32.082   9.585   1.612  1.00 20.00    -0.084 Cl
HETATM   12  H21 UNL     1     -33.243   5.264   6.414  1.00 20.00     0.316 HD
ENDROOT
TORSDOF 0
ENDMDL
MODEL 9
REMARK VINA RESULT:      -4.4     11.592     12.141
REMARK  0 active torsions:
REMARK  status: ('A' for Active; 'I' for Inactive)
ROOT
HETATM    1  C1  UNL     1     -32.991  17.758  -1.921  1.00 20.00     0.009 A 
HETATM    2  C2  UNL     1     -33.376  18.090  -0.622  1.00 20.00     0.024 A 
HETATM    3  C3  UNL     1     -35.531  17.066  -0.994  1.00 20.00     0.033 A 
HETATM    4  C4  UNL     1     -33.878  17.083  -2.770  1.00 20.00    -0.048 A 
HETATM    5  C5  UNL     1     -35.152  16.718  -2.298  1.00 20.00    -0.022 A 
HETATM    6  C6  UNL     1     -34.644  17.748  -0.160  1.00 20.00     0.034 A 
HETATM    7  C7  UNL     1     -33.445  16.695  -4.161  1.00 20.00     0.069 C 
HETATM    8  C8  UNL     1     -36.132  16.016  -3.205  1.00 20.00     0.308 C 
HETATM    9  C9  UNL     1     -34.624  16.311  -5.058  1.00 20.00     0.274 C 
HETATM   10  N10 UNL     1     -35.502  15.371  -4.363  1.00 20.00     0.087 N 
HETATM   11 CL11 UNL     1     -35.117  18.163   1.442  1.00 20.00    -0.084 Cl
HETATM   12  H21 UNL     1     -34.956  14.569  -4.047  1.00 20.00     0.316 HD
ENDROOT
TORSDOF 0
ENDMDL
