MODEL 1
REMARK VINA RESULT:      -6.2      0.000      0.000
REMARK  1 active torsions:
REMARK  status: ('A' for Active; 'I' for Inactive)
REMARK    1  A    between atoms: C2_2  and  C4_4 
ROOT
HETATM    1  C1  UNL     1     -32.632   7.360   2.706  1.00 20.00     0.146 C 
HETATM    2  C4  UNL     1     -33.401   6.133   2.910  1.00 20.00     0.388 C 
HETATM    3  N5  UNL     1     -32.020   8.331   2.539  1.00 20.00    -0.190 NA
HETATM    4  F9  UNL     1     -34.367   6.070   1.954  1.00 20.00    -0.181 F 
HETATM    5  F10 UNL     1     -32.581   5.073   2.686  1.00 20.00    -0.181 F 
ENDROOT
BRANCH   2   6
HETATM    6  C2  UNL     1     -34.018   6.109   4.271  1.00 20.00     0.247 C 
HETATM    7  C3  UNL     1     -34.541   5.028   4.859  1.00 20.00     0.308 C 
HETATM    8  F7  UNL     1     -35.078   5.103   6.095  1.00 20.00    -0.170 F 
HETATM    9  F8  UNL     1     -34.537   3.847   4.207  1.00 20.00    -0.170 F 
HETATM   10  F6  UNL     1     -34.075   7.277   4.953  1.00 20.00    -0.197 F 
ENDBRANCH   2   6
TORSDOF 1
ENDMDL
MODEL 2
REMARK VINA RESULT:      -5.9      2.339      3.035
REMARK  1 active torsions:
REMARK  status: ('A' for Active; 'I' for Inactive)
REMARK    1  A    between atoms: C2_2  and  C4_4 
ROOT
HETATM    1  C1  UNL     1     -34.287   4.571   4.010  1.00 20.00     0.146 C 
HETATM    2  C4  UNL     1     -34.583   5.913   3.512  1.00 20.00     0.388 C 
HETATM    3  N5  UNL     1     -34.056   3.504   4.403  1.00 20.00    -0.190 NA
HETATM    4  F9  UNL     1     -34.308   5.945   2.180  1.00 20.00    -0.181 F 
HETATM    5  F10 UNL     1     -35.921   6.125   3.624  1.00 20.00    -0.181 F 
ENDROOT
BRANCH   2   6
HETATM    6  C2  UNL     1     -33.774   6.942   4.232  1.00 20.00     0.247 C 
HETATM    7  C3  UNL     1     -33.781   7.138   5.555  1.00 20.00     0.308 C 
HETATM    8  F7  UNL     1     -33.013   8.096   6.118  1.00 20.00    -0.170 F 
HETATM    9  F8  UNL     1     -34.569   6.372   6.338  1.00 20.00    -0.170 F 
HETATM   10  F6  UNL     1     -32.991   7.757   3.487  1.00 20.00    -0.197 F 
ENDBRANCH   2   6
TORSDOF 1
ENDMDL
MODEL 3
REMARK VINA RESULT:      -5.8      1.734      3.416
REMARK  1 active torsions:
REMARK  status: ('A' for Active; 'I' for Inactive)
REMARK    1  A    between atoms: C2_2  and  C4_4 
ROOT
HETATM    1  C1  UNL     1     -34.009   6.651   5.326  1.00 20.00     0.146 C 
HETATM    2  C4  UNL     1     -34.778   5.522   4.805  1.00 20.00     0.388 C 
HETATM    3  N5  UNL     1     -33.403   7.549   5.742  1.00 20.00    -0.190 NA
HETATM    4  F9  UNL     1     -35.262   4.812   5.860  1.00 20.00    -0.181 F 
HETATM    5  F10 UNL     1     -35.865   6.011   4.151  1.00 20.00    -0.181 F 
ENDROOT
BRANCH   2   6
HETATM    6  C2  UNL     1     -33.928   4.650   3.940  1.00 20.00     0.247 C 
HETATM    7  C3  UNL     1     -33.348   5.031   2.797  1.00 20.00     0.308 C 
HETATM    8  F7  UNL     1     -32.595   4.170   2.080  1.00 20.00    -0.170 F 
HETATM    9  F8  UNL     1     -33.521   6.293   2.351  1.00 20.00    -0.170 F 
HETATM   10  F6  UNL     1     -33.750   3.365   4.328  1.00 20.00    -0.197 F 
ENDBRANCH   2   6
TORSDOF 1
ENDMDL
MODEL 4
REMARK VINA RESULT:      -5.7      0.863      2.296
REMARK  1 active torsions:
REMARK  status: ('A' for Active; 'I' for Inactive)
REMARK    1  A    between atoms: C2_2  and  C4_4 
ROOT
HETATM    1  C1  UNL     1     -32.525   7.734   2.944  1.00 20.00     0.146 C 
HETATM    2  C4  UNL     1     -33.439   7.145   3.922  1.00 20.00     0.388 C 
HETATM    3  N5  UNL     1     -31.801   8.206   2.170  1.00 20.00    -0.190 NA
HETATM    4  F9  UNL     1     -32.924   7.349   5.165  1.00 20.00    -0.181 F 
HETATM    5  F10 UNL     1     -34.609   7.835   3.882  1.00 20.00    -0.181 F 
ENDROOT
BRANCH   2   6
HETATM    6  C2  UNL     1     -33.621   5.684   3.671  1.00 20.00     0.247 C 
HETATM    7  C3  UNL     1     -34.349   4.858   4.429  1.00 20.00     0.308 C 
HETATM    8  F7  UNL     1     -34.455   3.547   4.122  1.00 20.00    -0.170 F 
HETATM    9  F8  UNL     1     -34.983   5.339   5.519  1.00 20.00    -0.170 F 
HETATM   10  F6  UNL     1     -32.979   5.146   2.607  1.00 20.00    -0.197 F 
ENDBRANCH   2   6
TORSDOF 1
ENDMDL
MODEL 5
REMARK VINA RESULT:      -5.6      1.169      1.881
REMARK  1 active torsions:
REMARK  status: ('A' for Active; 'I' for Inactive)
REMARK    1  A    between atoms: C2_2  and  C4_4 
ROOT
HETATM    1  C1  UNL     1     -32.875   7.570   2.478  1.00 20.00     0.146 C 
HETATM    2  C4  UNL     1     -33.488   6.306   2.884  1.00 20.00     0.388 C 
HETATM    3  N5  UNL     1     -32.386   8.570   2.151  1.00 20.00    -0.190 NA
HETATM    4  F9  UNL     1     -34.388   5.942   1.931  1.00 20.00    -0.181 F 
HETATM    5  F10 UNL     1     -32.528   5.344   2.880  1.00 20.00    -0.181 F 
ENDROOT
BRANCH   2   6
HETATM    6  C2  UNL     1     -34.164   6.442   4.210  1.00 20.00     0.247 C 
HETATM    7  C3  UNL     1     -33.678   7.119   5.255  1.00 20.00     0.308 C 
HETATM    8  F7  UNL     1     -34.363   7.186   6.417  1.00 20.00    -0.170 F 
HETATM    9  F8  UNL     1     -32.485   7.741   5.150  1.00 20.00    -0.170 F 
HETATM   10  F6  UNL     1     -35.349   5.809   4.376  1.00 20.00    -0.197 F 
ENDBRANCH   2   6
TORSDOF 1
ENDMDL
MODEL 6
REMARK VINA RESULT:      -5.6      2.205      3.499
REMARK  1 active torsions:
REMARK  status: ('A' for Active; 'I' for Inactive)
REMARK    1  A    between atoms: C2_2  and  C4_4 
ROOT
HETATM    1  C1  UNL     1     -34.301   4.442   4.396  1.00 20.00     0.146 C 
HETATM    2  C4  UNL     1     -34.765   5.786   4.737  1.00 20.00     0.388 C 
HETATM    3  N5  UNL     1     -33.937   3.374   4.126  1.00 20.00    -0.190 NA
HETATM    4  F9  UNL     1     -35.847   6.074   3.963  1.00 20.00    -0.181 F 
HETATM    5  F10 UNL     1     -35.215   5.769   6.020  1.00 20.00    -0.181 F 
ENDROOT
BRANCH   2   6
HETATM    6  C2  UNL     1     -33.687   6.796   4.516  1.00 20.00     0.247 C 
HETATM    7  C3  UNL     1     -33.152   7.105   3.330  1.00 20.00     0.308 C 
HETATM    8  F7  UNL     1     -32.178   8.034   3.229  1.00 20.00    -0.170 F 
HETATM    9  F8  UNL     1     -33.590   6.477   2.219  1.00 20.00    -0.170 F 
HETATM   10  F6  UNL     1     -33.191   7.431   5.605  1.00 20.00    -0.197 F 
ENDBRANCH   2   6
TORSDOF 1
ENDMDL
MODEL 7
REMARK VINA RESULT:      -5.6      2.335      3.384
REMARK  1 active torsions:
REMARK  status: ('A' for Active; 'I' for Inactive)
REMARK    1  A    between atoms: C2_2  and  C4_4 
ROOT
HETATM    1  C1  UNL     1     -34.317   4.668   4.064  1.00 20.00     0.146 C 
HETATM    2  C4  UNL     1     -34.580   6.001   3.525  1.00 20.00     0.388 C 
HETATM    3  N5  UNL     1     -34.111   3.608   4.489  1.00 20.00    -0.190 NA
HETATM    4  F9  UNL     1     -34.382   5.965   2.179  1.00 20.00    -0.181 F 
HETATM    5  F10 UNL     1     -35.898   6.281   3.704  1.00 20.00    -0.181 F 
ENDROOT
BRANCH   2   6
HETATM    6  C2  UNL     1     -33.683   7.019   4.153  1.00 20.00     0.247 C 
HETATM    7  C3  UNL     1     -32.553   7.486   3.613  1.00 20.00     0.308 C 
HETATM    8  F7  UNL     1     -31.806   8.408   4.257  1.00 20.00    -0.170 F 
HETATM    9  F8  UNL     1     -32.152   7.028   2.409  1.00 20.00    -0.170 F 
HETATM   10  F6  UNL     1     -34.026   7.485   5.377  1.00 20.00    -0.197 F 
ENDBRANCH   2   6
TORSDOF 1
ENDMDL
MODEL 8
REMARK VINA RESULT:      -5.6      1.952      3.671
REMARK  1 active torsions:
REMARK  status: ('A' for Active; 'I' for Inactive)
REMARK    1  A    between atoms: C2_2  and  C4_4 
ROOT
HETATM    1  C1  UNL     1     -34.353   6.203   5.264  1.00 20.00     0.146 C 
HETATM    2  C4  UNL     1     -34.518   5.558   3.962  1.00 20.00     0.388 C 
HETATM    3  N5  UNL     1     -34.227   6.713   6.298  1.00 20.00    -0.190 NA
HETATM    4  F9  UNL     1     -34.585   4.214   4.156  1.00 20.00    -0.181 F 
HETATM    5  F10 UNL     1     -35.724   5.925   3.453  1.00 20.00    -0.181 F 
ENDROOT
BRANCH   2   6
HETATM    6  C2  UNL     1     -33.381   5.894   3.051  1.00 20.00     0.247 C 
HETATM    7  C3  UNL     1     -32.997   7.132   2.724  1.00 20.00     0.308 C 
HETATM    8  F7  UNL     1     -31.955   7.338   1.891  1.00 20.00    -0.170 F 
HETATM    9  F8  UNL     1     -33.662   8.192   3.231  1.00 20.00    -0.170 F 
HETATM   10  F6  UNL     1     -32.702   4.865   2.491  1.00 20.00    -0.197 F 
ENDBRANCH   2   6
TORSDOF 1
ENDMDL
MODEL 9
REMARK VINA RESULT:      -5.4      2.298      3.750
REMARK  1 active torsions:
REMARK  status: ('A' for Active; 'I' for Inactive)
REMARK    1  A    between atoms: C2_2  and  C4_4 
ROOT
HETATM    1  C1  UNL     1     -34.342   4.582   4.323  1.00 20.00     0.146 C 
HETATM    2  C4  UNL     1     -34.630   6.007   4.168  1.00 20.00     0.388 C 
HETATM    3  N5  UNL     1     -34.117   3.450   4.449  1.00 20.00    -0.190 NA
HETATM    4  F9  UNL     1     -35.893   6.137   3.681  1.00 20.00    -0.181 F 
HETATM    5  F10 UNL     1     -34.643   6.576   5.403  1.00 20.00    -0.181 F 
ENDROOT
BRANCH   2   6
HETATM    6  C2  UNL     1     -33.649   6.654   3.245  1.00 20.00     0.247 C 
HETATM    7  C3  UNL     1     -32.667   7.479   3.622  1.00 20.00     0.308 C 
HETATM    8  F7  UNL     1     -31.826   8.017   2.713  1.00 20.00    -0.170 F 
HETATM    9  F8  UNL     1     -32.514   7.781   4.928  1.00 20.00    -0.170 F 
HETATM   10  F6  UNL     1     -33.779   6.408   1.920  1.00 20.00    -0.197 F 
ENDBRANCH   2   6
TORSDOF 1
ENDMDL
