MODEL 1
REMARK VINA RESULT:      -6.3      0.000      0.000
REMARK  0 active torsions:
REMARK  status: ('A' for Active; 'I' for Inactive)
ROOT
HETATM    1  C1  UNL     1     -32.325   7.508   3.249  1.00 20.00     0.064 C 
HETATM    2  C2  UNL     1     -35.488   5.613   3.746  1.00 20.00     0.011 C 
HETATM    3  C3  UNL     1     -34.133   5.209   5.661  1.00 20.00     0.010 C 
HETATM    4  C4  UNL     1     -33.470   6.615   3.074  1.00 20.00     0.101 C 
HETATM    5  C5  UNL     1     -34.362   4.691   4.228  1.00 20.00    -0.009 C 
HETATM    6  C6  UNL     1     -34.674   6.892   4.003  1.00 20.00     0.007 C 
HETATM    7  C7  UNL     1     -34.401   6.722   5.523  1.00 20.00    -0.013 C 
HETATM    8  C8  UNL     1     -33.154   5.127   3.359  1.00 20.00     0.003 C 
HETATM    9  C9  UNL     1     -33.322   7.587   6.149  1.00 20.00     0.010 C 
HETATM   10  C10 UNL     1     -33.041   4.310   2.074  1.00 20.00     0.011 C 
HETATM   11  N11 UNL     1     -31.417   8.216   3.388  1.00 20.00    -0.197 NA
ENDROOT
TORSDOF 0
ENDMDL
MODEL 2
REMARK VINA RESULT:      -5.7      1.463      2.615
REMARK  0 active torsions:
REMARK  status: ('A' for Active; 'I' for Inactive)
ROOT
HETATM    1  C1  UNL     1     -33.724   7.510   5.404  1.00 20.00     0.064 C 
HETATM    2  C2  UNL     1     -34.605   6.036   2.104  1.00 20.00     0.011 C 
HETATM    3  C3  UNL     1     -33.271   4.429   3.245  1.00 20.00     0.010 C 
HETATM    4  C4  UNL     1     -33.914   7.285   3.971  1.00 20.00     0.101 C 
HETATM    5  C5  UNL     1     -33.136   5.675   2.349  1.00 20.00    -0.009 C 
HETATM    6  C6  UNL     1     -34.918   6.169   3.604  1.00 20.00     0.007 C 
HETATM    7  C7  UNL     1     -34.533   4.740   4.075  1.00 20.00    -0.013 C 
HETATM    8  C8  UNL     1     -32.628   6.847   3.230  1.00 20.00     0.003 C 
HETATM    9  C9  UNL     1     -34.349   4.511   5.565  1.00 20.00     0.010 C 
HETATM   10  C10 UNL     1     -32.034   7.980   2.397  1.00 20.00     0.011 C 
HETATM   11  N11 UNL     1     -33.573   7.689   6.541  1.00 20.00    -0.197 NA
ENDROOT
TORSDOF 0
ENDMDL
MODEL 3
REMARK VINA RESULT:      -5.1     11.774     12.921
REMARK  0 active torsions:
REMARK  status: ('A' for Active; 'I' for Inactive)
ROOT
HETATM    1  C1  UNL     1     -36.612  13.986  -5.103  1.00 20.00     0.064 C 
HETATM    2  C2  UNL     1     -32.962  14.459  -4.559  1.00 20.00     0.011 C 
HETATM    3  C3  UNL     1     -33.937  16.630  -4.631  1.00 20.00     0.010 C 
HETATM    4  C4  UNL     1     -35.155  13.934  -5.222  1.00 20.00     0.101 C 
HETATM    5  C5  UNL     1     -33.383  15.537  -5.565  1.00 20.00    -0.009 C 
HETATM    6  C6  UNL     1     -34.372  14.344  -3.955  1.00 20.00     0.007 C 
HETATM    7  C7  UNL     1     -34.573  15.812  -3.489  1.00 20.00    -0.013 C 
HETATM    8  C8  UNL     1     -34.579  14.881  -6.302  1.00 20.00     0.003 C 
HETATM    9  C9  UNL     1     -35.982  16.256  -3.138  1.00 20.00     0.010 C 
HETATM   10  C10 UNL     1     -34.143  14.125  -7.554  1.00 20.00     0.011 C 
HETATM   11  N11 UNL     1     -37.767  14.029  -5.009  1.00 20.00    -0.197 NA
ENDROOT
TORSDOF 0
ENDMDL
MODEL 4
REMARK VINA RESULT:      -4.7     12.285     13.334
REMARK  0 active torsions:
REMARK  status: ('A' for Active; 'I' for Inactive)
ROOT
HETATM    1  C1  UNL     1     -36.865  14.970  -4.635  1.00 20.00     0.064 C 
HETATM    2  C2  UNL     1     -33.908  17.216  -4.862  1.00 20.00     0.011 C 
HETATM    3  C3  UNL     1     -33.076  14.991  -4.718  1.00 20.00     0.010 C 
HETATM    4  C4  UNL     1     -35.889  16.036  -4.407  1.00 20.00     0.101 C 
HETATM    5  C5  UNL     1     -33.550  16.150  -3.821  1.00 20.00    -0.009 C 
HETATM    6  C6  UNL     1     -34.919  16.306  -5.580  1.00 20.00     0.007 C 
HETATM    7  C7  UNL     1     -33.981  15.128  -5.959  1.00 20.00    -0.013 C 
HETATM    8  C8  UNL     1     -34.929  15.764  -3.224  1.00 20.00     0.003 C 
HETATM    9  C9  UNL     1     -34.624  13.820  -6.386  1.00 20.00     0.010 C 
HETATM   10  C10 UNL     1     -35.282  16.601  -1.997  1.00 20.00     0.011 C 
HETATM   11  N11 UNL     1     -37.639  14.125  -4.815  1.00 20.00    -0.197 NA
ENDROOT
TORSDOF 0
ENDMDL
MODEL 5
REMARK VINA RESULT:      -4.5     12.613     14.126
REMARK  0 active torsions:
REMARK  status: ('A' for Active; 'I' for Inactive)
ROOT
HETATM    1  C1  UNL     1     -35.623  13.808  -5.858  1.00 20.00     0.064 C 
HETATM    2  C2  UNL     1     -33.854  16.756  -7.281  1.00 20.00     0.011 C 
HETATM    3  C3  UNL     1     -33.649  16.903  -4.914  1.00 20.00     0.010 C 
HETATM    4  C4  UNL     1     -35.288  15.019  -6.607  1.00 20.00     0.101 C 
HETATM    5  C5  UNL     1     -34.616  17.271  -6.055  1.00 20.00    -0.009 C 
HETATM    6  C6  UNL     1     -33.777  15.317  -6.742  1.00 20.00     0.007 C 
HETATM    7  C7  UNL     1     -33.026  15.582  -5.409  1.00 20.00    -0.013 C 
HETATM    8  C8  UNL     1     -35.839  16.320  -5.976  1.00 20.00     0.003 C 
HETATM    9  C9  UNL     1     -33.030  14.481  -4.363  1.00 20.00     0.010 C 
HETATM   10  C10 UNL     1     -37.044  16.862  -6.740  1.00 20.00     0.011 C 
HETATM   11  N11 UNL     1     -35.889  12.848  -5.264  1.00 20.00    -0.197 NA
ENDROOT
TORSDOF 0
ENDMDL
MODEL 6
REMARK VINA RESULT:      -4.4     12.101     13.105
REMARK  0 active torsions:
REMARK  status: ('A' for Active; 'I' for Inactive)
ROOT
HETATM    1  C1  UNL     1     -35.460  13.688  -6.208  1.00 20.00     0.064 C 
HETATM    2  C2  UNL     1     -35.797  17.119  -4.808  1.00 20.00     0.011 C 
HETATM    3  C3  UNL     1     -34.824  15.770  -3.105  1.00 20.00     0.010 C 
HETATM    4  C4  UNL     1     -35.982  14.986  -5.779  1.00 20.00     0.101 C 
HETATM    5  C5  UNL     1     -36.199  16.161  -3.681  1.00 20.00    -0.009 C 
HETATM    6  C6  UNL     1     -34.915  16.071  -5.507  1.00 20.00     0.007 C 
HETATM    7  C7  UNL     1     -33.922  15.760  -4.355  1.00 20.00    -0.013 C 
HETATM    8  C8  UNL     1     -36.766  14.937  -4.446  1.00 20.00     0.003 C 
HETATM    9  C9  UNL     1     -33.067  14.511  -4.475  1.00 20.00     0.010 C 
HETATM   10  C10 UNL     1     -38.274  15.040  -4.664  1.00 20.00     0.011 C 
HETATM   11  N11 UNL     1     -35.047  12.659  -6.548  1.00 20.00    -0.197 NA
ENDROOT
TORSDOF 0
ENDMDL
MODEL 7
REMARK VINA RESULT:      -4.4     12.301     13.876
REMARK  0 active torsions:
REMARK  status: ('A' for Active; 'I' for Inactive)
ROOT
HETATM    1  C1  UNL     1     -35.904  13.939  -5.019  1.00 20.00     0.064 C 
HETATM    2  C2  UNL     1     -35.552  17.619  -5.437  1.00 20.00     0.011 C 
HETATM    3  C3  UNL     1     -33.420  16.666  -5.893  1.00 20.00     0.010 C 
HETATM    4  C4  UNL     1     -35.927  15.386  -4.806  1.00 20.00     0.101 C 
HETATM    5  C5  UNL     1     -34.284  17.153  -4.714  1.00 20.00    -0.009 C 
HETATM    6  C6  UNL     1     -35.798  16.246  -6.084  1.00 20.00     0.007 C 
HETATM    7  C7  UNL     1     -34.467  16.088  -6.866  1.00 20.00    -0.013 C 
HETATM    8  C8  UNL     1     -34.767  15.908  -3.924  1.00 20.00     0.003 C 
HETATM    9  C9  UNL     1     -34.111  14.707  -7.388  1.00 20.00     0.010 C 
HETATM   10  C10 UNL     1     -35.234  16.263  -2.515  1.00 20.00     0.011 C 
HETATM   11  N11 UNL     1     -35.885  12.792  -5.189  1.00 20.00    -0.197 NA
ENDROOT
TORSDOF 0
ENDMDL
MODEL 8
REMARK VINA RESULT:      -4.3     12.190     13.629
REMARK  0 active torsions:
REMARK  status: ('A' for Active; 'I' for Inactive)
ROOT
HETATM    1  C1  UNL     1     -33.880  17.894  -5.311  1.00 20.00     0.064 C 
HETATM    2  C2  UNL     1     -33.091  14.430  -4.205  1.00 20.00     0.011 C 
HETATM    3  C3  UNL     1     -35.046  14.295  -5.556  1.00 20.00     0.010 C 
HETATM    4  C4  UNL     1     -33.573  16.711  -4.507  1.00 20.00     0.101 C 
HETATM    5  C5  UNL     1     -34.614  14.570  -4.103  1.00 20.00    -0.009 C 
HETATM    6  C6  UNL     1     -32.972  15.519  -5.285  1.00 20.00     0.007 C 
HETATM    7  C7  UNL     1     -33.888  14.900  -6.376  1.00 20.00    -0.013 C 
HETATM    8  C8  UNL     1     -34.809  16.082  -3.820  1.00 20.00     0.003 C 
HETATM    9  C9  UNL     1     -34.353  15.802  -7.505  1.00 20.00     0.010 C 
HETATM   10  C10 UNL     1     -34.852  16.389  -2.325  1.00 20.00     0.011 C 
HETATM   11  N11 UNL     1     -34.123  18.831  -5.948  1.00 20.00    -0.197 NA
ENDROOT
TORSDOF 0
ENDMDL
MODEL 9
REMARK VINA RESULT:      -4.3     12.156     13.241
REMARK  0 active torsions:
REMARK  status: ('A' for Active; 'I' for Inactive)
ROOT
HETATM    1  C1  UNL     1     -36.151  16.397  -3.457  1.00 20.00     0.064 C 
HETATM    2  C2  UNL     1     -33.081  14.540  -4.439  1.00 20.00     0.011 C 
HETATM    3  C3  UNL     1     -33.485  16.156  -6.139  1.00 20.00     0.010 C 
HETATM    4  C4  UNL     1     -35.191  15.344  -3.788  1.00 20.00     0.101 C 
HETATM    5  C5  UNL     1     -33.891  14.728  -5.726  1.00 20.00    -0.009 C 
HETATM    6  C6  UNL     1     -33.706  15.769  -3.758  1.00 20.00     0.007 C 
HETATM    7  C7  UNL     1     -33.302  16.864  -4.782  1.00 20.00    -0.013 C 
HETATM    8  C8  UNL     1     -35.356  14.773  -5.217  1.00 20.00     0.003 C 
HETATM    9  C9  UNL     1     -34.008  18.206  -4.700  1.00 20.00     0.010 C 
HETATM   10  C10 UNL     1     -36.008  13.392  -5.210  1.00 20.00     0.011 C 
HETATM   11  N11 UNL     1     -36.912  17.232  -3.194  1.00 20.00    -0.197 NA
ENDROOT
TORSDOF 0
ENDMDL
