MODEL 1
REMARK VINA RESULT:      -3.6      0.000      0.000
REMARK  0 active torsions:
REMARK  status: ('A' for Active; 'I' for Inactive)
ROOT
HETATM    1  C1  UNL     1     -34.402   4.598   4.307  1.00 20.00     0.184 C 
HETATM    2  C2  UNL     1     -34.422   6.107   5.705  1.00 20.00     0.184 C 
HETATM    3  C3  UNL     1     -34.574   6.111   4.185  1.00 20.00     0.101 C 
HETATM    4  O4  UNL     1     -34.515   4.663   5.749  1.00 20.00    -0.389 OA
HETATM    5  I5  UNL     1     -32.884   7.207   3.025  1.00 20.00    -0.080 I 
ENDROOT
TORSDOF 0
ENDMDL
MODEL 2
REMARK VINA RESULT:      -3.2      3.461      3.840
REMARK  0 active torsions:
REMARK  status: ('A' for Active; 'I' for Inactive)
ROOT
HETATM    1  C1  UNL     1     -31.509   8.361   3.558  1.00 20.00     0.184 C 
HETATM    2  C2  UNL     1     -33.248   7.420   2.990  1.00 20.00     0.184 C 
HETATM    3  C3  UNL     1     -32.079   7.990   2.190  1.00 20.00     0.101 C 
HETATM    4  O4  UNL     1     -32.527   7.585   4.235  1.00 20.00    -0.389 OA
HETATM    5  I5  UNL     1     -32.604   9.790   0.817  1.00 20.00    -0.080 I 
ENDROOT
TORSDOF 0
ENDMDL
MODEL 3
REMARK VINA RESULT:      -3.1      2.968      3.354
REMARK  0 active torsions:
REMARK  status: ('A' for Active; 'I' for Inactive)
ROOT
HETATM    1  C1  UNL     1     -32.959   7.713   4.780  1.00 20.00     0.184 C 
HETATM    2  C2  UNL     1     -32.799   6.903   2.896  1.00 20.00     0.184 C 
HETATM    3  C3  UNL     1     -33.943   6.939   3.906  1.00 20.00     0.101 C 
HETATM    4  O4  UNL     1     -32.026   7.844   3.680  1.00 20.00    -0.389 OA
HETATM    5  I5  UNL     1     -34.590   4.869   4.742  1.00 20.00    -0.080 I 
ENDROOT
TORSDOF 0
ENDMDL
MODEL 4
REMARK VINA RESULT:      -3.0      2.088      2.578
REMARK  0 active torsions:
REMARK  status: ('A' for Active; 'I' for Inactive)
ROOT
HETATM    1  C1  UNL     1     -33.517   7.288   4.317  1.00 20.00     0.184 C 
HETATM    2  C2  UNL     1     -33.758   6.029   2.708  1.00 20.00     0.184 C 
HETATM    3  C3  UNL     1     -32.626   6.968   3.119  1.00 20.00     0.101 C 
HETATM    4  O4  UNL     1     -34.418   6.205   3.985  1.00 20.00    -0.389 OA
HETATM    5  I5  UNL     1     -32.240   8.744   1.670  1.00 20.00    -0.080 I 
ENDROOT
TORSDOF 0
ENDMDL
MODEL 5
REMARK VINA RESULT:      -2.9      3.812      4.105
REMARK  0 active torsions:
REMARK  status: ('A' for Active; 'I' for Inactive)
ROOT
HETATM    1  C1  UNL     1     -32.763   8.151   1.881  1.00 20.00     0.184 C 
HETATM    2  C2  UNL     1     -31.691   8.054   3.634  1.00 20.00     0.184 C 
HETATM    3  C3  UNL     1     -32.476   7.005   2.848  1.00 20.00     0.101 C 
HETATM    4  O4  UNL     1     -31.806   9.007   2.550  1.00 20.00    -0.389 OA
HETATM    5  I5  UNL     1     -34.338   6.141   3.937  1.00 20.00    -0.080 I 
ENDROOT
TORSDOF 0
ENDMDL
MODEL 6
REMARK VINA RESULT:      -2.9      1.899      2.135
REMARK  0 active torsions:
REMARK  status: ('A' for Active; 'I' for Inactive)
ROOT
HETATM    1  C1  UNL     1     -33.538   5.429   2.959  1.00 20.00     0.184 C 
HETATM    2  C2  UNL     1     -34.396   4.336   4.475  1.00 20.00     0.184 C 
HETATM    3  C3  UNL     1     -34.510   5.804   4.074  1.00 20.00     0.101 C 
HETATM    4  O4  UNL     1     -33.680   4.019   3.257  1.00 20.00    -0.389 OA
HETATM    5  I5  UNL     1     -33.691   7.322   5.632  1.00 20.00    -0.080 I 
ENDROOT
TORSDOF 0
ENDMDL
MODEL 7
REMARK VINA RESULT:      -2.8      1.557      1.670
REMARK  0 active torsions:
REMARK  status: ('A' for Active; 'I' for Inactive)
ROOT
HETATM    1  C1  UNL     1     -34.635   5.496   5.585  1.00 20.00     0.184 C 
HETATM    2  C2  UNL     1     -33.793   7.285   5.019  1.00 20.00     0.184 C 
HETATM    3  C3  UNL     1     -34.531   6.202   4.235  1.00 20.00     0.101 C 
HETATM    4  O4  UNL     1     -34.151   6.670   6.280  1.00 20.00    -0.389 OA
HETATM    5  I5  UNL     1     -33.257   5.096   2.637  1.00 20.00    -0.080 I 
ENDROOT
TORSDOF 0
ENDMDL
MODEL 8
REMARK VINA RESULT:      -2.7      5.454      5.728
REMARK  0 active torsions:
REMARK  status: ('A' for Active; 'I' for Inactive)
ROOT
HETATM    1  C1  UNL     1     -31.843   8.915   0.351  1.00 20.00     0.184 C 
HETATM    2  C2  UNL     1     -33.060  10.178   1.427  1.00 20.00     0.184 C 
HETATM    3  C3  UNL     1     -32.019   9.145   1.851  1.00 20.00     0.101 C 
HETATM    4  O4  UNL     1     -32.656  10.072   0.040  1.00 20.00    -0.389 OA
HETATM    5  I5  UNL     1     -32.852   7.330   3.038  1.00 20.00    -0.080 I 
ENDROOT
TORSDOF 0
ENDMDL
MODEL 9
REMARK VINA RESULT:      -2.6     12.866     13.321
REMARK  0 active torsions:
REMARK  status: ('A' for Active; 'I' for Inactive)
ROOT
HETATM    1  C1  UNL     1     -34.482  13.717  -6.696  1.00 20.00     0.184 C 
HETATM    2  C2  UNL     1     -35.918  13.381  -5.262  1.00 20.00     0.184 C 
HETATM    3  C3  UNL     1     -35.226  14.653  -5.746  1.00 20.00     0.101 C 
HETATM    4  O4  UNL     1     -35.354  12.614  -6.353  1.00 20.00    -0.389 OA
HETATM    5  I5  UNL     1     -33.895  15.717  -4.165  1.00 20.00    -0.080 I 
ENDROOT
TORSDOF 0
ENDMDL
