MODEL 1
REMARK VINA RESULT:      -5.4      0.000      0.000
REMARK  0 active torsions:
REMARK  status: ('A' for Active; 'I' for Inactive)
ROOT
HETATM    1  C1  UNL     1     -33.662  18.583   2.238  1.00 20.00     0.013 A 
HETATM    2  C2  UNL     1     -32.371  18.537   2.765  1.00 20.00     0.043 A 
HETATM    3  C3  UNL     1     -31.461  18.653   0.536  1.00 20.00     0.050 A 
HETATM    4  C4  UNL     1     -33.884  18.664   0.853  1.00 20.00    -0.020 A 
HETATM    5  C5  UNL     1     -32.756  18.705  -0.001  1.00 20.00    -0.046 A 
HETATM    6  C6  UNL     1     -31.271  18.569   1.913  1.00 20.00     0.117 A 
HETATM    7  C7  UNL     1     -32.946  18.807  -1.498  1.00 20.00     0.039 C 
HETATM    8  C8  UNL     1     -33.497  17.537  -2.162  1.00 20.00     0.007 C 
HETATM    9  C9  UNL     1     -34.654  16.845  -1.434  1.00 20.00     0.035 C 
HETATM   10  C10 UNL     1     -35.290  18.696   0.302  1.00 20.00     0.184 A 
HETATM   11  C11 UNL     1     -35.649  17.814  -0.879  1.00 20.00     0.156 A 
HETATM   12  O12 UNL     1     -36.097  17.512   0.444  1.00 20.00    -0.370 OA
HETATM   13  F13 UNL     1     -30.031  18.523   2.417  1.00 20.00    -0.206 F 
ENDROOT
TORSDOF 0
ENDMDL
MODEL 2
REMARK VINA RESULT:      -5.4      2.716      4.648
REMARK  0 active torsions:
REMARK  status: ('A' for Active; 'I' for Inactive)
ROOT
HETATM    1  C1  UNL     1     -32.691  17.789  -1.412  1.00 20.00     0.013 A 
HETATM    2  C2  UNL     1     -33.673  17.046  -2.069  1.00 20.00     0.043 A 
HETATM    3  C3  UNL     1     -35.267  17.652  -0.367  1.00 20.00     0.050 A 
HETATM    4  C4  UNL     1     -32.971  18.478  -0.220  1.00 20.00    -0.020 A 
HETATM    5  C5  UNL     1     -34.288  18.405   0.297  1.00 20.00    -0.046 A 
HETATM    6  C6  UNL     1     -34.959  16.976  -1.545  1.00 20.00     0.117 A 
HETATM    7  C7  UNL     1     -34.640  19.143   1.569  1.00 20.00     0.039 C 
HETATM    8  C8  UNL     1     -34.024  18.551   2.845  1.00 20.00     0.007 C 
HETATM    9  C9  UNL     1     -32.551  18.138   2.752  1.00 20.00     0.035 C 
HETATM   10  C10 UNL     1     -31.891  19.263   0.484  1.00 20.00     0.184 A 
HETATM   11  C11 UNL     1     -31.724  19.120   1.985  1.00 20.00     0.156 A 
HETATM   12  O12 UNL     1     -30.799  18.530   1.070  1.00 20.00    -0.370 OA
HETATM   13  F13 UNL     1     -35.902  16.262  -2.174  1.00 20.00    -0.206 F 
ENDROOT
TORSDOF 0
ENDMDL
MODEL 3
REMARK VINA RESULT:      -5.3      3.079      4.530
REMARK  0 active torsions:
REMARK  status: ('A' for Active; 'I' for Inactive)
ROOT
HETATM    1  C1  UNL     1     -36.202  17.117  -1.981  1.00 20.00     0.013 A 
HETATM    2  C2  UNL     1     -35.471  17.595  -0.893  1.00 20.00     0.043 A 
HETATM    3  C3  UNL     1     -33.419  17.087  -2.051  1.00 20.00     0.050 A 
HETATM    4  C4  UNL     1     -35.562  16.613  -3.126  1.00 20.00    -0.020 A 
HETATM    5  C5  UNL     1     -34.147  16.609  -3.151  1.00 20.00    -0.046 A 
HETATM    6  C6  UNL     1     -34.080  17.577  -0.928  1.00 20.00     0.117 A 
HETATM    7  C7  UNL     1     -33.415  16.090  -4.369  1.00 20.00     0.039 C 
HETATM    8  C8  UNL     1     -33.499  14.570  -4.566  1.00 20.00     0.007 C 
HETATM    9  C9  UNL     1     -34.878  13.938  -4.353  1.00 20.00     0.035 C 
HETATM   10  C10 UNL     1     -36.372  16.085  -4.287  1.00 20.00     0.184 A 
HETATM   11  C11 UNL     1     -35.986  14.764  -4.925  1.00 20.00     0.156 A 
HETATM   12  O12 UNL     1     -37.135  14.881  -4.084  1.00 20.00    -0.370 OA
HETATM   13  F13 UNL     1     -33.377  18.035   0.117  1.00 20.00    -0.206 F 
ENDROOT
TORSDOF 0
ENDMDL
MODEL 4
REMARK VINA RESULT:      -5.2      4.945      6.658
REMARK  0 active torsions:
REMARK  status: ('A' for Active; 'I' for Inactive)
ROOT
HETATM    1  C1  UNL     1     -35.179  15.370  -3.415  1.00 20.00     0.013 A 
HETATM    2  C2  UNL     1     -34.341  16.344  -2.870  1.00 20.00     0.043 A 
HETATM    3  C3  UNL     1     -33.829  17.138  -5.088  1.00 20.00     0.050 A 
HETATM    4  C4  UNL     1     -35.360  15.255  -4.803  1.00 20.00    -0.020 A 
HETATM    5  C5  UNL     1     -34.673  16.165  -5.642  1.00 20.00    -0.046 A 
HETATM    6  C6  UNL     1     -33.665  17.226  -3.707  1.00 20.00     0.117 A 
HETATM    7  C7  UNL     1     -34.850  16.089  -7.142  1.00 20.00     0.039 C 
HETATM    8  C8  UNL     1     -34.195  14.867  -7.803  1.00 20.00     0.007 C 
HETATM    9  C9  UNL     1     -34.391  13.528  -7.085  1.00 20.00     0.035 C 
HETATM   10  C10 UNL     1     -36.258  14.183  -5.373  1.00 20.00     0.184 A 
HETATM   11  C11 UNL     1     -35.778  13.357  -6.552  1.00 20.00     0.156 A 
HETATM   12  O12 UNL     1     -35.843  12.811  -5.233  1.00 20.00    -0.370 OA
HETATM   13  F13 UNL     1     -32.859  18.161  -3.186  1.00 20.00    -0.206 F 
ENDROOT
TORSDOF 0
ENDMDL
MODEL 5
REMARK VINA RESULT:      -4.8     11.599     12.267
REMARK  0 active torsions:
REMARK  status: ('A' for Active; 'I' for Inactive)
ROOT
HETATM    1  C1  UNL     1     -32.127   8.353   4.391  1.00 20.00     0.013 A 
HETATM    2  C2  UNL     1     -31.407   8.574   3.217  1.00 20.00     0.043 A 
HETATM    3  C3  UNL     1     -32.953   7.177   2.007  1.00 20.00     0.050 A 
HETATM    4  C4  UNL     1     -33.273   7.539   4.403  1.00 20.00    -0.020 A 
HETATM    5  C5  UNL     1     -33.686   6.953   3.182  1.00 20.00    -0.046 A 
HETATM    6  C6  UNL     1     -31.819   7.984   2.027  1.00 20.00     0.117 A 
HETATM    7  C7  UNL     1     -34.922   6.083   3.144  1.00 20.00     0.039 C 
HETATM    8  C8  UNL     1     -34.768   4.720   3.835  1.00 20.00     0.007 C 
HETATM    9  C9  UNL     1     -34.057   4.730   5.191  1.00 20.00     0.035 C 
HETATM   10  C10 UNL     1     -34.030   7.299   5.688  1.00 20.00     0.184 A 
HETATM   11  C11 UNL     1     -34.461   5.889   6.046  1.00 20.00     0.156 A 
HETATM   12  O12 UNL     1     -33.379   6.535   6.720  1.00 20.00    -0.370 OA
HETATM   13  F13 UNL     1     -31.127   8.195   0.899  1.00 20.00    -0.206 F 
ENDROOT
TORSDOF 0
ENDMDL
MODEL 6
REMARK VINA RESULT:      -4.8      3.972      6.106
REMARK  0 active torsions:
REMARK  status: ('A' for Active; 'I' for Inactive)
ROOT
HETATM    1  C1  UNL     1     -33.348  17.053  -5.257  1.00 20.00     0.013 A 
HETATM    2  C2  UNL     1     -33.459  15.769  -5.791  1.00 20.00     0.043 A 
HETATM    3  C3  UNL     1     -35.028  15.186  -4.057  1.00 20.00     0.050 A 
HETATM    4  C4  UNL     1     -34.070  17.434  -4.113  1.00 20.00    -0.020 A 
HETATM    5  C5  UNL     1     -34.926  16.476  -3.517  1.00 20.00    -0.046 A 
HETATM    6  C6  UNL     1     -34.297  14.836  -5.189  1.00 20.00     0.117 A 
HETATM    7  C7  UNL     1     -35.735  16.846  -2.293  1.00 20.00     0.039 C 
HETATM    8  C8  UNL     1     -34.910  17.021  -1.010  1.00 20.00     0.007 C 
HETATM    9  C9  UNL     1     -33.603  17.807  -1.152  1.00 20.00     0.035 C 
HETATM   10  C10 UNL     1     -33.924  18.824  -3.541  1.00 20.00     0.184 A 
HETATM   11  C11 UNL     1     -33.740  18.999  -2.045  1.00 20.00     0.156 A 
HETATM   12  O12 UNL     1     -32.657  19.183  -2.959  1.00 20.00    -0.370 OA
HETATM   13  F13 UNL     1     -34.403  13.602  -5.701  1.00 20.00    -0.206 F 
ENDROOT
TORSDOF 0
ENDMDL
MODEL 7
REMARK VINA RESULT:      -4.7      2.895      4.722
REMARK  0 active torsions:
REMARK  status: ('A' for Active; 'I' for Inactive)
ROOT
HETATM    1  C1  UNL     1     -33.033  17.571  -2.070  1.00 20.00     0.013 A 
HETATM    2  C2  UNL     1     -33.699  16.620  -2.843  1.00 20.00     0.043 A 
HETATM    3  C3  UNL     1     -35.705  16.981  -1.555  1.00 20.00     0.050 A 
HETATM    4  C4  UNL     1     -33.683  18.247  -1.022  1.00 20.00    -0.020 A 
HETATM    5  C5  UNL     1     -35.043  17.942  -0.776  1.00 20.00    -0.046 A 
HETATM    6  C6  UNL     1     -35.034  16.324  -2.584  1.00 20.00     0.117 A 
HETATM    7  C7  UNL     1     -35.787  18.655   0.331  1.00 20.00     0.039 C 
HETATM    8  C8  UNL     1     -35.361  18.255   1.750  1.00 20.00     0.007 C 
HETATM    9  C9  UNL     1     -33.853  18.136   1.992  1.00 20.00     0.035 C 
HETATM   10  C10 UNL     1     -32.939  19.261  -0.186  1.00 20.00     0.184 A 
HETATM   11  C11 UNL     1     -33.074  19.224   1.325  1.00 20.00     0.156 A 
HETATM   12  O12 UNL     1     -31.883  18.785   0.669  1.00 20.00    -0.370 OA
HETATM   13  F13 UNL     1     -35.674  15.410  -3.325  1.00 20.00    -0.206 F 
ENDROOT
TORSDOF 0
ENDMDL
MODEL 8
REMARK VINA RESULT:      -4.7      4.288      6.123
REMARK  0 active torsions:
REMARK  status: ('A' for Active; 'I' for Inactive)
ROOT
HETATM    1  C1  UNL     1     -33.331  17.802  -4.670  1.00 20.00     0.013 A 
HETATM    2  C2  UNL     1     -33.589  18.382  -3.428  1.00 20.00     0.043 A 
HETATM    3  C3  UNL     1     -34.354  16.253  -2.596  1.00 20.00     0.050 A 
HETATM    4  C4  UNL     1     -33.578  16.439  -4.907  1.00 20.00    -0.020 A 
HETATM    5  C5  UNL     1     -34.092  15.662  -3.841  1.00 20.00    -0.046 A 
HETATM    6  C6  UNL     1     -34.102  17.608  -2.392  1.00 20.00     0.117 A 
HETATM    7  C7  UNL     1     -34.360  14.187  -4.044  1.00 20.00     0.039 C 
HETATM    8  C8  UNL     1     -35.557  13.873  -4.952  1.00 20.00     0.007 C 
HETATM    9  C9  UNL     1     -35.668  14.707  -6.232  1.00 20.00     0.035 C 
HETATM   10  C10 UNL     1     -33.308  15.835  -6.264  1.00 20.00     0.184 A 
HETATM   11  C11 UNL     1     -34.346  14.926  -6.895  1.00 20.00     0.156 A 
HETATM   12  O12 UNL     1     -34.132  16.258  -7.366  1.00 20.00    -0.370 OA
HETATM   13  F13 UNL     1     -34.352  18.164  -1.199  1.00 20.00    -0.206 F 
ENDROOT
TORSDOF 0
ENDMDL
MODEL 9
REMARK VINA RESULT:      -4.7      3.004      4.493
REMARK  0 active torsions:
REMARK  status: ('A' for Active; 'I' for Inactive)
ROOT
HETATM    1  C1  UNL     1     -32.981  17.821  -1.929  1.00 20.00     0.013 A 
HETATM    2  C2  UNL     1     -33.338  18.130  -0.616  1.00 20.00     0.043 A 
HETATM    3  C3  UNL     1     -35.472  17.059  -0.947  1.00 20.00     0.050 A 
HETATM    4  C4  UNL     1     -33.856  17.127  -2.781  1.00 20.00    -0.020 A 
HETATM    5  C5  UNL     1     -35.118  16.740  -2.267  1.00 20.00    -0.046 A 
HETATM    6  C6  UNL     1     -34.584  17.751  -0.127  1.00 20.00     0.117 A 
HETATM    7  C7  UNL     1     -36.087  15.978  -3.143  1.00 20.00     0.039 C 
HETATM    8  C8  UNL     1     -36.717  16.807  -4.272  1.00 20.00     0.007 C 
HETATM    9  C9  UNL     1     -35.763  17.720  -5.049  1.00 20.00     0.035 C 
HETATM   10  C10 UNL     1     -33.457  16.817  -4.204  1.00 20.00     0.184 A 
HETATM   11  C11 UNL     1     -34.443  17.073  -5.328  1.00 20.00     0.156 A 
HETATM   12  O12 UNL     1     -33.311  17.919  -5.119  1.00 20.00    -0.370 OA
HETATM   13  F13 UNL     1     -34.929  18.048   1.133  1.00 20.00    -0.206 F 
ENDROOT
TORSDOF 0
ENDMDL
