MODEL 1
REMARK VINA RESULT:      -4.3      0.000      0.000
REMARK  1 active torsions:
REMARK  status: ('A' for Active; 'I' for Inactive)
REMARK    1  A    between atoms: C1_1  and  C2_2 
ROOT
HETATM    1  C1  UNL     1     -34.526   4.863   4.861  1.00 20.00     0.346 C 
HETATM    2  O3  UNL     1     -34.403   3.821   4.233  1.00 20.00    -0.255 OA
HETATM    3  F4  UNL     1     -34.931   4.762   6.135  1.00 20.00    -0.160 F 
ENDROOT
BRANCH   1   4
HETATM    4  C2  UNL     1     -34.308   6.230   4.299  1.00 20.00     0.369 C 
HETATM    5  F5  UNL     1     -33.376   6.220   3.311  1.00 20.00    -0.222 F 
HETATM    6 CL6  UNL     1     -33.769   7.284   5.610  1.00 20.00    -0.078 Cl
ENDBRANCH   1   4
TORSDOF 1
ENDMDL
MODEL 2
REMARK VINA RESULT:      -4.2      2.100      2.100
REMARK  1 active torsions:
REMARK  status: ('A' for Active; 'I' for Inactive)
REMARK    1  A    between atoms: C1_1  and  C2_2 
ROOT
HETATM    1  C1  UNL     1     -34.435   5.827   5.336  1.00 20.00     0.346 C 
HETATM    2  O3  UNL     1     -34.492   4.679   5.753  1.00 20.00    -0.255 OA
HETATM    3  F4  UNL     1     -34.268   6.798   6.246  1.00 20.00    -0.160 F 
ENDROOT
BRANCH   1   4
HETATM    4  C2  UNL     1     -34.589   6.225   3.905  1.00 20.00     0.369 C 
HETATM    5  F5  UNL     1     -35.851   5.997   3.458  1.00 20.00    -0.222 F 
HETATM    6 CL6  UNL     1     -33.443   5.284   2.945  1.00 20.00    -0.078 Cl
ENDBRANCH   1   4
TORSDOF 1
ENDMDL
MODEL 3
REMARK VINA RESULT:      -4.2      2.569      2.632
REMARK  1 active torsions:
REMARK  status: ('A' for Active; 'I' for Inactive)
REMARK    1  A    between atoms: C1_1  and  C2_2 
ROOT
HETATM    1  C1  UNL     1     -33.972   6.682   4.905  1.00 20.00     0.346 C 
HETATM    2  O3  UNL     1     -33.081   7.479   4.652  1.00 20.00    -0.255 OA
HETATM    3  F4  UNL     1     -34.402   6.630   6.174  1.00 20.00    -0.160 F 
ENDROOT
BRANCH   1   4
HETATM    4  C2  UNL     1     -34.576   5.735   3.920  1.00 20.00     0.369 C 
HETATM    5  F5  UNL     1     -35.907   5.957   3.767  1.00 20.00    -0.222 F 
HETATM    6 CL6  UNL     1     -34.315   4.090   4.507  1.00 20.00    -0.078 Cl
ENDBRANCH   1   4
TORSDOF 1
ENDMDL
MODEL 4
REMARK VINA RESULT:      -4.2      2.407      2.407
REMARK  1 active torsions:
REMARK  status: ('A' for Active; 'I' for Inactive)
REMARK    1  A    between atoms: C1_1  and  C2_2 
ROOT
HETATM    1  C1  UNL     1     -34.257   6.246   5.342  1.00 20.00     0.346 C 
HETATM    2  O3  UNL     1     -33.762   7.166   5.976  1.00 20.00    -0.255 OA
HETATM    3  F4  UNL     1     -34.476   5.099   6.001  1.00 20.00    -0.160 F 
ENDROOT
BRANCH   1   4
HETATM    4  C2  UNL     1     -34.586   6.293   3.885  1.00 20.00     0.369 C 
HETATM    5  F5  UNL     1     -35.859   5.883   3.648  1.00 20.00    -0.222 F 
HETATM    6 CL6  UNL     1     -33.456   5.236   3.032  1.00 20.00    -0.078 Cl
ENDBRANCH   1   4
TORSDOF 1
ENDMDL
MODEL 5
REMARK VINA RESULT:      -4.2      2.116      2.669
REMARK  1 active torsions:
REMARK  status: ('A' for Active; 'I' for Inactive)
REMARK    1  A    between atoms: C1_1  and  C2_2 
ROOT
HETATM    1  C1  UNL     1     -33.632   5.746   3.174  1.00 20.00     0.346 C 
HETATM    2  O3  UNL     1     -33.209   6.868   2.939  1.00 20.00    -0.255 OA
HETATM    3  F4  UNL     1     -33.098   4.734   2.474  1.00 20.00    -0.160 F 
ENDROOT
BRANCH   1   4
HETATM    4  C2  UNL     1     -34.728   5.430   4.139  1.00 20.00     0.369 C 
HETATM    5  F5  UNL     1     -35.919   5.931   3.720  1.00 20.00    -0.222 F 
HETATM    6 CL6  UNL     1     -34.307   6.138   5.702  1.00 20.00    -0.078 Cl
ENDBRANCH   1   4
TORSDOF 1
ENDMDL
MODEL 6
REMARK VINA RESULT:      -4.1      2.519      2.620
REMARK  1 active torsions:
REMARK  status: ('A' for Active; 'I' for Inactive)
REMARK    1  A    between atoms: C1_1  and  C2_2 
ROOT
HETATM    1  C1  UNL     1     -34.085   6.495   5.018  1.00 20.00     0.346 C 
HETATM    2  O3  UNL     1     -33.322   7.390   4.687  1.00 20.00    -0.255 OA
HETATM    3  F4  UNL     1     -34.455   6.455   6.307  1.00 20.00    -0.160 F 
ENDROOT
BRANCH   1   4
HETATM    4  C2  UNL     1     -34.589   5.422   4.109  1.00 20.00     0.369 C 
HETATM    5  F5  UNL     1     -34.795   4.258   4.778  1.00 20.00    -0.222 F 
HETATM    6 CL6  UNL     1     -33.390   5.169   2.837  1.00 20.00    -0.078 Cl
ENDBRANCH   1   4
TORSDOF 1
ENDMDL
MODEL 7
REMARK VINA RESULT:      -4.1      1.720      1.917
REMARK  1 active torsions:
REMARK  status: ('A' for Active; 'I' for Inactive)
REMARK    1  A    between atoms: C1_1  and  C2_2 
ROOT
HETATM    1  C1  UNL     1     -34.830   5.367   4.470  1.00 20.00     0.346 C 
HETATM    2  O3  UNL     1     -34.719   4.153   4.563  1.00 20.00    -0.255 OA
HETATM    3  F4  UNL     1     -35.892   5.831   3.796  1.00 20.00    -0.160 F 
ENDROOT
BRANCH   1   4
HETATM    4  C2  UNL     1     -33.849   6.358   5.003  1.00 20.00     0.369 C 
HETATM    5  F5  UNL     1     -34.371   7.071   6.035  1.00 20.00    -0.222 F 
HETATM    6 CL6  UNL     1     -33.407   7.457   3.692  1.00 20.00    -0.078 Cl
ENDBRANCH   1   4
TORSDOF 1
ENDMDL
MODEL 8
REMARK VINA RESULT:      -4.1      1.666      1.666
REMARK  1 active torsions:
REMARK  status: ('A' for Active; 'I' for Inactive)
REMARK    1  A    between atoms: C1_1  and  C2_2 
ROOT
HETATM    1  C1  UNL     1     -34.076   4.939   3.821  1.00 20.00     0.346 C 
HETATM    2  O3  UNL     1     -34.610   4.041   4.457  1.00 20.00    -0.255 OA
HETATM    3  F4  UNL     1     -33.230   4.575   2.846  1.00 20.00    -0.160 F 
ENDROOT
BRANCH   1   4
HETATM    4  C2  UNL     1     -34.259   6.397   4.083  1.00 20.00     0.369 C 
HETATM    5  F5  UNL     1     -33.338   7.142   3.419  1.00 20.00    -0.222 F 
HETATM    6 CL6  UNL     1     -34.097   6.669   5.821  1.00 20.00    -0.078 Cl
ENDBRANCH   1   4
TORSDOF 1
ENDMDL
MODEL 9
REMARK VINA RESULT:      -4.0      2.420      2.941
REMARK  1 active torsions:
REMARK  status: ('A' for Active; 'I' for Inactive)
REMARK    1  A    between atoms: C1_1  and  C2_2 
ROOT
HETATM    1  C1  UNL     1     -33.506   6.156   3.130  1.00 20.00     0.346 C 
HETATM    2  O3  UNL     1     -32.998   7.187   2.714  1.00 20.00    -0.255 OA
HETATM    3  F4  UNL     1     -33.143   5.012   2.530  1.00 20.00    -0.160 F 
ENDROOT
BRANCH   1   4
HETATM    4  C2  UNL     1     -34.532   6.085   4.213  1.00 20.00     0.369 C 
HETATM    5  F5  UNL     1     -34.254   6.954   5.219  1.00 20.00    -0.222 F 
HETATM    6 CL6  UNL     1     -34.551   4.435   4.846  1.00 20.00    -0.078 Cl
ENDBRANCH   1   4
TORSDOF 1
ENDMDL
