MODEL 1
REMARK VINA RESULT:      -4.3      0.000      0.000
REMARK  1 active torsions:
REMARK  status: ('A' for Active; 'I' for Inactive)
REMARK    1  A    between atoms: C3_3  and  C4_4 
ROOT
HETATM    1  C1  UNL     1     -33.860   6.144   3.194  1.00 20.00     0.087 A 
HETATM    2  C2  UNL     1     -34.217   6.487   5.551  1.00 20.00     0.166 A 
HETATM    3  C3  UNL     1     -33.128   7.162   3.770  1.00 20.00     0.125 A 
HETATM    4  N5  UNL     1     -33.333   7.360   5.122  1.00 20.00    -0.249 NA
HETATM    5  S7  UNL     1     -34.845   5.398   4.383  1.00 20.00    -0.092 SA
ENDROOT
BRANCH   3   6
HETATM    6  C4  UNL     1     -32.202   7.987   3.049  1.00 20.00     0.271 C 
HETATM    7  O6  UNL     1     -31.106   8.305   3.577  1.00 20.00    -0.272 OA
HETATM    8 CL8  UNL     1     -32.559   8.585   1.408  1.00 20.00    -0.037 Cl
ENDBRANCH   3   6
TORSDOF 1
ENDMDL
MODEL 2
REMARK VINA RESULT:      -4.1      1.157      1.449
REMARK  1 active torsions:
REMARK  status: ('A' for Active; 'I' for Inactive)
REMARK    1  A    between atoms: C3_3  and  C4_4 
ROOT
HETATM    1  C1  UNL     1     -33.438   7.188   5.021  1.00 20.00     0.087 A 
HETATM    2  C2  UNL     1     -34.525   5.403   3.824  1.00 20.00     0.166 A 
HETATM    3  C3  UNL     1     -33.138   7.097   3.677  1.00 20.00     0.125 A 
HETATM    4  N5  UNL     1     -33.760   6.073   2.990  1.00 20.00    -0.249 NA
HETATM    5  S7  UNL     1     -34.543   5.950   5.451  1.00 20.00    -0.092 SA
ENDROOT
BRANCH   3   6
HETATM    6  C4  UNL     1     -32.242   7.986   2.996  1.00 20.00     0.271 C 
HETATM    7  O6  UNL     1     -31.161   8.325   3.544  1.00 20.00    -0.272 OA
HETATM    8 CL8  UNL     1     -32.613   8.637   1.379  1.00 20.00    -0.037 Cl
ENDBRANCH   3   6
TORSDOF 1
ENDMDL
MODEL 3
REMARK VINA RESULT:      -3.8      3.324      3.655
REMARK  1 active torsions:
REMARK  status: ('A' for Active; 'I' for Inactive)
REMARK    1  A    between atoms: C3_3  and  C4_4 
ROOT
HETATM    1  C1  UNL     1     -33.212   6.958   2.569  1.00 20.00     0.087 A 
HETATM    2  C2  UNL     1     -32.005   8.271   4.187  1.00 20.00     0.166 A 
HETATM    3  C3  UNL     1     -33.606   6.803   3.882  1.00 20.00     0.125 A 
HETATM    4  N5  UNL     1     -32.914   7.555   4.811  1.00 20.00    -0.249 NA
HETATM    5  S7  UNL     1     -31.926   8.089   2.482  1.00 20.00    -0.092 SA
ENDROOT
BRANCH   3   6
HETATM    6  C4  UNL     1     -34.662   5.927   4.301  1.00 20.00     0.271 C 
HETATM    7  O6  UNL     1     -35.738   5.890   3.650  1.00 20.00    -0.272 OA
HETATM    8 CL8  UNL     1     -34.499   4.876   5.731  1.00 20.00    -0.037 Cl
ENDBRANCH   3   6
TORSDOF 1
ENDMDL
MODEL 4
REMARK VINA RESULT:      -3.7      2.983      3.446
REMARK  1 active torsions:
REMARK  status: ('A' for Active; 'I' for Inactive)
REMARK    1  A    between atoms: C3_3  and  C4_4 
ROOT
HETATM    1  C1  UNL     1     -33.410   7.171   2.605  1.00 20.00     0.087 A 
HETATM    2  C2  UNL     1     -31.536   8.488   3.352  1.00 20.00     0.166 A 
HETATM    3  C3  UNL     1     -33.207   7.208   3.969  1.00 20.00     0.125 A 
HETATM    4  N5  UNL     1     -32.133   7.963   4.399  1.00 20.00    -0.249 NA
HETATM    5  S7  UNL     1     -32.214   8.116   1.819  1.00 20.00    -0.092 SA
ENDROOT
BRANCH   3   6
HETATM    6  C4  UNL     1     -34.036   6.521   4.918  1.00 20.00     0.271 C 
HETATM    7  O6  UNL     1     -34.156   6.973   6.086  1.00 20.00    -0.272 OA
HETATM    8 CL8  UNL     1     -34.913   5.029   4.492  1.00 20.00    -0.037 Cl
ENDBRANCH   3   6
TORSDOF 1
ENDMDL
MODEL 5
REMARK VINA RESULT:      -3.6     11.876     12.317
REMARK  1 active torsions:
REMARK  status: ('A' for Active; 'I' for Inactive)
REMARK    1  A    between atoms: C3_3  and  C4_4 
ROOT
HETATM    1  C1  UNL     1     -36.771  15.984  -4.897  1.00 20.00     0.087 A 
HETATM    2  C2  UNL     1     -39.006  15.091  -5.000  1.00 20.00     0.166 A 
HETATM    3  C3  UNL     1     -36.868  14.608  -4.904  1.00 20.00     0.125 A 
HETATM    4  N5  UNL     1     -38.149  14.095  -4.962  1.00 20.00    -0.249 NA
HETATM    5  S7  UNL     1     -38.340  16.673  -4.967  1.00 20.00    -0.092 SA
ENDROOT
BRANCH   3   6
HETATM    6  C4  UNL     1     -35.736  13.728  -4.855  1.00 20.00     0.271 C 
HETATM    7  O6  UNL     1     -35.807  12.589  -5.385  1.00 20.00    -0.272 OA
HETATM    8 CL8  UNL     1     -34.213  14.200  -4.058  1.00 20.00    -0.037 Cl
ENDBRANCH   3   6
TORSDOF 1
ENDMDL
MODEL 6
REMARK VINA RESULT:      -3.5     11.643     11.786
REMARK  1 active torsions:
REMARK  status: ('A' for Active; 'I' for Inactive)
REMARK    1  A    between atoms: C3_3  and  C4_4 
ROOT
HETATM    1  C1  UNL     1     -35.236  15.697  -3.880  1.00 20.00     0.087 A 
HETATM    2  C2  UNL     1     -32.955  15.039  -4.289  1.00 20.00     0.166 A 
HETATM    3  C3  UNL     1     -35.067  14.523  -4.584  1.00 20.00     0.125 A 
HETATM    4  N5  UNL     1     -33.760  14.144  -4.819  1.00 20.00    -0.249 NA
HETATM    5  S7  UNL     1     -33.703  16.361  -3.491  1.00 20.00    -0.092 SA
ENDROOT
BRANCH   3   6
HETATM    6  C4  UNL     1     -36.152  13.714  -5.061  1.00 20.00     0.271 C 
HETATM    7  O6  UNL     1     -35.931  12.540  -5.455  1.00 20.00    -0.272 OA
HETATM    8 CL8  UNL     1     -37.826  14.326  -5.114  1.00 20.00    -0.037 Cl
ENDBRANCH   3   6
TORSDOF 1
ENDMDL
MODEL 7
REMARK VINA RESULT:      -3.4     11.964     12.289
REMARK  1 active torsions:
REMARK  status: ('A' for Active; 'I' for Inactive)
REMARK    1  A    between atoms: C3_3  and  C4_4 
ROOT
HETATM    1  C1  UNL     1     -34.291  15.784  -6.039  1.00 20.00     0.087 A 
HETATM    2  C2  UNL     1     -33.849  15.794  -3.671  1.00 20.00     0.166 A 
HETATM    3  C3  UNL     1     -34.722  14.674  -5.343  1.00 20.00     0.125 A 
HETATM    4  N5  UNL     1     -34.469  14.678  -3.986  1.00 20.00    -0.249 NA
HETATM    5  S7  UNL     1     -33.539  16.885  -4.960  1.00 20.00    -0.092 SA
ENDROOT
BRANCH   3   6
HETATM    6  C4  UNL     1     -35.394  13.562  -5.952  1.00 20.00     0.271 C 
HETATM    7  O6  UNL     1     -35.963  12.703  -5.229  1.00 20.00    -0.272 OA
HETATM    8 CL8  UNL     1     -35.453  13.353  -7.721  1.00 20.00    -0.037 Cl
ENDBRANCH   3   6
TORSDOF 1
ENDMDL
MODEL 8
REMARK VINA RESULT:      -3.4     12.205     12.292
REMARK  1 active torsions:
REMARK  status: ('A' for Active; 'I' for Inactive)
REMARK    1  A    between atoms: C3_3  and  C4_4 
ROOT
HETATM    1  C1  UNL     1     -33.472  18.668   0.430  1.00 20.00     0.087 A 
HETATM    2  C2  UNL     1     -31.156  18.646   1.091  1.00 20.00     0.166 A 
HETATM    3  C3  UNL     1     -32.562  18.437  -0.580  1.00 20.00     0.125 A 
HETATM    4  N5  UNL     1     -31.233  18.425  -0.203  1.00 20.00    -0.249 NA
HETATM    5  S7  UNL     1     -32.642  18.878   1.917  1.00 20.00    -0.092 SA
ENDROOT
BRANCH   3   6
HETATM    6  C4  UNL     1     -32.928  18.219  -1.950  1.00 20.00     0.271 C 
HETATM    7  O6  UNL     1     -32.674  19.099  -2.813  1.00 20.00    -0.272 OA
HETATM    8 CL8  UNL     1     -33.742  16.724  -2.478  1.00 20.00    -0.037 Cl
ENDBRANCH   3   6
TORSDOF 1
ENDMDL
MODEL 9
REMARK VINA RESULT:      -3.3     11.606     12.186
REMARK  1 active torsions:
REMARK  status: ('A' for Active; 'I' for Inactive)
REMARK    1  A    between atoms: C3_3  and  C4_4 
ROOT
HETATM    1  C1  UNL     1     -35.704  15.087  -5.928  1.00 20.00     0.087 A 
HETATM    2  C2  UNL     1     -35.276  13.267  -7.447  1.00 20.00     0.166 A 
HETATM    3  C3  UNL     1     -34.636  14.275  -5.607  1.00 20.00     0.125 A 
HETATM    4  N5  UNL     1     -34.390  13.231  -6.477  1.00 20.00    -0.249 NA
HETATM    5  S7  UNL     1     -36.436  14.531  -7.376  1.00 20.00    -0.092 SA
ENDROOT
BRANCH   3   6
HETATM    6  C4  UNL     1     -33.806  14.466  -4.451  1.00 20.00     0.271 C 
HETATM    7  O6  UNL     1     -32.843  13.686  -4.238  1.00 20.00    -0.272 OA
HETATM    8 CL8  UNL     1     -34.099  15.789  -3.294  1.00 20.00    -0.037 Cl
ENDBRANCH   3   6
TORSDOF 1
ENDMDL
