MODEL 1
REMARK VINA RESULT:      -5.1      0.000      0.000
REMARK  1 active torsions:
REMARK  status: ('A' for Active; 'I' for Inactive)
REMARK    1  A    between atoms: C10_10  and  O11_11 
ROOT
HETATM    1  C1  UNL     1     -32.212   8.272   4.964  1.00 20.00    -0.030 C 
HETATM    2  C2  UNL     1     -32.258   7.839   3.684  1.00 20.00    -0.025 C 
HETATM    3  C3  UNL     1     -33.392   7.740   5.782  1.00 20.00     0.032 C 
HETATM    4  C4  UNL     1     -35.544   6.007   3.437  1.00 20.00     0.013 C 
HETATM    5  C5  UNL     1     -33.638   4.636   2.940  1.00 20.00     0.037 C 
HETATM    6  C6  UNL     1     -33.566   7.163   3.503  1.00 20.00     0.017 C 
HETATM    7  C7  UNL     1     -33.668   6.541   4.906  1.00 20.00     0.003 C 
HETATM    8  C8  UNL     1     -34.197   6.051   2.660  1.00 20.00    -0.004 C 
HETATM    9  C9  UNL     1     -34.884   5.605   4.770  1.00 20.00     0.020 C 
HETATM   10  C10 UNL     1     -34.318   4.241   4.279  1.00 20.00     0.123 C 
ENDROOT
BRANCH  10  11
HETATM   11  O11 UNL     1     -33.405   3.642   5.178  1.00 20.00    -0.395 OA
HETATM   12  H25 UNL     1     -32.687   3.258   4.644  1.00 20.00     0.210 HD
ENDBRANCH  10  11
TORSDOF 1
ENDMDL
MODEL 2
REMARK VINA RESULT:      -5.0     12.116     12.711
REMARK  1 active torsions:
REMARK  status: ('A' for Active; 'I' for Inactive)
REMARK    1  A    between atoms: C10_10  and  O11_11 
ROOT
HETATM    1  C1  UNL     1     -34.329  17.233  -1.149  1.00 20.00    -0.030 C 
HETATM    2  C2  UNL     1     -33.286  17.316  -2.005  1.00 20.00    -0.025 C 
HETATM    3  C3  UNL     1     -35.611  16.797  -1.864  1.00 20.00     0.032 C 
HETATM    4  C4  UNL     1     -34.809  16.692  -5.396  1.00 20.00     0.013 C 
HETATM    5  C5  UNL     1     -33.102  15.114  -4.804  1.00 20.00     0.037 C 
HETATM    6  C6  UNL     1     -33.834  17.145  -3.372  1.00 20.00     0.017 C 
HETATM    7  C7  UNL     1     -34.925  16.118  -3.026  1.00 20.00     0.003 C 
HETATM    8  C8  UNL     1     -33.397  16.632  -4.748  1.00 20.00    -0.004 C 
HETATM    9  C9  UNL     1     -35.420  15.673  -4.415  1.00 20.00     0.020 C 
HETATM   10  C10 UNL     1     -34.517  14.474  -4.825  1.00 20.00     0.123 C 
ENDROOT
BRANCH  10  11
HETATM   11  O11 UNL     1     -34.607  13.364  -3.954  1.00 20.00    -0.395 OA
HETATM   12  H25 UNL     1     -34.631  12.565  -4.509  1.00 20.00     0.210 HD
ENDBRANCH  10  11
TORSDOF 1
ENDMDL
MODEL 3
REMARK VINA RESULT:      -4.8     12.343     12.970
REMARK  1 active torsions:
REMARK  status: ('A' for Active; 'I' for Inactive)
REMARK    1  A    between atoms: C10_10  and  O11_11 
ROOT
HETATM    1  C1  UNL     1     -34.460  16.492  -2.521  1.00 20.00    -0.030 C 
HETATM    2  C2  UNL     1     -33.611  16.363  -3.565  1.00 20.00    -0.025 C 
HETATM    3  C3  UNL     1     -35.914  16.267  -2.947  1.00 20.00     0.032 C 
HETATM    4  C4  UNL     1     -35.866  15.913  -6.553  1.00 20.00     0.013 C 
HETATM    5  C5  UNL     1     -34.362  14.077  -6.197  1.00 20.00     0.037 C 
HETATM    6  C6  UNL     1     -34.443  16.249  -4.788  1.00 20.00     0.017 C 
HETATM    7  C7  UNL     1     -35.598  15.443  -4.171  1.00 20.00     0.003 C 
HETATM    8  C8  UNL     1     -34.382  15.624  -6.185  1.00 20.00    -0.004 C 
HETATM    9  C9  UNL     1     -36.429  15.048  -5.408  1.00 20.00     0.020 C 
HETATM   10  C10 UNL     1     -35.839  13.697  -5.903  1.00 20.00     0.123 C 
ENDROOT
BRANCH  10  11
HETATM   11  O11 UNL     1     -35.937  12.648  -4.961  1.00 20.00    -0.395 OA
HETATM   12  H25 UNL     1     -36.866  12.604  -4.675  1.00 20.00     0.210 HD
ENDBRANCH  10  11
TORSDOF 1
ENDMDL
MODEL 4
REMARK VINA RESULT:      -4.7     12.316     13.172
REMARK  1 active torsions:
REMARK  status: ('A' for Active; 'I' for Inactive)
REMARK    1  A    between atoms: C10_10  and  O11_11 
ROOT
HETATM    1  C1  UNL     1     -34.890  17.613  -1.541  1.00 20.00    -0.030 C 
HETATM    2  C2  UNL     1     -35.863  16.985  -2.238  1.00 20.00    -0.025 C 
HETATM    3  C3  UNL     1     -33.499  17.106  -1.933  1.00 20.00     0.032 C 
HETATM    4  C4  UNL     1     -34.042  14.337  -4.207  1.00 20.00     0.013 C 
HETATM    5  C5  UNL     1     -35.242  15.899  -5.577  1.00 20.00     0.037 C 
HETATM    6  C6  UNL     1     -35.216  15.882  -2.987  1.00 20.00     0.017 C 
HETATM    7  C7  UNL     1     -33.892  16.599  -3.300  1.00 20.00     0.003 C 
HETATM    8  C8  UNL     1     -35.408  15.077  -4.276  1.00 20.00    -0.004 C 
HETATM    9  C9  UNL     1     -33.213  15.633  -4.291  1.00 20.00     0.020 C 
HETATM   10  C10 UNL     1     -33.702  16.061  -5.705  1.00 20.00     0.123 C 
ENDROOT
BRANCH  10  11
HETATM   11  O11 UNL     1     -33.339  17.379  -6.064  1.00 20.00    -0.395 OA
HETATM   12  H25 UNL     1     -33.661  17.529  -6.970  1.00 20.00     0.210 HD
ENDBRANCH  10  11
TORSDOF 1
ENDMDL
MODEL 5
REMARK VINA RESULT:      -4.4     12.416     13.594
REMARK  1 active torsions:
REMARK  status: ('A' for Active; 'I' for Inactive)
REMARK    1  A    between atoms: C10_10  and  O11_11 
ROOT
HETATM    1  C1  UNL     1     -37.129  14.187  -5.989  1.00 20.00    -0.030 C 
HETATM    2  C2  UNL     1     -36.076  13.520  -5.464  1.00 20.00    -0.025 C 
HETATM    3  C3  UNL     1     -37.137  15.655  -5.555  1.00 20.00     0.032 C 
HETATM    4  C4  UNL     1     -34.450  16.013  -3.151  1.00 20.00     0.013 C 
HETATM    5  C5  UNL     1     -32.997  15.225  -4.891  1.00 20.00     0.037 C 
HETATM    6  C6  UNL     1     -35.429  14.431  -4.489  1.00 20.00     0.017 C 
HETATM    7  C7  UNL     1     -35.660  15.744  -5.255  1.00 20.00     0.003 C 
HETATM    8  C8  UNL     1     -34.048  14.701  -3.884  1.00 20.00    -0.004 C 
HETATM    9  C9  UNL     1     -34.816  16.753  -4.452  1.00 20.00     0.020 C 
HETATM   10  C10 UNL     1     -33.394  16.714  -5.082  1.00 20.00     0.123 C 
ENDROOT
BRANCH  10  11
HETATM   11  O11 UNL     1     -33.358  17.100  -6.442  1.00 20.00    -0.395 OA
HETATM   12  H25 UNL     1     -33.944  16.495  -6.928  1.00 20.00     0.210 HD
ENDBRANCH  10  11
TORSDOF 1
ENDMDL
MODEL 6
REMARK VINA RESULT:      -4.4     12.693     13.435
REMARK  1 active torsions:
REMARK  status: ('A' for Active; 'I' for Inactive)
REMARK    1  A    between atoms: C10_10  and  O11_11 
ROOT
HETATM    1  C1  UNL     1     -34.028  18.068  -0.322  1.00 20.00    -0.030 C 
HETATM    2  C2  UNL     1     -35.172  17.445  -0.683  1.00 20.00    -0.025 C 
HETATM    3  C3  UNL     1     -32.917  17.846  -1.353  1.00 20.00     0.032 C 
HETATM    4  C4  UNL     1     -34.239  15.492  -3.770  1.00 20.00     0.013 C 
HETATM    5  C5  UNL     1     -35.992  17.090  -4.135  1.00 20.00     0.037 C 
HETATM    6  C6  UNL     1     -34.853  16.602  -1.861  1.00 20.00     0.017 C 
HETATM    7  C7  UNL     1     -33.833  17.548  -2.516  1.00 20.00     0.003 C 
HETATM    8  C8  UNL     1     -35.539  16.029  -3.105  1.00 20.00    -0.004 C 
HETATM    9  C9  UNL     1     -33.597  16.888  -3.889  1.00 20.00     0.020 C 
HETATM   10  C10 UNL     1     -34.668  17.493  -4.841  1.00 20.00     0.123 C 
ENDROOT
BRANCH  10  11
HETATM   11  O11 UNL     1     -34.564  18.893  -5.007  1.00 20.00    -0.395 OA
HETATM   12  H25 UNL     1     -35.337  19.180  -5.523  1.00 20.00     0.210 HD
ENDBRANCH  10  11
TORSDOF 1
ENDMDL
MODEL 7
REMARK VINA RESULT:      -4.3     12.111     13.362
REMARK  1 active torsions:
REMARK  status: ('A' for Active; 'I' for Inactive)
REMARK    1  A    between atoms: C10_10  and  O11_11 
ROOT
HETATM    1  C1  UNL     1     -33.970  14.617  -5.477  1.00 20.00    -0.030 C 
HETATM    2  C2  UNL     1     -33.619  15.917  -5.602  1.00 20.00    -0.025 C 
HETATM    3  C3  UNL     1     -34.327  14.267  -4.029  1.00 20.00     0.032 C 
HETATM    4  C4  UNL     1     -33.572  17.216  -2.064  1.00 20.00     0.013 C 
HETATM    5  C5  UNL     1     -35.112  18.374  -3.494  1.00 20.00     0.037 C 
HETATM    6  C6  UNL     1     -33.517  16.471  -4.231  1.00 20.00     0.017 C 
HETATM    7  C7  UNL     1     -34.673  15.674  -3.604  1.00 20.00     0.003 C 
HETATM    8  C8  UNL     1     -33.672  17.808  -3.499  1.00 20.00    -0.004 C 
HETATM    9  C9  UNL     1     -34.829  16.339  -2.222  1.00 20.00     0.020 C 
HETATM   10  C10 UNL     1     -35.834  17.509  -2.424  1.00 20.00     0.123 C 
ENDROOT
BRANCH  10  11
HETATM   11  O11 UNL     1     -37.115  17.098  -2.856  1.00 20.00    -0.395 OA
HETATM   12  H25 UNL     1     -37.767  17.651  -2.390  1.00 20.00     0.210 HD
ENDBRANCH  10  11
TORSDOF 1
ENDMDL
MODEL 8
REMARK VINA RESULT:      -4.3     12.271     13.462
REMARK  1 active torsions:
REMARK  status: ('A' for Active; 'I' for Inactive)
REMARK    1  A    between atoms: C10_10  and  O11_11 
ROOT
HETATM    1  C1  UNL     1     -35.225  14.138  -7.917  1.00 20.00    -0.030 C 
HETATM    2  C2  UNL     1     -34.340  15.139  -7.714  1.00 20.00    -0.025 C 
HETATM    3  C3  UNL     1     -35.390  13.271  -6.665  1.00 20.00     0.032 C 
HETATM    4  C4  UNL     1     -32.942  14.470  -4.278  1.00 20.00     0.013 C 
HETATM    5  C5  UNL     1     -34.020  16.604  -4.479  1.00 20.00     0.037 C 
HETATM    6  C6  UNL     1     -33.703  14.894  -6.398  1.00 20.00     0.017 C 
HETATM    7  C7  UNL     1     -34.936  14.321  -5.680  1.00 20.00     0.003 C 
HETATM    8  C8  UNL     1     -33.054  15.677  -5.253  1.00 20.00    -0.004 C 
HETATM    9  C9  UNL     1     -34.466  14.244  -4.215  1.00 20.00     0.020 C 
HETATM   10  C10 UNL     1     -34.820  15.620  -3.582  1.00 20.00     0.123 C 
ENDROOT
BRANCH  10  11
HETATM   11  O11 UNL     1     -36.203  15.913  -3.580  1.00 20.00    -0.395 OA
HETATM   12  H25 UNL     1     -36.662  15.130  -3.932  1.00 20.00     0.210 HD
ENDBRANCH  10  11
TORSDOF 1
ENDMDL
MODEL 9
REMARK VINA RESULT:      -4.3     12.050     13.338
REMARK  1 active torsions:
REMARK  status: ('A' for Active; 'I' for Inactive)
REMARK    1  A    between atoms: C10_10  and  O11_11 
ROOT
HETATM    1  C1  UNL     1     -33.396  14.575  -4.869  1.00 20.00    -0.030 C 
HETATM    2  C2  UNL     1     -34.314  14.447  -3.885  1.00 20.00    -0.025 C 
HETATM    3  C3  UNL     1     -33.185  16.043  -5.253  1.00 20.00     0.032 C 
HETATM    4  C4  UNL     1     -35.645  17.938  -3.386  1.00 20.00     0.013 C 
HETATM    5  C5  UNL     1     -34.646  16.999  -1.417  1.00 20.00     0.037 C 
HETATM    6  C6  UNL     1     -34.926  15.783  -3.687  1.00 20.00     0.017 C 
HETATM    7  C7  UNL     1     -33.664  16.623  -3.944  1.00 20.00     0.003 C 
HETATM    8  C8  UNL     1     -35.589  16.609  -2.580  1.00 20.00    -0.004 C 
HETATM    9  C9  UNL     1     -34.114  18.038  -3.532  1.00 20.00     0.020 C 
HETATM   10  C10 UNL     1     -33.801  18.158  -2.013  1.00 20.00     0.123 C 
ENDROOT
BRANCH  10  11
HETATM   11  O11 UNL     1     -32.429  18.027  -1.697  1.00 20.00    -0.395 OA
HETATM   12  H25 UNL     1     -32.211  17.081  -1.752  1.00 20.00     0.210 HD
ENDBRANCH  10  11
TORSDOF 1
ENDMDL
