MODEL 1
REMARK VINA RESULT:      -3.8      0.000      0.000
REMARK  0 active torsions:
REMARK  status: ('A' for Active; 'I' for Inactive)
ROOT
HETATM    1  C1  UNL     1     -33.931   6.660   5.178  1.00 20.00     0.101 C 
HETATM    2  C2  UNL     1     -34.332   4.276   4.663  1.00 20.00     0.067 C 
HETATM    3  C3  UNL     1     -34.293   5.701   4.129  1.00 20.00     0.197 C 
HETATM    4  N4  UNL     1     -33.645   7.417   6.009  1.00 20.00    -0.194 NA
HETATM    5 CL5  UNL     1     -35.897   6.152   3.494  1.00 20.00    -0.085 Cl
HETATM    6 CL6  UNL     1     -33.083   5.825   2.824  1.00 20.00    -0.085 Cl
ENDROOT
TORSDOF 0
ENDMDL
MODEL 2
REMARK VINA RESULT:      -3.8      1.358      1.966
REMARK  0 active torsions:
REMARK  status: ('A' for Active; 'I' for Inactive)
ROOT
HETATM    1  C1  UNL     1     -33.882   6.714   5.175  1.00 20.00     0.101 C 
HETATM    2  C2  UNL     1     -35.627   6.102   3.534  1.00 20.00     0.067 C 
HETATM    3  C3  UNL     1     -34.254   5.779   4.107  1.00 20.00     0.197 C 
HETATM    4  N4  UNL     1     -33.590   7.456   6.019  1.00 20.00    -0.194 NA
HETATM    5 CL5  UNL     1     -33.022   5.887   2.822  1.00 20.00    -0.085 Cl
HETATM    6 CL6  UNL     1     -34.255   4.132   4.790  1.00 20.00    -0.085 Cl
ENDROOT
TORSDOF 0
ENDMDL
MODEL 3
REMARK VINA RESULT:      -3.8      1.311      1.998
REMARK  0 active torsions:
REMARK  status: ('A' for Active; 'I' for Inactive)
ROOT
HETATM    1  C1  UNL     1     -33.942   6.659   5.145  1.00 20.00     0.101 C 
HETATM    2  C2  UNL     1     -33.284   5.903   2.886  1.00 20.00     0.067 C 
HETATM    3  C3  UNL     1     -34.266   5.753   4.039  1.00 20.00     0.197 C 
HETATM    4  N4  UNL     1     -33.683   7.378   6.019  1.00 20.00    -0.194 NA
HETATM    5 CL5  UNL     1     -34.218   4.081   4.660  1.00 20.00    -0.085 Cl
HETATM    6 CL6  UNL     1     -35.918   6.129   3.480  1.00 20.00    -0.085 Cl
ENDROOT
TORSDOF 0
ENDMDL
MODEL 4
REMARK VINA RESULT:      -3.7      1.965      2.360
REMARK  0 active torsions:
REMARK  status: ('A' for Active; 'I' for Inactive)
ROOT
HETATM    1  C1  UNL     1     -33.339   6.394   3.403  1.00 20.00     0.101 C 
HETATM    2  C2  UNL     1     -34.146   4.234   4.293  1.00 20.00     0.067 C 
HETATM    3  C3  UNL     1     -34.350   5.742   4.243  1.00 20.00     0.197 C 
HETATM    4  N4  UNL     1     -32.539   6.908   2.739  1.00 20.00    -0.194 NA
HETATM    5 CL5  UNL     1     -34.229   6.423   5.887  1.00 20.00    -0.085 Cl
HETATM    6 CL6  UNL     1     -35.957   6.113   3.564  1.00 20.00    -0.085 Cl
ENDROOT
TORSDOF 0
ENDMDL
MODEL 5
REMARK VINA RESULT:      -3.6      1.882      2.113
REMARK  0 active torsions:
REMARK  status: ('A' for Active; 'I' for Inactive)
ROOT
HETATM    1  C1  UNL     1     -33.345   6.392   3.450  1.00 20.00     0.101 C 
HETATM    2  C2  UNL     1     -34.324   6.265   5.716  1.00 20.00     0.067 C 
HETATM    3  C3  UNL     1     -34.373   5.757   4.281  1.00 20.00     0.197 C 
HETATM    4  N4  UNL     1     -32.531   6.896   2.794  1.00 20.00    -0.194 NA
HETATM    5 CL5  UNL     1     -35.966   6.120   3.566  1.00 20.00    -0.085 Cl
HETATM    6 CL6  UNL     1     -34.098   3.995   4.253  1.00 20.00    -0.085 Cl
ENDROOT
TORSDOF 0
ENDMDL
MODEL 6
REMARK VINA RESULT:      -3.6      2.293      2.633
REMARK  0 active torsions:
REMARK  status: ('A' for Active; 'I' for Inactive)
ROOT
HETATM    1  C1  UNL     1     -33.278   6.442   3.404  1.00 20.00     0.101 C 
HETATM    2  C2  UNL     1     -35.713   6.105   3.658  1.00 20.00     0.067 C 
HETATM    3  C3  UNL     1     -34.327   5.828   4.224  1.00 20.00     0.197 C 
HETATM    4  N4  UNL     1     -32.449   6.929   2.753  1.00 20.00    -0.194 NA
HETATM    5 CL5  UNL     1     -34.035   4.069   4.272  1.00 20.00    -0.085 Cl
HETATM    6 CL6  UNL     1     -34.203   6.494   5.873  1.00 20.00    -0.085 Cl
ENDROOT
TORSDOF 0
ENDMDL
MODEL 7
REMARK VINA RESULT:      -3.3      2.257      2.675
REMARK  0 active torsions:
REMARK  status: ('A' for Active; 'I' for Inactive)
ROOT
HETATM    1  C1  UNL     1     -34.146   4.602   4.236  1.00 20.00     0.101 C 
HETATM    2  C2  UNL     1     -33.216   6.587   3.093  1.00 20.00     0.067 C 
HETATM    3  C3  UNL     1     -34.265   6.054   4.060  1.00 20.00     0.197 C 
HETATM    4  N4  UNL     1     -34.050   3.454   4.374  1.00 20.00    -0.194 NA
HETATM    5 CL5  UNL     1     -35.897   6.404   3.434  1.00 20.00    -0.085 Cl
HETATM    6 CL6  UNL     1     -34.064   6.824   5.656  1.00 20.00    -0.085 Cl
ENDROOT
TORSDOF 0
ENDMDL
MODEL 8
REMARK VINA RESULT:      -3.1     12.467     12.864
REMARK  0 active torsions:
REMARK  status: ('A' for Active; 'I' for Inactive)
ROOT
HETATM    1  C1  UNL     1     -35.254  13.809  -4.948  1.00 20.00     0.101 C 
HETATM    2  C2  UNL     1     -34.869  15.690  -3.390  1.00 20.00     0.067 C 
HETATM    3  C3  UNL     1     -34.363  14.923  -4.604  1.00 20.00     0.197 C 
HETATM    4  N4  UNL     1     -35.960  12.929  -5.217  1.00 20.00    -0.194 NA
HETATM    5 CL5  UNL     1     -32.745  14.253  -4.264  1.00 20.00    -0.085 Cl
HETATM    6 CL6  UNL     1     -34.269  16.012  -6.013  1.00 20.00    -0.085 Cl
ENDROOT
TORSDOF 0
ENDMDL
MODEL 9
REMARK VINA RESULT:      -3.1     12.470     12.788
REMARK  0 active torsions:
REMARK  status: ('A' for Active; 'I' for Inactive)
ROOT
HETATM    1  C1  UNL     1     -35.214  13.807  -4.954  1.00 20.00     0.101 C 
HETATM    2  C2  UNL     1     -34.177  15.887  -5.795  1.00 20.00     0.067 C 
HETATM    3  C3  UNL     1     -34.297  14.907  -4.636  1.00 20.00     0.197 C 
HETATM    4  N4  UNL     1     -35.941  12.938  -5.207  1.00 20.00    -0.194 NA
HETATM    5 CL5  UNL     1     -34.922  15.751  -3.195  1.00 20.00    -0.085 Cl
HETATM    6 CL6  UNL     1     -32.699  14.207  -4.267  1.00 20.00    -0.085 Cl
ENDROOT
TORSDOF 0
ENDMDL
