MODEL 1
REMARK VINA RESULT:      -4.5      0.000      0.000
REMARK  0 active torsions:
REMARK  status: ('A' for Active; 'I' for Inactive)
ROOT
HETATM    1  C1  UNL     1     -31.742   8.657   4.501  1.00 20.00     0.015 A 
HETATM    2  C2  UNL     1     -31.407   8.842   3.154  1.00 20.00     0.025 A 
HETATM    3  C3  UNL     1     -33.387   7.362   6.057  1.00 20.00     0.031 A 
HETATM    4  C4  UNL     1     -33.146   7.297   2.454  1.00 20.00     0.054 A 
HETATM    5  C5  UNL     1     -34.394   6.475   5.752  1.00 20.00     0.091 A 
HETATM    6  C6  UNL     1     -32.793   7.779   4.833  1.00 20.00    -0.008 A 
HETATM    7  C7  UNL     1     -33.470   7.121   3.804  1.00 20.00     0.045 A 
HETATM    8  C8  UNL     1     -32.100   8.172   2.148  1.00 20.00     0.036 A 
HETATM    9  C9  UNL     1     -35.368   5.481   3.688  1.00 20.00     0.155 C 
HETATM   10  N10 UNL     1     -34.436   6.335   4.392  1.00 20.00    -0.360 N 
HETATM   11 CL11 UNL     1     -31.661   8.423   0.500  1.00 20.00    -0.084 Cl
ENDROOT
TORSDOF 0
ENDMDL
MODEL 2
REMARK VINA RESULT:      -4.5     11.399     11.814
REMARK  0 active torsions:
REMARK  status: ('A' for Active; 'I' for Inactive)
ROOT
HETATM    1  C1  UNL     1     -32.142  18.597  -0.128  1.00 20.00     0.015 A 
HETATM    2  C2  UNL     1     -33.446  18.256  -0.506  1.00 20.00     0.025 A 
HETATM    3  C3  UNL     1     -30.684  19.178   1.957  1.00 20.00     0.031 A 
HETATM    4  C4  UNL     1     -34.201  18.366   1.801  1.00 20.00     0.054 A 
HETATM    5  C5  UNL     1     -31.023  19.263   3.287  1.00 20.00     0.091 A 
HETATM    6  C6  UNL     1     -31.859  18.825   1.234  1.00 20.00    -0.008 A 
HETATM    7  C7  UNL     1     -32.892  18.705   2.164  1.00 20.00     0.045 A 
HETATM    8  C8  UNL     1     -34.458  18.144   0.445  1.00 20.00     0.036 A 
HETATM    9  C9  UNL     1     -33.081  18.963   4.655  1.00 20.00     0.155 C 
HETATM   10  N10 UNL     1     -32.356  18.976   3.403  1.00 20.00    -0.360 N 
HETATM   11 CL11 UNL     1     -36.052  17.722  -0.055  1.00 20.00    -0.084 Cl
ENDROOT
TORSDOF 0
ENDMDL
MODEL 3
REMARK VINA RESULT:      -4.5      1.268      2.577
REMARK  0 active torsions:
REMARK  status: ('A' for Active; 'I' for Inactive)
ROOT
HETATM    1  C1  UNL     1     -33.604   5.189   2.447  1.00 20.00     0.015 A 
HETATM    2  C2  UNL     1     -32.962   6.223   1.755  1.00 20.00     0.025 A 
HETATM    3  C3  UNL     1     -34.607   4.579   4.777  1.00 20.00     0.031 A 
HETATM    4  C4  UNL     1     -33.022   7.648   3.722  1.00 20.00     0.054 A 
HETATM    5  C5  UNL     1     -34.684   5.315   5.936  1.00 20.00     0.091 A 
HETATM    6  C6  UNL     1     -33.962   5.384   3.796  1.00 20.00    -0.008 A 
HETATM    7  C7  UNL     1     -33.664   6.607   4.401  1.00 20.00     0.045 A 
HETATM    8  C8  UNL     1     -32.676   7.433   2.385  1.00 20.00     0.036 A 
HETATM    9  C9  UNL     1     -34.007   7.591   6.685  1.00 20.00     0.155 C 
HETATM   10  N10 UNL     1     -34.114   6.536   5.700  1.00 20.00    -0.360 N 
HETATM   11 CL11 UNL     1     -31.885   8.685   1.503  1.00 20.00    -0.084 Cl
ENDROOT
TORSDOF 0
ENDMDL
MODEL 4
REMARK VINA RESULT:      -4.5     11.417     11.929
REMARK  0 active torsions:
REMARK  status: ('A' for Active; 'I' for Inactive)
ROOT
HETATM    1  C1  UNL     1     -35.629  17.050  -1.142  1.00 20.00     0.015 A 
HETATM    2  C2  UNL     1     -34.561  17.668  -0.480  1.00 20.00     0.025 A 
HETATM    3  C3  UNL     1     -36.278  15.916  -3.400  1.00 20.00     0.031 A 
HETATM    4  C4  UNL     1     -33.117  17.355  -2.409  1.00 20.00     0.054 A 
HETATM    5  C5  UNL     1     -35.533  15.698  -4.536  1.00 20.00     0.091 A 
HETATM    6  C6  UNL     1     -35.442  16.575  -2.455  1.00 20.00    -0.008 A 
HETATM    7  C7  UNL     1     -34.192  16.739  -3.057  1.00 20.00     0.045 A 
HETATM    8  C8  UNL     1     -33.325  17.818  -1.107  1.00 20.00     0.036 A 
HETATM    9  C9  UNL     1     -33.205  16.151  -5.290  1.00 20.00     0.155 C 
HETATM   10  N10 UNL     1     -34.277  16.196  -4.320  1.00 20.00    -0.360 N 
HETATM   11 CL11 UNL     1     -32.032  18.584  -0.263  1.00 20.00    -0.084 Cl
ENDROOT
TORSDOF 0
ENDMDL
MODEL 5
REMARK VINA RESULT:      -4.4     11.225     11.481
REMARK  0 active torsions:
REMARK  status: ('A' for Active; 'I' for Inactive)
ROOT
HETATM    1  C1  UNL     1     -32.837  17.821  -1.540  1.00 20.00     0.015 A 
HETATM    2  C2  UNL     1     -33.526  17.049  -2.482  1.00 20.00     0.025 A 
HETATM    3  C3  UNL     1     -33.116  18.974   0.784  1.00 20.00     0.031 A 
HETATM    4  C4  UNL     1     -35.523  17.047  -1.099  1.00 20.00     0.054 A 
HETATM    5  C5  UNL     1     -34.199  19.026   1.630  1.00 20.00     0.091 A 
HETATM    6  C6  UNL     1     -33.496  18.213  -0.358  1.00 20.00    -0.008 A 
HETATM    7  C7  UNL     1     -34.821  17.818  -0.165  1.00 20.00     0.045 A 
HETATM    8  C8  UNL     1     -34.849  16.670  -2.263  1.00 20.00     0.036 A 
HETATM    9  C9  UNL     1     -36.531  18.153   1.644  1.00 20.00     0.155 C 
HETATM   10  N10 UNL     1     -35.222  18.326   1.051  1.00 20.00    -0.360 N 
HETATM   11 CL11 UNL     1     -35.669  15.720  -3.444  1.00 20.00    -0.084 Cl
ENDROOT
TORSDOF 0
ENDMDL
MODEL 6
REMARK VINA RESULT:      -4.3     11.355     12.620
REMARK  0 active torsions:
REMARK  status: ('A' for Active; 'I' for Inactive)
ROOT
HETATM    1  C1  UNL     1     -34.485  14.654  -3.963  1.00 20.00     0.015 A 
HETATM    2  C2  UNL     1     -34.362  14.288  -5.308  1.00 20.00     0.025 A 
HETATM    3  C3  UNL     1     -34.152  16.664  -2.333  1.00 20.00     0.031 A 
HETATM    4  C4  UNL     1     -33.575  16.511  -5.895  1.00 20.00     0.054 A 
HETATM    5  C5  UNL     1     -33.716  17.946  -2.573  1.00 20.00     0.091 A 
HETATM    6  C6  UNL     1     -34.149  15.966  -3.574  1.00 20.00    -0.008 A 
HETATM    7  C7  UNL     1     -33.703  16.862  -4.547  1.00 20.00     0.045 A 
HETATM    8  C8  UNL     1     -33.913  15.204  -6.258  1.00 20.00     0.036 A 
HETATM    9  C9  UNL     1     -32.966  19.263  -4.548  1.00 20.00     0.155 C 
HETATM   10  N10 UNL     1     -33.448  18.057  -3.911  1.00 20.00    -0.360 N 
HETATM   11 CL11 UNL     1     -33.774  14.721  -7.907  1.00 20.00    -0.084 Cl
ENDROOT
TORSDOF 0
ENDMDL
MODEL 7
REMARK VINA RESULT:      -4.3     11.262     11.605
REMARK  0 active torsions:
REMARK  status: ('A' for Active; 'I' for Inactive)
ROOT
HETATM    1  C1  UNL     1     -35.889  16.272  -2.419  1.00 20.00     0.015 A 
HETATM    2  C2  UNL     1     -35.166  15.916  -3.564  1.00 20.00     0.025 A 
HETATM    3  C3  UNL     1     -35.661  17.529  -0.145  1.00 20.00     0.031 A 
HETATM    4  C4  UNL     1     -33.174  17.015  -2.713  1.00 20.00     0.054 A 
HETATM    5  C5  UNL     1     -34.583  18.175   0.415  1.00 20.00     0.091 A 
HETATM    6  C6  UNL     1     -35.248  17.011  -1.404  1.00 20.00    -0.008 A 
HETATM    7  C7  UNL     1     -33.908  17.364  -1.574  1.00 20.00     0.045 A 
HETATM    8  C8  UNL     1     -33.829  16.282  -3.706  1.00 20.00     0.036 A 
HETATM    9  C9  UNL     1     -32.217  18.629  -0.215  1.00 20.00     0.155 C 
HETATM   10  N10 UNL     1     -33.531  18.071  -0.454  1.00 20.00    -0.360 N 
HETATM   11 CL11 UNL     1     -32.969  15.828  -5.129  1.00 20.00    -0.084 Cl
ENDROOT
TORSDOF 0
ENDMDL
MODEL 8
REMARK VINA RESULT:      -4.3     11.286     11.655
REMARK  0 active torsions:
REMARK  status: ('A' for Active; 'I' for Inactive)
ROOT
HETATM    1  C1  UNL     1     -35.763  17.408  -0.252  1.00 20.00     0.015 A 
HETATM    2  C2  UNL     1     -35.338  16.951  -1.505  1.00 20.00     0.025 A 
HETATM    3  C3  UNL     1     -34.920  18.636   1.890  1.00 20.00     0.031 A 
HETATM    4  C4  UNL     1     -33.089  17.778  -1.103  1.00 20.00     0.054 A 
HETATM    5  C5  UNL     1     -33.677  19.134   2.203  1.00 20.00     0.091 A 
HETATM    6  C6  UNL     1     -34.841  18.060   0.591  1.00 20.00    -0.008 A 
HETATM    7  C7  UNL     1     -33.528  18.229   0.147  1.00 20.00     0.045 A 
HETATM    8  C8  UNL     1     -34.021  17.134  -1.922  1.00 20.00     0.036 A 
HETATM    9  C9  UNL     1     -31.448  19.263   1.102  1.00 20.00     0.155 C 
HETATM   10  N10 UNL     1     -32.844  18.885   1.146  1.00 20.00    -0.360 N 
HETATM   11 CL11 UNL     1     -33.531  16.560  -3.471  1.00 20.00    -0.084 Cl
ENDROOT
TORSDOF 0
ENDMDL
MODEL 9
REMARK VINA RESULT:      -4.2     11.392     11.848
REMARK  0 active torsions:
REMARK  status: ('A' for Active; 'I' for Inactive)
ROOT
HETATM    1  C1  UNL     1     -31.129  19.057   1.361  1.00 20.00     0.015 A 
HETATM    2  C2  UNL     1     -31.249  19.179   2.750  1.00 20.00     0.025 A 
HETATM    3  C3  UNL     1     -32.492  18.467  -0.784  1.00 20.00     0.031 A 
HETATM    4  C4  UNL     1     -33.596  18.557   2.654  1.00 20.00     0.054 A 
HETATM    5  C5  UNL     1     -33.811  18.107  -0.933  1.00 20.00     0.091 A 
HETATM    6  C6  UNL     1     -32.256  18.681   0.603  1.00 20.00    -0.008 A 
HETATM    7  C7  UNL     1     -33.461  18.440   1.266  1.00 20.00     0.045 A 
HETATM    8  C8  UNL     1     -32.465  18.932   3.384  1.00 20.00     0.036 A 
HETATM    9  C9  UNL     1     -35.773  17.761   0.560  1.00 20.00     0.155 C 
HETATM   10  N10 UNL     1     -34.388  18.094   0.308  1.00 20.00    -0.360 N 
HETATM   11 CL11 UNL     1     -32.579  19.091   5.097  1.00 20.00    -0.084 Cl
ENDROOT
TORSDOF 0
ENDMDL
