MODEL 1
REMARK VINA RESULT:      -5.0      0.000      0.000
REMARK  3 active torsions:
REMARK  status: ('A' for Active; 'I' for Inactive)
REMARK    1  A    between atoms: C1_1  and  C3_3 
REMARK    2  A    between atoms: C3_3  and  O9_9 
REMARK    3  A    between atoms: C7_7  and  O9_9 
ROOT
HETATM    1  C3  UNL     1     -32.111   8.048   2.589  1.00 20.00     0.282 C 
HETATM    2  O8  UNL     1     -31.487   8.339   3.598  1.00 20.00    -0.260 OA
ENDROOT
BRANCH   1   3
HETATM    3  C1  UNL     1     -31.693   8.357   1.205  1.00 20.00     0.077 C 
HETATM    4  C2  UNL     1     -32.053   9.518   0.640  1.00 20.00    -0.025 C 
HETATM    5  C4  UNL     1     -32.873  10.551   1.340  1.00 20.00     0.036 C 
ENDBRANCH   1   3
BRANCH   1   6
HETATM    6  O9  UNL     1     -33.299   7.390   2.523  1.00 20.00    -0.314 OA
BRANCH   6   7
HETATM    7  C7  UNL     1     -33.415   6.244   3.373  1.00 20.00     0.124 C 
HETATM    8  C5  UNL     1     -34.848   6.130   3.869  1.00 20.00     0.040 C 
HETATM    9  C6  UNL     1     -32.982   5.004   2.604  1.00 20.00     0.040 C 
ENDBRANCH   6   7
ENDBRANCH   1   6
TORSDOF 3
ENDMDL
MODEL 2
REMARK VINA RESULT:      -4.9      1.296      4.170
REMARK  3 active torsions:
REMARK  status: ('A' for Active; 'I' for Inactive)
REMARK    1  A    between atoms: C1_1  and  C3_3 
REMARK    2  A    between atoms: C3_3  and  O9_9 
REMARK    3  A    between atoms: C7_7  and  O9_9 
ROOT
HETATM    1  C3  UNL     1     -33.552   5.988   3.019  1.00 20.00     0.282 C 
HETATM    2  O8  UNL     1     -32.720   5.151   2.705  1.00 20.00    -0.260 OA
ENDROOT
BRANCH   1   3
HETATM    3  C1  UNL     1     -34.791   5.720   3.779  1.00 20.00     0.077 C 
HETATM    4  C2  UNL     1     -34.870   6.062   5.072  1.00 20.00    -0.025 C 
HETATM    5  C4  UNL     1     -33.755   6.717   5.818  1.00 20.00     0.036 C 
ENDBRANCH   1   3
BRANCH   1   6
HETATM    6  O9  UNL     1     -33.518   7.319   2.743  1.00 20.00    -0.314 OA
BRANCH   6   7
HETATM    7  C7  UNL     1     -32.248   7.828   2.323  1.00 20.00     0.124 C 
HETATM    8  C5  UNL     1     -32.464   8.942   1.310  1.00 20.00     0.040 C 
HETATM    9  C6  UNL     1     -31.474   8.311   3.540  1.00 20.00     0.040 C 
ENDBRANCH   6   7
ENDBRANCH   1   6
TORSDOF 3
ENDMDL
MODEL 3
REMARK VINA RESULT:      -4.9      1.028      4.041
REMARK  3 active torsions:
REMARK  status: ('A' for Active; 'I' for Inactive)
REMARK    1  A    between atoms: C1_1  and  C3_3 
REMARK    2  A    between atoms: C3_3  and  O9_9 
REMARK    3  A    between atoms: C7_7  and  O9_9 
ROOT
HETATM    1  C3  UNL     1     -32.466   7.766   2.748  1.00 20.00     0.282 C 
HETATM    2  O8  UNL     1     -31.400   8.046   3.275  1.00 20.00    -0.260 OA
ENDROOT
BRANCH   1   3
HETATM    3  C1  UNL     1     -33.198   6.493   2.920  1.00 20.00     0.077 C 
HETATM    4  C2  UNL     1     -33.835   6.236   4.070  1.00 20.00    -0.025 C 
HETATM    5  C4  UNL     1     -33.856   7.182   5.225  1.00 20.00     0.036 C 
ENDBRANCH   1   3
BRANCH   1   6
HETATM    6  O9  UNL     1     -33.194   8.550   1.909  1.00 20.00    -0.314 OA
BRANCH   6   7
HETATM    7  C7  UNL     1     -32.432   9.387   1.033  1.00 20.00     0.124 C 
HETATM    8  C5  UNL     1     -32.920   9.195  -0.395  1.00 20.00     0.040 C 
HETATM    9  C6  UNL     1     -32.559  10.834   1.486  1.00 20.00     0.040 C 
ENDBRANCH   6   7
ENDBRANCH   1   6
TORSDOF 3
ENDMDL
MODEL 4
REMARK VINA RESULT:      -4.7      1.862      2.678
REMARK  3 active torsions:
REMARK  status: ('A' for Active; 'I' for Inactive)
REMARK    1  A    between atoms: C1_1  and  C3_3 
REMARK    2  A    between atoms: C3_3  and  O9_9 
REMARK    3  A    between atoms: C7_7  and  O9_9 
ROOT
HETATM    1  C3  UNL     1     -33.361   6.221   2.839  1.00 20.00     0.282 C 
HETATM    2  O8  UNL     1     -32.797   5.154   2.653  1.00 20.00    -0.260 OA
ENDROOT
BRANCH   1   3
HETATM    3  C1  UNL     1     -33.194   7.434   2.009  1.00 20.00     0.077 C 
HETATM    4  C2  UNL     1     -32.261   8.340   2.328  1.00 20.00    -0.025 C 
HETATM    5  C4  UNL     1     -31.349   8.201   3.502  1.00 20.00     0.036 C 
ENDBRANCH   1   3
BRANCH   1   6
HETATM    6  O9  UNL     1     -34.246   6.518   3.827  1.00 20.00    -0.314 OA
BRANCH   6   7
HETATM    7  C7  UNL     1     -33.849   6.124   5.145  1.00 20.00     0.124 C 
HETATM    8  C5  UNL     1     -33.885   7.336   6.063  1.00 20.00     0.040 C 
HETATM    9  C6  UNL     1     -34.769   5.015   5.635  1.00 20.00     0.040 C 
ENDBRANCH   6   7
ENDBRANCH   1   6
TORSDOF 3
ENDMDL
MODEL 5
REMARK VINA RESULT:      -4.6      0.980      1.352
REMARK  3 active torsions:
REMARK  status: ('A' for Active; 'I' for Inactive)
REMARK    1  A    between atoms: C1_1  and  C3_3 
REMARK    2  A    between atoms: C3_3  and  O9_9 
REMARK    3  A    between atoms: C7_7  and  O9_9 
ROOT
HETATM    1  C3  UNL     1     -31.880   8.050   2.929  1.00 20.00     0.282 C 
HETATM    2  O8  UNL     1     -31.403   8.835   3.733  1.00 20.00    -0.260 OA
ENDROOT
BRANCH   1   3
HETATM    3  C1  UNL     1     -31.767   8.155   1.458  1.00 20.00     0.077 C 
HETATM    4  C2  UNL     1     -32.259   9.228   0.823  1.00 20.00    -0.025 C 
HETATM    5  C4  UNL     1     -32.934  10.359   1.526  1.00 20.00     0.036 C 
ENDBRANCH   1   3
BRANCH   1   6
HETATM    6  O9  UNL     1     -32.604   6.933   3.207  1.00 20.00    -0.314 OA
BRANCH   6   7
HETATM    7  C7  UNL     1     -33.849   7.158   3.877  1.00 20.00     0.124 C 
HETATM    8  C5  UNL     1     -34.816   6.038   3.528  1.00 20.00     0.040 C 
HETATM    9  C6  UNL     1     -33.601   7.246   5.376  1.00 20.00     0.040 C 
ENDBRANCH   6   7
ENDBRANCH   1   6
TORSDOF 3
ENDMDL
MODEL 6
REMARK VINA RESULT:      -4.5      1.551      2.343
REMARK  3 active torsions:
REMARK  status: ('A' for Active; 'I' for Inactive)
REMARK    1  A    between atoms: C1_1  and  C3_3 
REMARK    2  A    between atoms: C3_3  and  O9_9 
REMARK    3  A    between atoms: C7_7  and  O9_9 
ROOT
HETATM    1  C3  UNL     1     -33.291   6.806   2.814  1.00 20.00     0.282 C 
HETATM    2  O8  UNL     1     -33.567   6.029   1.913  1.00 20.00    -0.260 OA
ENDROOT
BRANCH   1   3
HETATM    3  C1  UNL     1     -32.017   7.545   2.948  1.00 20.00     0.077 C 
HETATM    4  C2  UNL     1     -31.764   8.593   2.152  1.00 20.00    -0.025 C 
HETATM    5  C4  UNL     1     -32.715   9.079   1.109  1.00 20.00     0.036 C 
ENDBRANCH   1   3
BRANCH   1   6
HETATM    6  O9  UNL     1     -34.079   7.153   3.867  1.00 20.00    -0.314 OA
BRANCH   6   7
HETATM    7  C7  UNL     1     -33.783   6.489   5.101  1.00 20.00     0.124 C 
HETATM    8  C5  UNL     1     -33.854   7.495   6.240  1.00 20.00     0.040 C 
HETATM    9  C6  UNL     1     -34.760   5.340   5.298  1.00 20.00     0.040 C 
ENDBRANCH   6   7
ENDBRANCH   1   6
TORSDOF 3
ENDMDL
MODEL 7
REMARK VINA RESULT:      -4.4      1.450      4.470
REMARK  3 active torsions:
REMARK  status: ('A' for Active; 'I' for Inactive)
REMARK    1  A    between atoms: C1_1  and  C3_3 
REMARK    2  A    between atoms: C3_3  and  O9_9 
REMARK    3  A    between atoms: C7_7  and  O9_9 
ROOT
HETATM    1  C3  UNL     1     -33.832   6.455   3.323  1.00 20.00     0.282 C 
HETATM    2  O8  UNL     1     -34.714   5.889   2.696  1.00 20.00    -0.260 OA
ENDROOT
BRANCH   1   3
HETATM    3  C1  UNL     1     -33.954   6.958   4.708  1.00 20.00     0.077 C 
HETATM    4  C2  UNL     1     -34.287   6.120   5.698  1.00 20.00    -0.025 C 
HETATM    5  C4  UNL     1     -34.550   4.665   5.488  1.00 20.00     0.036 C 
ENDBRANCH   1   3
BRANCH   1   6
HETATM    6  O9  UNL     1     -32.574   6.739   2.891  1.00 20.00    -0.314 OA
BRANCH   6   7
HETATM    7  C7  UNL     1     -32.260   8.132   2.786  1.00 20.00     0.124 C 
HETATM    8  C5  UNL     1     -31.101   8.456   3.716  1.00 20.00     0.040 C 
HETATM    9  C6  UNL     1     -31.934   8.463   1.337  1.00 20.00     0.040 C 
ENDBRANCH   6   7
ENDBRANCH   1   6
TORSDOF 3
ENDMDL
MODEL 8
REMARK VINA RESULT:      -4.3      1.454      4.321
REMARK  3 active torsions:
REMARK  status: ('A' for Active; 'I' for Inactive)
REMARK    1  A    between atoms: C1_1  and  C3_3 
REMARK    2  A    between atoms: C3_3  and  O9_9 
REMARK    3  A    between atoms: C7_7  and  O9_9 
ROOT
HETATM    1  C3  UNL     1     -33.679   7.028   4.019  1.00 20.00     0.282 C 
HETATM    2  O8  UNL     1     -33.588   7.269   5.213  1.00 20.00    -0.260 OA
ENDROOT
BRANCH   1   3
HETATM    3  C1  UNL     1     -33.897   5.690   3.429  1.00 20.00     0.077 C 
HETATM    4  C2  UNL     1     -34.361   4.690   4.191  1.00 20.00    -0.025 C 
HETATM    5  C4  UNL     1     -34.683   4.844   5.640  1.00 20.00     0.036 C 
ENDBRANCH   1   3
BRANCH   1   6
HETATM    6  O9  UNL     1     -33.601   7.921   2.996  1.00 20.00    -0.314 OA
BRANCH   6   7
HETATM    7  C7  UNL     1     -32.337   7.979   2.326  1.00 20.00     0.124 C 
HETATM    8  C5  UNL     1     -32.423   8.975   1.180  1.00 20.00     0.040 C 
HETATM    9  C6  UNL     1     -31.256   8.360   3.327  1.00 20.00     0.040 C 
ENDBRANCH   6   7
ENDBRANCH   1   6
TORSDOF 3
ENDMDL
MODEL 9
REMARK VINA RESULT:      -4.2      0.604      1.310
REMARK  3 active torsions:
REMARK  status: ('A' for Active; 'I' for Inactive)
REMARK    1  A    between atoms: C1_1  and  C3_3 
REMARK    2  A    between atoms: C3_3  and  O9_9 
REMARK    3  A    between atoms: C7_7  and  O9_9 
ROOT
HETATM    1  C3  UNL     1     -32.205   7.952   2.809  1.00 20.00     0.282 C 
HETATM    2  O8  UNL     1     -31.135   8.228   3.330  1.00 20.00    -0.260 OA
ENDROOT
BRANCH   1   3
HETATM    3  C1  UNL     1     -32.504   8.047   1.364  1.00 20.00     0.077 C 
HETATM    4  C2  UNL     1     -32.713   9.244   0.801  1.00 20.00    -0.025 C 
HETATM    5  C4  UNL     1     -32.662  10.529   1.561  1.00 20.00     0.036 C 
ENDBRANCH   1   3
BRANCH   1   6
HETATM    6  O9  UNL     1     -33.328   7.506   3.433  1.00 20.00    -0.314 OA
BRANCH   6   7
HETATM    7  C7  UNL     1     -33.896   6.307   2.894  1.00 20.00     0.124 C 
HETATM    8  C5  UNL     1     -32.842   5.210   2.895  1.00 20.00     0.040 C 
HETATM    9  C6  UNL     1     -35.118   5.920   3.713  1.00 20.00     0.040 C 
ENDBRANCH   6   7
ENDBRANCH   1   6
TORSDOF 3
ENDMDL
