MODEL 1
REMARK VINA RESULT:      -4.8      0.000      0.000
REMARK  3 active torsions:
REMARK  status: ('A' for Active; 'I' for Inactive)
REMARK    1  A    between atoms: C3_3  and  C7_7 
REMARK    2  A    between atoms: C4_4  and  C5_5 
REMARK    3  A    between atoms: C7_7  and  O9_9 
ROOT
HETATM    1  C1  UNL     1     -33.365   6.452   3.010  1.00 20.00     0.031 A 
HETATM    2  C2  UNL     1     -32.632   8.093   4.483  1.00 20.00     0.060 A 
HETATM    3  C3  UNL     1     -32.585   7.630   3.187  1.00 20.00    -0.027 A 
HETATM    4  C4  UNL     1     -33.979   6.058   4.179  1.00 20.00     0.043 A 
HETATM    5  S10 UNL     1     -33.614   7.107   5.481  1.00 20.00    -0.098 SA
ENDROOT
BRANCH   3   6
HETATM    6  C7  UNL     1     -31.814   8.282   2.101  1.00 20.00     0.206 C 
BRANCH   6   7
HETATM    7  O9  UNL     1     -32.707   8.781   1.109  1.00 20.00    -0.391 OA
HETATM    8  C6  UNL     1     -32.629  10.196   1.006  1.00 20.00     0.201 C 
ENDBRANCH   6   7
ENDBRANCH   3   6
BRANCH   4   9
HETATM    9  C5  UNL     1     -34.834   4.938   4.407  1.00 20.00     0.277 C 
HETATM   10  O8  UNL     1     -34.462   3.747   4.343  1.00 20.00    -0.301 OA
ENDBRANCH   4   9
TORSDOF 3
ENDMDL
MODEL 2
REMARK VINA RESULT:      -4.3      1.358      1.672
REMARK  3 active torsions:
REMARK  status: ('A' for Active; 'I' for Inactive)
REMARK    1  A    between atoms: C3_3  and  C7_7 
REMARK    2  A    between atoms: C4_4  and  C5_5 
REMARK    3  A    between atoms: C7_7  and  O9_9 
ROOT
HETATM    1  C1  UNL     1     -32.986   7.631   4.363  1.00 20.00     0.031 A 
HETATM    2  C2  UNL     1     -33.017   6.636   2.263  1.00 20.00     0.060 A 
HETATM    3  C3  UNL     1     -32.536   7.687   3.013  1.00 20.00    -0.027 A 
HETATM    4  C4  UNL     1     -33.795   6.540   4.594  1.00 20.00     0.043 A 
HETATM    5  S10 UNL     1     -34.008   5.589   3.187  1.00 20.00    -0.098 SA
ENDROOT
BRANCH   3   6
HETATM    6  C7  UNL     1     -31.653   8.750   2.479  1.00 20.00     0.206 C 
BRANCH   6   7
HETATM    7  O9  UNL     1     -31.901   8.928   1.086  1.00 20.00    -0.391 OA
HETATM    8  C6  UNL     1     -32.618  10.127   0.836  1.00 20.00     0.201 C 
ENDBRANCH   6   7
ENDBRANCH   3   6
BRANCH   4   9
HETATM    9  C5  UNL     1     -34.435   6.141   5.806  1.00 20.00     0.277 C 
HETATM   10  O8  UNL     1     -34.817   4.976   6.047  1.00 20.00    -0.301 OA
ENDBRANCH   4   9
TORSDOF 3
ENDMDL
MODEL 3
REMARK VINA RESULT:      -3.9     11.280     11.820
REMARK  3 active torsions:
REMARK  status: ('A' for Active; 'I' for Inactive)
REMARK    1  A    between atoms: C3_3  and  C7_7 
REMARK    2  A    between atoms: C4_4  and  C5_5 
REMARK    3  A    between atoms: C7_7  and  O9_9 
ROOT
HETATM    1  C1  UNL     1     -33.227  17.260  -2.062  1.00 20.00     0.031 A 
HETATM    2  C2  UNL     1     -35.439  16.883  -1.458  1.00 20.00     0.060 A 
HETATM    3  C3  UNL     1     -34.461  16.632  -2.394  1.00 20.00    -0.027 A 
HETATM    4  C4  UNL     1     -33.309  17.969  -0.883  1.00 20.00     0.043 A 
HETATM    5  S10 UNL     1     -34.868  17.874  -0.183  1.00 20.00    -0.098 SA
ENDROOT
BRANCH   3   6
HETATM    6  C7  UNL     1     -34.667  15.804  -3.606  1.00 20.00     0.206 C 
BRANCH   6   7
HETATM    7  O9  UNL     1     -33.424  15.249  -4.027  1.00 20.00    -0.391 OA
HETATM    8  C6  UNL     1     -33.121  15.612  -5.367  1.00 20.00     0.201 C 
ENDBRANCH   6   7
ENDBRANCH   3   6
BRANCH   4   9
HETATM    9  C5  UNL     1     -32.296  18.728  -0.222  1.00 20.00     0.277 C 
HETATM   10  O8  UNL     1     -31.091  18.401  -0.180  1.00 20.00    -0.301 OA
ENDBRANCH   4   9
TORSDOF 3
ENDMDL
MODEL 4
REMARK VINA RESULT:      -3.9     11.230     11.647
REMARK  3 active torsions:
REMARK  status: ('A' for Active; 'I' for Inactive)
REMARK    1  A    between atoms: C3_3  and  C7_7 
REMARK    2  A    between atoms: C4_4  and  C5_5 
REMARK    3  A    between atoms: C7_7  and  O9_9 
ROOT
HETATM    1  C1  UNL     1     -34.964  15.168  -3.765  1.00 20.00     0.031 A 
HETATM    2  C2  UNL     1     -33.369  16.686  -4.507  1.00 20.00     0.060 A 
HETATM    3  C3  UNL     1     -34.125  16.270  -3.434  1.00 20.00    -0.027 A 
HETATM    4  C4  UNL     1     -34.817  14.784  -5.081  1.00 20.00     0.043 A 
HETATM    5  S10 UNL     1     -33.672  15.750  -5.908  1.00 20.00    -0.098 SA
ENDROOT
BRANCH   3   6
HETATM    6  C7  UNL     1     -34.072  16.894  -2.091  1.00 20.00     0.206 C 
BRANCH   6   7
HETATM    7  O9  UNL     1     -35.275  16.610  -1.380  1.00 20.00    -0.391 OA
HETATM    8  C6  UNL     1     -35.440  17.481  -0.271  1.00 20.00     0.201 C 
ENDBRANCH   6   7
ENDBRANCH   3   6
BRANCH   4   9
HETATM    9  C5  UNL     1     -35.476  13.731  -5.785  1.00 20.00     0.277 C 
HETATM   10  O8  UNL     1     -35.889  12.680  -5.250  1.00 20.00    -0.301 OA
ENDBRANCH   4   9
TORSDOF 3
ENDMDL
MODEL 5
REMARK VINA RESULT:      -3.8      1.439      4.645
REMARK  3 active torsions:
REMARK  status: ('A' for Active; 'I' for Inactive)
REMARK    1  A    between atoms: C3_3  and  C7_7 
REMARK    2  A    between atoms: C4_4  and  C5_5 
REMARK    3  A    between atoms: C7_7  and  O9_9 
ROOT
HETATM    1  C1  UNL     1     -33.426   7.276   2.257  1.00 20.00     0.031 A 
HETATM    2  C2  UNL     1     -32.983   7.401   4.535  1.00 20.00     0.060 A 
HETATM    3  C3  UNL     1     -33.827   6.898   3.570  1.00 20.00    -0.027 A 
HETATM    4  C4  UNL     1     -32.289   8.054   2.268  1.00 20.00     0.043 A 
HETATM    5  S10 UNL     1     -31.711   8.325   3.856  1.00 20.00    -0.098 SA
ENDROOT
BRANCH   3   6
HETATM    6  C7  UNL     1     -35.015   6.062   3.863  1.00 20.00     0.206 C 
BRANCH   6   7
HETATM    7  O9  UNL     1     -34.718   5.156   4.922  1.00 20.00    -0.391 OA
HETATM    8  C6  UNL     1     -34.152   3.950   4.429  1.00 20.00     0.201 C 
ENDBRANCH   6   7
ENDBRANCH   3   6
BRANCH   4   9
HETATM    9  C5  UNL     1     -31.584   8.624   1.165  1.00 20.00     0.277 C 
HETATM   10  O8  UNL     1     -31.922   9.678   0.585  1.00 20.00    -0.301 OA
ENDBRANCH   4   9
TORSDOF 3
ENDMDL
MODEL 6
REMARK VINA RESULT:      -3.7     10.987     11.715
REMARK  3 active torsions:
REMARK  status: ('A' for Active; 'I' for Inactive)
REMARK    1  A    between atoms: C3_3  and  C7_7 
REMARK    2  A    between atoms: C4_4  and  C5_5 
REMARK    3  A    between atoms: C7_7  and  O9_9 
ROOT
HETATM    1  C1  UNL     1     -33.365  16.711  -2.980  1.00 20.00     0.031 A 
HETATM    2  C2  UNL     1     -35.555  15.990  -2.692  1.00 20.00     0.060 A 
HETATM    3  C3  UNL     1     -34.409  15.862  -3.445  1.00 20.00    -0.027 A 
HETATM    4  C4  UNL     1     -33.753  17.457  -1.888  1.00 20.00     0.043 A 
HETATM    5  S10 UNL     1     -35.369  17.132  -1.430  1.00 20.00    -0.098 SA
ENDROOT
BRANCH   3   6
HETATM    6  C7  UNL     1     -34.276  14.947  -4.604  1.00 20.00     0.206 C 
BRANCH   6   7
HETATM    7  O9  UNL     1     -34.917  13.708  -4.315  1.00 20.00    -0.391 OA
HETATM    8  C6  UNL     1     -35.913  13.401  -5.280  1.00 20.00     0.201 C 
ENDBRANCH   6   7
ENDBRANCH   3   6
BRANCH   4   9
HETATM    9  C5  UNL     1     -32.999  18.414  -1.144  1.00 20.00     0.277 C 
HETATM   10  O8  UNL     1     -31.792  18.278  -0.847  1.00 20.00    -0.301 OA
ENDBRANCH   4   9
TORSDOF 3
ENDMDL
MODEL 7
REMARK VINA RESULT:      -3.7     11.099     11.514
REMARK  3 active torsions:
REMARK  status: ('A' for Active; 'I' for Inactive)
REMARK    1  A    between atoms: C3_3  and  C7_7 
REMARK    2  A    between atoms: C4_4  and  C5_5 
REMARK    3  A    between atoms: C7_7  and  O9_9 
ROOT
HETATM    1  C1  UNL     1     -34.514  15.283  -3.688  1.00 20.00     0.031 A 
HETATM    2  C2  UNL     1     -36.166  16.741  -2.949  1.00 20.00     0.060 A 
HETATM    3  C3  UNL     1     -34.850  16.357  -2.815  1.00 20.00    -0.027 A 
HETATM    4  C4  UNL     1     -35.587  14.886  -4.456  1.00 20.00     0.043 A 
HETATM    5  S10 UNL     1     -36.991  15.807  -4.124  1.00 20.00    -0.098 SA
ENDROOT
BRANCH   3   6
HETATM    6  C7  UNL     1     -33.895  16.987  -1.874  1.00 20.00     0.206 C 
BRANCH   6   7
HETATM    7  O9  UNL     1     -34.538  18.047  -1.172  1.00 20.00    -0.391 OA
HETATM    8  C6  UNL     1     -33.924  18.284   0.086  1.00 20.00     0.201 C 
ENDBRANCH   6   7
ENDBRANCH   3   6
BRANCH   4   9
HETATM    9  C5  UNL     1     -35.651  13.853  -5.440  1.00 20.00     0.277 C 
HETATM   10  O8  UNL     1     -35.872  12.651  -5.181  1.00 20.00    -0.301 OA
ENDBRANCH   4   9
TORSDOF 3
ENDMDL
MODEL 8
REMARK VINA RESULT:      -3.6     11.155     11.436
REMARK  3 active torsions:
REMARK  status: ('A' for Active; 'I' for Inactive)
REMARK    1  A    between atoms: C3_3  and  C7_7 
REMARK    2  A    between atoms: C4_4  and  C5_5 
REMARK    3  A    between atoms: C7_7  and  O9_9 
ROOT
HETATM    1  C1  UNL     1     -36.180  15.678  -3.571  1.00 20.00     0.031 A 
HETATM    2  C2  UNL     1     -33.951  16.185  -3.155  1.00 20.00     0.060 A 
HETATM    3  C3  UNL     1     -35.258  16.477  -2.835  1.00 20.00    -0.027 A 
HETATM    4  C4  UNL     1     -35.542  14.806  -4.426  1.00 20.00     0.043 A 
HETATM    5  S10 UNL     1     -33.839  14.953  -4.338  1.00 20.00    -0.098 SA
ENDROOT
BRANCH   3   6
HETATM    6  C7  UNL     1     -35.660  17.501  -1.842  1.00 20.00     0.206 C 
BRANCH   6   7
HETATM    7  O9  UNL     1     -35.489  16.987  -0.524  1.00 20.00    -0.391 OA
HETATM    8  C6  UNL     1     -36.000  17.883   0.452  1.00 20.00     0.201 C 
ENDBRANCH   6   7
ENDBRANCH   3   6
BRANCH   4   9
HETATM    9  C5  UNL     1     -36.112  13.853  -5.322  1.00 20.00     0.277 C 
HETATM   10  O8  UNL     1     -35.868  12.627  -5.290  1.00 20.00    -0.301 OA
ENDBRANCH   4   9
TORSDOF 3
ENDMDL
MODEL 9
REMARK VINA RESULT:      -3.6     11.120     12.074
REMARK  3 active torsions:
REMARK  status: ('A' for Active; 'I' for Inactive)
REMARK    1  A    between atoms: C3_3  and  C7_7 
REMARK    2  A    between atoms: C4_4  and  C5_5 
REMARK    3  A    between atoms: C7_7  and  O9_9 
ROOT
HETATM    1  C1  UNL     1     -33.804  16.673  -2.361  1.00 20.00     0.031 A 
HETATM    2  C2  UNL     1     -33.215  18.434  -3.757  1.00 20.00     0.060 A 
HETATM    3  C3  UNL     1     -33.300  18.001  -2.453  1.00 20.00    -0.027 A 
HETATM    4  C4  UNL     1     -34.086  16.140  -3.600  1.00 20.00     0.043 A 
HETATM    5  S10 UNL     1     -33.742  17.240  -4.865  1.00 20.00    -0.098 SA
ENDROOT
BRANCH   3   6
HETATM    6  C7  UNL     1     -32.912  18.821  -1.280  1.00 20.00     0.206 C 
BRANCH   6   7
HETATM    7  O9  UNL     1     -31.680  18.344  -0.745  1.00 20.00    -0.391 OA
HETATM    8  C6  UNL     1     -31.527  18.717   0.616  1.00 20.00     0.201 C 
ENDBRANCH   6   7
ENDBRANCH   3   6
BRANCH   4   9
HETATM    9  C5  UNL     1     -34.603  14.849  -3.923  1.00 20.00     0.277 C 
HETATM   10  O8  UNL     1     -33.893  13.864  -4.222  1.00 20.00    -0.301 OA
ENDBRANCH   4   9
TORSDOF 3
ENDMDL
