MODEL 1
REMARK VINA RESULT:      -4.5      0.000      0.000
REMARK  0 active torsions:
REMARK  status: ('A' for Active; 'I' for Inactive)
ROOT
HETATM    1  C1  UNL     1     -36.174  16.422  -3.851  1.00 20.00     0.086 C 
HETATM    2  C2  UNL     1     -32.938  14.656  -4.395  1.00 20.00     0.017 C 
HETATM    3  C3  UNL     1     -33.907  16.776  -4.901  1.00 20.00     0.049 C 
HETATM    4  C4  UNL     1     -33.214  15.575  -5.599  1.00 20.00     0.020 C 
HETATM    5  C5  UNL     1     -34.433  14.581  -4.006  1.00 20.00     0.055 C 
HETATM    6  C6  UNL     1     -34.283  14.820  -6.372  1.00 20.00     0.155 A 
HETATM    7  C7  UNL     1     -35.090  14.143  -5.316  1.00 20.00     0.158 A 
HETATM    8  C8  UNL     1     -34.745  16.092  -3.780  1.00 20.00     0.132 C 
HETATM    9  N9  UNL     1     -37.302  16.684  -3.906  1.00 20.00    -0.195 NA
HETATM   10  O10 UNL     1     -34.305  13.395  -6.251  1.00 20.00    -0.374 OA
HETATM   11 CL11 UNL     1     -34.188  16.618  -2.159  1.00 20.00    -0.102 Cl
ENDROOT
TORSDOF 0
ENDMDL
MODEL 2
REMARK VINA RESULT:      -4.5      2.597      3.268
REMARK  0 active torsions:
REMARK  status: ('A' for Active; 'I' for Inactive)
ROOT
HETATM    1  C1  UNL     1     -36.733  14.157  -5.187  1.00 20.00     0.086 C 
HETATM    2  C2  UNL     1     -33.469  15.950  -5.326  1.00 20.00     0.017 C 
HETATM    3  C3  UNL     1     -34.415  14.077  -4.192  1.00 20.00     0.049 C 
HETATM    4  C4  UNL     1     -33.684  15.414  -3.898  1.00 20.00     0.020 C 
HETATM    5  C5  UNL     1     -34.982  15.936  -5.647  1.00 20.00     0.055 C 
HETATM    6  C6  UNL     1     -34.710  16.376  -3.321  1.00 20.00     0.155 A 
HETATM    7  C7  UNL     1     -35.569  16.739  -4.484  1.00 20.00     0.158 A 
HETATM    8  C8  UNL     1     -35.309  14.430  -5.418  1.00 20.00     0.132 C 
HETATM    9  N9  UNL     1     -37.857  13.941  -5.005  1.00 20.00    -0.195 NA
HETATM   10  O10 UNL     1     -34.735  17.708  -3.840  1.00 20.00    -0.374 OA
HETATM   11 CL11 UNL     1     -34.838  13.456  -6.850  1.00 20.00    -0.102 Cl
ENDROOT
TORSDOF 0
ENDMDL
MODEL 3
REMARK VINA RESULT:      -4.5      1.763      1.937
REMARK  0 active torsions:
REMARK  status: ('A' for Active; 'I' for Inactive)
ROOT
HETATM    1  C1  UNL     1     -37.236  14.918  -4.631  1.00 20.00     0.086 C 
HETATM    2  C2  UNL     1     -33.894  16.335  -3.787  1.00 20.00     0.017 C 
HETATM    3  C3  UNL     1     -35.452  16.423  -5.591  1.00 20.00     0.049 C 
HETATM    4  C4  UNL     1     -33.963  16.088  -5.306  1.00 20.00     0.020 C 
HETATM    5  C5  UNL     1     -35.002  15.299  -3.486  1.00 20.00     0.055 C 
HETATM    6  C6  UNL     1     -33.806  14.581  -5.418  1.00 20.00     0.155 A 
HETATM    7  C7  UNL     1     -34.484  14.049  -4.200  1.00 20.00     0.158 A 
HETATM    8  C8  UNL     1     -36.179  15.889  -4.321  1.00 20.00     0.132 C 
HETATM    9  N9  UNL     1     -38.071  14.152  -4.875  1.00 20.00    -0.195 NA
HETATM   10  O10 UNL     1     -33.070  13.913  -4.389  1.00 20.00    -0.374 OA
HETATM   11 CL11 UNL     1     -36.974  17.229  -3.433  1.00 20.00    -0.102 Cl
ENDROOT
TORSDOF 0
ENDMDL
MODEL 4
REMARK VINA RESULT:      -4.4      2.704      3.479
REMARK  0 active torsions:
REMARK  status: ('A' for Active; 'I' for Inactive)
ROOT
HETATM    1  C1  UNL     1     -35.292  13.859  -5.269  1.00 20.00     0.086 C 
HETATM    2  C2  UNL     1     -34.175  17.346  -4.577  1.00 20.00     0.017 C 
HETATM    3  C3  UNL     1     -33.395  15.125  -4.189  1.00 20.00     0.049 C 
HETATM    4  C4  UNL     1     -33.717  16.436  -3.422  1.00 20.00     0.020 C 
HETATM    5  C5  UNL     1     -35.310  16.382  -4.994  1.00 20.00     0.055 C 
HETATM    6  C6  UNL     1     -34.998  16.201  -2.639  1.00 20.00     0.155 A 
HETATM    7  C7  UNL     1     -36.066  16.180  -3.679  1.00 20.00     0.158 A 
HETATM    8  C8  UNL     1     -34.493  15.090  -5.295  1.00 20.00     0.132 C 
HETATM    9  N9  UNL     1     -35.923  12.886  -5.250  1.00 20.00    -0.195 NA
HETATM   10  O10 UNL     1     -36.003  17.218  -2.694  1.00 20.00    -0.374 OA
HETATM   11 CL11 UNL     1     -33.754  15.174  -6.927  1.00 20.00    -0.102 Cl
ENDROOT
TORSDOF 0
ENDMDL
MODEL 5
REMARK VINA RESULT:      -4.3      1.294      1.454
REMARK  0 active torsions:
REMARK  status: ('A' for Active; 'I' for Inactive)
ROOT
HETATM    1  C1  UNL     1     -36.043  17.080  -5.039  1.00 20.00     0.086 C 
HETATM    2  C2  UNL     1     -33.788  14.169  -4.464  1.00 20.00     0.017 C 
HETATM    3  C3  UNL     1     -34.112  15.861  -6.114  1.00 20.00     0.049 C 
HETATM    4  C4  UNL     1     -34.038  14.317  -5.976  1.00 20.00     0.020 C 
HETATM    5  C5  UNL     1     -35.084  14.928  -4.094  1.00 20.00     0.055 C 
HETATM    6  C6  UNL     1     -35.448  13.777  -6.148  1.00 20.00     0.155 A 
HETATM    7  C7  UNL     1     -36.147  14.168  -4.890  1.00 20.00     0.158 A 
HETATM    8  C8  UNL     1     -34.826  16.294  -4.798  1.00 20.00     0.132 C 
HETATM    9  N9  UNL     1     -37.003  17.702  -5.229  1.00 20.00    -0.195 NA
HETATM   10  O10 UNL     1     -35.899  12.794  -5.211  1.00 20.00    -0.374 OA
HETATM   11 CL11 UNL     1     -33.751  17.327  -3.801  1.00 20.00    -0.102 Cl
ENDROOT
TORSDOF 0
ENDMDL
MODEL 6
REMARK VINA RESULT:      -4.3      3.071      3.827
REMARK  0 active torsions:
REMARK  status: ('A' for Active; 'I' for Inactive)
ROOT
HETATM    1  C1  UNL     1     -33.808  14.394  -5.257  1.00 20.00     0.086 C 
HETATM    2  C2  UNL     1     -36.950  14.781  -7.222  1.00 20.00     0.017 C 
HETATM    3  C3  UNL     1     -35.408  16.176  -6.052  1.00 20.00     0.049 C 
HETATM    4  C4  UNL     1     -36.924  15.844  -6.107  1.00 20.00     0.020 C 
HETATM    5  C5  UNL     1     -35.971  13.851  -6.470  1.00 20.00     0.055 C 
HETATM    6  C6  UNL     1     -37.260  15.043  -4.860  1.00 20.00     0.155 A 
HETATM    7  C7  UNL     1     -36.640  13.708  -5.101  1.00 20.00     0.158 A 
HETATM    8  C8  UNL     1     -34.739  14.794  -6.319  1.00 20.00     0.132 C 
HETATM    9  N9  UNL     1     -33.071  14.079  -4.419  1.00 20.00    -0.195 NA
HETATM   10  O10 UNL     1     -38.061  13.869  -5.022  1.00 20.00    -0.374 OA
HETATM   11 CL11 UNL     1     -33.783  14.833  -7.836  1.00 20.00    -0.102 Cl
ENDROOT
TORSDOF 0
ENDMDL
MODEL 7
REMARK VINA RESULT:      -4.2      2.372      3.095
REMARK  0 active torsions:
REMARK  status: ('A' for Active; 'I' for Inactive)
ROOT
HETATM    1  C1  UNL     1     -35.194  13.810  -4.901  1.00 20.00     0.086 C 
HETATM    2  C2  UNL     1     -33.572  17.164  -4.800  1.00 20.00     0.017 C 
HETATM    3  C3  UNL     1     -34.734  15.711  -3.307  1.00 20.00     0.049 C 
HETATM    4  C4  UNL     1     -34.783  17.165  -3.848  1.00 20.00     0.020 C 
HETATM    5  C5  UNL     1     -34.133  15.994  -5.642  1.00 20.00     0.055 C 
HETATM    6  C6  UNL     1     -35.967  17.258  -4.796  1.00 20.00     0.155 A 
HETATM    7  C7  UNL     1     -35.535  16.492  -6.001  1.00 20.00     0.158 A 
HETATM    8  C8  UNL     1     -34.268  14.892  -4.548  1.00 20.00     0.132 C 
HETATM    9  N9  UNL     1     -35.925  12.954  -5.180  1.00 20.00    -0.195 NA
HETATM   10  O10 UNL     1     -35.759  17.905  -6.055  1.00 20.00    -0.374 OA
HETATM   11 CL11 UNL     1     -32.682  14.114  -4.236  1.00 20.00    -0.102 Cl
ENDROOT
TORSDOF 0
ENDMDL
MODEL 8
REMARK VINA RESULT:      -4.2      1.662      2.137
REMARK  0 active torsions:
REMARK  status: ('A' for Active; 'I' for Inactive)
ROOT
HETATM    1  C1  UNL     1     -35.005  16.365  -3.216  1.00 20.00     0.086 C 
HETATM    2  C2  UNL     1     -34.439  14.761  -6.531  1.00 20.00     0.017 C 
HETATM    3  C3  UNL     1     -35.915  16.370  -5.569  1.00 20.00     0.049 C 
HETATM    4  C4  UNL     1     -35.945  15.034  -6.358  1.00 20.00     0.020 C 
HETATM    5  C5  UNL     1     -34.181  14.766  -5.007  1.00 20.00     0.055 C 
HETATM    6  C6  UNL     1     -36.384  13.946  -5.392  1.00 20.00     0.155 A 
HETATM    7  C7  UNL     1     -35.206  13.752  -4.497  1.00 20.00     0.158 A 
HETATM    8  C8  UNL     1     -34.678  16.196  -4.637  1.00 20.00     0.132 C 
HETATM    9  N9  UNL     1     -35.262  16.500  -2.093  1.00 20.00    -0.195 NA
HETATM   10  O10 UNL     1     -35.643  12.722  -5.392  1.00 20.00    -0.374 OA
HETATM   11 CL11 UNL     1     -33.422  17.420  -5.012  1.00 20.00    -0.102 Cl
ENDROOT
TORSDOF 0
ENDMDL
MODEL 9
REMARK VINA RESULT:      -4.1      2.613      3.363
REMARK  0 active torsions:
REMARK  status: ('A' for Active; 'I' for Inactive)
ROOT
HETATM    1  C1  UNL     1     -35.329  16.265  -6.882  1.00 20.00     0.086 C 
HETATM    2  C2  UNL     1     -33.005  14.455  -4.599  1.00 20.00     0.017 C 
HETATM    3  C3  UNL     1     -35.261  14.261  -5.351  1.00 20.00     0.049 C 
HETATM    4  C4  UNL     1     -34.437  14.354  -4.039  1.00 20.00     0.020 C 
HETATM    5  C5  UNL     1     -33.328  15.729  -5.415  1.00 20.00     0.055 C 
HETATM    6  C6  UNL     1     -34.675  15.734  -3.449  1.00 20.00     0.155 A 
HETATM    7  C7  UNL     1     -33.927  16.654  -4.353  1.00 20.00     0.158 A 
HETATM    8  C8  UNL     1     -34.485  15.205  -6.318  1.00 20.00     0.132 C 
HETATM    9  N9  UNL     1     -35.995  17.103  -7.329  1.00 20.00    -0.195 NA
HETATM   10  O10 UNL     1     -33.534  16.464  -2.989  1.00 20.00    -0.374 OA
HETATM   11 CL11 UNL     1     -33.832  14.288  -7.714  1.00 20.00    -0.102 Cl
ENDROOT
TORSDOF 0
ENDMDL
