MODEL 1
REMARK VINA RESULT:      -5.1      0.000      0.000
REMARK  3 active torsions:
REMARK  status: ('A' for Active; 'I' for Inactive)
REMARK    1  A    between atoms: C3_3  and  C5_5 
REMARK    2  A    between atoms: C4_4  and  C6_6 
REMARK    3  A    between atoms: C5_5  and  C6_6 
ROOT
HETATM    1  C1  UNL     1     -32.107   8.378   2.107  1.00 20.00     0.087 C 
HETATM    2  C3  UNL     1     -32.263   7.641   3.313  1.00 20.00     0.093 C 
HETATM    3  N7  UNL     1     -31.975   8.978   1.123  1.00 20.00    -0.192 NA
ENDROOT
BRANCH   2   4
HETATM    4  C5  UNL     1     -33.476   7.375   3.818  1.00 20.00     0.011 C 
BRANCH   4   5
HETATM    5  C6  UNL     1     -33.720   7.215   5.235  1.00 20.00     0.011 C 
BRANCH   5   6
HETATM    6  C4  UNL     1     -34.361   6.156   5.750  1.00 20.00     0.093 C 
HETATM    7  C2  UNL     1     -34.463   4.932   5.037  1.00 20.00     0.087 C 
HETATM    8  N8  UNL     1     -34.548   3.930   4.458  1.00 20.00    -0.192 NA
ENDBRANCH   5   6
ENDBRANCH   4   5
ENDBRANCH   2   4
TORSDOF 3
ENDMDL
MODEL 2
REMARK VINA RESULT:      -5.1      0.084      4.599
REMARK  3 active torsions:
REMARK  status: ('A' for Active; 'I' for Inactive)
REMARK    1  A    between atoms: C3_3  and  C5_5 
REMARK    2  A    between atoms: C4_4  and  C6_6 
REMARK    3  A    between atoms: C5_5  and  C6_6 
ROOT
HETATM    1  C1  UNL     1     -34.435   4.897   4.978  1.00 20.00     0.087 C 
HETATM    2  C3  UNL     1     -34.392   6.149   5.651  1.00 20.00     0.093 C 
HETATM    3  N7  UNL     1     -34.474   3.874   4.432  1.00 20.00    -0.192 NA
ENDROOT
BRANCH   2   4
HETATM    4  C5  UNL     1     -33.704   7.187   5.154  1.00 20.00     0.011 C 
BRANCH   4   5
HETATM    5  C6  UNL     1     -33.467   7.368   3.739  1.00 20.00     0.011 C 
BRANCH   5   6
HETATM    6  C4  UNL     1     -32.258   7.645   3.232  1.00 20.00     0.093 C 
HETATM    7  C2  UNL     1     -32.107   8.415   2.048  1.00 20.00     0.087 C 
HETATM    8  N8  UNL     1     -31.980   9.043   1.081  1.00 20.00    -0.192 NA
ENDBRANCH   5   6
ENDBRANCH   4   5
ENDBRANCH   2   4
TORSDOF 3
ENDMDL
MODEL 3
REMARK VINA RESULT:      -4.9      1.960      4.111
REMARK  3 active torsions:
REMARK  status: ('A' for Active; 'I' for Inactive)
REMARK    1  A    between atoms: C3_3  and  C5_5 
REMARK    2  A    between atoms: C4_4  and  C6_6 
REMARK    3  A    between atoms: C5_5  and  C6_6 
ROOT
HETATM    1  C1  UNL     1     -34.094   6.588   5.934  1.00 20.00     0.087 C 
HETATM    2  C3  UNL     1     -34.612   5.306   5.604  1.00 20.00     0.093 C 
HETATM    3  N7  UNL     1     -33.671   7.633   6.208  1.00 20.00    -0.192 NA
ENDROOT
BRANCH   2   4
HETATM    4  C5  UNL     1     -34.646   4.870   4.337  1.00 20.00     0.011 C 
BRANCH   4   5
HETATM    5  C6  UNL     1     -34.405   5.733   3.201  1.00 20.00     0.011 C 
BRANCH   5   6
HETATM    6  C4  UNL     1     -33.189   5.906   2.664  1.00 20.00     0.093 C 
HETATM    7  C2  UNL     1     -32.493   7.139   2.783  1.00 20.00     0.087 C 
HETATM    8  N8  UNL     1     -31.922   8.144   2.878  1.00 20.00    -0.192 NA
ENDBRANCH   5   6
ENDBRANCH   4   5
ENDBRANCH   2   4
TORSDOF 3
ENDMDL
MODEL 4
REMARK VINA RESULT:      -4.8      1.908      2.262
REMARK  3 active torsions:
REMARK  status: ('A' for Active; 'I' for Inactive)
REMARK    1  A    between atoms: C3_3  and  C5_5 
REMARK    2  A    between atoms: C4_4  and  C6_6 
REMARK    3  A    between atoms: C5_5  and  C6_6 
ROOT
HETATM    1  C1  UNL     1     -32.560   7.265   2.629  1.00 20.00     0.087 C 
HETATM    2  C3  UNL     1     -33.065   5.942   2.755  1.00 20.00     0.093 C 
HETATM    3  N7  UNL     1     -32.143   8.343   2.524  1.00 20.00    -0.192 NA
ENDROOT
BRANCH   2   4
HETATM    4  C5  UNL     1     -34.321   5.709   3.160  1.00 20.00     0.011 C 
BRANCH   4   5
HETATM    5  C6  UNL     1     -34.638   4.872   4.297  1.00 20.00     0.011 C 
BRANCH   5   6
HETATM    6  C4  UNL     1     -34.623   5.322   5.560  1.00 20.00     0.093 C 
HETATM    7  C2  UNL     1     -34.080   6.593   5.889  1.00 20.00     0.087 C 
HETATM    8  N8  UNL     1     -33.638   7.630   6.162  1.00 20.00    -0.192 NA
ENDBRANCH   5   6
ENDBRANCH   4   5
ENDBRANCH   2   4
TORSDOF 3
ENDMDL
MODEL 5
REMARK VINA RESULT:      -4.8      1.002      4.889
REMARK  3 active torsions:
REMARK  status: ('A' for Active; 'I' for Inactive)
REMARK    1  A    between atoms: C3_3  and  C5_5 
REMARK    2  A    between atoms: C4_4  and  C6_6 
REMARK    3  A    between atoms: C5_5  and  C6_6 
ROOT
HETATM    1  C1  UNL     1     -34.466   5.020   4.242  1.00 20.00     0.087 C 
HETATM    2  C3  UNL     1     -34.557   6.420   4.011  1.00 20.00     0.093 C 
HETATM    3  N7  UNL     1     -34.397   3.877   4.430  1.00 20.00    -0.192 NA
ENDROOT
BRANCH   2   4
HETATM    4  C5  UNL     1     -33.462   7.192   3.955  1.00 20.00     0.011 C 
BRANCH   4   5
HETATM    5  C6  UNL     1     -32.608   7.262   2.790  1.00 20.00     0.011 C 
BRANCH   5   6
HETATM    6  C4  UNL     1     -31.895   8.352   2.473  1.00 20.00     0.093 C 
HETATM    7  C2  UNL     1     -32.331   9.259   1.471  1.00 20.00     0.087 C 
HETATM    8  N8  UNL     1     -32.683  10.001   0.652  1.00 20.00    -0.192 NA
ENDBRANCH   5   6
ENDBRANCH   4   5
ENDBRANCH   2   4
TORSDOF 3
ENDMDL
MODEL 6
REMARK VINA RESULT:      -4.8      1.015      1.189
REMARK  3 active torsions:
REMARK  status: ('A' for Active; 'I' for Inactive)
REMARK    1  A    between atoms: C3_3  and  C5_5 
REMARK    2  A    between atoms: C4_4  and  C6_6 
REMARK    3  A    between atoms: C5_5  and  C6_6 
ROOT
HETATM    1  C1  UNL     1     -32.322   9.206   1.471  1.00 20.00     0.087 C 
HETATM    2  C3  UNL     1     -31.961   8.308   2.512  1.00 20.00     0.093 C 
HETATM    3  N7  UNL     1     -32.613   9.941   0.622  1.00 20.00    -0.192 NA
ENDROOT
BRANCH   2   4
HETATM    4  C5  UNL     1     -32.714   7.240   2.808  1.00 20.00     0.011 C 
BRANCH   4   5
HETATM    5  C6  UNL     1     -33.648   7.217   3.913  1.00 20.00     0.011 C 
BRANCH   5   6
HETATM    6  C4  UNL     1     -34.671   6.354   3.985  1.00 20.00     0.093 C 
HETATM    7  C2  UNL     1     -34.458   4.966   4.200  1.00 20.00     0.087 C 
HETATM    8  N8  UNL     1     -34.288   3.832   4.375  1.00 20.00    -0.192 NA
ENDBRANCH   5   6
ENDBRANCH   4   5
ENDBRANCH   2   4
TORSDOF 3
ENDMDL
MODEL 7
REMARK VINA RESULT:      -4.7      1.368      4.812
REMARK  3 active torsions:
REMARK  status: ('A' for Active; 'I' for Inactive)
REMARK    1  A    between atoms: C3_3  and  C5_5 
REMARK    2  A    between atoms: C4_4  and  C6_6 
REMARK    3  A    between atoms: C5_5  and  C6_6 
ROOT
HETATM    1  C1  UNL     1     -34.504   5.817   4.766  1.00 20.00     0.087 C 
HETATM    2  C3  UNL     1     -34.443   5.916   3.349  1.00 20.00     0.093 C 
HETATM    3  N7  UNL     1     -34.559   5.733   5.922  1.00 20.00    -0.192 NA
ENDROOT
BRANCH   2   4
HETATM    4  C5  UNL     1     -33.361   6.408   2.729  1.00 20.00     0.011 C 
BRANCH   4   5
HETATM    5  C6  UNL     1     -32.602   7.529   3.240  1.00 20.00     0.011 C 
BRANCH   5   6
HETATM    6  C4  UNL     1     -31.808   8.284   2.469  1.00 20.00     0.093 C 
HETATM    7  C2  UNL     1     -32.342   9.248   1.573  1.00 20.00     0.087 C 
HETATM    8  N8  UNL     1     -32.774  10.036   0.839  1.00 20.00    -0.192 NA
ENDBRANCH   5   6
ENDBRANCH   4   5
ENDBRANCH   2   4
TORSDOF 3
ENDMDL
MODEL 8
REMARK VINA RESULT:      -4.7      1.448      1.855
REMARK  3 active torsions:
REMARK  status: ('A' for Active; 'I' for Inactive)
REMARK    1  A    between atoms: C3_3  and  C5_5 
REMARK    2  A    between atoms: C4_4  and  C6_6 
REMARK    3  A    between atoms: C5_5  and  C6_6 
ROOT
HETATM    1  C1  UNL     1     -32.397   9.239   1.450  1.00 20.00     0.087 C 
HETATM    2  C3  UNL     1     -31.793   8.376   2.405  1.00 20.00     0.093 C 
HETATM    3  N7  UNL     1     -32.885   9.945   0.669  1.00 20.00    -0.192 NA
ENDROOT
BRANCH   2   4
HETATM    4  C5  UNL     1     -32.529   7.575   3.188  1.00 20.00     0.011 C 
BRANCH   4   5
HETATM    5  C6  UNL     1     -33.355   6.508   2.666  1.00 20.00     0.011 C 
BRANCH   5   6
HETATM    6  C4  UNL     1     -34.303   5.899   3.392  1.00 20.00     0.093 C 
HETATM    7  C2  UNL     1     -34.364   6.043   4.804  1.00 20.00     0.087 C 
HETATM    8  N8  UNL     1     -34.417   6.158   5.957  1.00 20.00    -0.192 NA
ENDBRANCH   5   6
ENDBRANCH   4   5
ENDBRANCH   2   4
TORSDOF 3
ENDMDL
MODEL 9
REMARK VINA RESULT:      -4.5      1.734      3.573
REMARK  3 active torsions:
REMARK  status: ('A' for Active; 'I' for Inactive)
REMARK    1  A    between atoms: C3_3  and  C5_5 
REMARK    2  A    between atoms: C4_4  and  C6_6 
REMARK    3  A    between atoms: C5_5  and  C6_6 
ROOT
HETATM    1  C1  UNL     1     -33.606   4.532   3.354  1.00 20.00     0.087 C 
HETATM    2  C3  UNL     1     -34.476   4.397   4.471  1.00 20.00     0.093 C 
HETATM    3  N7  UNL     1     -32.897   4.637   2.442  1.00 20.00    -0.192 NA
ENDROOT
BRANCH   2   4
HETATM    4  C5  UNL     1     -34.916   5.467   5.148  1.00 20.00     0.011 C 
BRANCH   4   5
HETATM    5  C6  UNL     1     -34.041   6.331   5.910  1.00 20.00     0.011 C 
BRANCH   5   6
HETATM    6  C4  UNL     1     -33.677   7.552   5.493  1.00 20.00     0.093 C 
HETATM    7  C2  UNL     1     -32.751   7.728   4.431  1.00 20.00     0.087 C 
HETATM    8  N8  UNL     1     -31.995   7.876   3.564  1.00 20.00    -0.192 NA
ENDBRANCH   5   6
ENDBRANCH   4   5
ENDBRANCH   2   4
TORSDOF 3
ENDMDL
