MODEL 1
REMARK VINA RESULT:      -6.0      0.000      0.000
REMARK  0 active torsions:
REMARK  status: ('A' for Active; 'I' for Inactive)
ROOT
HETATM    1  C1  UNL     1     -32.291   7.501   2.419  1.00 20.00     0.179 A 
HETATM    2  C2  UNL     1     -33.173   6.873   3.256  1.00 20.00    -0.007 A 
HETATM    3  C3  UNL     1     -32.953   7.492   4.505  1.00 20.00     0.070 A 
HETATM    4  C4  UNL     1     -34.149   5.779   3.036  1.00 20.00     0.043 C 
HETATM    5  C5  UNL     1     -33.708   7.156   5.738  1.00 20.00     0.062 C 
HETATM    6  C6  UNL     1     -35.146   5.692   4.208  1.00 20.00     0.005 C 
HETATM    7  C7  UNL     1     -34.448   5.813   5.576  1.00 20.00     0.006 C 
HETATM    8  N8  UNL     1     -32.013   8.438   4.445  1.00 20.00    -0.133 NA
HETATM    9  O9  UNL     1     -31.594   8.438   3.116  1.00 20.00    -0.225 OA
ENDROOT
TORSDOF 0
ENDMDL
MODEL 2
REMARK VINA RESULT:      -5.9      0.954      2.050
REMARK  0 active torsions:
REMARK  status: ('A' for Active; 'I' for Inactive)
ROOT
HETATM    1  C1  UNL     1     -31.984   8.402   4.194  1.00 20.00     0.179 A 
HETATM    2  C2  UNL     1     -32.966   7.493   4.483  1.00 20.00    -0.007 A 
HETATM    3  C3  UNL     1     -33.202   6.847   3.251  1.00 20.00     0.070 A 
HETATM    4  C4  UNL     1     -33.701   7.185   5.733  1.00 20.00     0.043 C 
HETATM    5  C5  UNL     1     -34.182   5.747   3.070  1.00 20.00     0.062 C 
HETATM    6  C6  UNL     1     -34.439   5.837   5.615  1.00 20.00     0.005 C 
HETATM    7  C7  UNL     1     -35.159   5.684   4.262  1.00 20.00     0.006 C 
HETATM    8  N8  UNL     1     -32.421   7.313   2.274  1.00 20.00    -0.133 NA
HETATM    9  O9  UNL     1     -31.649   8.303   2.878  1.00 20.00    -0.225 OA
ENDROOT
TORSDOF 0
ENDMDL
MODEL 3
REMARK VINA RESULT:      -5.1      2.730      3.893
REMARK  0 active torsions:
REMARK  status: ('A' for Active; 'I' for Inactive)
ROOT
HETATM    1  C1  UNL     1     -34.707   5.424   5.944  1.00 20.00     0.179 A 
HETATM    2  C2  UNL     1     -34.065   6.122   4.957  1.00 20.00    -0.007 A 
HETATM    3  C3  UNL     1     -33.918   5.179   3.917  1.00 20.00     0.070 A 
HETATM    4  C4  UNL     1     -33.569   7.517   4.884  1.00 20.00     0.043 C 
HETATM    5  C5  UNL     1     -33.292   5.485   2.607  1.00 20.00     0.062 C 
HETATM    6  C6  UNL     1     -33.251   7.909   3.428  1.00 20.00     0.005 C 
HETATM    7  C7  UNL     1     -32.488   6.799   2.680  1.00 20.00     0.006 C 
HETATM    8  N8  UNL     1     -34.437   3.989   4.232  1.00 20.00    -0.133 NA
HETATM    9  O9  UNL     1     -34.935   4.150   5.523  1.00 20.00    -0.225 OA
ENDROOT
TORSDOF 0
ENDMDL
MODEL 4
REMARK VINA RESULT:      -4.9      2.550      3.738
REMARK  0 active torsions:
REMARK  status: ('A' for Active; 'I' for Inactive)
ROOT
HETATM    1  C1  UNL     1     -34.671   4.832   5.505  1.00 20.00     0.179 A 
HETATM    2  C2  UNL     1     -34.017   5.967   5.106  1.00 20.00    -0.007 A 
HETATM    3  C3  UNL     1     -33.635   5.687   3.776  1.00 20.00     0.070 A 
HETATM    4  C4  UNL     1     -33.698   7.232   5.808  1.00 20.00     0.043 C 
HETATM    5  C5  UNL     1     -32.909   6.645   2.906  1.00 20.00     0.062 C 
HETATM    6  C6  UNL     1     -33.273   8.322   4.806  1.00 20.00     0.005 C 
HETATM    7  C7  UNL     1     -32.294   7.785   3.743  1.00 20.00     0.006 C 
HETATM    8  N8  UNL     1     -34.028   4.474   3.378  1.00 20.00    -0.133 NA
HETATM    9  O9  UNL     1     -34.685   3.935   4.482  1.00 20.00    -0.225 OA
ENDROOT
TORSDOF 0
ENDMDL
MODEL 5
REMARK VINA RESULT:      -4.9      2.262      3.510
REMARK  0 active torsions:
REMARK  status: ('A' for Active; 'I' for Inactive)
ROOT
HETATM    1  C1  UNL     1     -33.688   7.284   6.014  1.00 20.00     0.179 A 
HETATM    2  C2  UNL     1     -33.294   7.242   4.704  1.00 20.00    -0.007 A 
HETATM    3  C3  UNL     1     -34.070   6.201   4.150  1.00 20.00     0.070 A 
HETATM    4  C4  UNL     1     -32.291   8.022   3.940  1.00 20.00     0.043 C 
HETATM    5  C5  UNL     1     -34.009   5.795   2.724  1.00 20.00     0.062 C 
HETATM    6  C6  UNL     1     -32.492   7.836   2.424  1.00 20.00     0.005 C 
HETATM    7  C7  UNL     1     -32.744   6.363   2.047  1.00 20.00     0.006 C 
HETATM    8  N8  UNL     1     -34.889   5.645   5.046  1.00 20.00    -0.133 NA
HETATM    9  O9  UNL     1     -34.641   6.336   6.230  1.00 20.00    -0.225 OA
ENDROOT
TORSDOF 0
ENDMDL
MODEL 6
REMARK VINA RESULT:      -4.9      2.477      3.319
REMARK  0 active torsions:
REMARK  status: ('A' for Active; 'I' for Inactive)
ROOT
HETATM    1  C1  UNL     1     -34.518   4.270   4.493  1.00 20.00     0.179 A 
HETATM    2  C2  UNL     1     -33.891   5.337   3.908  1.00 20.00    -0.007 A 
HETATM    3  C3  UNL     1     -33.923   6.336   4.904  1.00 20.00     0.070 A 
HETATM    4  C4  UNL     1     -33.306   5.531   2.560  1.00 20.00     0.043 C 
HETATM    5  C5  UNL     1     -33.331   7.687   4.738  1.00 20.00     0.062 C 
HETATM    6  C6  UNL     1     -32.404   6.781   2.531  1.00 20.00     0.005 C 
HETATM    7  C7  UNL     1     -33.049   7.981   3.251  1.00 20.00     0.006 C 
HETATM    8  N8  UNL     1     -34.516   5.918   6.025  1.00 20.00    -0.133 NA
HETATM    9  O9  UNL     1     -34.895   4.604   5.758  1.00 20.00    -0.225 OA
ENDROOT
TORSDOF 0
ENDMDL
MODEL 7
REMARK VINA RESULT:      -4.8      1.942      3.039
REMARK  0 active torsions:
REMARK  status: ('A' for Active; 'I' for Inactive)
ROOT
HETATM    1  C1  UNL     1     -34.823   5.718   5.215  1.00 20.00     0.179 A 
HETATM    2  C2  UNL     1     -34.066   6.174   4.170  1.00 20.00    -0.007 A 
HETATM    3  C3  UNL     1     -33.312   7.226   4.733  1.00 20.00     0.070 A 
HETATM    4  C4  UNL     1     -33.985   5.768   2.747  1.00 20.00     0.043 C 
HETATM    5  C5  UNL     1     -32.312   8.021   3.978  1.00 20.00     0.062 C 
HETATM    6  C6  UNL     1     -32.721   6.349   2.084  1.00 20.00     0.005 C 
HETATM    7  C7  UNL     1     -32.493   7.826   2.459  1.00 20.00     0.006 C 
HETATM    8  N8  UNL     1     -33.575   7.403   6.030  1.00 20.00    -0.133 NA
HETATM    9  O9  UNL     1     -34.539   6.443   6.331  1.00 20.00    -0.225 OA
ENDROOT
TORSDOF 0
ENDMDL
MODEL 8
REMARK VINA RESULT:      -4.7      2.582      3.292
REMARK  0 active torsions:
REMARK  status: ('A' for Active; 'I' for Inactive)
ROOT
HETATM    1  C1  UNL     1     -34.184   4.322   3.634  1.00 20.00     0.179 A 
HETATM    2  C2  UNL     1     -33.698   5.595   3.763  1.00 20.00    -0.007 A 
HETATM    3  C3  UNL     1     -34.034   5.953   5.087  1.00 20.00     0.070 A 
HETATM    4  C4  UNL     1     -32.999   6.496   2.816  1.00 20.00     0.043 C 
HETATM    5  C5  UNL     1     -33.685   7.256   5.704  1.00 20.00     0.062 C 
HETATM    6  C6  UNL     1     -32.346   7.675   3.563  1.00 20.00     0.005 C 
HETATM    7  C7  UNL     1     -33.283   8.282   4.625  1.00 20.00     0.006 C 
HETATM    8  N8  UNL     1     -34.672   4.973   5.731  1.00 20.00    -0.133 NA
HETATM    9  O9  UNL     1     -34.767   3.939   4.802  1.00 20.00    -0.225 OA
ENDROOT
TORSDOF 0
ENDMDL
MODEL 9
REMARK VINA RESULT:      -4.6     11.624     12.623
REMARK  0 active torsions:
REMARK  status: ('A' for Active; 'I' for Inactive)
ROOT
HETATM    1  C1  UNL     1     -34.553  13.401  -7.196  1.00 20.00     0.179 A 
HETATM    2  C2  UNL     1     -34.298  14.448  -6.353  1.00 20.00    -0.007 A 
HETATM    3  C3  UNL     1     -34.966  14.094  -5.161  1.00 20.00     0.070 A 
HETATM    4  C4  UNL     1     -33.545  15.713  -6.534  1.00 20.00     0.043 C 
HETATM    5  C5  UNL     1     -34.954  14.922  -3.930  1.00 20.00     0.062 C 
HETATM    6  C6  UNL     1     -33.251  16.374  -5.174  1.00 20.00     0.005 C 
HETATM    7  C7  UNL     1     -34.478  16.356  -4.241  1.00 20.00     0.006 C 
HETATM    8  N8  UNL     1     -35.581  12.913  -5.255  1.00 20.00    -0.133 NA
HETATM    9  O9  UNL     1     -35.317  12.477  -6.553  1.00 20.00    -0.225 OA
ENDROOT
TORSDOF 0
ENDMDL
