MODEL 1
REMARK VINA RESULT:      -5.5      0.000      0.000
REMARK  3 active torsions:
REMARK  status: ('A' for Active; 'I' for Inactive)
REMARK    1  A    between atoms: C3_3  and  C8_8 
REMARK    2  A    between atoms: C7_7  and  C8_8 
REMARK    3  A    between atoms: N9_9  and  O10_10 
ROOT
HETATM    1  C1  UNL     1     -33.684   6.921   4.947  1.00 20.00     0.043 C 
HETATM    2  C4  UNL     1     -34.637   5.776   5.127  1.00 20.00     0.057 C 
HETATM    3  C5  UNL     1     -35.295   5.721   3.755  1.00 20.00     0.006 C 
HETATM    4  C6  UNL     1     -34.193   6.149   2.791  1.00 20.00     0.011 C 
HETATM    5  C7  UNL     1     -33.485   7.309   3.501  1.00 20.00     0.039 C 
HETATM    6  N9  UNL     1     -33.127   7.512   5.949  1.00 20.00    -0.145 NA
ENDROOT
BRANCH   5   7
HETATM    7  C8  UNL     1     -32.028   7.430   3.094  1.00 20.00     0.036 C 
BRANCH   7   8
HETATM    8  C3  UNL     1     -31.871   8.285   1.872  1.00 20.00    -0.036 C 
HETATM    9  C2  UNL     1     -32.606   9.373   1.621  1.00 20.00     0.007 C 
ENDBRANCH   7   8
ENDBRANCH   5   7
BRANCH   6  10
HETATM   10  O10 UNL     1     -32.303   8.527   5.461  1.00 20.00    -0.266 OA
HETATM   11  H23 UNL     1     -32.285   9.142   6.213  1.00 20.00     0.247 HD
ENDBRANCH   6  10
TORSDOF 3
ENDMDL
MODEL 2
REMARK VINA RESULT:      -5.4      2.211      2.486
REMARK  3 active torsions:
REMARK  status: ('A' for Active; 'I' for Inactive)
REMARK    1  A    between atoms: C3_3  and  C8_8 
REMARK    2  A    between atoms: C7_7  and  C8_8 
REMARK    3  A    between atoms: N9_9  and  O10_10 
ROOT
HETATM    1  C1  UNL     1     -33.831   5.578   4.147  1.00 20.00     0.043 C 
HETATM    2  C4  UNL     1     -34.686   5.743   5.369  1.00 20.00     0.057 C 
HETATM    3  C5  UNL     1     -34.016   6.934   6.040  1.00 20.00     0.006 C 
HETATM    4  C6  UNL     1     -33.507   7.783   4.880  1.00 20.00     0.011 C 
HETATM    5  C7  UNL     1     -32.945   6.771   3.875  1.00 20.00     0.039 C 
HETATM    6  N9  UNL     1     -33.853   4.503   3.436  1.00 20.00    -0.145 NA
ENDROOT
BRANCH   5   7
HETATM    7  C8  UNL     1     -33.018   7.276   2.446  1.00 20.00     0.036 C 
BRANCH   7   8
HETATM    8  C3  UNL     1     -32.071   8.416   2.219  1.00 20.00    -0.036 C 
HETATM    9  C2  UNL     1     -32.214   9.325   1.248  1.00 20.00     0.007 C 
ENDBRANCH   7   8
ENDBRANCH   5   7
BRANCH   6  10
HETATM   10  O10 UNL     1     -32.955   4.655   2.377  1.00 20.00    -0.266 OA
HETATM   11  H23 UNL     1     -33.468   5.211   1.766  1.00 20.00     0.247 HD
ENDBRANCH   6  10
TORSDOF 3
ENDMDL
MODEL 3
REMARK VINA RESULT:      -4.9     11.224     12.499
REMARK  3 active torsions:
REMARK  status: ('A' for Active; 'I' for Inactive)
REMARK    1  A    between atoms: C3_3  and  C8_8 
REMARK    2  A    between atoms: C7_7  and  C8_8 
REMARK    3  A    between atoms: N9_9  and  O10_10 
ROOT
HETATM    1  C1  UNL     1     -34.773  13.763  -6.565  1.00 20.00     0.043 C 
HETATM    2  C4  UNL     1     -34.109  14.026  -7.885  1.00 20.00     0.057 C 
HETATM    3  C5  UNL     1     -33.935  15.537  -7.833  1.00 20.00     0.006 C 
HETATM    4  C6  UNL     1     -33.699  15.839  -6.357  1.00 20.00     0.011 C 
HETATM    5  C7  UNL     1     -34.687  14.932  -5.612  1.00 20.00     0.039 C 
HETATM    6  N9  UNL     1     -35.373  12.650  -6.310  1.00 20.00    -0.145 NA
ENDROOT
BRANCH   5   7
HETATM    7  C8  UNL     1     -34.194  14.558  -4.227  1.00 20.00     0.036 C 
BRANCH   7   8
HETATM    8  C3  UNL     1     -33.966  15.775  -3.380  1.00 20.00    -0.036 C 
HETATM    9  C2  UNL     1     -34.914  16.356  -2.636  1.00 20.00     0.007 C 
ENDBRANCH   7   8
ENDBRANCH   5   7
BRANCH   6  10
HETATM   10  O10 UNL     1     -35.883  12.712  -5.012  1.00 20.00    -0.266 OA
HETATM   11  H23 UNL     1     -36.809  12.453  -5.155  1.00 20.00     0.247 HD
ENDBRANCH   6  10
TORSDOF 3
ENDMDL
MODEL 4
REMARK VINA RESULT:      -4.4     11.132     11.920
REMARK  3 active torsions:
REMARK  status: ('A' for Active; 'I' for Inactive)
REMARK    1  A    between atoms: C3_3  and  C8_8 
REMARK    2  A    between atoms: C7_7  and  C8_8 
REMARK    3  A    between atoms: N9_9  and  O10_10 
ROOT
HETATM    1  C1  UNL     1     -36.212  14.674  -4.422  1.00 20.00     0.043 C 
HETATM    2  C4  UNL     1     -36.955  15.935  -4.091  1.00 20.00     0.057 C 
HETATM    3  C5  UNL     1     -36.046  16.544  -3.033  1.00 20.00     0.006 C 
HETATM    4  C6  UNL     1     -34.642  16.124  -3.455  1.00 20.00     0.011 C 
HETATM    5  C7  UNL     1     -34.791  14.667  -3.908  1.00 20.00     0.039 C 
HETATM    6  N9  UNL     1     -36.766  13.700  -5.061  1.00 20.00    -0.145 NA
ENDROOT
BRANCH   5   7
HETATM    7  C8  UNL     1     -33.763  14.279  -4.953  1.00 20.00     0.036 C 
BRANCH   7   8
HETATM    8  C3  UNL     1     -33.415  15.440  -5.836  1.00 20.00    -0.036 C 
HETATM    9  C2  UNL     1     -33.778  15.539  -7.119  1.00 20.00     0.007 C 
ENDBRANCH   7   8
ENDBRANCH   5   7
BRANCH   6  10
HETATM   10  O10 UNL     1     -35.825  12.680  -5.214  1.00 20.00    -0.266 OA
HETATM   11  H23 UNL     1     -36.332  12.021  -5.716  1.00 20.00     0.247 HD
ENDBRANCH   6  10
TORSDOF 3
ENDMDL
MODEL 5
REMARK VINA RESULT:      -4.3     11.334     12.545
REMARK  3 active torsions:
REMARK  status: ('A' for Active; 'I' for Inactive)
REMARK    1  A    between atoms: C3_3  and  C8_8 
REMARK    2  A    between atoms: C7_7  and  C8_8 
REMARK    3  A    between atoms: N9_9  and  O10_10 
ROOT
HETATM    1  C1  UNL     1     -34.853  14.113  -4.992  1.00 20.00     0.043 C 
HETATM    2  C4  UNL     1     -34.968  15.029  -3.809  1.00 20.00     0.057 C 
HETATM    3  C5  UNL     1     -33.634  15.759  -3.870  1.00 20.00     0.006 C 
HETATM    4  C6  UNL     1     -33.322  15.852  -5.360  1.00 20.00     0.011 C 
HETATM    5  C7  UNL     1     -33.728  14.487  -5.928  1.00 20.00     0.039 C 
HETATM    6  N9  UNL     1     -35.635  13.100  -5.152  1.00 20.00    -0.145 NA
ENDROOT
BRANCH   5   7
HETATM    7  C8  UNL     1     -34.144  14.569  -7.385  1.00 20.00     0.036 C 
BRANCH   7   8
HETATM    8  C3  UNL     1     -34.891  15.838  -7.670  1.00 20.00    -0.036 C 
HETATM    9  C2  UNL     1     -36.208  15.894  -7.899  1.00 20.00     0.007 C 
ENDBRANCH   7   8
ENDBRANCH   5   7
BRANCH   6  10
HETATM   10  O10 UNL     1     -35.280  12.451  -6.336  1.00 20.00    -0.266 OA
HETATM   11  H23 UNL     1     -36.124  12.450  -6.818  1.00 20.00     0.247 HD
ENDBRANCH   6  10
TORSDOF 3
ENDMDL
MODEL 6
REMARK VINA RESULT:      -4.3     11.235     11.701
REMARK  3 active torsions:
REMARK  status: ('A' for Active; 'I' for Inactive)
REMARK    1  A    between atoms: C3_3  and  C8_8 
REMARK    2  A    between atoms: C7_7  and  C8_8 
REMARK    3  A    between atoms: N9_9  and  O10_10 
ROOT
HETATM    1  C1  UNL     1     -35.086  14.402  -5.042  1.00 20.00     0.043 C 
HETATM    2  C4  UNL     1     -36.411  14.483  -5.741  1.00 20.00     0.057 C 
HETATM    3  C5  UNL     1     -37.318  14.932  -4.603  1.00 20.00     0.006 C 
HETATM    4  C6  UNL     1     -36.427  15.817  -3.738  1.00 20.00     0.011 C 
HETATM    5  C7  UNL     1     -35.078  15.090  -3.697  1.00 20.00     0.039 C 
HETATM    6  N9  UNL     1     -34.080  13.776  -5.552  1.00 20.00    -0.145 NA
ENDROOT
BRANCH   5   7
HETATM    7  C8  UNL     1     -33.914  16.044  -3.504  1.00 20.00     0.036 C 
BRANCH   7   8
HETATM    8  C3  UNL     1     -34.017  16.776  -2.199  1.00 20.00    -0.036 C 
HETATM    9  C2  UNL     1     -33.121  17.673  -1.772  1.00 20.00     0.007 C 
ENDBRANCH   7   8
ENDBRANCH   5   7
BRANCH   6  10
HETATM   10  O10 UNL     1     -33.002  13.880  -4.671  1.00 20.00    -0.266 OA
HETATM   11  H23 UNL     1     -32.258  13.625  -5.242  1.00 20.00     0.247 HD
ENDBRANCH   6  10
TORSDOF 3
ENDMDL
MODEL 7
REMARK VINA RESULT:      -4.2     11.596     12.020
REMARK  3 active torsions:
REMARK  status: ('A' for Active; 'I' for Inactive)
REMARK    1  A    between atoms: C3_3  and  C8_8 
REMARK    2  A    between atoms: C7_7  and  C8_8 
REMARK    3  A    between atoms: N9_9  and  O10_10 
ROOT
HETATM    1  C1  UNL     1     -36.428  14.199  -5.224  1.00 20.00     0.043 C 
HETATM    2  C4  UNL     1     -35.677  13.295  -6.157  1.00 20.00     0.057 C 
HETATM    3  C5  UNL     1     -34.548  14.210  -6.610  1.00 20.00     0.006 C 
HETATM    4  C6  UNL     1     -34.264  15.088  -5.395  1.00 20.00     0.011 C 
HETATM    5  C7  UNL     1     -35.647  15.431  -4.832  1.00 20.00     0.039 C 
HETATM    6  N9  UNL     1     -37.629  13.936  -4.835  1.00 20.00    -0.145 NA
ENDROOT
BRANCH   5   7
HETATM    7  C8  UNL     1     -35.615  15.685  -3.336  1.00 20.00     0.036 C 
BRANCH   7   8
HETATM    8  C3  UNL     1     -34.303  16.274  -2.909  1.00 20.00    -0.036 C 
HETATM    9  C2  UNL     1     -34.140  17.019  -1.810  1.00 20.00     0.007 C 
ENDBRANCH   7   8
ENDBRANCH   5   7
BRANCH   6  10
HETATM   10  O10 UNL     1     -38.050  14.956  -3.980  1.00 20.00    -0.266 OA
HETATM   11  H23 UNL     1     -37.268  15.069  -3.413  1.00 20.00     0.247 HD
ENDBRANCH   6  10
TORSDOF 3
ENDMDL
MODEL 8
REMARK VINA RESULT:      -4.2      2.065      2.906
REMARK  3 active torsions:
REMARK  status: ('A' for Active; 'I' for Inactive)
REMARK    1  A    between atoms: C3_3  and  C8_8 
REMARK    2  A    between atoms: C7_7  and  C8_8 
REMARK    3  A    between atoms: N9_9  and  O10_10 
ROOT
HETATM    1  C1  UNL     1     -33.319   7.330   4.354  1.00 20.00     0.043 C 
HETATM    2  C4  UNL     1     -33.292   7.048   5.828  1.00 20.00     0.057 C 
HETATM    3  C5  UNL     1     -34.636   6.360   6.023  1.00 20.00     0.006 C 
HETATM    4  C6  UNL     1     -34.864   5.602   4.719  1.00 20.00     0.011 C 
HETATM    5  C7  UNL     1     -34.398   6.567   3.622  1.00 20.00     0.039 C 
HETATM    6  N9  UNL     1     -32.508   8.167   3.803  1.00 20.00    -0.145 NA
ENDROOT
BRANCH   5   7
HETATM    7  C8  UNL     1     -33.901   5.839   2.387  1.00 20.00     0.036 C 
BRANCH   7   8
HETATM    8  C3  UNL     1     -32.985   4.708   2.749  1.00 20.00    -0.036 C 
HETATM    9  C2  UNL     1     -32.615   3.745   1.898  1.00 20.00     0.007 C 
ENDBRANCH   7   8
ENDBRANCH   5   7
BRANCH   6  10
HETATM   10  O10 UNL     1     -32.781   8.209   2.434  1.00 20.00    -0.266 OA
HETATM   11  H23 UNL     1     -32.012   8.698   2.097  1.00 20.00     0.247 HD
ENDBRANCH   6  10
TORSDOF 3
ENDMDL
MODEL 9
REMARK VINA RESULT:      -4.1      1.310      3.523
REMARK  3 active torsions:
REMARK  status: ('A' for Active; 'I' for Inactive)
REMARK    1  A    between atoms: C3_3  and  C8_8 
REMARK    2  A    between atoms: C7_7  and  C8_8 
REMARK    3  A    between atoms: N9_9  and  O10_10 
ROOT
HETATM    1  C1  UNL     1     -32.760   7.734   4.349  1.00 20.00     0.043 C 
HETATM    2  C4  UNL     1     -31.957   8.647   3.469  1.00 20.00     0.057 C 
HETATM    3  C5  UNL     1     -31.749   7.769   2.243  1.00 20.00     0.006 C 
HETATM    4  C6  UNL     1     -33.020   6.930   2.160  1.00 20.00     0.011 C 
HETATM    5  C7  UNL     1     -33.327   6.543   3.611  1.00 20.00     0.039 C 
HETATM    6  N9  UNL     1     -32.912   7.957   5.610  1.00 20.00    -0.145 NA
ENDROOT
BRANCH   5   7
HETATM    7  C8  UNL     1     -34.809   6.324   3.849  1.00 20.00     0.036 C 
BRANCH   7   8
HETATM    8  C3  UNL     1     -35.081   4.944   4.371  1.00 20.00    -0.036 C 
HETATM    9  C2  UNL     1     -34.172   3.964   4.403  1.00 20.00     0.007 C 
ENDBRANCH   7   8
ENDBRANCH   5   7
BRANCH   6  10
HETATM   10  O10 UNL     1     -33.703   6.939   6.146  1.00 20.00    -0.266 OA
HETATM   11  H23 UNL     1     -33.989   6.472   5.343  1.00 20.00     0.247 HD
ENDBRANCH   6  10
TORSDOF 3
ENDMDL
