MODEL 1
REMARK VINA RESULT:      -4.3      0.000      0.000
REMARK  3 active torsions:
REMARK  status: ('A' for Active; 'I' for Inactive)
REMARK    1  A    between atoms: C3_3  and  C6_6 
REMARK    2  A    between atoms: C4_4  and  C7_7 
REMARK    3  A    between atoms: C5_5  and  C8_8 
ROOT
HETATM    1  C1  UNL     1     -35.383   5.954   3.798  1.00 20.00     0.012 C 
HETATM    2  C2  UNL     1     -34.397   6.532   5.851  1.00 20.00     0.012 C 
HETATM    3  C3  UNL     1     -34.506   7.046   4.414  1.00 20.00    -0.005 C 
HETATM    4  C4  UNL     1     -34.355   4.860   4.060  1.00 20.00     0.022 C 
HETATM    5  C5  UNL     1     -33.697   5.244   5.428  1.00 20.00     0.022 C 
ENDROOT
BRANCH   3   6
HETATM    6  C6  UNL     1     -33.102   6.721   3.830  1.00 20.00     0.048 C 
HETATM    7  C7  UNL     1     -32.203   7.953   4.131  1.00 20.00     0.133 C 
HETATM    8  O9  UNL     1     -31.679   7.886   2.768  1.00 20.00    -0.379 OA
HETATM    9  C8  UNL     1     -33.027   7.421   2.443  1.00 20.00     0.133 C 
ENDBRANCH   3   6
TORSDOF 3
ENDMDL
MODEL 2
REMARK VINA RESULT:      -4.0      1.387      1.839
REMARK  3 active torsions:
REMARK  status: ('A' for Active; 'I' for Inactive)
REMARK    1  A    between atoms: C3_3  and  C6_6 
REMARK    2  A    between atoms: C4_4  and  C7_7 
REMARK    3  A    between atoms: C5_5  and  C8_8 
ROOT
HETATM    1  C1  UNL     1     -34.388   5.787   2.463  1.00 20.00     0.012 C 
HETATM    2  C2  UNL     1     -35.310   4.907   4.437  1.00 20.00     0.012 C 
HETATM    3  C3  UNL     1     -34.807   6.234   3.865  1.00 20.00    -0.005 C 
HETATM    4  C4  UNL     1     -33.332   4.822   2.993  1.00 20.00     0.022 C 
HETATM    5  C5  UNL     1     -33.947   4.235   4.308  1.00 20.00     0.022 C 
ENDROOT
BRANCH   3   6
HETATM    6  C6  UNL     1     -33.440   6.416   4.585  1.00 20.00     0.048 C 
HETATM    7  C7  UNL     1     -33.695   7.380   5.779  1.00 20.00     0.133 C 
HETATM    8  O9  UNL     1     -32.473   8.105   5.434  1.00 20.00    -0.379 OA
HETATM    9  C8  UNL     1     -32.840   7.752   4.063  1.00 20.00     0.133 C 
ENDBRANCH   3   6
TORSDOF 3
ENDMDL
MODEL 3
REMARK VINA RESULT:      -3.8     11.593     12.369
REMARK  3 active torsions:
REMARK  status: ('A' for Active; 'I' for Inactive)
REMARK    1  A    between atoms: C3_3  and  C6_6 
REMARK    2  A    between atoms: C4_4  and  C7_7 
REMARK    3  A    between atoms: C5_5  and  C8_8 
ROOT
HETATM    1  C1  UNL     1     -35.802  17.154  -2.984  1.00 20.00     0.012 C 
HETATM    2  C2  UNL     1     -33.611  17.893  -3.401  1.00 20.00     0.012 C 
HETATM    3  C3  UNL     1     -34.647  16.916  -3.959  1.00 20.00    -0.005 C 
HETATM    4  C4  UNL     1     -34.995  16.685  -1.779  1.00 20.00     0.022 C 
HETATM    5  C5  UNL     1     -33.535  17.178  -2.056  1.00 20.00     0.022 C 
ENDROOT
BRANCH   3   6
HETATM    6  C6  UNL     1     -34.095  15.537  -3.499  1.00 20.00     0.048 C 
HETATM    7  C7  UNL     1     -33.079  15.083  -4.585  1.00 20.00     0.133 C 
HETATM    8  O9  UNL     1     -33.656  13.740  -4.542  1.00 20.00    -0.379 OA
HETATM    9  C8  UNL     1     -34.902  14.457  -4.274  1.00 20.00     0.133 C 
ENDBRANCH   3   6
TORSDOF 3
ENDMDL
MODEL 4
REMARK VINA RESULT:      -3.8     12.008     13.004
REMARK  3 active torsions:
REMARK  status: ('A' for Active; 'I' for Inactive)
REMARK    1  A    between atoms: C3_3  and  C6_6 
REMARK    2  A    between atoms: C4_4  and  C7_7 
REMARK    3  A    between atoms: C5_5  and  C8_8 
ROOT
HETATM    1  C1  UNL     1     -35.276  16.066  -4.395  1.00 20.00     0.012 C 
HETATM    2  C2  UNL     1     -33.685  16.380  -6.096  1.00 20.00     0.012 C 
HETATM    3  C3  UNL     1     -35.009  15.655  -5.845  1.00 20.00    -0.005 C 
HETATM    4  C4  UNL     1     -34.012  15.388  -3.880  1.00 20.00     0.022 C 
HETATM    5  C5  UNL     1     -32.952  15.598  -5.012  1.00 20.00     0.022 C 
ENDROOT
BRANCH   3   6
HETATM    6  C6  UNL     1     -34.561  14.174  -5.699  1.00 20.00     0.048 C 
HETATM    7  C7  UNL     1     -34.567  13.567  -7.131  1.00 20.00     0.133 C 
HETATM    8  O9  UNL     1     -35.225  12.372  -6.606  1.00 20.00    -0.379 OA
HETATM    9  C8  UNL     1     -35.859  13.318  -5.688  1.00 20.00     0.133 C 
ENDBRANCH   3   6
TORSDOF 3
ENDMDL
MODEL 5
REMARK VINA RESULT:      -3.7     11.654     12.583
REMARK  3 active torsions:
REMARK  status: ('A' for Active; 'I' for Inactive)
REMARK    1  A    between atoms: C3_3  and  C6_6 
REMARK    2  A    between atoms: C4_4  and  C7_7 
REMARK    3  A    between atoms: C5_5  and  C8_8 
ROOT
HETATM    1  C1  UNL     1     -33.073  14.472  -4.500  1.00 20.00     0.012 C 
HETATM    2  C2  UNL     1     -34.302  16.123  -3.366  1.00 20.00     0.012 C 
HETATM    3  C3  UNL     1     -34.435  14.672  -3.833  1.00 20.00    -0.005 C 
HETATM    4  C4  UNL     1     -33.328  15.556  -5.541  1.00 20.00     0.022 C 
HETATM    5  C5  UNL     1     -34.146  16.656  -4.786  1.00 20.00     0.022 C 
ENDROOT
BRANCH   3   6
HETATM    6  C6  UNL     1     -35.394  14.795  -5.051  1.00 20.00     0.048 C 
HETATM    7  C7  UNL     1     -36.836  14.859  -4.473  1.00 20.00     0.133 C 
HETATM    8  O9  UNL     1     -37.273  13.914  -5.501  1.00 20.00    -0.379 OA
HETATM    9  C8  UNL     1     -35.927  13.364  -5.341  1.00 20.00     0.133 C 
ENDBRANCH   3   6
TORSDOF 3
ENDMDL
MODEL 6
REMARK VINA RESULT:      -3.7     11.517     12.362
REMARK  3 active torsions:
REMARK  status: ('A' for Active; 'I' for Inactive)
REMARK    1  A    between atoms: C3_3  and  C6_6 
REMARK    2  A    between atoms: C4_4  and  C7_7 
REMARK    3  A    between atoms: C5_5  and  C8_8 
ROOT
HETATM    1  C1  UNL     1     -33.139  15.947  -5.164  1.00 20.00     0.012 C 
HETATM    2  C2  UNL     1     -35.398  15.341  -4.933  1.00 20.00     0.012 C 
HETATM    3  C3  UNL     1     -34.417  16.417  -4.465  1.00 20.00    -0.005 C 
HETATM    4  C4  UNL     1     -33.114  14.621  -4.413  1.00 20.00     0.022 C 
HETATM    5  C5  UNL     1     -34.619  14.216  -4.260  1.00 20.00     0.022 C 
ENDROOT
BRANCH   3   6
HETATM    6  C6  UNL     1     -34.159  16.018  -2.984  1.00 20.00     0.048 C 
HETATM    7  C7  UNL     1     -35.311  16.648  -2.150  1.00 20.00     0.133 C 
HETATM    8  O9  UNL     1     -34.332  17.082  -1.154  1.00 20.00    -0.379 OA
HETATM    9  C8  UNL     1     -33.455  17.233  -2.315  1.00 20.00     0.133 C 
ENDBRANCH   3   6
TORSDOF 3
ENDMDL
MODEL 7
REMARK VINA RESULT:      -3.6     11.921     12.794
REMARK  3 active torsions:
REMARK  status: ('A' for Active; 'I' for Inactive)
REMARK    1  A    between atoms: C3_3  and  C6_6 
REMARK    2  A    between atoms: C4_4  and  C7_7 
REMARK    3  A    between atoms: C5_5  and  C8_8 
ROOT
HETATM    1  C1  UNL     1     -34.634  16.880  -4.429  1.00 20.00     0.012 C 
HETATM    2  C2  UNL     1     -33.558  15.230  -5.711  1.00 20.00     0.012 C 
HETATM    3  C3  UNL     1     -34.952  15.818  -5.483  1.00 20.00    -0.005 C 
HETATM    4  C4  UNL     1     -34.147  15.850  -3.415  1.00 20.00     0.022 C 
HETATM    5  C5  UNL     1     -33.430  14.752  -4.269  1.00 20.00     0.022 C 
ENDROOT
BRANCH   3   6
HETATM    6  C6  UNL     1     -35.653  14.710  -4.647  1.00 20.00     0.048 C 
HETATM    7  C7  UNL     1     -36.269  13.710  -5.666  1.00 20.00     0.133 C 
HETATM    8  O9  UNL     1     -37.498  13.683  -4.874  1.00 20.00    -0.379 OA
HETATM    9  C8  UNL     1     -37.163  15.081  -4.600  1.00 20.00     0.133 C 
ENDBRANCH   3   6
TORSDOF 3
ENDMDL
MODEL 8
REMARK VINA RESULT:      -3.6      2.151      3.428
REMARK  3 active torsions:
REMARK  status: ('A' for Active; 'I' for Inactive)
REMARK    1  A    between atoms: C3_3  and  C6_6 
REMARK    2  A    between atoms: C4_4  and  C7_7 
REMARK    3  A    between atoms: C5_5  and  C8_8 
ROOT
HETATM    1  C1  UNL     1     -33.681   7.880   3.253  1.00 20.00     0.012 C 
HETATM    2  C2  UNL     1     -34.260   5.894   2.139  1.00 20.00     0.012 C 
HETATM    3  C3  UNL     1     -34.577   6.653   3.429  1.00 20.00    -0.005 C 
HETATM    4  C4  UNL     1     -32.402   7.052   3.239  1.00 20.00     0.022 C 
HETATM    5  C5  UNL     1     -32.787   5.728   2.497  1.00 20.00     0.022 C 
ENDROOT
BRANCH   3   6
HETATM    6  C6  UNL     1     -33.813   5.828   4.503  1.00 20.00     0.048 C 
HETATM    7  C7  UNL     1     -34.677   4.567   4.790  1.00 20.00     0.133 C 
HETATM    8  O9  UNL     1     -34.452   4.757   6.223  1.00 20.00    -0.379 OA
HETATM    9  C8  UNL     1     -34.460   6.178   5.873  1.00 20.00     0.133 C 
ENDBRANCH   3   6
TORSDOF 3
ENDMDL
MODEL 9
REMARK VINA RESULT:      -3.6      1.981      3.177
REMARK  3 active torsions:
REMARK  status: ('A' for Active; 'I' for Inactive)
REMARK    1  A    between atoms: C3_3  and  C6_6 
REMARK    2  A    between atoms: C4_4  and  C7_7 
REMARK    3  A    between atoms: C5_5  and  C8_8 
ROOT
HETATM    1  C1  UNL     1     -33.157   5.254   2.622  1.00 20.00     0.012 C 
HETATM    2  C2  UNL     1     -32.259   7.395   2.985  1.00 20.00     0.012 C 
HETATM    3  C3  UNL     1     -32.689   6.153   3.769  1.00 20.00    -0.005 C 
HETATM    4  C4  UNL     1     -34.260   6.219   2.203  1.00 20.00     0.022 C 
HETATM    5  C5  UNL     1     -33.662   7.645   2.444  1.00 20.00     0.022 C 
ENDROOT
BRANCH   3   6
HETATM    6  C6  UNL     1     -34.030   6.607   4.412  1.00 20.00     0.048 C 
HETATM    7  C7  UNL     1     -33.672   7.211   5.799  1.00 20.00     0.133 C 
HETATM    8  O9  UNL     1     -34.794   6.483   6.390  1.00 20.00    -0.379 OA
HETATM    9  C8  UNL     1     -34.459   5.473   5.386  1.00 20.00     0.133 C 
ENDBRANCH   3   6
TORSDOF 3
ENDMDL
