MODEL 1
REMARK VINA RESULT:      -4.7      0.000      0.000
REMARK  1 active torsions:
REMARK  status: ('A' for Active; 'I' for Inactive)
REMARK    1  A    between atoms: C10_10  and  O12_12 
ROOT
HETATM    1  C1  UNL     1     -34.188  16.550  -4.512  1.00 20.00     0.005 C 
HETATM    2  C2  UNL     1     -34.989  15.562  -3.654  1.00 20.00     0.005 C 
HETATM    3  C3  UNL     1     -35.204  15.655  -7.268  1.00 20.00     0.008 C 
HETATM    4  C4  UNL     1     -36.550  15.419  -6.591  1.00 20.00     0.033 C 
HETATM    5  C5  UNL     1     -33.021  14.495  -4.412  1.00 20.00     0.010 C 
HETATM    6  C6  UNL     1     -33.336  15.628  -5.399  1.00 20.00    -0.010 C 
HETATM    7  C7  UNL     1     -34.503  14.191  -4.153  1.00 20.00    -0.007 C 
HETATM    8  C8  UNL     1     -34.178  14.871  -6.452  1.00 20.00    -0.004 C 
HETATM    9  C9  UNL     1     -34.973  13.864  -5.590  1.00 20.00     0.023 C 
HETATM   10  C10 UNL     1     -36.435  14.020  -5.998  1.00 20.00     0.125 C 
ENDROOT
BRANCH  10  11
HETATM   11  O12 UNL     1     -37.324  13.812  -4.921  1.00 20.00    -0.390 OA
HETATM   12  C11 UNL     1     -38.424  14.716  -4.958  1.00 20.00     0.202 C 
ENDBRANCH  10  11
TORSDOF 1
ENDMDL
MODEL 2
REMARK VINA RESULT:      -4.6      0.961      1.103
REMARK  1 active torsions:
REMARK  status: ('A' for Active; 'I' for Inactive)
REMARK    1  A    between atoms: C10_10  and  O12_12 
ROOT
HETATM    1  C1  UNL     1     -34.549  16.871  -5.596  1.00 20.00     0.005 C 
HETATM    2  C2  UNL     1     -35.583  16.604  -4.493  1.00 20.00     0.005 C 
HETATM    3  C3  UNL     1     -34.742  14.168  -7.037  1.00 20.00     0.008 C 
HETATM    4  C4  UNL     1     -36.230  14.205  -6.708  1.00 20.00     0.033 C 
HETATM    5  C5  UNL     1     -33.501  15.711  -3.821  1.00 20.00     0.010 C 
HETATM    6  C6  UNL     1     -33.495  15.779  -5.354  1.00 20.00    -0.010 C 
HETATM    7  C7  UNL     1     -35.000  15.389  -3.754  1.00 20.00    -0.007 C 
HETATM    8  C8  UNL     1     -34.011  14.366  -5.711  1.00 20.00    -0.004 C 
HETATM    9  C9  UNL     1     -35.041  14.088  -4.592  1.00 20.00     0.023 C 
HETATM   10  C10 UNL     1     -36.319  13.641  -5.295  1.00 20.00     0.125 C 
ENDROOT
BRANCH  10  11
HETATM   11  O12 UNL     1     -37.486  14.058  -4.617  1.00 20.00    -0.390 OA
HETATM   12  C11 UNL     1     -38.457  14.593  -5.511  1.00 20.00     0.202 C 
ENDBRANCH  10  11
TORSDOF 1
ENDMDL
MODEL 3
REMARK VINA RESULT:      -4.5      1.546      2.461
REMARK  1 active torsions:
REMARK  status: ('A' for Active; 'I' for Inactive)
REMARK    1  A    between atoms: C10_10  and  O12_12 
ROOT
HETATM    1  C1  UNL     1     -35.604  17.674  -4.148  1.00 20.00     0.005 C 
HETATM    2  C2  UNL     1     -35.843  16.391  -3.341  1.00 20.00     0.005 C 
HETATM    3  C3  UNL     1     -33.731  16.505  -6.282  1.00 20.00     0.008 C 
HETATM    4  C4  UNL     1     -34.580  15.241  -6.199  1.00 20.00     0.033 C 
HETATM    5  C5  UNL     1     -33.829  17.389  -2.611  1.00 20.00     0.010 C 
HETATM    6  C6  UNL     1     -34.082  17.870  -4.046  1.00 20.00    -0.010 C 
HETATM    7  C7  UNL     1     -34.430  16.001  -2.877  1.00 20.00    -0.007 C 
HETATM    8  C8  UNL     1     -33.292  16.812  -4.852  1.00 20.00    -0.004 C 
HETATM    9  C9  UNL     1     -33.518  15.522  -4.031  1.00 20.00     0.023 C 
HETATM   10  C10 UNL     1     -33.992  14.466  -5.025  1.00 20.00     0.125 C 
ENDROOT
BRANCH  10  11
HETATM   11  O12 UNL     1     -34.913  13.560  -4.457  1.00 20.00    -0.390 OA
HETATM   12  C11 UNL     1     -36.043  13.352  -5.300  1.00 20.00     0.202 C 
ENDBRANCH  10  11
TORSDOF 1
ENDMDL
MODEL 4
REMARK VINA RESULT:      -4.3      1.711      2.521
REMARK  1 active torsions:
REMARK  status: ('A' for Active; 'I' for Inactive)
REMARK    1  A    between atoms: C10_10  and  O12_12 
ROOT
HETATM    1  C1  UNL     1     -36.007  16.786  -4.341  1.00 20.00     0.005 C 
HETATM    2  C2  UNL     1     -35.867  15.273  -4.131  1.00 20.00     0.005 C 
HETATM    3  C3  UNL     1     -33.981  17.097  -6.627  1.00 20.00     0.008 C 
HETATM    4  C4  UNL     1     -34.464  15.735  -7.114  1.00 20.00     0.033 C 
HETATM    5  C5  UNL     1     -34.159  16.373  -2.924  1.00 20.00     0.010 C 
HETATM    6  C6  UNL     1     -34.588  17.308  -4.064  1.00 20.00    -0.010 C 
HETATM    7  C7  UNL     1     -34.384  15.106  -3.761  1.00 20.00    -0.007 C 
HETATM    8  C8  UNL     1     -33.581  16.905  -5.166  1.00 20.00    -0.004 C 
HETATM    9  C9  UNL     1     -33.426  15.383  -4.944  1.00 20.00     0.023 C 
HETATM   10  C10 UNL     1     -33.646  14.733  -6.307  1.00 20.00     0.125 C 
ENDROOT
BRANCH  10  11
HETATM   11  O12 UNL     1     -34.273  13.472  -6.212  1.00 20.00    -0.390 OA
HETATM   12  C11 UNL     1     -35.180  13.247  -7.287  1.00 20.00     0.202 C 
ENDBRANCH  10  11
TORSDOF 1
ENDMDL
MODEL 5
REMARK VINA RESULT:      -4.2      1.148      2.162
REMARK  1 active torsions:
REMARK  status: ('A' for Active; 'I' for Inactive)
REMARK    1  A    between atoms: C10_10  and  O12_12 
ROOT
HETATM    1  C1  UNL     1     -34.784  17.870  -4.345  1.00 20.00     0.005 C 
HETATM    2  C2  UNL     1     -35.988  17.044  -3.874  1.00 20.00     0.005 C 
HETATM    3  C3  UNL     1     -33.242  15.624  -5.760  1.00 20.00     0.008 C 
HETATM    4  C4  UNL     1     -34.604  15.081  -6.179  1.00 20.00     0.033 C 
HETATM    5  C5  UNL     1     -34.234  16.797  -2.310  1.00 20.00     0.010 C 
HETATM    6  C6  UNL     1     -33.598  17.179  -3.654  1.00 20.00    -0.010 C 
HETATM    7  C7  UNL     1     -35.349  15.975  -2.972  1.00 20.00    -0.007 C 
HETATM    8  C8  UNL     1     -33.299  15.781  -4.242  1.00 20.00    -0.004 C 
HETATM    9  C9  UNL     1     -34.503  14.943  -3.755  1.00 20.00     0.023 C 
HETATM   10  C10 UNL     1     -35.058  14.241  -4.991  1.00 20.00     0.125 C 
ENDROOT
BRANCH  10  11
HETATM   11  O12 UNL     1     -36.460  14.084  -4.942  1.00 20.00    -0.390 OA
HETATM   12  C11 UNL     1     -37.070  14.353  -6.201  1.00 20.00     0.202 C 
ENDBRANCH  10  11
TORSDOF 1
ENDMDL
MODEL 6
REMARK VINA RESULT:      -4.2      1.700      3.372
REMARK  1 active torsions:
REMARK  status: ('A' for Active; 'I' for Inactive)
REMARK    1  A    between atoms: C10_10  and  O12_12 
ROOT
HETATM    1  C1  UNL     1     -35.864  15.490  -7.260  1.00 20.00     0.005 C 
HETATM    2  C2  UNL     1     -34.410  15.614  -6.784  1.00 20.00     0.005 C 
HETATM    3  C3  UNL     1     -37.169  14.938  -4.536  1.00 20.00     0.008 C 
HETATM    4  C4  UNL     1     -36.141  15.902  -3.954  1.00 20.00     0.033 C 
HETATM    5  C5  UNL     1     -34.916  13.328  -7.105  1.00 20.00     0.010 C 
HETATM    6  C6  UNL     1     -36.242  14.058  -6.849  1.00 20.00    -0.010 C 
HETATM    7  C7  UNL     1     -34.130  14.240  -6.153  1.00 20.00    -0.007 C 
HETATM    8  C8  UNL     1     -36.373  13.894  -5.317  1.00 20.00    -0.004 C 
HETATM    9  C9  UNL     1     -34.908  14.003  -4.837  1.00 20.00     0.023 C 
HETATM   10  C10 UNL     1     -34.905  15.041  -3.719  1.00 20.00     0.125 C 
ENDROOT
BRANCH  10  11
HETATM   11  O12 UNL     1     -33.714  15.798  -3.685  1.00 20.00    -0.390 OA
HETATM   12  C11 UNL     1     -33.741  16.785  -2.658  1.00 20.00     0.202 C 
ENDBRANCH  10  11
TORSDOF 1
ENDMDL
MODEL 7
REMARK VINA RESULT:      -4.1      1.917      3.318
REMARK  1 active torsions:
REMARK  status: ('A' for Active; 'I' for Inactive)
REMARK    1  A    between atoms: C10_10  and  O12_12 
ROOT
HETATM    1  C1  UNL     1     -34.104  14.176  -4.057  1.00 20.00     0.005 C 
HETATM    2  C2  UNL     1     -35.502  14.470  -4.616  1.00 20.00     0.005 C 
HETATM    3  C3  UNL     1     -33.736  16.751  -2.427  1.00 20.00     0.008 C 
HETATM    4  C4  UNL     1     -35.228  16.661  -2.125  1.00 20.00     0.033 C 
HETATM    5  C5  UNL     1     -33.894  15.519  -5.994  1.00 20.00     0.010 C 
HETATM    6  C6  UNL     1     -33.259  15.337  -4.607  1.00 20.00    -0.010 C 
HETATM    7  C7  UNL     1     -35.294  15.766  -5.416  1.00 20.00    -0.007 C 
HETATM    8  C8  UNL     1     -33.609  16.691  -3.947  1.00 20.00    -0.004 C 
HETATM    9  C9  UNL     1     -35.011  16.996  -4.522  1.00 20.00     0.023 C 
HETATM   10  C10 UNL     1     -35.897  17.323  -3.324  1.00 20.00     0.125 C 
ENDROOT
BRANCH  10  11
HETATM   11  O12 UNL     1     -37.232  16.898  -3.504  1.00 20.00    -0.390 OA
HETATM   12  C11 UNL     1     -38.160  17.955  -3.283  1.00 20.00     0.202 C 
ENDBRANCH  10  11
TORSDOF 1
ENDMDL
MODEL 8
REMARK VINA RESULT:      -4.1      1.974      3.858
REMARK  1 active torsions:
REMARK  status: ('A' for Active; 'I' for Inactive)
REMARK    1  A    between atoms: C10_10  and  O12_12 
ROOT
HETATM    1  C1  UNL     1     -35.988  14.828  -6.742  1.00 20.00     0.005 C 
HETATM    2  C2  UNL     1     -35.458  16.216  -7.122  1.00 20.00     0.005 C 
HETATM    3  C3  UNL     1     -34.442  14.477  -4.112  1.00 20.00     0.008 C 
HETATM    4  C4  UNL     1     -34.646  15.973  -3.903  1.00 20.00     0.033 C 
HETATM    5  C5  UNL     1     -33.912  14.584  -7.851  1.00 20.00     0.010 C 
HETATM    6  C6  UNL     1     -34.712  13.971  -6.692  1.00 20.00    -0.010 C 
HETATM    7  C7  UNL     1     -33.941  15.992  -7.241  1.00 20.00    -0.007 C 
HETATM    8  C8  UNL     1     -33.804  14.327  -5.492  1.00 20.00    -0.004 C 
HETATM    9  C9  UNL     1     -33.257  15.719  -5.881  1.00 20.00     0.023 C 
HETATM   10  C10 UNL     1     -33.504  16.622  -4.676  1.00 20.00     0.125 C 
ENDROOT
BRANCH  10  11
HETATM   11  O12 UNL     1     -33.787  17.955  -5.046  1.00 20.00    -0.390 OA
HETATM   12  C11 UNL     1     -33.235  18.891  -4.125  1.00 20.00     0.202 C 
ENDBRANCH  10  11
TORSDOF 1
ENDMDL
MODEL 9
REMARK VINA RESULT:      -4.1      1.933      2.996
REMARK  1 active torsions:
REMARK  status: ('A' for Active; 'I' for Inactive)
REMARK    1  A    between atoms: C10_10  and  O12_12 
ROOT
HETATM    1  C1  UNL     1     -34.203  18.677  -3.019  1.00 20.00     0.005 C 
HETATM    2  C2  UNL     1     -35.692  18.339  -2.867  1.00 20.00     0.005 C 
HETATM    3  C3  UNL     1     -33.399  16.309  -4.800  1.00 20.00     0.008 C 
HETATM    4  C4  UNL     1     -34.770  16.456  -5.453  1.00 20.00     0.033 C 
HETATM    5  C5  UNL     1     -34.462  17.110  -1.266  1.00 20.00     0.010 C 
HETATM    6  C6  UNL     1     -33.505  17.446  -2.417  1.00 20.00    -0.010 C 
HETATM    7  C7  UNL     1     -35.670  16.954  -2.200  1.00 20.00    -0.007 C 
HETATM    8  C8  UNL     1     -33.657  16.186  -3.300  1.00 20.00    -0.004 C 
HETATM    9  C9  UNL     1     -35.154  15.835  -3.135  1.00 20.00     0.023 C 
HETATM   10  C10 UNL     1     -35.707  15.666  -4.547  1.00 20.00     0.125 C 
ENDROOT
BRANCH  10  11
HETATM   11  O12 UNL     1     -37.050  16.086  -4.657  1.00 20.00    -0.390 OA
HETATM   12  C11 UNL     1     -37.959  14.995  -4.551  1.00 20.00     0.202 C 
ENDBRANCH  10  11
TORSDOF 1
ENDMDL
