MODEL 1
REMARK VINA RESULT:      -5.3      0.000      0.000
REMARK  3 active torsions:
REMARK  status: ('A' for Active; 'I' for Inactive)
REMARK    1  A    between atoms: C2_2  and  C7_7 
REMARK    2  A    between atoms: C3_3  and  C8_8 
REMARK    3  A    between atoms: C8_8  and  C9_9 
ROOT
HETATM    1  C1  UNL     1     -33.671   7.268   5.363  1.00 20.00     0.095 C 
HETATM    2  C2  UNL     1     -33.903   6.574   4.130  1.00 20.00     0.024 C 
HETATM    3  C3  UNL     1     -33.198   6.899   3.017  1.00 20.00    -0.067 C 
HETATM    4  C4  UNL     1     -33.376   6.219   1.676  1.00 20.00     0.044 C 
HETATM    5  N10 UNL     1     -33.495   7.821   6.368  1.00 20.00    -0.192 NA
ENDROOT
BRANCH   2   6
HETATM    6  C7  UNL     1     -34.992   5.518   4.161  1.00 20.00     0.046 C 
HETATM    7  C5  UNL     1     -34.515   4.222   4.802  1.00 20.00     0.011 C 
ENDBRANCH   2   6
BRANCH   3   8
HETATM    8  C8  UNL     1     -32.167   8.016   2.982  1.00 20.00     0.034 C 
BRANCH   8   9
HETATM    9  C9  UNL     1     -31.874   8.488   1.556  1.00 20.00    -0.000 C 
HETATM   10  C6  UNL     1     -32.517   9.837   1.276  1.00 20.00     0.005 C 
ENDBRANCH   8   9
ENDBRANCH   3   8
TORSDOF 3
ENDMDL
MODEL 2
REMARK VINA RESULT:      -4.6      1.824      2.494
REMARK  3 active torsions:
REMARK  status: ('A' for Active; 'I' for Inactive)
REMARK    1  A    between atoms: C2_2  and  C7_7 
REMARK    2  A    between atoms: C3_3  and  C8_8 
REMARK    3  A    between atoms: C8_8  and  C9_9 
ROOT
HETATM    1  C1  UNL     1     -34.094   6.401   3.181  1.00 20.00     0.095 C 
HETATM    2  C2  UNL     1     -33.279   7.231   4.019  1.00 20.00     0.024 C 
HETATM    3  C3  UNL     1     -32.308   8.009   3.479  1.00 20.00    -0.067 C 
HETATM    4  C4  UNL     1     -31.403   8.914   4.289  1.00 20.00     0.044 C 
HETATM    5  N10 UNL     1     -34.761   5.725   2.514  1.00 20.00    -0.192 NA
ENDROOT
BRANCH   2   6
HETATM    6  C7  UNL     1     -33.553   7.135   5.509  1.00 20.00     0.046 C 
HETATM    7  C5  UNL     1     -34.453   5.955   5.852  1.00 20.00     0.011 C 
ENDBRANCH   2   6
BRANCH   3   8
HETATM    8  C8  UNL     1     -31.991   8.031   1.993  1.00 20.00     0.034 C 
BRANCH   8   9
HETATM    9  C9  UNL     1     -32.193   9.418   1.379  1.00 20.00    -0.000 C 
HETATM   10  C6  UNL     1     -32.830   9.327   0.001  1.00 20.00     0.005 C 
ENDBRANCH   8   9
ENDBRANCH   3   8
TORSDOF 3
ENDMDL
MODEL 3
REMARK VINA RESULT:      -4.6      1.832      4.657
REMARK  3 active torsions:
REMARK  status: ('A' for Active; 'I' for Inactive)
REMARK    1  A    between atoms: C2_2  and  C7_7 
REMARK    2  A    between atoms: C3_3  and  C8_8 
REMARK    3  A    between atoms: C8_8  and  C9_9 
ROOT
HETATM    1  C1  UNL     1     -33.513   6.460   2.485  1.00 20.00     0.095 C 
HETATM    2  C2  UNL     1     -33.057   7.189   3.632  1.00 20.00     0.024 C 
HETATM    3  C3  UNL     1     -33.678   7.044   4.830  1.00 20.00    -0.067 C 
HETATM    4  C4  UNL     1     -33.262   7.773   6.090  1.00 20.00     0.044 C 
HETATM    5  N10 UNL     1     -33.872   5.876   1.549  1.00 20.00    -0.192 NA
ENDROOT
BRANCH   2   6
HETATM    6  C7  UNL     1     -31.894   8.135   3.393  1.00 20.00     0.046 C 
HETATM    7  C5  UNL     1     -31.956   8.782   2.016  1.00 20.00     0.011 C 
ENDBRANCH   2   6
BRANCH   3   8
HETATM    8  C8  UNL     1     -34.893   6.154   5.034  1.00 20.00     0.034 C 
BRANCH   8   9
HETATM    9  C9  UNL     1     -34.518   4.785   5.608  1.00 20.00    -0.000 C 
HETATM   10  C6  UNL     1     -34.168   3.799   4.505  1.00 20.00     0.005 C 
ENDBRANCH   8   9
ENDBRANCH   3   8
TORSDOF 3
ENDMDL
MODEL 4
REMARK VINA RESULT:      -4.6      2.012      2.564
REMARK  3 active torsions:
REMARK  status: ('A' for Active; 'I' for Inactive)
REMARK    1  A    between atoms: C2_2  and  C7_7 
REMARK    2  A    between atoms: C3_3  and  C8_8 
REMARK    3  A    between atoms: C8_8  and  C9_9 
ROOT
HETATM    1  C1  UNL     1     -33.339   5.191   2.737  1.00 20.00     0.095 C 
HETATM    2  C2  UNL     1     -33.814   6.017   3.808  1.00 20.00     0.024 C 
HETATM    3  C3  UNL     1     -33.217   7.205   4.075  1.00 20.00    -0.067 C 
HETATM    4  C4  UNL     1     -33.654   8.139   5.184  1.00 20.00     0.044 C 
HETATM    5  N10 UNL     1     -32.965   4.512   1.873  1.00 20.00    -0.192 NA
ENDROOT
BRANCH   2   6
HETATM    6  C7  UNL     1     -34.968   5.451   4.615  1.00 20.00     0.046 C 
HETATM    7  C5  UNL     1     -34.491   4.728   5.867  1.00 20.00     0.011 C 
ENDBRANCH   2   6
BRANCH   3   8
HETATM    8  C8  UNL     1     -32.009   7.720   3.309  1.00 20.00     0.034 C 
BRANCH   8   9
HETATM    9  C9  UNL     1     -32.400   8.716   2.215  1.00 20.00    -0.000 C 
HETATM   10  C6  UNL     1     -31.479   8.606   1.010  1.00 20.00     0.005 C 
ENDBRANCH   8   9
ENDBRANCH   3   8
TORSDOF 3
ENDMDL
MODEL 5
REMARK VINA RESULT:      -4.3      0.733      3.895
REMARK  3 active torsions:
REMARK  status: ('A' for Active; 'I' for Inactive)
REMARK    1  A    between atoms: C2_2  and  C7_7 
REMARK    2  A    between atoms: C3_3  and  C8_8 
REMARK    3  A    between atoms: C8_8  and  C9_9 
ROOT
HETATM    1  C1  UNL     1     -33.285   7.562   5.196  1.00 20.00     0.095 C 
HETATM    2  C2  UNL     1     -33.157   7.191   3.817  1.00 20.00     0.024 C 
HETATM    3  C3  UNL     1     -34.065   6.362   3.243  1.00 20.00    -0.067 C 
HETATM    4  C4  UNL     1     -34.007   5.920   1.796  1.00 20.00     0.044 C 
HETATM    5  N10 UNL     1     -33.376   7.872   6.311  1.00 20.00    -0.192 NA
ENDROOT
BRANCH   2   6
HETATM    6  C7  UNL     1     -31.943   7.744   3.094  1.00 20.00     0.046 C 
HETATM    7  C5  UNL     1     -32.311   8.864   2.130  1.00 20.00     0.011 C 
ENDBRANCH   2   6
BRANCH   3   8
HETATM    8  C8  UNL     1     -35.231   5.751   4.003  1.00 20.00     0.034 C 
BRANCH   8   9
HETATM    9  C9  UNL     1     -34.772   4.700   5.017  1.00 20.00    -0.000 C 
HETATM   10  C6  UNL     1     -33.873   3.660   4.369  1.00 20.00     0.005 C 
ENDBRANCH   8   9
ENDBRANCH   3   8
TORSDOF 3
ENDMDL
MODEL 6
REMARK VINA RESULT:      -4.2     11.421     11.986
REMARK  3 active torsions:
REMARK  status: ('A' for Active; 'I' for Inactive)
REMARK    1  A    between atoms: C2_2  and  C7_7 
REMARK    2  A    between atoms: C3_3  and  C8_8 
REMARK    3  A    between atoms: C8_8  and  C9_9 
ROOT
HETATM    1  C1  UNL     1     -36.734  14.047  -5.173  1.00 20.00     0.095 C 
HETATM    2  C2  UNL     1     -35.325  14.159  -5.414  1.00 20.00     0.024 C 
HETATM    3  C3  UNL     1     -34.536  14.856  -4.558  1.00 20.00    -0.067 C 
HETATM    4  C4  UNL     1     -33.042  15.025  -4.735  1.00 20.00     0.044 C 
HETATM    5  N10 UNL     1     -37.876  13.948  -4.991  1.00 20.00    -0.192 NA
ENDROOT
BRANCH   2   6
HETATM    6  C7  UNL     1     -34.817  13.496  -6.681  1.00 20.00     0.046 C 
HETATM    7  C5  UNL     1     -35.703  13.800  -7.882  1.00 20.00     0.011 C 
ENDBRANCH   2   6
BRANCH   3   8
HETATM    8  C8  UNL     1     -35.074  15.583  -3.337  1.00 20.00     0.034 C 
BRANCH   8   9
HETATM    9  C9  UNL     1     -34.043  16.540  -2.733  1.00 20.00    -0.000 C 
HETATM   10  C6  UNL     1     -34.517  17.095  -1.399  1.00 20.00     0.005 C 
ENDBRANCH   8   9
ENDBRANCH   3   8
TORSDOF 3
ENDMDL
MODEL 7
REMARK VINA RESULT:      -4.1     11.345     11.804
REMARK  3 active torsions:
REMARK  status: ('A' for Active; 'I' for Inactive)
REMARK    1  A    between atoms: C2_2  and  C7_7 
REMARK    2  A    between atoms: C3_3  and  C8_8 
REMARK    3  A    between atoms: C8_8  and  C9_9 
ROOT
HETATM    1  C1  UNL     1     -32.224  18.384  -0.054  1.00 20.00     0.095 C 
HETATM    2  C2  UNL     1     -33.650  18.235  -0.030  1.00 20.00     0.024 C 
HETATM    3  C3  UNL     1     -34.289  17.578  -1.032  1.00 20.00    -0.067 C 
HETATM    4  C4  UNL     1     -35.788  17.374  -1.086  1.00 20.00     0.044 C 
HETATM    5  N10 UNL     1     -31.071  18.512  -0.060  1.00 20.00    -0.192 NA
ENDROOT
BRANCH   2   6
HETATM    6  C7  UNL     1     -34.363  18.888   1.139  1.00 20.00     0.046 C 
HETATM    7  C5  UNL     1     -33.726  18.525   2.474  1.00 20.00     0.011 C 
ENDBRANCH   2   6
BRANCH   3   8
HETATM    8  C8  UNL     1     -33.568  17.000  -2.239  1.00 20.00     0.034 C 
BRANCH   8   9
HETATM    9  C9  UNL     1     -34.459  16.054  -3.046  1.00 20.00    -0.000 C 
HETATM   10  C6  UNL     1     -33.659  15.299  -4.095  1.00 20.00     0.005 C 
ENDBRANCH   8   9
ENDBRANCH   3   8
TORSDOF 3
ENDMDL
MODEL 8
REMARK VINA RESULT:      -4.0     10.728     11.517
REMARK  3 active torsions:
REMARK  status: ('A' for Active; 'I' for Inactive)
REMARK    1  A    between atoms: C2_2  and  C7_7 
REMARK    2  A    between atoms: C3_3  and  C8_8 
REMARK    3  A    between atoms: C8_8  and  C9_9 
ROOT
HETATM    1  C1  UNL     1     -33.533  14.164  -4.183  1.00 20.00     0.095 C 
HETATM    2  C2  UNL     1     -34.865  14.695  -4.174  1.00 20.00     0.024 C 
HETATM    3  C3  UNL     1     -35.151  15.819  -3.471  1.00 20.00    -0.067 C 
HETATM    4  C4  UNL     1     -36.527  16.448  -3.408  1.00 20.00     0.044 C 
HETATM    5  N10 UNL     1     -32.460  13.723  -4.199  1.00 20.00    -0.192 NA
ENDROOT
BRANCH   2   6
HETATM    6  C7  UNL     1     -35.898  13.898  -4.951  1.00 20.00     0.046 C 
HETATM    7  C5  UNL     1     -35.437  13.590  -6.368  1.00 20.00     0.011 C 
ENDBRANCH   2   6
BRANCH   3   8
HETATM    8  C8  UNL     1     -34.123  16.559  -2.632  1.00 20.00     0.034 C 
BRANCH   8   9
HETATM    9  C9  UNL     1     -34.711  17.074  -1.316  1.00 20.00    -0.000 C 
HETATM   10  C6  UNL     1     -33.769  18.051  -0.632  1.00 20.00     0.005 C 
ENDBRANCH   8   9
ENDBRANCH   3   8
TORSDOF 3
ENDMDL
MODEL 9
REMARK VINA RESULT:      -4.0     11.250     12.531
REMARK  3 active torsions:
REMARK  status: ('A' for Active; 'I' for Inactive)
REMARK    1  A    between atoms: C2_2  and  C7_7 
REMARK    2  A    between atoms: C3_3  and  C8_8 
REMARK    3  A    between atoms: C8_8  and  C9_9 
ROOT
HETATM    1  C1  UNL     1     -35.159  14.043  -5.308  1.00 20.00     0.095 C 
HETATM    2  C2  UNL     1     -34.583  15.325  -5.593  1.00 20.00     0.024 C 
HETATM    3  C3  UNL     1     -34.162  16.128  -4.583  1.00 20.00    -0.067 C 
HETATM    4  C4  UNL     1     -33.543  17.494  -4.793  1.00 20.00     0.044 C 
HETATM    5  N10 UNL     1     -35.626  13.003  -5.093  1.00 20.00    -0.192 NA
ENDROOT
BRANCH   2   6
HETATM    6  C7  UNL     1     -34.529  15.714  -7.059  1.00 20.00     0.046 C 
HETATM    7  C5  UNL     1     -33.836  14.656  -7.907  1.00 20.00     0.011 C 
ENDBRANCH   2   6
BRANCH   3   8
HETATM    8  C8  UNL     1     -34.299  15.758  -3.115  1.00 20.00     0.034 C 
BRANCH   8   9
HETATM    9  C9  UNL     1     -35.399  16.561  -2.417  1.00 20.00    -0.000 C 
HETATM   10  C6  UNL     1     -34.899  17.173  -1.118  1.00 20.00     0.005 C 
ENDBRANCH   8   9
ENDBRANCH   3   8
TORSDOF 3
ENDMDL
