MODEL 1
REMARK VINA RESULT:      -2.9      0.000      0.000
REMARK  0 active torsions:
REMARK  status: ('A' for Active; 'I' for Inactive)
ROOT
HETATM    1  C1  UNL     1     -33.839   6.882   4.141  1.00 20.00     0.096 C 
HETATM    2  C2  UNL     1     -32.948   7.001   3.160  1.00 20.00     0.096 C 
HETATM    3 CL3  UNL     1     -35.107   5.732   4.105  1.00 20.00    -0.096 Cl
HETATM    4 CL4  UNL     1     -31.681   8.152   3.196  1.00 20.00    -0.096 Cl
ENDROOT
TORSDOF 0
ENDMDL
MODEL 2
REMARK VINA RESULT:      -2.9      0.049      3.178
REMARK  0 active torsions:
REMARK  status: ('A' for Active; 'I' for Inactive)
ROOT
HETATM    1  C1  UNL     1     -32.982   6.983   3.177  1.00 20.00     0.096 C 
HETATM    2  C2  UNL     1     -33.848   6.861   4.180  1.00 20.00     0.096 C 
HETATM    3 CL3  UNL     1     -31.711   8.131   3.186  1.00 20.00    -0.096 Cl
HETATM    4 CL4  UNL     1     -35.119   5.714   4.169  1.00 20.00    -0.096 Cl
ENDROOT
TORSDOF 0
ENDMDL
MODEL 3
REMARK VINA RESULT:      -2.8      2.888      3.769
REMARK  0 active torsions:
REMARK  status: ('A' for Active; 'I' for Inactive)
ROOT
HETATM    1  C1  UNL     1     -32.343   8.370   1.902  1.00 20.00     0.096 C 
HETATM    2  C2  UNL     1     -32.267   9.427   1.098  1.00 20.00     0.096 C 
HETATM    3 CL3  UNL     1     -31.502   8.277   3.391  1.00 20.00    -0.096 Cl
HETATM    4 CL4  UNL     1     -33.108   9.518  -0.391  1.00 20.00    -0.096 Cl
ENDROOT
TORSDOF 0
ENDMDL
MODEL 4
REMARK VINA RESULT:      -2.8      2.908      3.882
REMARK  0 active torsions:
REMARK  status: ('A' for Active; 'I' for Inactive)
ROOT
HETATM    1  C1  UNL     1     -32.346   9.466   1.162  1.00 20.00     0.096 C 
HETATM    2  C2  UNL     1     -32.259   8.348   1.877  1.00 20.00     0.096 C 
HETATM    3 CL3  UNL     1     -33.102   9.526  -0.374  1.00 20.00    -0.096 Cl
HETATM    4 CL4  UNL     1     -31.502   8.288   3.411  1.00 20.00    -0.096 Cl
ENDROOT
TORSDOF 0
ENDMDL
MODEL 5
REMARK VINA RESULT:      -2.8      1.108      3.087
REMARK  0 active torsions:
REMARK  status: ('A' for Active; 'I' for Inactive)
ROOT
HETATM    1  C1  UNL     1     -33.498   6.529   3.375  1.00 20.00     0.096 C 
HETATM    2  C2  UNL     1     -33.942   6.711   4.615  1.00 20.00     0.096 C 
HETATM    3 CL3  UNL     1     -32.752   7.775   2.467  1.00 20.00    -0.096 Cl
HETATM    4 CL4  UNL     1     -34.690   5.465   5.522  1.00 20.00    -0.096 Cl
ENDROOT
TORSDOF 0
ENDMDL
MODEL 6
REMARK VINA RESULT:      -2.8      1.102      1.102
REMARK  0 active torsions:
REMARK  status: ('A' for Active; 'I' for Inactive)
ROOT
HETATM    1  C1  UNL     1     -33.944   6.733   4.639  1.00 20.00     0.096 C 
HETATM    2  C2  UNL     1     -33.474   6.562   3.407  1.00 20.00     0.096 C 
HETATM    3 CL3  UNL     1     -34.665   5.466   5.538  1.00 20.00    -0.096 Cl
HETATM    4 CL4  UNL     1     -32.754   7.830   2.508  1.00 20.00    -0.096 Cl
ENDROOT
TORSDOF 0
ENDMDL
MODEL 7
REMARK VINA RESULT:      -2.6      1.920      2.095
REMARK  0 active torsions:
REMARK  status: ('A' for Active; 'I' for Inactive)
ROOT
HETATM    1  C1  UNL     1     -32.882   7.500   2.812  1.00 20.00     0.096 C 
HETATM    2  C2  UNL     1     -31.958   8.399   2.484  1.00 20.00     0.096 C 
HETATM    3 CL3  UNL     1     -33.369   7.223   4.431  1.00 20.00    -0.096 Cl
HETATM    4 CL4  UNL     1     -31.471   8.675   0.865  1.00 20.00    -0.096 Cl
ENDROOT
TORSDOF 0
ENDMDL
MODEL 8
REMARK VINA RESULT:      -2.6      1.949      3.463
REMARK  0 active torsions:
REMARK  status: ('A' for Active; 'I' for Inactive)
ROOT
HETATM    1  C1  UNL     1     -32.472   8.522   2.114  1.00 20.00     0.096 C 
HETATM    2  C2  UNL     1     -32.485   7.410   2.844  1.00 20.00     0.096 C 
HETATM    3 CL3  UNL     1     -31.448   8.726   0.757  1.00 20.00    -0.096 Cl
HETATM    4 CL4  UNL     1     -33.509   7.208   4.202  1.00 20.00    -0.096 Cl
ENDROOT
TORSDOF 0
ENDMDL
MODEL 9
REMARK VINA RESULT:      -2.6      2.073      2.334
REMARK  0 active torsions:
REMARK  status: ('A' for Active; 'I' for Inactive)
ROOT
HETATM    1  C1  UNL     1     -34.075   6.516   4.823  1.00 20.00     0.096 C 
HETATM    2  C2  UNL     1     -33.567   6.780   3.622  1.00 20.00     0.096 C 
HETATM    3 CL3  UNL     1     -33.767   7.495   6.194  1.00 20.00    -0.096 Cl
HETATM    4 CL4  UNL     1     -33.874   5.799   2.252  1.00 20.00    -0.096 Cl
ENDROOT
TORSDOF 0
ENDMDL
