MODEL 1
REMARK VINA RESULT:      -6.1      0.000      0.000
REMARK  0 active torsions:
REMARK  status: ('A' for Active; 'I' for Inactive)
ROOT
HETATM    1  C1  UNL     1     -32.134   8.422   4.460  1.00 20.00     0.014 A 
HETATM    2  C2  UNL     1     -31.632   8.864   3.300  1.00 20.00     0.075 A 
HETATM    3  C3  UNL     1     -33.063   7.311   4.508  1.00 20.00    -0.035 A 
HETATM    4  C4  UNL     1     -33.421   6.704   3.361  1.00 20.00     0.018 A 
HETATM    5  C5  UNL     1     -32.030   8.202   2.028  1.00 20.00     0.245 A 
HETATM    6  C6  UNL     1     -33.592   6.896   5.854  1.00 20.00     0.040 C 
HETATM    7  C7  UNL     1     -34.363   5.532   3.314  1.00 20.00     0.057 C 
HETATM    8  C8  UNL     1     -34.804   5.964   5.758  1.00 20.00     0.005 C 
HETATM    9  C9  UNL     1     -34.598   4.899   4.686  1.00 20.00     0.006 C 
HETATM   10  N10 UNL     1     -32.915   7.144   2.156  1.00 20.00    -0.327 N 
HETATM   11  O11 UNL     1     -31.580   8.597   0.955  1.00 20.00    -0.268 OA
HETATM   12  H22 UNL     1     -33.209   6.663   1.311  1.00 20.00     0.169 HD
ENDROOT
TORSDOF 0
ENDMDL
MODEL 2
REMARK VINA RESULT:      -5.5      1.049      2.191
REMARK  0 active torsions:
REMARK  status: ('A' for Active; 'I' for Inactive)
ROOT
HETATM    1  C1  UNL     1     -33.585   6.059   2.194  1.00 20.00     0.014 A 
HETATM    2  C2  UNL     1     -32.863   7.013   1.593  1.00 20.00     0.075 A 
HETATM    3  C3  UNL     1     -33.846   6.089   3.618  1.00 20.00    -0.035 A 
HETATM    4  C4  UNL     1     -33.358   7.106   4.354  1.00 20.00     0.018 A 
HETATM    5  C5  UNL     1     -32.315   8.136   2.403  1.00 20.00     0.245 A 
HETATM    6  C6  UNL     1     -34.650   4.964   4.210  1.00 20.00     0.040 C 
HETATM    7  C7  UNL     1     -33.593   7.233   5.834  1.00 20.00     0.057 C 
HETATM    8  C8  UNL     1     -34.571   4.911   5.739  1.00 20.00     0.005 C 
HETATM    9  C9  UNL     1     -34.696   6.305   6.346  1.00 20.00     0.006 C 
HETATM   10  N10 UNL     1     -32.612   8.100   3.755  1.00 20.00    -0.327 N 
HETATM   11  O11 UNL     1     -31.648   9.019   1.868  1.00 20.00    -0.268 OA
HETATM   12  H22 UNL     1     -32.259   8.851   4.341  1.00 20.00     0.169 HD
ENDROOT
TORSDOF 0
ENDMDL
MODEL 3
REMARK VINA RESULT:      -5.4      2.280      3.958
REMARK  0 active torsions:
REMARK  status: ('A' for Active; 'I' for Inactive)
ROOT
HETATM    1  C1  UNL     1     -33.572   7.082   5.684  1.00 20.00     0.014 A 
HETATM    2  C2  UNL     1     -34.357   6.009   5.835  1.00 20.00     0.075 A 
HETATM    3  C3  UNL     1     -33.011   7.435   4.396  1.00 20.00    -0.035 A 
HETATM    4  C4  UNL     1     -33.293   6.670   3.324  1.00 20.00     0.018 A 
HETATM    5  C5  UNL     1     -34.667   5.155   4.655  1.00 20.00     0.245 A 
HETATM    6  C6  UNL     1     -32.123   8.647   4.324  1.00 20.00     0.040 C 
HETATM    7  C7  UNL     1     -32.774   6.968   1.945  1.00 20.00     0.057 C 
HETATM    8  C8  UNL     1     -31.322   8.726   3.021  1.00 20.00     0.005 C 
HETATM    9  C9  UNL     1     -32.191   8.376   1.817  1.00 20.00     0.006 C 
HETATM   10  N10 UNL     1     -34.100   5.560   3.459  1.00 20.00    -0.327 N 
HETATM   11  O11 UNL     1     -35.384   4.164   4.778  1.00 20.00    -0.268 OA
HETATM   12  H22 UNL     1     -34.291   5.005   2.629  1.00 20.00     0.169 HD
ENDROOT
TORSDOF 0
ENDMDL
MODEL 4
REMARK VINA RESULT:      -5.0     11.552     12.008
REMARK  0 active torsions:
REMARK  status: ('A' for Active; 'I' for Inactive)
ROOT
HETATM    1  C1  UNL     1     -34.907  14.327  -4.810  1.00 20.00     0.014 A 
HETATM    2  C2  UNL     1     -36.082  13.869  -5.259  1.00 20.00     0.075 A 
HETATM    3  C3  UNL     1     -34.833  15.377  -3.815  1.00 20.00    -0.035 A 
HETATM    4  C4  UNL     1     -35.973  15.898  -3.324  1.00 20.00     0.018 A 
HETATM    5  C5  UNL     1     -37.346  14.447  -4.725  1.00 20.00     0.245 A 
HETATM    6  C6  UNL     1     -33.469  15.844  -3.385  1.00 20.00     0.040 C 
HETATM    7  C7  UNL     1     -35.997  16.976  -2.276  1.00 20.00     0.057 C 
HETATM    8  C8  UNL     1     -33.505  17.164  -2.609  1.00 20.00     0.005 C 
HETATM    9  C9  UNL     1     -34.642  17.176  -1.593  1.00 20.00     0.006 C 
HETATM   10  N10 UNL     1     -37.194  15.440  -3.772  1.00 20.00    -0.327 N 
HETATM   11  O11 UNL     1     -38.433  14.039  -5.128  1.00 20.00    -0.268 OA
HETATM   12  H22 UNL     1     -38.034  15.857  -3.380  1.00 20.00     0.169 HD
ENDROOT
TORSDOF 0
ENDMDL
MODEL 5
REMARK VINA RESULT:      -5.0     11.274     11.812
REMARK  0 active torsions:
REMARK  status: ('A' for Active; 'I' for Inactive)
ROOT
HETATM    1  C1  UNL     1     -37.060  14.952  -4.526  1.00 20.00     0.014 A 
HETATM    2  C2  UNL     1     -36.920  13.956  -5.411  1.00 20.00     0.075 A 
HETATM    3  C3  UNL     1     -35.921  15.511  -3.829  1.00 20.00    -0.035 A 
HETATM    4  C4  UNL     1     -34.691  15.024  -4.082  1.00 20.00     0.018 A 
HETATM    5  C5  UNL     1     -35.564  13.408  -5.690  1.00 20.00     0.245 A 
HETATM    6  C6  UNL     1     -36.175  16.613  -2.837  1.00 20.00     0.040 C 
HETATM    7  C7  UNL     1     -33.448  15.553  -3.422  1.00 20.00     0.057 C 
HETATM    8  C8  UNL     1     -34.976  16.885  -1.923  1.00 20.00     0.005 C 
HETATM    9  C9  UNL     1     -33.671  16.889  -2.712  1.00 20.00     0.006 C 
HETATM   10  N10 UNL     1     -34.526  13.999  -4.990  1.00 20.00    -0.327 N 
HETATM   11  O11 UNL     1     -35.419  12.493  -6.497  1.00 20.00    -0.268 OA
HETATM   12  H22 UNL     1     -33.583  13.656  -5.155  1.00 20.00     0.169 HD
ENDROOT
TORSDOF 0
ENDMDL
MODEL 6
REMARK VINA RESULT:      -4.9      2.469      4.474
REMARK  0 active torsions:
REMARK  status: ('A' for Active; 'I' for Inactive)
ROOT
HETATM    1  C1  UNL     1     -34.318   5.736   2.982  1.00 20.00     0.014 A 
HETATM    2  C2  UNL     1     -34.874   5.243   4.095  1.00 20.00     0.075 A 
HETATM    3  C3  UNL     1     -33.357   6.819   3.030  1.00 20.00    -0.035 A 
HETATM    4  C4  UNL     1     -33.009   7.335   4.225  1.00 20.00     0.018 A 
HETATM    5  C5  UNL     1     -34.499   5.814   5.418  1.00 20.00     0.245 A 
HETATM    6  C6  UNL     1     -32.800   7.324   1.728  1.00 20.00     0.040 C 
HETATM    7  C7  UNL     1     -32.007   8.445   4.377  1.00 20.00     0.057 C 
HETATM    8  C8  UNL     1     -32.077   8.667   1.866  1.00 20.00     0.005 C 
HETATM    9  C9  UNL     1     -31.190   8.692   3.107  1.00 20.00     0.006 C 
HETATM   10  N10 UNL     1     -33.570   6.840   5.383  1.00 20.00    -0.327 N 
HETATM   11  O11 UNL     1     -35.002   5.374   6.449  1.00 20.00    -0.268 OA
HETATM   12  H22 UNL     1     -33.284   7.255   6.267  1.00 20.00     0.169 HD
ENDROOT
TORSDOF 0
ENDMDL
MODEL 7
REMARK VINA RESULT:      -4.8     11.563     11.895
REMARK  0 active torsions:
REMARK  status: ('A' for Active; 'I' for Inactive)
ROOT
HETATM    1  C1  UNL     1     -33.625  16.409  -3.310  1.00 20.00     0.014 A 
HETATM    2  C2  UNL     1     -34.532  15.781  -4.067  1.00 20.00     0.075 A 
HETATM    3  C3  UNL     1     -33.994  17.070  -2.075  1.00 20.00    -0.035 A 
HETATM    4  C4  UNL     1     -35.280  17.044  -1.676  1.00 20.00     0.018 A 
HETATM    5  C5  UNL     1     -35.957  15.755  -3.635  1.00 20.00     0.245 A 
HETATM    6  C6  UNL     1     -32.911  17.768  -1.299  1.00 20.00     0.040 C 
HETATM    7  C7  UNL     1     -35.756  17.684  -0.401  1.00 20.00     0.057 C 
HETATM    8  C8  UNL     1     -33.458  18.707  -0.220  1.00 20.00     0.005 C 
HETATM    9  C9  UNL     1     -34.611  18.060   0.542  1.00 20.00     0.006 C 
HETATM   10  N10 UNL     1     -36.231  16.402  -2.442  1.00 20.00    -0.327 N 
HETATM   11  O11 UNL     1     -36.803  15.185  -4.320  1.00 20.00    -0.268 OA
HETATM   12  H22 UNL     1     -37.192  16.403  -2.110  1.00 20.00     0.169 HD
ENDROOT
TORSDOF 0
ENDMDL
MODEL 8
REMARK VINA RESULT:      -4.7     11.278     12.731
REMARK  0 active torsions:
REMARK  status: ('A' for Active; 'I' for Inactive)
ROOT
HETATM    1  C1  UNL     1     -33.855  15.371  -7.331  1.00 20.00     0.014 A 
HETATM    2  C2  UNL     1     -34.254  14.154  -7.722  1.00 20.00     0.075 A 
HETATM    3  C3  UNL     1     -33.944  15.789  -5.947  1.00 20.00    -0.035 A 
HETATM    4  C4  UNL     1     -34.432  14.930  -5.032  1.00 20.00     0.018 A 
HETATM    5  C5  UNL     1     -34.801  13.203  -6.716  1.00 20.00     0.245 A 
HETATM    6  C6  UNL     1     -33.491  17.181  -5.603  1.00 20.00     0.040 C 
HETATM    7  C7  UNL     1     -34.544  15.267  -3.571  1.00 20.00     0.057 C 
HETATM    8  C8  UNL     1     -33.943  17.631  -4.211  1.00 20.00     0.005 C 
HETATM    9  C9  UNL     1     -33.755  16.519  -3.183  1.00 20.00     0.006 C 
HETATM   10  N10 UNL     1     -34.848  13.672  -5.414  1.00 20.00    -0.327 N 
HETATM   11  O11 UNL     1     -35.174  12.084  -7.059  1.00 20.00    -0.268 OA
HETATM   12  H22 UNL     1     -35.212  13.051  -4.696  1.00 20.00     0.169 HD
ENDROOT
TORSDOF 0
ENDMDL
MODEL 9
REMARK VINA RESULT:      -4.6     11.266     12.453
REMARK  0 active torsions:
REMARK  status: ('A' for Active; 'I' for Inactive)
ROOT
HETATM    1  C1  UNL     1     -34.026  15.570  -6.211  1.00 20.00     0.014 A 
HETATM    2  C2  UNL     1     -34.640  14.388  -6.353  1.00 20.00     0.075 A 
HETATM    3  C3  UNL     1     -34.008  16.266  -4.941  1.00 20.00    -0.035 A 
HETATM    4  C4  UNL     1     -34.616  15.708  -3.877  1.00 20.00     0.018 A 
HETATM    5  C5  UNL     1     -35.320  13.769  -5.182  1.00 20.00     0.245 A 
HETATM    6  C6  UNL     1     -33.312  17.598  -4.879  1.00 20.00     0.040 C 
HETATM    7  C7  UNL     1     -34.633  16.346  -2.515  1.00 20.00     0.057 C 
HETATM    8  C8  UNL     1     -33.647  18.390  -3.612  1.00 20.00     0.005 C 
HETATM    9  C9  UNL     1     -33.630  17.492  -2.379  1.00 20.00     0.006 C 
HETATM   10  N10 UNL     1     -35.253  14.491  -4.002  1.00 20.00    -0.327 N 
HETATM   11  O11 UNL     1     -35.889  12.687  -5.296  1.00 20.00    -0.268 OA
HETATM   12  H22 UNL     1     -35.702  14.101  -3.178  1.00 20.00     0.169 HD
ENDROOT
TORSDOF 0
ENDMDL
