MODEL 1
REMARK VINA RESULT:      -4.5      0.000      0.000
REMARK  0 active torsions:
REMARK  status: ('A' for Active; 'I' for Inactive)
ROOT
HETATM    1  C1  UNL     1     -35.274  13.847  -5.281  1.00 20.00     0.086 C 
HETATM    2  C2  UNL     1     -34.932  16.138  -2.653  1.00 20.00    -0.025 C 
HETATM    3  C3  UNL     1     -35.907  16.162  -3.573  1.00 20.00    -0.023 C 
HETATM    4  C4  UNL     1     -34.114  17.290  -4.477  1.00 20.00     0.020 C 
HETATM    5  C5  UNL     1     -33.330  15.050  -4.201  1.00 20.00     0.050 C 
HETATM    6  C6  UNL     1     -33.625  16.335  -3.384  1.00 20.00     0.011 C 
HETATM    7  C7  UNL     1     -35.246  16.352  -4.925  1.00 20.00     0.046 C 
HETATM    8  C8  UNL     1     -34.454  15.064  -5.287  1.00 20.00     0.133 C 
HETATM    9  N9  UNL     1     -35.921  12.884  -5.276  1.00 20.00    -0.195 NA
HETATM   10 CL10 UNL     1     -33.748  15.196  -6.928  1.00 20.00    -0.102 Cl
ENDROOT
TORSDOF 0
ENDMDL
MODEL 2
REMARK VINA RESULT:      -4.4      1.716      2.477
REMARK  0 active torsions:
REMARK  status: ('A' for Active; 'I' for Inactive)
ROOT
HETATM    1  C1  UNL     1     -35.792  13.839  -5.025  1.00 20.00     0.086 C 
HETATM    2  C2  UNL     1     -32.821  15.652  -5.424  1.00 20.00    -0.025 C 
HETATM    3  C3  UNL     1     -33.096  14.841  -4.392  1.00 20.00    -0.023 C 
HETATM    4  C4  UNL     1     -34.004  16.895  -3.881  1.00 20.00     0.020 C 
HETATM    5  C5  UNL     1     -35.214  16.171  -5.810  1.00 20.00     0.050 C 
HETATM    6  C6  UNL     1     -33.842  16.765  -5.399  1.00 20.00     0.011 C 
HETATM    7  C7  UNL     1     -34.317  15.403  -3.690  1.00 20.00     0.046 C 
HETATM    8  C8  UNL     1     -35.556  15.227  -4.612  1.00 20.00     0.133 C 
HETATM    9  N9  UNL     1     -35.979  12.741  -5.352  1.00 20.00    -0.195 NA
HETATM   10 CL10 UNL     1     -37.046  15.772  -3.780  1.00 20.00    -0.102 Cl
ENDROOT
TORSDOF 0
ENDMDL
MODEL 3
REMARK VINA RESULT:      -4.4      1.308      1.416
REMARK  0 active torsions:
REMARK  status: ('A' for Active; 'I' for Inactive)
ROOT
HETATM    1  C1  UNL     1     -36.701  14.142  -5.185  1.00 20.00     0.086 C 
HETATM    2  C2  UNL     1     -34.721  16.356  -3.327  1.00 20.00    -0.025 C 
HETATM    3  C3  UNL     1     -35.491  16.701  -4.370  1.00 20.00    -0.023 C 
HETATM    4  C4  UNL     1     -33.476  15.998  -5.237  1.00 20.00     0.020 C 
HETATM    5  C5  UNL     1     -34.382  14.055  -4.183  1.00 20.00     0.050 C 
HETATM    6  C6  UNL     1     -33.678  15.394  -3.843  1.00 20.00     0.011 C 
HETATM    7  C7  UNL     1     -34.973  15.948  -5.580  1.00 20.00     0.046 C 
HETATM    8  C8  UNL     1     -35.279  14.434  -5.404  1.00 20.00     0.133 C 
HETATM    9  N9  UNL     1     -37.824  13.911  -5.012  1.00 20.00    -0.195 NA
HETATM   10 CL10 UNL     1     -34.788  13.516  -6.862  1.00 20.00    -0.102 Cl
ENDROOT
TORSDOF 0
ENDMDL
MODEL 4
REMARK VINA RESULT:      -4.4      1.734      2.508
REMARK  0 active torsions:
REMARK  status: ('A' for Active; 'I' for Inactive)
ROOT
HETATM    1  C1  UNL     1     -35.383  13.321  -6.204  1.00 20.00     0.086 C 
HETATM    2  C2  UNL     1     -33.023  15.631  -5.036  1.00 20.00    -0.025 C 
HETATM    3  C3  UNL     1     -33.289  14.446  -4.466  1.00 20.00    -0.023 C 
HETATM    4  C4  UNL     1     -34.823  15.945  -3.626  1.00 20.00     0.020 C 
HETATM    5  C5  UNL     1     -35.313  15.836  -5.962  1.00 20.00     0.050 C 
HETATM    6  C6  UNL     1     -34.290  16.450  -4.971  1.00 20.00     0.011 C 
HETATM    7  C7  UNL     1     -34.744  14.468  -4.041  1.00 20.00     0.046 C 
HETATM    8  C8  UNL     1     -35.642  14.455  -5.309  1.00 20.00     0.133 C 
HETATM    9  N9  UNL     1     -35.178  12.424  -6.912  1.00 20.00    -0.195 NA
HETATM   10 CL10 UNL     1     -37.373  14.363  -4.857  1.00 20.00    -0.102 Cl
ENDROOT
TORSDOF 0
ENDMDL
MODEL 5
REMARK VINA RESULT:      -4.2      1.008      1.236
REMARK  0 active torsions:
REMARK  status: ('A' for Active; 'I' for Inactive)
ROOT
HETATM    1  C1  UNL     1     -35.551  13.890  -5.506  1.00 20.00     0.086 C 
HETATM    2  C2  UNL     1     -33.693  16.048  -3.466  1.00 20.00    -0.025 C 
HETATM    3  C3  UNL     1     -35.022  15.880  -3.400  1.00 20.00    -0.023 C 
HETATM    4  C4  UNL     1     -34.634  17.464  -5.026  1.00 20.00     0.020 C 
HETATM    5  C5  UNL     1     -33.618  15.477  -5.877  1.00 20.00     0.050 C 
HETATM    6  C6  UNL     1     -33.383  16.602  -4.836  1.00 20.00     0.011 C 
HETATM    7  C7  UNL     1     -35.597  16.301  -4.739  1.00 20.00     0.046 C 
HETATM    8  C8  UNL     1     -35.166  15.271  -5.821  1.00 20.00     0.133 C 
HETATM    9  N9  UNL     1     -35.856  12.798  -5.258  1.00 20.00    -0.195 NA
HETATM   10 CL10 UNL     1     -35.916  15.663  -7.400  1.00 20.00    -0.102 Cl
ENDROOT
TORSDOF 0
ENDMDL
MODEL 6
REMARK VINA RESULT:      -4.2      2.096      3.104
REMARK  0 active torsions:
REMARK  status: ('A' for Active; 'I' for Inactive)
ROOT
HETATM    1  C1  UNL     1     -36.585  14.540  -4.909  1.00 20.00     0.086 C 
HETATM    2  C2  UNL     1     -34.297  15.015  -7.518  1.00 20.00    -0.025 C 
HETATM    3  C3  UNL     1     -34.318  13.956  -6.695  1.00 20.00    -0.023 C 
HETATM    4  C4  UNL     1     -33.092  15.594  -5.638  1.00 20.00     0.020 C 
HETATM    5  C5  UNL     1     -35.289  16.514  -5.813  1.00 20.00     0.050 C 
HETATM    6  C6  UNL     1     -34.027  16.233  -6.669  1.00 20.00     0.011 C 
HETATM    7  C7  UNL     1     -34.084  14.474  -5.290  1.00 20.00     0.046 C 
HETATM    8  C8  UNL     1     -35.326  15.292  -4.839  1.00 20.00     0.133 C 
HETATM    9  N9  UNL     1     -37.580  13.946  -4.964  1.00 20.00    -0.195 NA
HETATM   10 CL10 UNL     1     -35.147  15.830  -3.139  1.00 20.00    -0.102 Cl
ENDROOT
TORSDOF 0
ENDMDL
MODEL 7
REMARK VINA RESULT:      -4.1      1.941      3.034
REMARK  0 active torsions:
REMARK  status: ('A' for Active; 'I' for Inactive)
ROOT
HETATM    1  C1  UNL     1     -35.452  13.877  -5.188  1.00 20.00     0.086 C 
HETATM    2  C2  UNL     1     -34.651  16.007  -7.852  1.00 20.00    -0.025 C 
HETATM    3  C3  UNL     1     -33.829  15.086  -7.328  1.00 20.00    -0.023 C 
HETATM    4  C4  UNL     1     -33.597  16.987  -6.048  1.00 20.00     0.020 C 
HETATM    5  C5  UNL     1     -35.865  16.316  -5.713  1.00 20.00     0.050 C 
HETATM    6  C6  UNL     1     -34.953  17.006  -6.760  1.00 20.00     0.011 C 
HETATM    7  C7  UNL     1     -33.601  15.460  -5.876  1.00 20.00     0.046 C 
HETATM    8  C8  UNL     1     -34.920  15.242  -5.084  1.00 20.00     0.133 C 
HETATM    9  N9  UNL     1     -35.873  12.799  -5.269  1.00 20.00    -0.195 NA
HETATM   10 CL10 UNL     1     -34.669  15.560  -3.339  1.00 20.00    -0.102 Cl
ENDROOT
TORSDOF 0
ENDMDL
MODEL 8
REMARK VINA RESULT:      -4.1      1.308      1.809
REMARK  0 active torsions:
REMARK  status: ('A' for Active; 'I' for Inactive)
ROOT
HETATM    1  C1  UNL     1     -35.182  13.791  -4.938  1.00 20.00     0.086 C 
HETATM    2  C2  UNL     1     -35.844  17.230  -5.013  1.00 20.00    -0.025 C 
HETATM    3  C3  UNL     1     -35.430  16.502  -6.060  1.00 20.00    -0.023 C 
HETATM    4  C4  UNL     1     -33.542  17.131  -4.901  1.00 20.00     0.020 C 
HETATM    5  C5  UNL     1     -34.737  15.731  -3.379  1.00 20.00     0.050 C 
HETATM    6  C6  UNL     1     -34.756  17.165  -3.968  1.00 20.00     0.011 C 
HETATM    7  C7  UNL     1     -34.071  15.932  -5.703  1.00 20.00     0.046 C 
HETATM    8  C8  UNL     1     -34.247  14.867  -4.585  1.00 20.00     0.133 C 
HETATM    9  N9  UNL     1     -35.920  12.940  -5.216  1.00 20.00    -0.195 NA
HETATM   10 CL10 UNL     1     -32.682  14.080  -4.209  1.00 20.00    -0.102 Cl
ENDROOT
TORSDOF 0
ENDMDL
MODEL 9
REMARK VINA RESULT:      -4.0      2.002      2.682
REMARK  0 active torsions:
REMARK  status: ('A' for Active; 'I' for Inactive)
ROOT
HETATM    1  C1  UNL     1     -36.885  14.865  -4.638  1.00 20.00     0.086 C 
HETATM    2  C2  UNL     1     -33.426  14.950  -5.183  1.00 20.00    -0.025 C 
HETATM    3  C3  UNL     1     -34.026  14.370  -4.133  1.00 20.00    -0.023 C 
HETATM    4  C4  UNL     1     -33.758  16.595  -3.600  1.00 20.00     0.020 C 
HETATM    5  C5  UNL     1     -35.249  16.605  -5.467  1.00 20.00     0.050 C 
HETATM    6  C6  UNL     1     -33.748  16.424  -5.122  1.00 20.00     0.011 C 
HETATM    7  C7  UNL     1     -34.769  15.458  -3.383  1.00 20.00     0.046 C 
HETATM    8  C8  UNL     1     -35.967  15.942  -4.247  1.00 20.00     0.133 C 
HETATM    9  N9  UNL     1     -37.611  14.014  -4.946  1.00 20.00    -0.195 NA
HETATM   10 CL10 UNL     1     -36.946  17.148  -3.355  1.00 20.00    -0.102 Cl
ENDROOT
TORSDOF 0
ENDMDL
