MODEL 1
REMARK VINA RESULT:      -6.0      0.000      0.000
REMARK  5 active torsions:
REMARK  status: ('A' for Active; 'I' for Inactive)
REMARK    1  A    between atoms: C2_2  and  C4_4 
REMARK    2  A    between atoms: C4_4  and  C6_6 
REMARK    3  A    between atoms: C5_5  and  C6_6 
REMARK    4  A    between atoms: C5_5  and  C7_7 
REMARK    5  A    between atoms: C6_6  and  O8_8 
ROOT
HETATM    1  C6  UNL     1     -32.424   8.305   2.713  1.00 20.00     0.130 C 
ENDROOT
BRANCH   1   2
HETATM    2  C4  UNL     1     -32.935   6.866   2.881  1.00 20.00     0.065 C 
BRANCH   2   3
HETATM    3  C2  UNL     1     -33.900   6.705   4.036  1.00 20.00    -0.091 C 
HETATM    4  C1  UNL     1     -33.660   7.261   5.234  1.00 20.00     0.014 C 
HETATM    5  C3  UNL     1     -35.119   5.862   3.797  1.00 20.00     0.042 C 
ENDBRANCH   2   3
ENDBRANCH   1   2
BRANCH   1   6
HETATM    6  C5  UNL     1     -32.132   8.603   1.236  1.00 20.00     0.149 C 
BRANCH   6   7
HETATM    7  C7  UNL     1     -32.813   9.861   0.736  1.00 20.00     0.390 C 
HETATM    8  F9  UNL     1     -33.742  10.307   1.607  1.00 20.00    -0.171 F 
HETATM    9  F10 UNL     1     -31.908  10.851   0.565  1.00 20.00    -0.171 F 
HETATM   10  F11 UNL     1     -33.420   9.653  -0.452  1.00 20.00    -0.171 F 
ENDBRANCH   6   7
ENDBRANCH   1   6
BRANCH   1  11
HETATM   11  O8  UNL     1     -31.226   8.444   3.475  1.00 20.00    -0.395 OA
HETATM   12  H22 UNL     1     -30.806   7.570   3.487  1.00 20.00     0.210 HD
ENDBRANCH   1  11
TORSDOF 5
ENDMDL
MODEL 2
REMARK VINA RESULT:      -6.0      2.054      2.389
REMARK  5 active torsions:
REMARK  status: ('A' for Active; 'I' for Inactive)
REMARK    1  A    between atoms: C2_2  and  C4_4 
REMARK    2  A    between atoms: C4_4  and  C6_6 
REMARK    3  A    between atoms: C5_5  and  C6_6 
REMARK    4  A    between atoms: C5_5  and  C7_7 
REMARK    5  A    between atoms: C6_6  and  O8_8 
ROOT
HETATM    1  C6  UNL     1     -33.012   6.377   2.992  1.00 20.00     0.130 C 
ENDROOT
BRANCH   1   2
HETATM    2  C4  UNL     1     -34.359   6.503   3.721  1.00 20.00     0.065 C 
BRANCH   2   3
HETATM    3  C2  UNL     1     -34.246   6.320   5.220  1.00 20.00    -0.091 C 
HETATM    4  C1  UNL     1     -33.786   7.300   6.014  1.00 20.00     0.014 C 
HETATM    5  C3  UNL     1     -34.630   4.980   5.777  1.00 20.00     0.042 C 
ENDBRANCH   2   3
ENDBRANCH   1   2
BRANCH   1   6
HETATM    6  C5  UNL     1     -32.962   7.330   1.789  1.00 20.00     0.149 C 
BRANCH   6   7
HETATM    7  C7  UNL     1     -31.918   8.419   1.937  1.00 20.00     0.390 C 
HETATM    8  F9  UNL     1     -31.197   8.271   3.067  1.00 20.00    -0.171 F 
HETATM    9  F10 UNL     1     -31.056   8.389   0.897  1.00 20.00    -0.171 F 
HETATM   10  F11 UNL     1     -32.487   9.643   1.961  1.00 20.00    -0.171 F 
ENDBRANCH   6   7
ENDBRANCH   1   6
BRANCH   1  11
HETATM   11  O8  UNL     1     -32.875   5.030   2.541  1.00 20.00    -0.395 OA
HETATM   12  H22 UNL     1     -33.539   4.904   1.846  1.00 20.00     0.210 HD
ENDBRANCH   1  11
TORSDOF 5
ENDMDL
MODEL 3
REMARK VINA RESULT:      -6.0      2.047      2.528
REMARK  5 active torsions:
REMARK  status: ('A' for Active; 'I' for Inactive)
REMARK    1  A    between atoms: C2_2  and  C4_4 
REMARK    2  A    between atoms: C4_4  and  C6_6 
REMARK    3  A    between atoms: C5_5  and  C6_6 
REMARK    4  A    between atoms: C5_5  and  C7_7 
REMARK    5  A    between atoms: C6_6  and  O8_8 
ROOT
HETATM    1  C6  UNL     1     -33.021   6.401   2.994  1.00 20.00     0.130 C 
ENDROOT
BRANCH   1   2
HETATM    2  C4  UNL     1     -34.368   6.478   3.729  1.00 20.00     0.065 C 
BRANCH   2   3
HETATM    3  C2  UNL     1     -34.240   6.318   5.229  1.00 20.00    -0.091 C 
HETATM    4  C1  UNL     1     -33.769   7.310   6.002  1.00 20.00     0.014 C 
HETATM    5  C3  UNL     1     -34.623   4.989   5.811  1.00 20.00     0.042 C 
ENDBRANCH   2   3
ENDBRANCH   1   2
BRANCH   1   6
HETATM    6  C5  UNL     1     -32.999   7.378   1.810  1.00 20.00     0.149 C 
BRANCH   6   7
HETATM    7  C7  UNL     1     -31.920   8.435   1.931  1.00 20.00     0.390 C 
HETATM    8  F9  UNL     1     -31.051   8.384   0.900  1.00 20.00    -0.171 F 
HETATM    9  F10 UNL     1     -32.468   9.670   1.940  1.00 20.00    -0.171 F 
HETATM   10  F11 UNL     1     -31.218   8.291   3.076  1.00 20.00    -0.171 F 
ENDBRANCH   6   7
ENDBRANCH   1   6
BRANCH   1  11
HETATM   11  O8  UNL     1     -32.851   5.067   2.516  1.00 20.00    -0.395 OA
HETATM   12  H22 UNL     1     -32.998   4.483   3.275  1.00 20.00     0.210 HD
ENDBRANCH   1  11
TORSDOF 5
ENDMDL
MODEL 4
REMARK VINA RESULT:      -6.0      0.064      1.151
REMARK  5 active torsions:
REMARK  status: ('A' for Active; 'I' for Inactive)
REMARK    1  A    between atoms: C2_2  and  C4_4 
REMARK    2  A    between atoms: C4_4  and  C6_6 
REMARK    3  A    between atoms: C5_5  and  C6_6 
REMARK    4  A    between atoms: C5_5  and  C7_7 
REMARK    5  A    between atoms: C6_6  and  O8_8 
ROOT
HETATM    1  C6  UNL     1     -32.477   8.281   2.739  1.00 20.00     0.130 C 
ENDROOT
BRANCH   1   2
HETATM    2  C4  UNL     1     -32.972   6.839   2.925  1.00 20.00     0.065 C 
BRANCH   2   3
HETATM    3  C2  UNL     1     -33.924   6.680   4.091  1.00 20.00    -0.091 C 
HETATM    4  C1  UNL     1     -33.694   7.276   5.272  1.00 20.00     0.014 C 
HETATM    5  C3  UNL     1     -35.118   5.793   3.885  1.00 20.00     0.042 C 
ENDBRANCH   2   3
ENDBRANCH   1   2
BRANCH   1   6
HETATM    6  C5  UNL     1     -32.188   8.563   1.258  1.00 20.00     0.149 C 
BRANCH   6   7
HETATM    7  C7  UNL     1     -32.821   9.847   0.762  1.00 20.00     0.390 C 
HETATM    8  F9  UNL     1     -31.900  10.810   0.550  1.00 20.00    -0.171 F 
HETATM    9  F10 UNL     1     -33.464   9.635  -0.409  1.00 20.00    -0.171 F 
HETATM   10  F11 UNL     1     -33.726  10.321   1.644  1.00 20.00    -0.171 F 
ENDBRANCH   6   7
ENDBRANCH   1   6
BRANCH   1  11
HETATM   11  O8  UNL     1     -31.280   8.442   3.498  1.00 20.00    -0.395 OA
HETATM   12  H22 UNL     1     -30.691   9.001   2.968  1.00 20.00     0.210 HD
ENDBRANCH   1  11
TORSDOF 5
ENDMDL
MODEL 5
REMARK VINA RESULT:      -5.7      3.438      5.049
REMARK  5 active torsions:
REMARK  status: ('A' for Active; 'I' for Inactive)
REMARK    1  A    between atoms: C2_2  and  C4_4 
REMARK    2  A    between atoms: C4_4  and  C6_6 
REMARK    3  A    between atoms: C5_5  and  C6_6 
REMARK    4  A    between atoms: C5_5  and  C7_7 
REMARK    5  A    between atoms: C6_6  and  O8_8 
ROOT
HETATM    1  C6  UNL     1     -33.225   7.118   3.036  1.00 20.00     0.130 C 
ENDROOT
BRANCH   1   2
HETATM    2  C4  UNL     1     -32.116   8.177   2.933  1.00 20.00     0.065 C 
BRANCH   2   3
HETATM    3  C2  UNL     1     -32.123   8.923   1.616  1.00 20.00    -0.091 C 
HETATM    4  C1  UNL     1     -31.395   8.505   0.568  1.00 20.00     0.014 C 
HETATM    5  C3  UNL     1     -32.947  10.176   1.543  1.00 20.00     0.042 C 
ENDBRANCH   2   3
ENDBRANCH   1   2
BRANCH   1   6
HETATM    6  C5  UNL     1     -33.669   6.945   4.495  1.00 20.00     0.149 C 
BRANCH   6   7
HETATM    7  C7  UNL     1     -34.619   5.782   4.693  1.00 20.00     0.390 C 
HETATM    8  F9  UNL     1     -34.027   4.600   4.424  1.00 20.00    -0.171 F 
HETATM    9  F10 UNL     1     -35.050   5.739   5.974  1.00 20.00    -0.171 F 
HETATM   10  F11 UNL     1     -35.706   5.895   3.900  1.00 20.00    -0.171 F 
ENDBRANCH   6   7
ENDBRANCH   1   6
BRANCH   1  11
HETATM   11  O8  UNL     1     -32.707   5.883   2.544  1.00 20.00    -0.395 OA
HETATM   12  H22 UNL     1     -32.065   6.109   1.854  1.00 20.00     0.210 HD
ENDBRANCH   1  11
TORSDOF 5
ENDMDL
MODEL 6
REMARK VINA RESULT:      -5.6      3.424      5.015
REMARK  5 active torsions:
REMARK  status: ('A' for Active; 'I' for Inactive)
REMARK    1  A    between atoms: C2_2  and  C4_4 
REMARK    2  A    between atoms: C4_4  and  C6_6 
REMARK    3  A    between atoms: C5_5  and  C6_6 
REMARK    4  A    between atoms: C5_5  and  C7_7 
REMARK    5  A    between atoms: C6_6  and  O8_8 
ROOT
HETATM    1  C6  UNL     1     -33.223   7.123   3.026  1.00 20.00     0.130 C 
ENDROOT
BRANCH   1   2
HETATM    2  C4  UNL     1     -32.136   8.206   2.935  1.00 20.00     0.065 C 
BRANCH   2   3
HETATM    3  C2  UNL     1     -32.132   8.938   1.610  1.00 20.00    -0.091 C 
HETATM    4  C1  UNL     1     -31.375   8.523   0.582  1.00 20.00     0.014 C 
HETATM    5  C3  UNL     1     -32.979  10.173   1.508  1.00 20.00     0.042 C 
ENDBRANCH   2   3
ENDBRANCH   1   2
BRANCH   1   6
HETATM    6  C5  UNL     1     -33.678   6.941   4.481  1.00 20.00     0.149 C 
BRANCH   6   7
HETATM    7  C7  UNL     1     -34.620   5.768   4.666  1.00 20.00     0.390 C 
HETATM    8  F9  UNL     1     -35.046   5.665   5.942  1.00 20.00    -0.171 F 
HETATM    9  F10 UNL     1     -35.712   5.913   3.883  1.00 20.00    -0.171 F 
HETATM   10  F11 UNL     1     -34.027   4.603   4.328  1.00 20.00    -0.171 F 
ENDBRANCH   6   7
ENDBRANCH   1   6
BRANCH   1  11
HETATM   11  O8  UNL     1     -32.673   5.899   2.540  1.00 20.00    -0.395 OA
HETATM   12  H22 UNL     1     -33.212   5.187   2.918  1.00 20.00     0.210 HD
ENDBRANCH   1  11
TORSDOF 5
ENDMDL
MODEL 7
REMARK VINA RESULT:      -5.6      3.097      4.718
REMARK  5 active torsions:
REMARK  status: ('A' for Active; 'I' for Inactive)
REMARK    1  A    between atoms: C2_2  and  C4_4 
REMARK    2  A    between atoms: C4_4  and  C6_6 
REMARK    3  A    between atoms: C5_5  and  C6_6 
REMARK    4  A    between atoms: C5_5  and  C7_7 
REMARK    5  A    between atoms: C6_6  and  O8_8 
ROOT
HETATM    1  C6  UNL     1     -32.527   7.433   3.222  1.00 20.00     0.130 C 
ENDROOT
BRANCH   1   2
HETATM    2  C4  UNL     1     -33.260   8.177   2.096  1.00 20.00     0.065 C 
BRANCH   2   3
HETATM    3  C2  UNL     1     -32.351   9.069   1.277  1.00 20.00    -0.091 C 
HETATM    4  C1  UNL     1     -31.296   8.572   0.610  1.00 20.00     0.014 C 
HETATM    5  C3  UNL     1     -32.653  10.539   1.276  1.00 20.00     0.042 C 
ENDBRANCH   2   3
ENDBRANCH   1   2
BRANCH   1   6
HETATM    6  C5  UNL     1     -33.519   6.986   4.305  1.00 20.00     0.149 C 
BRANCH   6   7
HETATM    7  C7  UNL     1     -34.265   5.718   3.941  1.00 20.00     0.390 C 
HETATM    8  F9  UNL     1     -34.422   4.907   5.007  1.00 20.00    -0.171 F 
HETATM    9  F10 UNL     1     -35.497   6.015   3.470  1.00 20.00    -0.171 F 
HETATM   10  F11 UNL     1     -33.616   5.026   2.980  1.00 20.00    -0.171 F 
ENDBRANCH   6   7
ENDBRANCH   1   6
BRANCH   1  11
HETATM   11  O8  UNL     1     -31.567   8.323   3.791  1.00 20.00    -0.395 OA
HETATM   12  H22 UNL     1     -32.054   8.902   4.397  1.00 20.00     0.210 HD
ENDBRANCH   1  11
TORSDOF 5
ENDMDL
MODEL 8
REMARK VINA RESULT:      -5.6      3.133      4.763
REMARK  5 active torsions:
REMARK  status: ('A' for Active; 'I' for Inactive)
REMARK    1  A    between atoms: C2_2  and  C4_4 
REMARK    2  A    between atoms: C4_4  and  C6_6 
REMARK    3  A    between atoms: C5_5  and  C6_6 
REMARK    4  A    between atoms: C5_5  and  C7_7 
REMARK    5  A    between atoms: C6_6  and  O8_8 
ROOT
HETATM    1  C6  UNL     1     -32.559   7.425   3.291  1.00 20.00     0.130 C 
ENDROOT
BRANCH   1   2
HETATM    2  C4  UNL     1     -33.263   8.087   2.096  1.00 20.00     0.065 C 
BRANCH   2   3
HETATM    3  C2  UNL     1     -32.371   9.041   1.330  1.00 20.00    -0.091 C 
HETATM    4  C1  UNL     1     -31.286   8.608   0.668  1.00 20.00     0.014 C 
HETATM    5  C3  UNL     1     -32.728  10.498   1.376  1.00 20.00     0.042 C 
ENDBRANCH   2   3
ENDBRANCH   1   2
BRANCH   1   6
HETATM    6  C5  UNL     1     -33.571   7.094   4.396  1.00 20.00     0.149 C 
BRANCH   6   7
HETATM    7  C7  UNL     1     -34.328   5.806   4.143  1.00 20.00     0.390 C 
HETATM    8  F9  UNL     1     -35.499   6.029   3.513  1.00 20.00    -0.171 F 
HETATM    9  F10 UNL     1     -33.598   4.976   3.363  1.00 20.00    -0.171 F 
HETATM   10  F11 UNL     1     -34.590   5.156   5.297  1.00 20.00    -0.171 F 
ENDBRANCH   6   7
ENDBRANCH   1   6
BRANCH   1  11
HETATM   11  O8  UNL     1     -31.583   8.338   3.794  1.00 20.00    -0.395 OA
HETATM   12  H22 UNL     1     -32.064   8.982   4.334  1.00 20.00     0.210 HD
ENDBRANCH   1  11
TORSDOF 5
ENDMDL
MODEL 9
REMARK VINA RESULT:      -4.6      3.380      4.905
REMARK  5 active torsions:
REMARK  status: ('A' for Active; 'I' for Inactive)
REMARK    1  A    between atoms: C2_2  and  C4_4 
REMARK    2  A    between atoms: C4_4  and  C6_6 
REMARK    3  A    between atoms: C5_5  and  C6_6 
REMARK    4  A    between atoms: C5_5  and  C7_7 
REMARK    5  A    between atoms: C6_6  and  O8_8 
ROOT
HETATM    1  C6  UNL     1     -34.068   6.471   3.055  1.00 20.00     0.130 C 
ENDROOT
BRANCH   1   2
HETATM    2  C4  UNL     1     -32.555   6.560   2.801  1.00 20.00     0.065 C 
BRANCH   2   3
HETATM    3  C2  UNL     1     -32.036   7.982   2.773  1.00 20.00    -0.091 C 
HETATM    4  C1  UNL     1     -31.421   8.526   3.835  1.00 20.00     0.014 C 
HETATM    5  C3  UNL     1     -32.276   8.772   1.519  1.00 20.00     0.042 C 
ENDBRANCH   2   3
ENDBRANCH   1   2
BRANCH   1   6
HETATM    6  C5  UNL     1     -34.350   5.721   4.364  1.00 20.00     0.149 C 
BRANCH   6   7
HETATM    7  C7  UNL     1     -34.174   6.586   5.595  1.00 20.00     0.390 C 
HETATM    8  F9  UNL     1     -34.368   7.893   5.321  1.00 20.00    -0.171 F 
HETATM    9  F10 UNL     1     -35.065   6.235   6.550  1.00 20.00    -0.171 F 
HETATM   10  F11 UNL     1     -32.938   6.448   6.120  1.00 20.00    -0.171 F 
ENDBRANCH   6   7
ENDBRANCH   1   6
BRANCH   1  11
HETATM   11  O8  UNL     1     -34.662   5.769   1.964  1.00 20.00    -0.395 OA
HETATM   12  H22 UNL     1     -34.561   6.337   1.185  1.00 20.00     0.210 HD
ENDBRANCH   1  11
TORSDOF 5
ENDMDL
