MODEL 1
REMARK VINA RESULT:      -4.5      0.000      0.000
REMARK  1 active torsions:
REMARK  status: ('A' for Active; 'I' for Inactive)
REMARK    1  A    between atoms: C1_1  and  C3_3 
ROOT
HETATM    1  C2  UNL     1     -33.287  15.659  -6.043  1.00 20.00     0.019 C 
HETATM    2  C3  UNL     1     -35.355  15.164  -5.551  1.00 20.00     0.070 C 
HETATM    3  C4  UNL     1     -34.520  15.213  -6.876  1.00 20.00    -0.036 C 
HETATM    4  C5  UNL     1     -34.025  15.276  -4.732  1.00 20.00    -0.036 C 
HETATM    5  C7  UNL     1     -35.006  16.294  -7.846  1.00 20.00     0.015 C 
HETATM    6  C8  UNL     1     -34.304  13.891  -7.614  1.00 20.00     0.015 C 
HETATM    7  C9  UNL     1     -34.051  16.414  -3.709  1.00 20.00     0.015 C 
HETATM    8  C10 UNL     1     -33.492  13.993  -4.091  1.00 20.00     0.015 C 
ENDROOT
BRANCH   2   9
HETATM    9  C1  UNL     1     -36.288  13.974  -5.301  1.00 20.00     0.128 C 
HETATM   10  C6  UNL     1     -37.756  14.280  -5.171  1.00 20.00     0.091 C 
HETATM   11  O11 UNL     1     -35.859  12.826  -5.212  1.00 20.00    -0.298 OA
ENDBRANCH   2   9
TORSDOF 1
ENDMDL
MODEL 2
REMARK VINA RESULT:      -4.0      1.338      2.997
REMARK  1 active torsions:
REMARK  status: ('A' for Active; 'I' for Inactive)
REMARK    1  A    between atoms: C1_1  and  C3_3 
ROOT
HETATM    1  C2  UNL     1     -35.761  16.659  -4.585  1.00 20.00     0.019 C 
HETATM    2  C3  UNL     1     -35.553  15.040  -6.034  1.00 20.00     0.070 C 
HETATM    3  C4  UNL     1     -34.614  15.681  -4.955  1.00 20.00    -0.036 C 
HETATM    4  C5  UNL     1     -36.766  15.801  -5.400  1.00 20.00    -0.036 C 
HETATM    5  C7  UNL     1     -33.401  16.388  -5.567  1.00 20.00     0.015 C 
HETATM    6  C8  UNL     1     -34.180  14.789  -3.791  1.00 20.00     0.015 C 
HETATM    7  C9  UNL     1     -37.554  16.620  -6.425  1.00 20.00     0.015 C 
HETATM    8  C10 UNL     1     -37.717  14.986  -4.522  1.00 20.00     0.015 C 
ENDROOT
BRANCH   2   9
HETATM    9  C1  UNL     1     -35.612  13.513  -6.160  1.00 20.00     0.128 C 
HETATM   10  C6  UNL     1     -35.191  12.927  -7.481  1.00 20.00     0.091 C 
HETATM   11  O11 UNL     1     -35.984  12.804  -5.228  1.00 20.00    -0.298 OA
ENDBRANCH   2   9
TORSDOF 1
ENDMDL
MODEL 3
REMARK VINA RESULT:      -3.9      1.748      3.464
REMARK  1 active torsions:
REMARK  status: ('A' for Active; 'I' for Inactive)
REMARK    1  A    between atoms: C1_1  and  C3_3 
ROOT
HETATM    1  C2  UNL     1     -33.492  16.742  -3.456  1.00 20.00     0.019 C 
HETATM    2  C3  UNL     1     -35.210  15.452  -3.847  1.00 20.00     0.070 C 
HETATM    3  C4  UNL     1     -35.002  16.817  -3.103  1.00 20.00    -0.036 C 
HETATM    4  C5  UNL     1     -33.776  15.593  -4.462  1.00 20.00    -0.036 C 
HETATM    5  C7  UNL     1     -35.269  16.720  -1.599  1.00 20.00     0.015 C 
HETATM    6  C8  UNL     1     -35.700  18.044  -3.692  1.00 20.00     0.015 C 
HETATM    7  C9  UNL     1     -32.902  14.360  -4.219  1.00 20.00     0.015 C 
HETATM    8  C10 UNL     1     -33.686  16.034  -5.924  1.00 20.00     0.015 C 
ENDROOT
BRANCH   2   9
HETATM    9  C1  UNL     1     -36.411  15.288  -4.784  1.00 20.00     0.128 C 
HETATM   10  C6  UNL     1     -36.690  13.898  -5.289  1.00 20.00     0.091 C 
HETATM   11  O11 UNL     1     -37.113  16.244  -5.106  1.00 20.00    -0.298 OA
ENDBRANCH   2   9
TORSDOF 1
ENDMDL
MODEL 4
REMARK VINA RESULT:      -3.9      1.129      1.264
REMARK  1 active torsions:
REMARK  status: ('A' for Active; 'I' for Inactive)
REMARK    1  A    between atoms: C1_1  and  C3_3 
ROOT
HETATM    1  C2  UNL     1     -34.132  16.439  -5.260  1.00 20.00     0.019 C 
HETATM    2  C3  UNL     1     -36.141  15.666  -4.897  1.00 20.00     0.070 C 
HETATM    3  C4  UNL     1     -35.397  16.259  -6.142  1.00 20.00    -0.036 C 
HETATM    4  C5  UNL     1     -34.765  15.548  -4.157  1.00 20.00    -0.036 C 
HETATM    5  C7  UNL     1     -35.990  17.590  -6.612  1.00 20.00     0.015 C 
HETATM    6  C8  UNL     1     -35.176  15.324  -7.332  1.00 20.00     0.015 C 
HETATM    7  C9  UNL     1     -34.772  16.219  -2.781  1.00 20.00     0.015 C 
HETATM    8  C10 UNL     1     -34.139  14.156  -4.070  1.00 20.00     0.015 C 
ENDROOT
BRANCH   2   9
HETATM    9  C1  UNL     1     -37.005  14.413  -5.071  1.00 20.00     0.128 C 
HETATM   10  C6  UNL     1     -38.497  14.617  -5.095  1.00 20.00     0.091 C 
HETATM   11  O11 UNL     1     -36.505  13.296  -5.187  1.00 20.00    -0.298 OA
ENDBRANCH   2   9
TORSDOF 1
ENDMDL
MODEL 5
REMARK VINA RESULT:      -3.9      1.669      3.656
REMARK  1 active torsions:
REMARK  status: ('A' for Active; 'I' for Inactive)
REMARK    1  A    between atoms: C1_1  and  C3_3 
ROOT
HETATM    1  C2  UNL     1     -35.355  13.837  -4.503  1.00 20.00     0.019 C 
HETATM    2  C3  UNL     1     -35.043  15.637  -5.698  1.00 20.00     0.070 C 
HETATM    3  C4  UNL     1     -34.391  15.050  -4.399  1.00 20.00    -0.036 C 
HETATM    4  C5  UNL     1     -35.740  14.256  -5.947  1.00 20.00    -0.036 C 
HETATM    5  C7  UNL     1     -34.649  15.913  -3.161  1.00 20.00     0.015 C 
HETATM    6  C8  UNL     1     -32.915  14.657  -4.478  1.00 20.00     0.015 C 
HETATM    7  C9  UNL     1     -37.252  14.382  -6.148  1.00 20.00     0.015 C 
HETATM    8  C10 UNL     1     -35.131  13.354  -7.022  1.00 20.00     0.015 C 
ENDROOT
BRANCH   2   9
HETATM    9  C1  UNL     1     -34.140  16.225  -6.787  1.00 20.00     0.128 C 
HETATM   10  C6  UNL     1     -34.062  17.727  -6.864  1.00 20.00     0.091 C 
HETATM   11  O11 UNL     1     -33.508  15.507  -7.558  1.00 20.00    -0.298 OA
ENDBRANCH   2   9
TORSDOF 1
ENDMDL
MODEL 6
REMARK VINA RESULT:      -3.8      2.347      3.661
REMARK  1 active torsions:
REMARK  status: ('A' for Active; 'I' for Inactive)
REMARK    1  A    between atoms: C1_1  and  C3_3 
ROOT
HETATM    1  C2  UNL     1     -34.624  15.918  -5.971  1.00 20.00     0.019 C 
HETATM    2  C3  UNL     1     -35.115  16.260  -3.871  1.00 20.00     0.070 C 
HETATM    3  C4  UNL     1     -34.508  15.063  -4.680  1.00 20.00    -0.036 C 
HETATM    4  C5  UNL     1     -34.893  17.186  -5.115  1.00 20.00    -0.036 C 
HETATM    5  C7  UNL     1     -35.420  13.833  -4.696  1.00 20.00     0.015 C 
HETATM    6  C8  UNL     1     -33.070  14.657  -4.351  1.00 20.00     0.015 C 
HETATM    7  C9  UNL     1     -36.164  17.929  -5.536  1.00 20.00     0.015 C 
HETATM    8  C10 UNL     1     -33.704  18.146  -5.066  1.00 20.00     0.015 C 
ENDROOT
BRANCH   2   9
HETATM    9  C1  UNL     1     -34.486  16.650  -2.529  1.00 20.00     0.128 C 
HETATM   10  C6  UNL     1     -35.429  16.855  -1.374  1.00 20.00     0.091 C 
HETATM   11  O11 UNL     1     -33.271  16.786  -2.402  1.00 20.00    -0.298 OA
ENDBRANCH   2   9
TORSDOF 1
ENDMDL
MODEL 7
REMARK VINA RESULT:      -3.8      1.342      3.145
REMARK  1 active torsions:
REMARK  status: ('A' for Active; 'I' for Inactive)
REMARK    1  A    between atoms: C1_1  and  C3_3 
ROOT
HETATM    1  C2  UNL     1     -36.594  15.126  -7.420  1.00 20.00     0.019 C 
HETATM    2  C3  UNL     1     -35.356  15.469  -5.655  1.00 20.00     0.070 C 
HETATM    3  C4  UNL     1     -36.899  15.421  -5.926  1.00 20.00    -0.036 C 
HETATM    4  C5  UNL     1     -35.109  14.840  -7.068  1.00 20.00    -0.036 C 
HETATM    5  C7  UNL     1     -37.582  16.774  -5.712  1.00 20.00     0.015 C 
HETATM    6  C8  UNL     1     -37.693  14.307  -5.240  1.00 20.00     0.015 C 
HETATM    7  C9  UNL     1     -34.129  15.655  -7.917  1.00 20.00     0.015 C 
HETATM    8  C10 UNL     1     -34.751  13.354  -7.117  1.00 20.00     0.015 C 
ENDROOT
BRANCH   2   9
HETATM    9  C1  UNL     1     -34.794  14.763  -4.416  1.00 20.00     0.128 C 
HETATM   10  C6  UNL     1     -34.165  15.639  -3.365  1.00 20.00     0.091 C 
HETATM   11  O11 UNL     1     -34.854  13.543  -4.286  1.00 20.00    -0.298 OA
ENDBRANCH   2   9
TORSDOF 1
ENDMDL
MODEL 8
REMARK VINA RESULT:      -3.7      1.334      3.246
REMARK  1 active torsions:
REMARK  status: ('A' for Active; 'I' for Inactive)
REMARK    1  A    between atoms: C1_1  and  C3_3 
ROOT
HETATM    1  C2  UNL     1     -35.534  17.017  -5.361  1.00 20.00     0.019 C 
HETATM    2  C3  UNL     1     -34.876  14.951  -5.621  1.00 20.00     0.070 C 
HETATM    3  C4  UNL     1     -35.584  15.746  -4.470  1.00 20.00    -0.036 C 
HETATM    4  C5  UNL     1     -35.156  16.149  -6.591  1.00 20.00    -0.036 C 
HETATM    5  C7  UNL     1     -34.721  15.865  -3.211  1.00 20.00     0.015 C 
HETATM    6  C8  UNL     1     -37.007  15.320  -4.104  1.00 20.00     0.015 C 
HETATM    7  C9  UNL     1     -33.895  16.643  -7.304  1.00 20.00     0.015 C 
HETATM    8  C10 UNL     1     -36.303  15.982  -7.589  1.00 20.00     0.015 C 
ENDROOT
BRANCH   2   9
HETATM    9  C1  UNL     1     -35.389  13.555  -5.990  1.00 20.00     0.128 C 
HETATM   10  C6  UNL     1     -35.075  13.064  -7.378  1.00 20.00     0.091 C 
HETATM   11  O11 UNL     1     -36.024  12.870  -5.192  1.00 20.00    -0.298 OA
ENDBRANCH   2   9
TORSDOF 1
ENDMDL
MODEL 9
REMARK VINA RESULT:      -3.7      1.205      3.142
REMARK  1 active torsions:
REMARK  status: ('A' for Active; 'I' for Inactive)
REMARK    1  A    between atoms: C1_1  and  C3_3 
ROOT
HETATM    1  C2  UNL     1     -32.994  15.703  -5.919  1.00 20.00     0.019 C 
HETATM    2  C3  UNL     1     -34.827  14.668  -5.340  1.00 20.00     0.070 C 
HETATM    3  C4  UNL     1     -33.545  15.150  -4.577  1.00 20.00    -0.036 C 
HETATM    4  C5  UNL     1     -34.392  15.530  -6.573  1.00 20.00    -0.036 C 
HETATM    5  C7  UNL     1     -32.712  13.991  -4.022  1.00 20.00     0.015 C 
HETATM    6  C8  UNL     1     -33.734  16.230  -3.510  1.00 20.00     0.015 C 
HETATM    7  C9  UNL     1     -34.345  14.725  -7.874  1.00 20.00     0.015 C 
HETATM    8  C10 UNL     1     -35.125  16.854  -6.790  1.00 20.00     0.015 C 
ENDROOT
BRANCH   2   9
HETATM    9  C1  UNL     1     -36.204  14.906  -4.710  1.00 20.00     0.128 C 
HETATM   10  C6  UNL     1     -37.365  14.172  -5.327  1.00 20.00     0.091 C 
HETATM   11  O11 UNL     1     -36.352  15.658  -3.750  1.00 20.00    -0.298 OA
ENDBRANCH   2   9
TORSDOF 1
ENDMDL
