MODEL 1
REMARK VINA RESULT:      -5.4      0.000      0.000
REMARK  4 active torsions:
REMARK  status: ('A' for Active; 'I' for Inactive)
REMARK    1  A    between atoms: C1_1  and  O10_10 
REMARK    2  A    between atoms: C1_1  and  O11_11 
REMARK    3  A    between atoms: C7_7  and  O10_10 
REMARK    4  A    between atoms: C8_8  and  O11_11 
ROOT
HETATM    1  C1  UNL     1     -32.376   7.962   2.836  1.00 20.00     0.407 C 
HETATM    2  O9  UNL     1     -31.366   8.495   3.275  1.00 20.00    -0.229 OA
ENDROOT
BRANCH   1   3
HETATM    3  O10 UNL     1     -32.909   6.782   3.262  1.00 20.00    -0.293 OA
BRANCH   3   4
HETATM    4  C7  UNL     1     -34.078   6.893   4.082  1.00 20.00     0.126 C 
HETATM    5  C2  UNL     1     -34.871   5.599   4.000  1.00 20.00     0.040 C 
HETATM    6  C3  UNL     1     -33.661   7.213   5.509  1.00 20.00     0.040 C 
ENDBRANCH   3   4
ENDBRANCH   1   3
BRANCH   1   7
HETATM    7  O11 UNL     1     -33.165   8.446   1.834  1.00 20.00    -0.288 OA
BRANCH   7   8
HETATM    8  C8  UNL     1     -32.508   9.276   0.876  1.00 20.00     0.062 C 
HETATM    9  C4  UNL     1     -31.101   8.726   0.641  1.00 20.00     0.046 C 
HETATM   10  C5  UNL     1     -33.325   9.225  -0.414  1.00 20.00     0.046 C 
HETATM   11  C6  UNL     1     -32.452  10.701   1.421  1.00 20.00     0.046 C 
ENDBRANCH   7   8
ENDBRANCH   1   7
TORSDOF 4
ENDMDL
MODEL 2
REMARK VINA RESULT:      -5.4      0.019      1.312
REMARK  4 active torsions:
REMARK  status: ('A' for Active; 'I' for Inactive)
REMARK    1  A    between atoms: C1_1  and  O10_10 
REMARK    2  A    between atoms: C1_1  and  O11_11 
REMARK    3  A    between atoms: C7_7  and  O10_10 
REMARK    4  A    between atoms: C8_8  and  O11_11 
ROOT
HETATM    1  C1  UNL     1     -32.375   7.968   2.826  1.00 20.00     0.407 C 
HETATM    2  O9  UNL     1     -31.358   8.490   3.262  1.00 20.00    -0.229 OA
ENDROOT
BRANCH   1   3
HETATM    3  O10 UNL     1     -32.915   6.791   3.249  1.00 20.00    -0.293 OA
BRANCH   3   4
HETATM    4  C7  UNL     1     -34.080   6.907   4.073  1.00 20.00     0.126 C 
HETATM    5  C2  UNL     1     -34.886   5.620   3.984  1.00 20.00     0.040 C 
HETATM    6  C3  UNL     1     -33.655   7.212   5.501  1.00 20.00     0.040 C 
ENDBRANCH   3   4
ENDBRANCH   1   3
BRANCH   1   7
HETATM    7  O11 UNL     1     -33.167   8.465   1.832  1.00 20.00    -0.288 OA
BRANCH   7   8
HETATM    8  C8  UNL     1     -32.504   9.274   0.860  1.00 20.00     0.062 C 
HETATM    9  C4  UNL     1     -33.311   9.232  -0.438  1.00 20.00     0.046 C 
HETATM   10  C5  UNL     1     -32.445  10.698   1.409  1.00 20.00     0.046 C 
HETATM   11  C6  UNL     1     -31.096   8.722   0.644  1.00 20.00     0.046 C 
ENDBRANCH   7   8
ENDBRANCH   1   7
TORSDOF 4
ENDMDL
MODEL 3
REMARK VINA RESULT:      -5.4      0.017      1.315
REMARK  4 active torsions:
REMARK  status: ('A' for Active; 'I' for Inactive)
REMARK    1  A    between atoms: C1_1  and  O10_10 
REMARK    2  A    between atoms: C1_1  and  O11_11 
REMARK    3  A    between atoms: C7_7  and  O10_10 
REMARK    4  A    between atoms: C8_8  and  O11_11 
ROOT
HETATM    1  C1  UNL     1     -32.372   7.968   2.827  1.00 20.00     0.407 C 
HETATM    2  O9  UNL     1     -31.363   8.505   3.262  1.00 20.00    -0.229 OA
ENDROOT
BRANCH   1   3
HETATM    3  O10 UNL     1     -32.902   6.790   3.262  1.00 20.00    -0.293 OA
BRANCH   3   4
HETATM    4  C7  UNL     1     -34.074   6.903   4.077  1.00 20.00     0.126 C 
HETATM    5  C2  UNL     1     -34.866   5.608   3.998  1.00 20.00     0.040 C 
HETATM    6  C3  UNL     1     -33.662   7.230   5.504  1.00 20.00     0.040 C 
ENDBRANCH   3   4
ENDBRANCH   1   3
BRANCH   1   7
HETATM    7  O11 UNL     1     -33.164   8.445   1.825  1.00 20.00    -0.288 OA
BRANCH   7   8
HETATM    8  C8  UNL     1     -32.511   9.272   0.861  1.00 20.00     0.062 C 
HETATM    9  C4  UNL     1     -32.448  10.698   1.407  1.00 20.00     0.046 C 
HETATM   10  C5  UNL     1     -31.104   8.714   0.656  1.00 20.00     0.046 C 
HETATM   11  C6  UNL     1     -33.305   9.222  -0.442  1.00 20.00     0.046 C 
ENDBRANCH   7   8
ENDBRANCH   1   7
TORSDOF 4
ENDMDL
MODEL 4
REMARK VINA RESULT:      -5.4      0.970      4.559
REMARK  4 active torsions:
REMARK  status: ('A' for Active; 'I' for Inactive)
REMARK    1  A    between atoms: C1_1  and  O10_10 
REMARK    2  A    between atoms: C1_1  and  O11_11 
REMARK    3  A    between atoms: C7_7  and  O10_10 
REMARK    4  A    between atoms: C8_8  and  O11_11 
ROOT
HETATM    1  C1  UNL     1     -32.655   7.426   3.314  1.00 20.00     0.407 C 
HETATM    2  O9  UNL     1     -31.969   7.904   4.208  1.00 20.00    -0.229 OA
ENDROOT
BRANCH   1   3
HETATM    3  O10 UNL     1     -33.076   8.077   2.193  1.00 20.00    -0.293 OA
BRANCH   3   4
HETATM    4  C7  UNL     1     -32.201   9.102   1.709  1.00 20.00     0.126 C 
HETATM    5  C2  UNL     1     -31.337   8.537   0.593  1.00 20.00     0.040 C 
HETATM    6  C3  UNL     1     -33.031  10.287   1.240  1.00 20.00     0.040 C 
ENDBRANCH   3   4
ENDBRANCH   1   3
BRANCH   1   7
HETATM    7  O11 UNL     1     -33.129   6.148   3.266  1.00 20.00    -0.288 OA
BRANCH   7   8
HETATM    8  C8  UNL     1     -34.223   5.861   4.138  1.00 20.00     0.062 C 
HETATM    9  C4  UNL     1     -35.522   6.250   3.431  1.00 20.00     0.046 C 
HETATM   10  C5  UNL     1     -34.199   4.362   4.428  1.00 20.00     0.046 C 
HETATM   11  C6  UNL     1     -34.043   6.661   5.426  1.00 20.00     0.046 C 
ENDBRANCH   7   8
ENDBRANCH   1   7
TORSDOF 4
ENDMDL
MODEL 5
REMARK VINA RESULT:      -5.2      0.914      4.390
REMARK  4 active torsions:
REMARK  status: ('A' for Active; 'I' for Inactive)
REMARK    1  A    between atoms: C1_1  and  O10_10 
REMARK    2  A    between atoms: C1_1  and  O11_11 
REMARK    3  A    between atoms: C7_7  and  O10_10 
REMARK    4  A    between atoms: C8_8  and  O11_11 
ROOT
HETATM    1  C1  UNL     1     -32.289   8.128   2.832  1.00 20.00     0.407 C 
HETATM    2  O9  UNL     1     -31.412   8.195   3.683  1.00 20.00    -0.229 OA
ENDROOT
BRANCH   1   3
HETATM    3  O10 UNL     1     -32.129   8.353   1.498  1.00 20.00    -0.293 OA
BRANCH   3   4
HETATM    4  C7  UNL     1     -32.985   9.352   0.932  1.00 20.00     0.126 C 
HETATM    5  C2  UNL     1     -32.488  10.728   1.344  1.00 20.00     0.040 C 
HETATM    6  C3  UNL     1     -33.015   9.189  -0.579  1.00 20.00     0.040 C 
ENDBRANCH   3   4
ENDBRANCH   1   3
BRANCH   1   7
HETATM    7  O11 UNL     1     -33.597   7.813   3.054  1.00 20.00    -0.288 OA
BRANCH   7   8
HETATM    8  C8  UNL     1     -33.830   6.560   3.699  1.00 20.00     0.062 C 
HETATM    9  C4  UNL     1     -33.563   6.726   5.195  1.00 20.00     0.046 C 
HETATM   10  C5  UNL     1     -35.290   6.182   3.455  1.00 20.00     0.046 C 
HETATM   11  C6  UNL     1     -32.896   5.517   3.091  1.00 20.00     0.046 C 
ENDBRANCH   7   8
ENDBRANCH   1   7
TORSDOF 4
ENDMDL
MODEL 6
REMARK VINA RESULT:      -5.1      1.347      1.990
REMARK  4 active torsions:
REMARK  status: ('A' for Active; 'I' for Inactive)
REMARK    1  A    between atoms: C1_1  and  O10_10 
REMARK    2  A    between atoms: C1_1  and  O11_11 
REMARK    3  A    between atoms: C7_7  and  O10_10 
REMARK    4  A    between atoms: C8_8  and  O11_11 
ROOT
HETATM    1  C1  UNL     1     -33.262   6.831   2.696  1.00 20.00     0.407 C 
HETATM    2  O9  UNL     1     -32.539   5.853   2.570  1.00 20.00    -0.229 OA
ENDROOT
BRANCH   1   3
HETATM    3  O10 UNL     1     -34.120   7.064   3.729  1.00 20.00    -0.293 OA
BRANCH   3   4
HETATM    4  C7  UNL     1     -33.805   6.398   4.957  1.00 20.00     0.126 C 
HETATM    5  C2  UNL     1     -33.775   7.416   6.085  1.00 20.00     0.040 C 
HETATM    6  C3  UNL     1     -34.828   5.301   5.209  1.00 20.00     0.040 C 
ENDBRANCH   3   4
ENDBRANCH   1   3
BRANCH   1   7
HETATM    7  O11 UNL     1     -33.349   7.879   1.828  1.00 20.00    -0.288 OA
BRANCH   7   8
HETATM    8  C8  UNL     1     -32.231   8.767   1.818  1.00 20.00     0.062 C 
HETATM    9  C4  UNL     1     -31.355   8.432   0.610  1.00 20.00     0.046 C 
HETATM   10  C5  UNL     1     -32.776  10.190   1.707  1.00 20.00     0.046 C 
HETATM   11  C6  UNL     1     -31.455   8.589   3.120  1.00 20.00     0.046 C 
ENDBRANCH   7   8
ENDBRANCH   1   7
TORSDOF 4
ENDMDL
MODEL 7
REMARK VINA RESULT:      -5.0      1.305      2.270
REMARK  4 active torsions:
REMARK  status: ('A' for Active; 'I' for Inactive)
REMARK    1  A    between atoms: C1_1  and  O10_10 
REMARK    2  A    between atoms: C1_1  and  O11_11 
REMARK    3  A    between atoms: C7_7  and  O10_10 
REMARK    4  A    between atoms: C8_8  and  O11_11 
ROOT
HETATM    1  C1  UNL     1     -33.199   6.913   2.651  1.00 20.00     0.407 C 
HETATM    2  O9  UNL     1     -32.514   5.905   2.551  1.00 20.00    -0.229 OA
ENDROOT
BRANCH   1   3
HETATM    3  O10 UNL     1     -34.006   7.232   3.703  1.00 20.00    -0.293 OA
BRANCH   3   4
HETATM    4  C7  UNL     1     -33.793   6.471   4.897  1.00 20.00     0.126 C 
HETATM    5  C2  UNL     1     -33.769   7.412   6.092  1.00 20.00     0.040 C 
HETATM    6  C3  UNL     1     -34.885   5.421   5.024  1.00 20.00     0.040 C 
ENDBRANCH   3   4
ENDBRANCH   1   3
BRANCH   1   7
HETATM    7  O11 UNL     1     -33.288   7.916   1.731  1.00 20.00    -0.288 OA
BRANCH   7   8
HETATM    8  C8  UNL     1     -32.201   8.842   1.720  1.00 20.00     0.062 C 
HETATM    9  C4  UNL     1     -32.767  10.255   1.582  1.00 20.00     0.046 C 
HETATM   10  C5  UNL     1     -31.454   8.690   3.044  1.00 20.00     0.046 C 
HETATM   11  C6  UNL     1     -31.285   8.505   0.545  1.00 20.00     0.046 C 
ENDBRANCH   7   8
ENDBRANCH   1   7
TORSDOF 4
ENDMDL
MODEL 8
REMARK VINA RESULT:      -4.8      1.407      4.775
REMARK  4 active torsions:
REMARK  status: ('A' for Active; 'I' for Inactive)
REMARK    1  A    between atoms: C1_1  and  O10_10 
REMARK    2  A    between atoms: C1_1  and  O11_11 
REMARK    3  A    between atoms: C7_7  and  O10_10 
REMARK    4  A    between atoms: C8_8  and  O11_11 
ROOT
HETATM    1  C1  UNL     1     -33.073   6.120   2.799  1.00 20.00     0.407 C 
HETATM    2  O9  UNL     1     -32.859   5.102   2.155  1.00 20.00    -0.229 OA
ENDROOT
BRANCH   1   3
HETATM    3  O10 UNL     1     -33.188   7.379   2.292  1.00 20.00    -0.293 OA
BRANCH   3   4
HETATM    4  C7  UNL     1     -31.953   8.062   2.047  1.00 20.00     0.126 C 
HETATM    5  C2  UNL     1     -32.204   9.227   1.104  1.00 20.00     0.040 C 
HETATM    6  C3  UNL     1     -31.364   8.521   3.372  1.00 20.00     0.040 C 
ENDBRANCH   3   4
ENDBRANCH   1   3
BRANCH   1   7
HETATM    7  O11 UNL     1     -33.242   6.191   4.151  1.00 20.00    -0.288 OA
BRANCH   7   8
HETATM    8  C8  UNL     1     -34.448   5.613   4.654  1.00 20.00     0.062 C 
HETATM    9  C4  UNL     1     -34.279   4.095   4.696  1.00 20.00     0.046 C 
HETATM   10  C5  UNL     1     -34.670   6.166   6.061  1.00 20.00     0.046 C 
HETATM   11  C6  UNL     1     -35.599   6.008   3.733  1.00 20.00     0.046 C 
ENDBRANCH   7   8
ENDBRANCH   1   7
TORSDOF 4
ENDMDL
MODEL 9
REMARK VINA RESULT:      -4.3      9.985     10.596
REMARK  4 active torsions:
REMARK  status: ('A' for Active; 'I' for Inactive)
REMARK    1  A    between atoms: C1_1  and  O10_10 
REMARK    2  A    between atoms: C1_1  and  O11_11 
REMARK    3  A    between atoms: C7_7  and  O10_10 
REMARK    4  A    between atoms: C8_8  and  O11_11 
ROOT
HETATM    1  C1  UNL     1     -33.410  15.059  -4.795  1.00 20.00     0.407 C 
HETATM    2  O9  UNL     1     -32.640  15.811  -5.377  1.00 20.00    -0.229 OA
ENDROOT
BRANCH   1   3
HETATM    3  O10 UNL     1     -33.891  15.228  -3.531  1.00 20.00    -0.293 OA
BRANCH   3   4
HETATM    4  C7  UNL     1     -34.345  16.549  -3.214  1.00 20.00     0.126 C 
HETATM    5  C2  UNL     1     -35.814  16.493  -2.827  1.00 20.00     0.040 C 
HETATM    6  C3  UNL     1     -33.486  17.119  -2.097  1.00 20.00     0.040 C 
ENDBRANCH   3   4
ENDBRANCH   1   3
BRANCH   1   7
HETATM    7  O11 UNL     1     -33.938  13.907  -5.299  1.00 20.00    -0.288 OA
BRANCH   7   8
HETATM    8  C8  UNL     1     -35.113  14.063  -6.095  1.00 20.00     0.062 C 
HETATM    9  C4  UNL     1     -35.203  15.520  -6.550  1.00 20.00     0.046 C 
HETATM   10  C5  UNL     1     -34.979  13.133  -7.300  1.00 20.00     0.046 C 
HETATM   11  C6  UNL     1     -36.328  13.680  -5.253  1.00 20.00     0.046 C 
ENDBRANCH   7   8
ENDBRANCH   1   7
TORSDOF 4
ENDMDL
