MODEL 1
REMARK VINA RESULT:      -5.4      0.000      0.000
REMARK  4 active torsions:
REMARK  status: ('A' for Active; 'I' for Inactive)
REMARK    1  A    between atoms: C6_6  and  C7_7 
REMARK    2  A    between atoms: C7_7  and  C9_9 
REMARK    3  A    between atoms: C8_8  and  C9_9 
REMARK    4  A    between atoms: C8_8  and  C10_10 
ROOT
HETATM    1  C1  UNL     1     -33.556   4.914   3.249  1.00 20.00     0.068 C 
HETATM    2  C4  UNL     1     -35.694   6.105   3.564  1.00 20.00     0.031 C 
HETATM    3  C5  UNL     1     -34.424   5.193   5.510  1.00 20.00     0.031 C 
HETATM    4  C10 UNL     1     -34.286   5.860   4.125  1.00 20.00     0.042 C 
HETATM    5  N11 UNL     1     -32.987   4.164   2.571  1.00 20.00    -0.196 NA
ENDROOT
BRANCH   4   6
HETATM    6  C8  UNL     1     -33.490   7.186   4.301  1.00 20.00     0.028 C 
BRANCH   6   7
HETATM    7  C9  UNL     1     -32.378   7.531   3.276  1.00 20.00    -0.017 C 
HETATM    8  C3  UNL     1     -31.321   8.488   3.835  1.00 20.00     0.010 C 
BRANCH   7   9
HETATM    9  C7  UNL     1     -32.974   8.164   1.993  1.00 20.00     0.004 C 
BRANCH   9  10
HETATM   10  C6  UNL     1     -31.977   9.001   1.188  1.00 20.00    -0.004 C 
HETATM   11  C2  UNL     1     -32.561  10.358   0.820  1.00 20.00     0.005 C 
ENDBRANCH   9  10
ENDBRANCH   7   9
ENDBRANCH   6   7
ENDBRANCH   4   6
TORSDOF 4
ENDMDL
MODEL 2
REMARK VINA RESULT:      -5.4      1.619      2.175
REMARK  4 active torsions:
REMARK  status: ('A' for Active; 'I' for Inactive)
REMARK    1  A    between atoms: C6_6  and  C7_7 
REMARK    2  A    between atoms: C7_7  and  C9_9 
REMARK    3  A    between atoms: C8_8  and  C9_9 
REMARK    4  A    between atoms: C8_8  and  C10_10 
ROOT
HETATM    1  C1  UNL     1     -33.936   6.711   5.044  1.00 20.00     0.068 C 
HETATM    2  C4  UNL     1     -33.315   5.081   3.299  1.00 20.00     0.031 C 
HETATM    3  C5  UNL     1     -35.549   6.194   3.291  1.00 20.00     0.031 C 
HETATM    4  C10 UNL     1     -34.050   6.394   3.601  1.00 20.00     0.042 C 
HETATM    5  N11 UNL     1     -33.858   6.955   6.176  1.00 20.00    -0.196 NA
ENDROOT
BRANCH   4   6
HETATM    6  C8  UNL     1     -33.527   7.571   2.728  1.00 20.00     0.028 C 
BRANCH   6   7
HETATM    7  C9  UNL     1     -31.996   7.734   2.535  1.00 20.00    -0.017 C 
HETATM    8  C3  UNL     1     -31.315   8.444   3.710  1.00 20.00     0.010 C 
BRANCH   7   9
HETATM    9  C7  UNL     1     -31.673   8.523   1.241  1.00 20.00     0.004 C 
BRANCH   9  10
HETATM   10  C6  UNL     1     -32.630   9.684   0.962  1.00 20.00    -0.004 C 
HETATM   11  C2  UNL     1     -33.227   9.586  -0.435  1.00 20.00     0.005 C 
ENDBRANCH   9  10
ENDBRANCH   7   9
ENDBRANCH   6   7
ENDBRANCH   4   6
TORSDOF 4
ENDMDL
MODEL 3
REMARK VINA RESULT:      -5.3      2.291      4.768
REMARK  4 active torsions:
REMARK  status: ('A' for Active; 'I' for Inactive)
REMARK    1  A    between atoms: C6_6  and  C7_7 
REMARK    2  A    between atoms: C7_7  and  C9_9 
REMARK    3  A    between atoms: C8_8  and  C9_9 
REMARK    4  A    between atoms: C8_8  and  C10_10 
ROOT
HETATM    1  C1  UNL     1     -32.686   9.811   1.685  1.00 20.00     0.068 C 
HETATM    2  C4  UNL     1     -31.239   8.052   0.735  1.00 20.00     0.031 C 
HETATM    3  C5  UNL     1     -31.398   8.402   3.202  1.00 20.00     0.031 C 
HETATM    4  C10 UNL     1     -32.192   8.427   1.878  1.00 20.00     0.042 C 
HETATM    5  N11 UNL     1     -33.064  10.899   1.542  1.00 20.00    -0.196 NA
ENDROOT
BRANCH   4   6
HETATM    6  C8  UNL     1     -33.376   7.425   2.003  1.00 20.00     0.028 C 
BRANCH   6   7
HETATM    7  C9  UNL     1     -33.296   6.307   3.075  1.00 20.00    -0.017 C 
HETATM    8  C3  UNL     1     -32.955   4.934   2.488  1.00 20.00     0.010 C 
BRANCH   7   9
HETATM    9  C7  UNL     1     -34.629   6.180   3.856  1.00 20.00     0.004 C 
BRANCH   9  10
HETATM   10  C6  UNL     1     -34.459   6.083   5.374  1.00 20.00    -0.004 C 
HETATM   11  C2  UNL     1     -33.710   7.288   5.925  1.00 20.00     0.005 C 
ENDBRANCH   9  10
ENDBRANCH   7   9
ENDBRANCH   6   7
ENDBRANCH   4   6
TORSDOF 4
ENDMDL
MODEL 4
REMARK VINA RESULT:      -4.7      1.905      4.576
REMARK  4 active torsions:
REMARK  status: ('A' for Active; 'I' for Inactive)
REMARK    1  A    between atoms: C6_6  and  C7_7 
REMARK    2  A    between atoms: C7_7  and  C9_9 
REMARK    3  A    between atoms: C8_8  and  C9_9 
REMARK    4  A    between atoms: C8_8  and  C10_10 
ROOT
HETATM    1  C1  UNL     1     -31.554   8.438   0.980  1.00 20.00     0.068 C 
HETATM    2  C4  UNL     1     -31.467   8.365   3.445  1.00 20.00     0.031 C 
HETATM    3  C5  UNL     1     -33.080   9.851   2.252  1.00 20.00     0.031 C 
HETATM    4  C10 UNL     1     -32.375   8.478   2.213  1.00 20.00     0.042 C 
HETATM    5  N11 UNL     1     -30.912   8.419   0.014  1.00 20.00    -0.196 NA
ENDROOT
BRANCH   4   6
HETATM    6  C8  UNL     1     -33.469   7.372   2.191  1.00 20.00     0.028 C 
BRANCH   6   7
HETATM    7  C9  UNL     1     -33.362   6.196   3.197  1.00 20.00    -0.017 C 
HETATM    8  C3  UNL     1     -32.959   4.874   2.536  1.00 20.00     0.010 C 
BRANCH   7   9
HETATM    9  C7  UNL     1     -34.700   5.973   3.946  1.00 20.00     0.004 C 
BRANCH   9  10
HETATM   10  C6  UNL     1     -34.571   5.970   5.471  1.00 20.00    -0.004 C 
HETATM   11  C2  UNL     1     -33.806   7.190   5.965  1.00 20.00     0.005 C 
ENDBRANCH   9  10
ENDBRANCH   7   9
ENDBRANCH   6   7
ENDBRANCH   4   6
TORSDOF 4
ENDMDL
MODEL 5
REMARK VINA RESULT:      -4.6      2.137      5.007
REMARK  4 active torsions:
REMARK  status: ('A' for Active; 'I' for Inactive)
REMARK    1  A    between atoms: C6_6  and  C7_7 
REMARK    2  A    between atoms: C7_7  and  C9_9 
REMARK    3  A    between atoms: C8_8  and  C9_9 
REMARK    4  A    between atoms: C8_8  and  C10_10 
ROOT
HETATM    1  C1  UNL     1     -32.993   9.151   0.006  1.00 20.00     0.068 C 
HETATM    2  C4  UNL     1     -31.115   8.656   1.528  1.00 20.00     0.031 C 
HETATM    3  C5  UNL     1     -32.628  10.601   1.932  1.00 20.00     0.031 C 
HETATM    4  C10 UNL     1     -32.567   9.144   1.425  1.00 20.00     0.042 C 
HETATM    5  N11 UNL     1     -33.325   9.169  -1.106  1.00 20.00    -0.196 NA
ENDROOT
BRANCH   4   6
HETATM    6  C8  UNL     1     -33.533   8.287   2.294  1.00 20.00     0.028 C 
BRANCH   6   7
HETATM    7  C9  UNL     1     -32.937   7.178   3.200  1.00 20.00    -0.017 C 
HETATM    8  C3  UNL     1     -32.961   5.792   2.547  1.00 20.00     0.010 C 
BRANCH   7   9
HETATM    9  C7  UNL     1     -33.692   7.089   4.550  1.00 20.00     0.004 C 
BRANCH   9  10
HETATM   10  C6  UNL     1     -34.776   6.008   4.591  1.00 20.00    -0.004 C 
HETATM   11  C2  UNL     1     -34.567   5.059   5.763  1.00 20.00     0.005 C 
ENDBRANCH   9  10
ENDBRANCH   7   9
ENDBRANCH   6   7
ENDBRANCH   4   6
TORSDOF 4
ENDMDL
MODEL 6
REMARK VINA RESULT:      -4.5      2.555      5.068
REMARK  4 active torsions:
REMARK  status: ('A' for Active; 'I' for Inactive)
REMARK    1  A    between atoms: C6_6  and  C7_7 
REMARK    2  A    between atoms: C7_7  and  C9_9 
REMARK    3  A    between atoms: C8_8  and  C9_9 
REMARK    4  A    between atoms: C8_8  and  C10_10 
ROOT
HETATM    1  C1  UNL     1     -32.564  10.441   1.440  1.00 20.00     0.068 C 
HETATM    2  C4  UNL     1     -33.139   9.272  -0.656  1.00 20.00     0.031 C 
HETATM    3  C5  UNL     1     -31.111   8.645   0.659  1.00 20.00     0.031 C 
HETATM    4  C10 UNL     1     -32.575   9.122   0.764  1.00 20.00     0.042 C 
HETATM    5  N11 UNL     1     -32.542  11.474   1.967  1.00 20.00    -0.196 NA
ENDROOT
BRANCH   4   6
HETATM    6  C8  UNL     1     -33.367   8.074   1.599  1.00 20.00     0.028 C 
BRANCH   6   7
HETATM    7  C9  UNL     1     -32.591   7.171   2.593  1.00 20.00    -0.017 C 
HETATM    8  C3  UNL     1     -33.005   5.698   2.516  1.00 20.00     0.010 C 
BRANCH   7   9
HETATM    9  C7  UNL     1     -32.782   7.651   4.054  1.00 20.00     0.004 C 
BRANCH   9  10
HETATM   10  C6  UNL     1     -33.954   6.987   4.782  1.00 20.00    -0.004 C 
HETATM   11  C2  UNL     1     -33.858   7.193   6.288  1.00 20.00     0.005 C 
ENDBRANCH   9  10
ENDBRANCH   7   9
ENDBRANCH   6   7
ENDBRANCH   4   6
TORSDOF 4
ENDMDL
MODEL 7
REMARK VINA RESULT:      -4.5      1.274      1.802
REMARK  4 active torsions:
REMARK  status: ('A' for Active; 'I' for Inactive)
REMARK    1  A    between atoms: C6_6  and  C7_7 
REMARK    2  A    between atoms: C7_7  and  C9_9 
REMARK    3  A    between atoms: C8_8  and  C9_9 
REMARK    4  A    between atoms: C8_8  and  C10_10 
ROOT
HETATM    1  C1  UNL     1     -35.553   6.066   3.663  1.00 20.00     0.068 C 
HETATM    2  C4  UNL     1     -34.416   5.184   5.667  1.00 20.00     0.031 C 
HETATM    3  C5  UNL     1     -33.466   4.836   3.385  1.00 20.00     0.031 C 
HETATM    4  C10 UNL     1     -34.230   5.829   4.287  1.00 20.00     0.042 C 
HETATM    5  N11 UNL     1     -36.587   6.241   3.167  1.00 20.00    -0.196 NA
ENDROOT
BRANCH   4   6
HETATM    6  C8  UNL     1     -33.406   7.146   4.365  1.00 20.00     0.028 C 
BRANCH   6   7
HETATM    7  C9  UNL     1     -32.364   7.441   3.254  1.00 20.00    -0.017 C 
HETATM    8  C3  UNL     1     -31.206   8.323   3.734  1.00 20.00     0.010 C 
BRANCH   7   9
HETATM    9  C7  UNL     1     -33.024   8.133   2.034  1.00 20.00     0.004 C 
BRANCH   9  10
HETATM   10  C6  UNL     1     -32.051   8.941   1.171  1.00 20.00    -0.004 C 
HETATM   11  C2  UNL     1     -32.613  10.318   0.847  1.00 20.00     0.005 C 
ENDBRANCH   9  10
ENDBRANCH   7   9
ENDBRANCH   6   7
ENDBRANCH   4   6
TORSDOF 4
ENDMDL
MODEL 8
REMARK VINA RESULT:      -4.5     10.888     11.707
REMARK  4 active torsions:
REMARK  status: ('A' for Active; 'I' for Inactive)
REMARK    1  A    between atoms: C6_6  and  C7_7 
REMARK    2  A    between atoms: C7_7  and  C9_9 
REMARK    3  A    between atoms: C8_8  and  C9_9 
REMARK    4  A    between atoms: C8_8  and  C10_10 
ROOT
HETATM    1  C1  UNL     1     -35.439  13.907  -5.082  1.00 20.00     0.068 C 
HETATM    2  C4  UNL     1     -33.766  15.561  -5.826  1.00 20.00     0.031 C 
HETATM    3  C5  UNL     1     -36.060  16.264  -5.136  1.00 20.00     0.031 C 
HETATM    4  C10 UNL     1     -34.912  15.272  -4.847  1.00 20.00     0.042 C 
HETATM    5  N11 UNL     1     -35.860  12.843  -5.271  1.00 20.00    -0.196 NA
ENDROOT
BRANCH   4   6
HETATM    6  C8  UNL     1     -34.474  15.455  -3.365  1.00 20.00     0.028 C 
BRANCH   6   7
HETATM    7  C9  UNL     1     -34.577  16.865  -2.726  1.00 20.00    -0.017 C 
HETATM    8  C3  UNL     1     -33.214  17.451  -2.342  1.00 20.00     0.010 C 
BRANCH   7   9
HETATM    9  C7  UNL     1     -35.468  16.843  -1.458  1.00 20.00     0.004 C 
BRANCH   9  10
HETATM   10  C6  UNL     1     -34.903  17.646  -0.283  1.00 20.00    -0.004 C 
HETATM   11  C2  UNL     1     -35.808  17.552   0.938  1.00 20.00     0.005 C 
ENDBRANCH   9  10
ENDBRANCH   7   9
ENDBRANCH   6   7
ENDBRANCH   4   6
TORSDOF 4
ENDMDL
MODEL 9
REMARK VINA RESULT:      -4.4     10.785     11.803
REMARK  4 active torsions:
REMARK  status: ('A' for Active; 'I' for Inactive)
REMARK    1  A    between atoms: C6_6  and  C7_7 
REMARK    2  A    between atoms: C7_7  and  C9_9 
REMARK    3  A    between atoms: C8_8  and  C9_9 
REMARK    4  A    between atoms: C8_8  and  C10_10 
ROOT
HETATM    1  C1  UNL     1     -35.169  13.833  -5.174  1.00 20.00     0.068 C 
HETATM    2  C4  UNL     1     -32.908  14.372  -4.344  1.00 20.00     0.031 C 
HETATM    3  C5  UNL     1     -33.708  15.211  -6.556  1.00 20.00     0.031 C 
HETATM    4  C10 UNL     1     -34.135  14.892  -5.107  1.00 20.00     0.042 C 
HETATM    5  N11 UNL     1     -35.975  13.001  -5.238  1.00 20.00    -0.196 NA
ENDROOT
BRANCH   4   6
HETATM    6  C8  UNL     1     -34.708  16.193  -4.472  1.00 20.00     0.028 C 
BRANCH   6   7
HETATM    7  C9  UNL     1     -35.741  16.069  -3.322  1.00 20.00    -0.017 C 
HETATM    8  C3  UNL     1     -37.073  16.758  -3.634  1.00 20.00     0.010 C 
BRANCH   7   9
HETATM    9  C7  UNL     1     -35.187  16.666  -2.003  1.00 20.00     0.004 C 
BRANCH   9  10
HETATM   10  C6  UNL     1     -33.719  17.095  -2.078  1.00 20.00    -0.004 C 
HETATM   11  C2  UNL     1     -33.355  18.027  -0.931  1.00 20.00     0.005 C 
ENDBRANCH   9  10
ENDBRANCH   7   9
ENDBRANCH   6   7
ENDBRANCH   4   6
TORSDOF 4
ENDMDL
