MODEL 1
REMARK VINA RESULT:      -4.8      0.000      0.000
REMARK  3 active torsions:
REMARK  status: ('A' for Active; 'I' for Inactive)
REMARK    1  A    between atoms: C3_3  and  C8_8 
REMARK    2  A    between atoms: C8_8  and  C9_9 
REMARK    3  A    between atoms: C9_9  and  O11_11 
ROOT
HETATM    1  C1  UNL     1     -32.660   9.525   1.199  1.00 20.00     0.088 C 
HETATM    2  C2  UNL     1     -33.088   8.236   1.617  1.00 20.00     0.096 C 
HETATM    3  C3  UNL     1     -32.546   7.553   2.644  1.00 20.00    -0.071 C 
HETATM    4  C4  UNL     1     -31.435   8.080   3.515  1.00 20.00     0.044 C 
HETATM    5  N10 UNL     1     -32.317  10.578   0.852  1.00 20.00    -0.192 NA
ENDROOT
BRANCH   3   6
HETATM    6  C8  UNL     1     -33.089   6.180   3.012  1.00 20.00     0.071 C 
BRANCH   6   7
HETATM    7  C9  UNL     1     -34.243   6.158   4.041  1.00 20.00     0.056 C 
HETATM    8  C5  UNL     1     -35.585   6.188   3.299  1.00 20.00     0.046 C 
HETATM    9  C6  UNL     1     -34.189   4.941   4.969  1.00 20.00     0.046 C 
BRANCH   7  10
HETATM   10  O11 UNL     1     -34.173   7.345   4.834  1.00 20.00    -0.385 OA
HETATM   11  C7  UNL     1     -33.844   7.045   6.181  1.00 20.00     0.202 C 
ENDBRANCH   7  10
ENDBRANCH   6   7
ENDBRANCH   3   6
TORSDOF 3
ENDMDL
MODEL 2
REMARK VINA RESULT:      -4.7      0.918      1.554
REMARK  3 active torsions:
REMARK  status: ('A' for Active; 'I' for Inactive)
REMARK    1  A    between atoms: C3_3  and  C8_8 
REMARK    2  A    between atoms: C8_8  and  C9_9 
REMARK    3  A    between atoms: C9_9  and  O11_11 
ROOT
HETATM    1  C1  UNL     1     -32.686   9.652   1.293  1.00 20.00     0.088 C 
HETATM    2  C2  UNL     1     -33.025   8.319   1.653  1.00 20.00     0.096 C 
HETATM    3  C3  UNL     1     -32.437   7.630   2.649  1.00 20.00    -0.071 C 
HETATM    4  C4  UNL     1     -31.365   8.194   3.547  1.00 20.00     0.044 C 
HETATM    5  N10 UNL     1     -32.416  10.740   0.993  1.00 20.00    -0.192 NA
ENDROOT
BRANCH   3   6
HETATM    6  C8  UNL     1     -32.885   6.208   2.955  1.00 20.00     0.071 C 
BRANCH   6   7
HETATM    7  C9  UNL     1     -34.091   6.065   3.910  1.00 20.00     0.056 C 
HETATM    8  C5  UNL     1     -33.916   7.022   5.096  1.00 20.00     0.046 C 
HETATM    9  C6  UNL     1     -35.432   6.332   3.221  1.00 20.00     0.046 C 
BRANCH   7  10
HETATM   10  O11 UNL     1     -34.103   4.737   4.439  1.00 20.00    -0.385 OA
HETATM   11  C7  UNL     1     -34.584   4.719   5.773  1.00 20.00     0.202 C 
ENDBRANCH   7  10
ENDBRANCH   6   7
ENDBRANCH   3   6
TORSDOF 3
ENDMDL
MODEL 3
REMARK VINA RESULT:      -4.5      2.827      4.776
REMARK  3 active torsions:
REMARK  status: ('A' for Active; 'I' for Inactive)
REMARK    1  A    between atoms: C3_3  and  C8_8 
REMARK    2  A    between atoms: C8_8  and  C9_9 
REMARK    3  A    between atoms: C9_9  and  O11_11 
ROOT
HETATM    1  C1  UNL     1     -34.470   5.816   5.098  1.00 20.00     0.088 C 
HETATM    2  C2  UNL     1     -34.259   6.723   4.024  1.00 20.00     0.096 C 
HETATM    3  C3  UNL     1     -33.564   6.429   2.909  1.00 20.00    -0.071 C 
HETATM    4  C4  UNL     1     -32.947   5.083   2.630  1.00 20.00     0.044 C 
HETATM    5  N10 UNL     1     -34.647   5.082   5.979  1.00 20.00    -0.192 NA
ENDROOT
BRANCH   3   6
HETATM    6  C8  UNL     1     -33.407   7.476   1.815  1.00 20.00     0.071 C 
BRANCH   6   7
HETATM    7  C9  UNL     1     -32.222   8.455   1.975  1.00 20.00     0.056 C 
HETATM    8  C5  UNL     1     -31.497   8.163   3.295  1.00 20.00     0.046 C 
HETATM    9  C6  UNL     1     -31.231   8.385   0.811  1.00 20.00     0.046 C 
BRANCH   7  10
HETATM   10  O11 UNL     1     -32.735   9.786   2.063  1.00 20.00    -0.385 OA
HETATM   11  C7  UNL     1     -32.675  10.444   0.808  1.00 20.00     0.202 C 
ENDBRANCH   7  10
ENDBRANCH   6   7
ENDBRANCH   3   6
TORSDOF 3
ENDMDL
MODEL 4
REMARK VINA RESULT:      -4.2     10.569     11.535
REMARK  3 active torsions:
REMARK  status: ('A' for Active; 'I' for Inactive)
REMARK    1  A    between atoms: C3_3  and  C8_8 
REMARK    2  A    between atoms: C8_8  and  C9_9 
REMARK    3  A    between atoms: C9_9  and  O11_11 
ROOT
HETATM    1  C1  UNL     1     -32.911  17.871  -1.577  1.00 20.00     0.088 C 
HETATM    2  C2  UNL     1     -33.741  16.886  -2.178  1.00 20.00     0.096 C 
HETATM    3  C3  UNL     1     -34.033  16.840  -3.491  1.00 20.00    -0.071 C 
HETATM    4  C4  UNL     1     -33.488  17.807  -4.512  1.00 20.00     0.044 C 
HETATM    5  N10 UNL     1     -32.235  18.671  -1.078  1.00 20.00    -0.192 NA
ENDROOT
BRANCH   3   6
HETATM    6  C8  UNL     1     -34.927  15.733  -4.031  1.00 20.00     0.071 C 
BRANCH   6   7
HETATM    7  C9  UNL     1     -34.209  14.563  -4.741  1.00 20.00     0.056 C 
HETATM    8  C5  UNL     1     -34.152  14.841  -6.248  1.00 20.00     0.046 C 
HETATM    9  C6  UNL     1     -32.796  14.319  -4.204  1.00 20.00     0.046 C 
BRANCH   7  10
HETATM   10  O11 UNL     1     -34.981  13.373  -4.561  1.00 20.00    -0.385 OA
HETATM   11  C7  UNL     1     -36.168  13.409  -5.335  1.00 20.00     0.202 C 
ENDBRANCH   7  10
ENDBRANCH   6   7
ENDBRANCH   3   6
TORSDOF 3
ENDMDL
MODEL 5
REMARK VINA RESULT:      -4.0      2.917      4.753
REMARK  3 active torsions:
REMARK  status: ('A' for Active; 'I' for Inactive)
REMARK    1  A    between atoms: C3_3  and  C8_8 
REMARK    2  A    between atoms: C8_8  and  C9_9 
REMARK    3  A    between atoms: C9_9  and  O11_11 
ROOT
HETATM    1  C1  UNL     1     -34.109   4.619   3.906  1.00 20.00     0.088 C 
HETATM    2  C2  UNL     1     -33.986   5.847   3.202  1.00 20.00     0.096 C 
HETATM    3  C3  UNL     1     -33.837   7.048   3.793  1.00 20.00    -0.071 C 
HETATM    4  C4  UNL     1     -33.742   7.248   5.284  1.00 20.00     0.044 C 
HETATM    5  N10 UNL     1     -34.210   3.611   4.473  1.00 20.00    -0.192 NA
ENDROOT
BRANCH   3   6
HETATM    6  C8  UNL     1     -33.706   8.302   2.941  1.00 20.00     0.071 C 
BRANCH   6   7
HETATM    7  C9  UNL     1     -32.295   8.603   2.386  1.00 20.00     0.056 C 
HETATM    8  C5  UNL     1     -31.247   8.270   3.456  1.00 20.00     0.046 C 
HETATM    9  C6  UNL     1     -31.985   7.836   1.099  1.00 20.00     0.046 C 
BRANCH   7  10
HETATM   10  O11 UNL     1     -32.195  10.004   2.122  1.00 20.00    -0.385 OA
HETATM   11  C7  UNL     1     -32.580  10.305   0.791  1.00 20.00     0.202 C 
ENDBRANCH   7  10
ENDBRANCH   6   7
ENDBRANCH   3   6
TORSDOF 3
ENDMDL
MODEL 6
REMARK VINA RESULT:      -4.0     10.677     11.586
REMARK  3 active torsions:
REMARK  status: ('A' for Active; 'I' for Inactive)
REMARK    1  A    between atoms: C3_3  and  C8_8 
REMARK    2  A    between atoms: C8_8  and  C9_9 
REMARK    3  A    between atoms: C9_9  and  O11_11 
ROOT
HETATM    1  C1  UNL     1     -33.540  17.288  -2.677  1.00 20.00     0.088 C 
HETATM    2  C2  UNL     1     -34.316  16.136  -2.981  1.00 20.00     0.096 C 
HETATM    3  C3  UNL     1     -34.095  15.331  -4.037  1.00 20.00    -0.071 C 
HETATM    4  C4  UNL     1     -32.968  15.519  -5.021  1.00 20.00     0.044 C 
HETATM    5  N10 UNL     1     -32.913  18.230  -2.421  1.00 20.00    -0.192 NA
ENDROOT
BRANCH   3   6
HETATM    6  C8  UNL     1     -34.983  14.116  -4.264  1.00 20.00     0.071 C 
BRANCH   6   7
HETATM    7  C9  UNL     1     -36.003  14.225  -5.420  1.00 20.00     0.056 C 
HETATM    8  C5  UNL     1     -36.280  15.705  -5.714  1.00 20.00     0.046 C 
HETATM    9  C6  UNL     1     -35.534  13.520  -6.695  1.00 20.00     0.046 C 
BRANCH   7  10
HETATM   10  O11 UNL     1     -37.238  13.641  -5.000  1.00 20.00    -0.385 OA
HETATM   11  C7  UNL     1     -38.276  14.606  -4.961  1.00 20.00     0.202 C 
ENDBRANCH   7  10
ENDBRANCH   6   7
ENDBRANCH   3   6
TORSDOF 3
ENDMDL
MODEL 7
REMARK VINA RESULT:      -3.9     10.873     11.926
REMARK  3 active torsions:
REMARK  status: ('A' for Active; 'I' for Inactive)
REMARK    1  A    between atoms: C3_3  and  C8_8 
REMARK    2  A    between atoms: C8_8  and  C9_9 
REMARK    3  A    between atoms: C9_9  and  O11_11 
ROOT
HETATM    1  C1  UNL     1     -33.935  16.640  -2.506  1.00 20.00     0.088 C 
HETATM    2  C2  UNL     1     -34.797  15.795  -3.256  1.00 20.00     0.096 C 
HETATM    3  C3  UNL     1     -34.373  14.800  -4.059  1.00 20.00    -0.071 C 
HETATM    4  C4  UNL     1     -32.925  14.422  -4.240  1.00 20.00     0.044 C 
HETATM    5  N10 UNL     1     -33.239  17.335  -1.889  1.00 20.00    -0.192 NA
ENDROOT
BRANCH   3   6
HETATM    6  C8  UNL     1     -35.385  13.949  -4.811  1.00 20.00     0.071 C 
BRANCH   6   7
HETATM    7  C9  UNL     1     -35.597  14.302  -6.301  1.00 20.00     0.056 C 
HETATM    8  C5  UNL     1     -35.003  13.190  -7.175  1.00 20.00     0.046 C 
HETATM    9  C6  UNL     1     -37.070  14.513  -6.658  1.00 20.00     0.046 C 
BRANCH   7  10
HETATM   10  O11 UNL     1     -34.876  15.500  -6.596  1.00 20.00    -0.385 OA
HETATM   11  C7  UNL     1     -34.083  15.348  -7.762  1.00 20.00     0.202 C 
ENDBRANCH   7  10
ENDBRANCH   6   7
ENDBRANCH   3   6
TORSDOF 3
ENDMDL
MODEL 8
REMARK VINA RESULT:      -3.9     10.834     11.666
REMARK  3 active torsions:
REMARK  status: ('A' for Active; 'I' for Inactive)
REMARK    1  A    between atoms: C3_3  and  C8_8 
REMARK    2  A    between atoms: C8_8  and  C9_9 
REMARK    3  A    between atoms: C9_9  and  O11_11 
ROOT
HETATM    1  C1  UNL     1     -35.746  13.904  -4.973  1.00 20.00     0.088 C 
HETATM    2  C2  UNL     1     -35.521  15.263  -4.620  1.00 20.00     0.096 C 
HETATM    3  C3  UNL     1     -34.326  15.764  -4.255  1.00 20.00    -0.071 C 
HETATM    4  C4  UNL     1     -33.053  14.958  -4.207  1.00 20.00     0.044 C 
HETATM    5  N10 UNL     1     -35.938  12.797  -5.262  1.00 20.00    -0.192 NA
ENDROOT
BRANCH   3   6
HETATM    6  C8  UNL     1     -34.197  17.239  -3.906  1.00 20.00     0.071 C 
BRANCH   6   7
HETATM    7  C9  UNL     1     -34.239  17.589  -2.401  1.00 20.00     0.056 C 
HETATM    8  C5  UNL     1     -34.610  19.068  -2.233  1.00 20.00     0.046 C 
HETATM    9  C6  UNL     1     -35.218  16.714  -1.614  1.00 20.00     0.046 C 
BRANCH   7  10
HETATM   10  O11 UNL     1     -32.930  17.420  -1.853  1.00 20.00    -0.385 OA
HETATM   11  C7  UNL     1     -32.637  18.428  -0.900  1.00 20.00     0.202 C 
ENDBRANCH   7  10
ENDBRANCH   6   7
ENDBRANCH   3   6
TORSDOF 3
ENDMDL
MODEL 9
REMARK VINA RESULT:      -3.8     10.997     12.146
REMARK  3 active torsions:
REMARK  status: ('A' for Active; 'I' for Inactive)
REMARK    1  A    between atoms: C3_3  and  C8_8 
REMARK    2  A    between atoms: C8_8  and  C9_9 
REMARK    3  A    between atoms: C9_9  and  O11_11 
ROOT
HETATM    1  C1  UNL     1     -34.676  16.541  -2.181  1.00 20.00     0.088 C 
HETATM    2  C2  UNL     1     -34.188  15.839  -3.317  1.00 20.00     0.096 C 
HETATM    3  C3  UNL     1     -33.694  16.432  -4.420  1.00 20.00    -0.071 C 
HETATM    4  C4  UNL     1     -33.556  17.924  -4.586  1.00 20.00     0.044 C 
HETATM    5  N10 UNL     1     -35.076  17.106  -1.250  1.00 20.00    -0.192 NA
ENDROOT
BRANCH   3   6
HETATM    6  C8  UNL     1     -33.190  15.582  -5.577  1.00 20.00     0.071 C 
BRANCH   6   7
HETATM    7  C9  UNL     1     -34.270  14.854  -6.409  1.00 20.00     0.056 C 
HETATM    8  C5  UNL     1     -35.577  15.655  -6.355  1.00 20.00     0.046 C 
HETATM    9  C6  UNL     1     -33.854  14.637  -7.866  1.00 20.00     0.046 C 
BRANCH   7  10
HETATM   10  O11 UNL     1     -34.531  13.583  -5.811  1.00 20.00    -0.385 OA
HETATM   11  C7  UNL     1     -35.910  13.424  -5.521  1.00 20.00     0.202 C 
ENDBRANCH   7  10
ENDBRANCH   6   7
ENDBRANCH   3   6
TORSDOF 3
ENDMDL
