MODEL 1
REMARK VINA RESULT:      -5.9      0.000      0.000
REMARK  4 active torsions:
REMARK  status: ('A' for Active; 'I' for Inactive)
REMARK    1  A    between atoms: C6_6  and  C7_7 
REMARK    2  A    between atoms: C7_7  and  C9_9 
REMARK    3  A    between atoms: C8_8  and  C9_9 
REMARK    4  A    between atoms: C8_8  and  C10_10 
ROOT
HETATM    1  C1  UNL     1     -34.050   6.621   5.246  1.00 20.00     0.068 C 
HETATM    2  C4  UNL     1     -34.159   4.353   4.278  1.00 20.00     0.031 C 
HETATM    3  C5  UNL     1     -35.501   6.231   3.326  1.00 20.00     0.031 C 
HETATM    4  C10 UNL     1     -34.152   5.859   3.980  1.00 20.00     0.042 C 
HETATM    5  N11 UNL     1     -33.981   7.220   6.238  1.00 20.00    -0.196 NA
ENDROOT
BRANCH   4   6
HETATM    6  C8  UNL     1     -33.013   6.254   2.996  1.00 20.00     0.028 C 
BRANCH   6   7
HETATM    7  C9  UNL     1     -32.644   7.753   2.845  1.00 20.00    -0.017 C 
HETATM    8  C3  UNL     1     -31.475   8.180   3.740  1.00 20.00     0.010 C 
BRANCH   7   9
HETATM    9  C7  UNL     1     -32.278   8.093   1.377  1.00 20.00     0.004 C 
BRANCH   9  10
HETATM   10  C6  UNL     1     -32.537   9.551   0.990  1.00 20.00    -0.004 C 
HETATM   11  C2  UNL     1     -33.157   9.655  -0.396  1.00 20.00     0.005 C 
ENDBRANCH   9  10
ENDBRANCH   7   9
ENDBRANCH   6   7
ENDBRANCH   4   6
TORSDOF 4
ENDMDL
MODEL 2
REMARK VINA RESULT:      -5.6      1.267      1.808
REMARK  4 active torsions:
REMARK  status: ('A' for Active; 'I' for Inactive)
REMARK    1  A    between atoms: C6_6  and  C7_7 
REMARK    2  A    between atoms: C7_7  and  C9_9 
REMARK    3  A    between atoms: C8_8  and  C9_9 
REMARK    4  A    between atoms: C8_8  and  C10_10 
ROOT
HETATM    1  C1  UNL     1     -34.138   4.648   4.159  1.00 20.00     0.068 C 
HETATM    2  C4  UNL     1     -35.472   6.479   3.180  1.00 20.00     0.031 C 
HETATM    3  C5  UNL     1     -34.004   6.867   5.161  1.00 20.00     0.031 C 
HETATM    4  C10 UNL     1     -34.137   6.093   3.832  1.00 20.00     0.042 C 
HETATM    5  N11 UNL     1     -34.140   3.519   4.427  1.00 20.00    -0.196 NA
ENDROOT
BRANCH   4   6
HETATM    6  C8  UNL     1     -32.921   6.462   2.933  1.00 20.00     0.028 C 
BRANCH   6   7
HETATM    7  C9  UNL     1     -32.480   7.947   2.847  1.00 20.00    -0.017 C 
HETATM    8  C3  UNL     1     -31.362   8.301   3.833  1.00 20.00     0.010 C 
BRANCH   7   9
HETATM    9  C7  UNL     1     -31.997   8.304   1.418  1.00 20.00     0.004 C 
BRANCH   9  10
HETATM   10  C6  UNL     1     -32.494   9.660   0.912  1.00 20.00    -0.004 C 
HETATM   11  C2  UNL     1     -33.199   9.527  -0.430  1.00 20.00     0.005 C 
ENDBRANCH   9  10
ENDBRANCH   7   9
ENDBRANCH   6   7
ENDBRANCH   4   6
TORSDOF 4
ENDMDL
MODEL 3
REMARK VINA RESULT:      -5.0      2.079      4.896
REMARK  4 active torsions:
REMARK  status: ('A' for Active; 'I' for Inactive)
REMARK    1  A    between atoms: C6_6  and  C7_7 
REMARK    2  A    between atoms: C7_7  and  C9_9 
REMARK    3  A    between atoms: C8_8  and  C9_9 
REMARK    4  A    between atoms: C8_8  and  C10_10 
ROOT
HETATM    1  C1  UNL     1     -32.522  10.500   1.476  1.00 20.00     0.068 C 
HETATM    2  C4  UNL     1     -33.258   9.296  -0.549  1.00 20.00     0.031 C 
HETATM    3  C5  UNL     1     -31.165   8.651   0.650  1.00 20.00     0.031 C 
HETATM    4  C10 UNL     1     -32.608   9.167   0.836  1.00 20.00     0.042 C 
HETATM    5  N11 UNL     1     -32.444  11.545   1.975  1.00 20.00    -0.196 NA
ENDROOT
BRANCH   4   6
HETATM    6  C8  UNL     1     -33.369   8.158   1.744  1.00 20.00     0.028 C 
BRANCH   6   7
HETATM    7  C9  UNL     1     -32.550   7.237   2.686  1.00 20.00    -0.017 C 
HETATM    8  C3  UNL     1     -32.259   7.875   4.049  1.00 20.00     0.010 C 
BRANCH   7   9
HETATM    9  C7  UNL     1     -33.282   5.892   2.928  1.00 20.00     0.004 C 
BRANCH   9  10
HETATM   10  C6  UNL     1     -34.618   6.032   3.662  1.00 20.00    -0.004 C 
HETATM   11  C2  UNL     1     -34.688   5.105   4.867  1.00 20.00     0.005 C 
ENDBRANCH   9  10
ENDBRANCH   7   9
ENDBRANCH   6   7
ENDBRANCH   4   6
TORSDOF 4
ENDMDL
MODEL 4
REMARK VINA RESULT:      -4.9      2.122      4.756
REMARK  4 active torsions:
REMARK  status: ('A' for Active; 'I' for Inactive)
REMARK    1  A    between atoms: C6_6  and  C7_7 
REMARK    2  A    between atoms: C7_7  and  C9_9 
REMARK    3  A    between atoms: C8_8  and  C9_9 
REMARK    4  A    between atoms: C8_8  and  C10_10 
ROOT
HETATM    1  C1  UNL     1     -32.673   8.899   1.656  1.00 20.00     0.068 C 
HETATM    2  C4  UNL     1     -32.394   6.478   2.043  1.00 20.00     0.031 C 
HETATM    3  C5  UNL     1     -31.229   8.159   3.475  1.00 20.00     0.031 C 
HETATM    4  C10 UNL     1     -32.531   7.859   2.700  1.00 20.00     0.042 C 
HETATM    5  N11 UNL     1     -32.774   9.718   0.839  1.00 20.00    -0.196 NA
ENDROOT
BRANCH   4   6
HETATM    6  C8  UNL     1     -33.716   7.911   3.707  1.00 20.00     0.028 C 
BRANCH   6   7
HETATM    7  C9  UNL     1     -33.755   6.882   4.867  1.00 20.00    -0.017 C 
HETATM    8  C3  UNL     1     -33.808   7.537   6.252  1.00 20.00     0.010 C 
BRANCH   7   9
HETATM    9  C7  UNL     1     -34.976   5.935   4.734  1.00 20.00     0.004 C 
BRANCH   9  10
HETATM   10  C6  UNL     1     -34.702   4.498   5.184  1.00 20.00    -0.004 C 
HETATM   11  C2  UNL     1     -33.878   3.742   4.152  1.00 20.00     0.005 C 
ENDBRANCH   9  10
ENDBRANCH   7   9
ENDBRANCH   6   7
ENDBRANCH   4   6
TORSDOF 4
ENDMDL
MODEL 5
REMARK VINA RESULT:      -4.8      2.514      5.098
REMARK  4 active torsions:
REMARK  status: ('A' for Active; 'I' for Inactive)
REMARK    1  A    between atoms: C6_6  and  C7_7 
REMARK    2  A    between atoms: C7_7  and  C9_9 
REMARK    3  A    between atoms: C8_8  and  C9_9 
REMARK    4  A    between atoms: C8_8  and  C10_10 
ROOT
HETATM    1  C1  UNL     1     -33.070   9.253  -0.108  1.00 20.00     0.068 C 
HETATM    2  C4  UNL     1     -31.087   8.675   1.242  1.00 20.00     0.031 C 
HETATM    3  C5  UNL     1     -32.449  10.705   1.750  1.00 20.00     0.031 C 
HETATM    4  C10 UNL     1     -32.514   9.240   1.265  1.00 20.00     0.042 C 
HETATM    5  N11 UNL     1     -33.504   9.274  -1.184  1.00 20.00    -0.196 NA
ENDROOT
BRANCH   4   6
HETATM    6  C8  UNL     1     -33.439   8.450   2.235  1.00 20.00     0.028 C 
BRANCH   6   7
HETATM    7  C9  UNL     1     -32.819   7.325   3.106  1.00 20.00    -0.017 C 
HETATM    8  C3  UNL     1     -32.868   7.629   4.607  1.00 20.00     0.010 C 
BRANCH   7   9
HETATM    9  C7  UNL     1     -33.534   5.972   2.862  1.00 20.00     0.004 C 
BRANCH   9  10
HETATM   10  C6  UNL     1     -34.671   5.681   3.845  1.00 20.00    -0.004 C 
HETATM   11  C2  UNL     1     -34.464   4.351   4.555  1.00 20.00     0.005 C 
ENDBRANCH   9  10
ENDBRANCH   7   9
ENDBRANCH   6   7
ENDBRANCH   4   6
TORSDOF 4
ENDMDL
MODEL 6
REMARK VINA RESULT:      -4.7     10.595     11.580
REMARK  4 active torsions:
REMARK  status: ('A' for Active; 'I' for Inactive)
REMARK    1  A    between atoms: C6_6  and  C7_7 
REMARK    2  A    between atoms: C7_7  and  C9_9 
REMARK    3  A    between atoms: C8_8  and  C9_9 
REMARK    4  A    between atoms: C8_8  and  C10_10 
ROOT
HETATM    1  C1  UNL     1     -35.250  13.796  -5.071  1.00 20.00     0.068 C 
HETATM    2  C4  UNL     1     -33.018  14.406  -4.214  1.00 20.00     0.031 C 
HETATM    3  C5  UNL     1     -34.006  15.569  -6.190  1.00 20.00     0.031 C 
HETATM    4  C10 UNL     1     -34.327  14.927  -4.823  1.00 20.00     0.042 C 
HETATM    5  N11 UNL     1     -35.971  12.910  -5.277  1.00 20.00    -0.196 NA
ENDROOT
BRANCH   4   6
HETATM    6  C8  UNL     1     -34.997  16.009  -3.926  1.00 20.00     0.028 C 
BRANCH   6   7
HETATM    7  C9  UNL     1     -34.246  16.497  -2.659  1.00 20.00    -0.017 C 
HETATM    8  C3  UNL     1     -33.432  17.773  -2.896  1.00 20.00     0.010 C 
BRANCH   7   9
HETATM    9  C7  UNL     1     -35.231  16.761  -1.492  1.00 20.00     0.004 C 
BRANCH   9  10
HETATM   10  C6  UNL     1     -34.658  17.640  -0.378  1.00 20.00    -0.004 C 
HETATM   11  C2  UNL     1     -35.605  17.715   0.811  1.00 20.00     0.005 C 
ENDBRANCH   9  10
ENDBRANCH   7   9
ENDBRANCH   6   7
ENDBRANCH   4   6
TORSDOF 4
ENDMDL
MODEL 7
REMARK VINA RESULT:      -4.6      1.338      1.852
REMARK  4 active torsions:
REMARK  status: ('A' for Active; 'I' for Inactive)
REMARK    1  A    between atoms: C6_6  and  C7_7 
REMARK    2  A    between atoms: C7_7  and  C9_9 
REMARK    3  A    between atoms: C8_8  and  C9_9 
REMARK    4  A    between atoms: C8_8  and  C10_10 
ROOT
HETATM    1  C1  UNL     1     -35.488   6.138   3.707  1.00 20.00     0.068 C 
HETATM    2  C4  UNL     1     -34.042   6.462   5.681  1.00 20.00     0.031 C 
HETATM    3  C5  UNL     1     -34.175   4.253   4.525  1.00 20.00     0.031 C 
HETATM    4  C10 UNL     1     -34.183   5.783   4.311  1.00 20.00     0.042 C 
HETATM    5  N11 UNL     1     -36.515   6.406   3.236  1.00 20.00    -0.196 NA
ENDROOT
BRANCH   4   6
HETATM    6  C8  UNL     1     -33.008   6.144   3.358  1.00 20.00     0.028 C 
BRANCH   6   7
HETATM    7  C9  UNL     1     -32.739   7.638   3.038  1.00 20.00    -0.017 C 
HETATM    8  C3  UNL     1     -31.418   8.150   3.621  1.00 20.00     0.010 C 
BRANCH   7   9
HETATM    9  C7  UNL     1     -32.722   7.889   1.508  1.00 20.00     0.004 C 
BRANCH   9  10
HETATM   10  C6  UNL     1     -31.783   9.015   1.071  1.00 20.00    -0.004 C 
HETATM   11  C2  UNL     1     -32.558  10.274   0.707  1.00 20.00     0.005 C 
ENDBRANCH   9  10
ENDBRANCH   7   9
ENDBRANCH   6   7
ENDBRANCH   4   6
TORSDOF 4
ENDMDL
MODEL 8
REMARK VINA RESULT:      -4.6      2.153      4.990
REMARK  4 active torsions:
REMARK  status: ('A' for Active; 'I' for Inactive)
REMARK    1  A    between atoms: C6_6  and  C7_7 
REMARK    2  A    between atoms: C7_7  and  C9_9 
REMARK    3  A    between atoms: C8_8  and  C9_9 
REMARK    4  A    between atoms: C8_8  and  C10_10 
ROOT
HETATM    1  C1  UNL     1     -32.551  10.197   1.571  1.00 20.00     0.068 C 
HETATM    2  C4  UNL     1     -33.430   8.340   0.204  1.00 20.00     0.031 C 
HETATM    3  C5  UNL     1     -30.975   8.665   0.516  1.00 20.00     0.031 C 
HETATM    4  C10 UNL     1     -32.352   8.775   1.206  1.00 20.00     0.042 C 
HETATM    5  N11 UNL     1     -32.698  11.314   1.850  1.00 20.00    -0.196 NA
ENDROOT
BRANCH   4   6
HETATM    6  C8  UNL     1     -32.332   7.870   2.472  1.00 20.00     0.028 C 
BRANCH   6   7
HETATM    7  C9  UNL     1     -33.440   6.797   2.638  1.00 20.00    -0.017 C 
HETATM    8  C3  UNL     1     -32.921   5.365   2.475  1.00 20.00     0.010 C 
BRANCH   7   9
HETATM    9  C7  UNL     1     -34.123   6.909   4.026  1.00 20.00     0.004 C 
BRANCH   9  10
HETATM   10  C6  UNL     1     -35.006   5.711   4.385  1.00 20.00    -0.004 C 
HETATM   11  C2  UNL     1     -34.587   5.091   5.711  1.00 20.00     0.005 C 
ENDBRANCH   9  10
ENDBRANCH   7   9
ENDBRANCH   6   7
ENDBRANCH   4   6
TORSDOF 4
ENDMDL
MODEL 9
REMARK VINA RESULT:      -4.6     10.824     11.765
REMARK  4 active torsions:
REMARK  status: ('A' for Active; 'I' for Inactive)
REMARK    1  A    between atoms: C6_6  and  C7_7 
REMARK    2  A    between atoms: C7_7  and  C9_9 
REMARK    3  A    between atoms: C8_8  and  C9_9 
REMARK    4  A    between atoms: C8_8  and  C10_10 
ROOT
HETATM    1  C1  UNL     1     -35.488  13.858  -4.912  1.00 20.00     0.068 C 
HETATM    2  C4  UNL     1     -33.553  15.131  -4.058  1.00 20.00     0.031 C 
HETATM    3  C5  UNL     1     -35.137  16.136  -5.706  1.00 20.00     0.031 C 
HETATM    4  C10 UNL     1     -35.027  15.199  -4.484  1.00 20.00     0.042 C 
HETATM    5  N11 UNL     1     -35.849  12.810  -5.258  1.00 20.00    -0.196 NA
ENDROOT
BRANCH   4   6
HETATM    6  C8  UNL     1     -35.934  15.768  -3.355  1.00 20.00     0.028 C 
BRANCH   6   7
HETATM    7  C9  UNL     1     -35.549  17.120  -2.699  1.00 20.00    -0.017 C 
HETATM    8  C3  UNL     1     -36.592  18.220  -2.930  1.00 20.00     0.010 C 
BRANCH   7   9
HETATM    9  C7  UNL     1     -35.344  16.962  -1.171  1.00 20.00     0.004 C 
BRANCH   9  10
HETATM   10  C6  UNL     1     -34.166  17.766  -0.613  1.00 20.00    -0.004 C 
HETATM   11  C2  UNL     1     -32.998  17.787  -1.588  1.00 20.00     0.005 C 
ENDBRANCH   9  10
ENDBRANCH   7   9
ENDBRANCH   6   7
ENDBRANCH   4   6
TORSDOF 4
ENDMDL
