MODEL 1
REMARK VINA RESULT:      -5.6      0.000      0.000
REMARK  3 active torsions:
REMARK  status: ('A' for Active; 'I' for Inactive)
REMARK    1  A    between atoms: C7_7  and  C9_9 
REMARK    2  A    between atoms: C8_8  and  C9_9 
REMARK    3  A    between atoms: C9_9  and  O11_11 
ROOT
HETATM    1  C1  UNL     1     -34.697   5.198   4.071  1.00 20.00     0.027 C 
HETATM    2  C2  UNL     1     -33.674   6.063   3.339  1.00 20.00     0.011 C 
HETATM    3  C5  UNL     1     -34.449   5.228   5.573  1.00 20.00     0.167 C 
HETATM    4  C6  UNL     1     -33.423   7.362   5.473  1.00 20.00     0.174 C 
HETATM    5  C8  UNL     1     -33.612   7.464   3.958  1.00 20.00     0.039 C 
HETATM    6  O10 UNL     1     -34.457   6.570   6.060  1.00 20.00    -0.391 OA
ENDROOT
BRANCH   5   7
HETATM    7  C9  UNL     1     -32.507   8.299   3.319  1.00 20.00     0.128 C 
BRANCH   7   8
HETATM    8  C7  UNL     1     -32.422   8.068   1.819  1.00 20.00     0.015 A 
HETATM    9  C3  UNL     1     -32.813   9.160   0.862  1.00 20.00     0.007 A 
HETATM   10  C4  UNL     1     -31.368   8.768   1.005  1.00 20.00     0.007 A 
ENDBRANCH   7   8
BRANCH   7  11
HETATM   11  O11 UNL     1     -31.262   7.960   3.920  1.00 20.00    -0.395 OA
HETATM   12  H27 UNL     1     -30.585   8.056   3.231  1.00 20.00     0.210 HD
ENDBRANCH   7  11
ENDBRANCH   5   7
TORSDOF 3
ENDMDL
MODEL 2
REMARK VINA RESULT:      -5.5      1.094      1.635
REMARK  3 active torsions:
REMARK  status: ('A' for Active; 'I' for Inactive)
REMARK    1  A    between atoms: C7_7  and  C9_9 
REMARK    2  A    between atoms: C8_8  and  C9_9 
REMARK    3  A    between atoms: C9_9  and  O11_11 
ROOT
HETATM    1  C1  UNL     1     -34.328   5.993   5.610  1.00 20.00     0.027 C 
HETATM    2  C2  UNL     1     -33.696   7.284   5.098  1.00 20.00     0.011 C 
HETATM    3  C5  UNL     1     -35.023   5.249   4.479  1.00 20.00     0.167 C 
HETATM    4  C6  UNL     1     -33.609   6.203   2.833  1.00 20.00     0.174 C 
HETATM    5  C8  UNL     1     -32.820   7.006   3.870  1.00 20.00     0.039 C 
HETATM    6  O10 UNL     1     -34.115   4.996   3.406  1.00 20.00    -0.391 OA
ENDROOT
BRANCH   5   7
HETATM    7  C9  UNL     1     -32.284   8.302   3.272  1.00 20.00     0.128 C 
BRANCH   7   8
HETATM    8  C7  UNL     1     -32.621   8.423   1.795  1.00 20.00     0.015 A 
HETATM    9  C3  UNL     1     -32.727   9.778   1.151  1.00 20.00     0.007 A 
HETATM   10  C4  UNL     1     -31.573   8.874   0.815  1.00 20.00     0.007 A 
ENDBRANCH   7   8
BRANCH   7  11
HETATM   11  O11 UNL     1     -30.871   8.341   3.438  1.00 20.00    -0.395 OA
HETATM   12  H27 UNL     1     -30.561   9.150   3.001  1.00 20.00     0.210 HD
ENDBRANCH   7  11
ENDBRANCH   5   7
TORSDOF 3
ENDMDL
MODEL 3
REMARK VINA RESULT:      -4.6     10.915     11.663
REMARK  3 active torsions:
REMARK  status: ('A' for Active; 'I' for Inactive)
REMARK    1  A    between atoms: C7_7  and  C9_9 
REMARK    2  A    between atoms: C8_8  and  C9_9 
REMARK    3  A    between atoms: C9_9  and  O11_11 
ROOT
HETATM    1  C1  UNL     1     -37.097  14.834  -4.633  1.00 20.00     0.027 C 
HETATM    2  C2  UNL     1     -36.012  15.855  -4.306  1.00 20.00     0.011 C 
HETATM    3  C5  UNL     1     -36.536  13.710  -5.494  1.00 20.00     0.167 C 
HETATM    4  C6  UNL     1     -34.341  14.014  -4.655  1.00 20.00     0.174 C 
HETATM    5  C8  UNL     1     -34.770  15.159  -3.735  1.00 20.00     0.039 C 
HETATM    6  O10 UNL     1     -35.417  13.096  -4.857  1.00 20.00    -0.391 OA
ENDROOT
BRANCH   5   7
HETATM    7  C9  UNL     1     -33.633  16.151  -3.521  1.00 20.00     0.128 C 
BRANCH   7   8
HETATM    8  C7  UNL     1     -34.062  17.322  -2.652  1.00 20.00     0.015 A 
HETATM    9  C3  UNL     1     -34.539  17.087  -1.245  1.00 20.00     0.007 A 
HETATM   10  C4  UNL     1     -33.212  17.751  -1.488  1.00 20.00     0.007 A 
ENDBRANCH   7   8
BRANCH   7  11
HETATM   11  O11 UNL     1     -33.195  16.637  -4.785  1.00 20.00    -0.395 OA
HETATM   12  H27 UNL     1     -33.806  17.349  -5.036  1.00 20.00     0.210 HD
ENDBRANCH   7  11
ENDBRANCH   5   7
TORSDOF 3
ENDMDL
MODEL 4
REMARK VINA RESULT:      -4.6      1.658      2.233
REMARK  3 active torsions:
REMARK  status: ('A' for Active; 'I' for Inactive)
REMARK    1  A    between atoms: C7_7  and  C9_9 
REMARK    2  A    between atoms: C8_8  and  C9_9 
REMARK    3  A    between atoms: C9_9  and  O11_11 
ROOT
HETATM    1  C1  UNL     1     -34.089   6.594   6.047  1.00 20.00     0.027 C 
HETATM    2  C2  UNL     1     -33.839   7.162   4.652  1.00 20.00     0.011 C 
HETATM    3  C5  UNL     1     -34.872   5.291   5.964  1.00 20.00     0.167 C 
HETATM    4  C6  UNL     1     -34.067   4.816   3.787  1.00 20.00     0.174 C 
HETATM    5  C8  UNL     1     -33.227   6.094   3.737  1.00 20.00     0.039 C 
HETATM    6  O10 UNL     1     -34.198   4.348   5.130  1.00 20.00    -0.391 OA
ENDROOT
BRANCH   5   7
HETATM    7  C9  UNL     1     -33.089   6.608   2.308  1.00 20.00     0.128 C 
BRANCH   7   8
HETATM    8  C7  UNL     1     -32.789   8.098   2.271  1.00 20.00     0.015 A 
HETATM    9  C3  UNL     1     -31.449   8.612   2.721  1.00 20.00     0.007 A 
HETATM   10  C4  UNL     1     -31.818   8.649   1.264  1.00 20.00     0.007 A 
ENDBRANCH   7   8
BRANCH   7  11
HETATM   11  O11 UNL     1     -34.299   6.353   1.603  1.00 20.00    -0.395 OA
HETATM   12  H27 UNL     1     -34.497   7.154   1.092  1.00 20.00     0.210 HD
ENDBRANCH   7  11
ENDBRANCH   5   7
TORSDOF 3
ENDMDL
MODEL 5
REMARK VINA RESULT:      -4.5     11.065     12.004
REMARK  3 active torsions:
REMARK  status: ('A' for Active; 'I' for Inactive)
REMARK    1  A    between atoms: C7_7  and  C9_9 
REMARK    2  A    between atoms: C8_8  and  C9_9 
REMARK    3  A    between atoms: C9_9  and  O11_11 
ROOT
HETATM    1  C1  UNL     1     -33.952  16.598  -2.703  1.00 20.00     0.027 C 
HETATM    2  C2  UNL     1     -33.767  15.523  -3.769  1.00 20.00     0.011 C 
HETATM    3  C5  UNL     1     -35.156  17.473  -3.024  1.00 20.00     0.167 C 
HETATM    4  C6  UNL     1     -36.221  15.747  -4.251  1.00 20.00     0.174 C 
HETATM    5  C8  UNL     1     -35.078  14.761  -4.000  1.00 20.00     0.039 C 
HETATM    6  O10 UNL     1     -36.333  16.678  -3.173  1.00 20.00    -0.391 OA
ENDROOT
BRANCH   5   7
HETATM    7  C9  UNL     1     -34.942  13.769  -5.150  1.00 20.00     0.128 C 
BRANCH   7   8
HETATM    8  C7  UNL     1     -35.100  14.447  -6.501  1.00 20.00     0.015 A 
HETATM    9  C3  UNL     1     -33.920  15.108  -7.159  1.00 20.00     0.007 A 
HETATM   10  C4  UNL     1     -34.484  13.837  -7.730  1.00 20.00     0.007 A 
ENDBRANCH   7   8
BRANCH   7  11
HETATM   11  O11 UNL     1     -35.935  12.758  -5.012  1.00 20.00    -0.395 OA
HETATM   12  H27 UNL     1     -35.994  12.306  -5.869  1.00 20.00     0.210 HD
ENDBRANCH   7  11
ENDBRANCH   5   7
TORSDOF 3
ENDMDL
MODEL 6
REMARK VINA RESULT:      -4.4     11.198     12.248
REMARK  3 active torsions:
REMARK  status: ('A' for Active; 'I' for Inactive)
REMARK    1  A    between atoms: C7_7  and  C9_9 
REMARK    2  A    between atoms: C8_8  and  C9_9 
REMARK    3  A    between atoms: C9_9  and  O11_11 
ROOT
HETATM    1  C1  UNL     1     -35.462  14.527  -7.635  1.00 20.00     0.027 C 
HETATM    2  C2  UNL     1     -35.507  15.575  -6.527  1.00 20.00     0.011 C 
HETATM    3  C5  UNL     1     -34.842  13.233  -7.126  1.00 20.00     0.167 C 
HETATM    4  C6  UNL     1     -35.492  13.671  -4.890  1.00 20.00     0.174 C 
HETATM    5  C8  UNL     1     -36.158  14.997  -5.264  1.00 20.00     0.039 C 
HETATM    6  O10 UNL     1     -35.546  12.751  -5.981  1.00 20.00    -0.391 OA
ENDROOT
BRANCH   5   7
HETATM    7  C9  UNL     1     -36.096  15.991  -4.109  1.00 20.00     0.128 C 
BRANCH   7   8
HETATM    8  C7  UNL     1     -34.928  15.704  -3.181  1.00 20.00     0.015 A 
HETATM    9  C3  UNL     1     -33.612  16.405  -3.380  1.00 20.00     0.007 A 
HETATM   10  C4  UNL     1     -34.473  16.745  -2.195  1.00 20.00     0.007 A 
ENDBRANCH   7   8
BRANCH   7  11
HETATM   11  O11 UNL     1     -37.312  15.923  -3.372  1.00 20.00    -0.395 OA
HETATM   12  H27 UNL     1     -37.248  15.141  -2.800  1.00 20.00     0.210 HD
ENDBRANCH   7  11
ENDBRANCH   5   7
TORSDOF 3
ENDMDL
MODEL 7
REMARK VINA RESULT:      -4.3      1.370      4.576
REMARK  3 active torsions:
REMARK  status: ('A' for Active; 'I' for Inactive)
REMARK    1  A    between atoms: C7_7  and  C9_9 
REMARK    2  A    between atoms: C8_8  and  C9_9 
REMARK    3  A    between atoms: C9_9  and  O11_11 
ROOT
HETATM    1  C1  UNL     1     -31.562   9.242   2.564  1.00 20.00     0.027 C 
HETATM    2  C2  UNL     1     -31.755   8.396   3.820  1.00 20.00     0.011 C 
HETATM    3  C5  UNL     1     -31.799   8.408   1.312  1.00 20.00     0.167 C 
HETATM    4  C6  UNL     1     -33.247   6.915   2.448  1.00 20.00     0.174 C 
HETATM    5  C8  UNL     1     -33.101   7.663   3.775  1.00 20.00     0.039 C 
HETATM    6  O10 UNL     1     -33.094   7.807   1.343  1.00 20.00    -0.391 OA
ENDROOT
BRANCH   5   7
HETATM    7  C9  UNL     1     -33.252   6.718   4.961  1.00 20.00     0.128 C 
BRANCH   7   8
HETATM    8  C7  UNL     1     -34.527   5.895   4.868  1.00 20.00     0.015 A 
HETATM    9  C3  UNL     1     -34.473   4.464   4.410  1.00 20.00     0.007 A 
HETATM   10  C4  UNL     1     -34.783   4.783   5.846  1.00 20.00     0.007 A 
ENDBRANCH   7   8
BRANCH   7  11
HETATM   11  O11 UNL     1     -33.269   7.479   6.164  1.00 20.00    -0.395 OA
HETATM   12  H27 UNL     1     -32.344   7.603   6.428  1.00 20.00     0.210 HD
ENDBRANCH   7  11
ENDBRANCH   5   7
TORSDOF 3
ENDMDL
MODEL 8
REMARK VINA RESULT:      -4.3      1.117      4.404
REMARK  3 active torsions:
REMARK  status: ('A' for Active; 'I' for Inactive)
REMARK    1  A    between atoms: C7_7  and  C9_9 
REMARK    2  A    between atoms: C8_8  and  C9_9 
REMARK    3  A    between atoms: C9_9  and  O11_11 
ROOT
HETATM    1  C1  UNL     1     -33.030   8.095   1.323  1.00 20.00     0.027 C 
HETATM    2  C2  UNL     1     -33.719   7.558   2.574  1.00 20.00     0.011 C 
HETATM    3  C5  UNL     1     -32.016   9.171   1.687  1.00 20.00     0.167 C 
HETATM    4  C6  UNL     1     -31.686   8.281   3.859  1.00 20.00     0.174 C 
HETATM    5  C8  UNL     1     -32.682   7.143   3.625  1.00 20.00     0.039 C 
HETATM    6  O10 UNL     1     -31.068   8.674   2.632  1.00 20.00    -0.391 OA
ENDROOT
BRANCH   5   7
HETATM    7  C9  UNL     1     -33.355   6.724   4.927  1.00 20.00     0.128 C 
BRANCH   7   8
HETATM    8  C7  UNL     1     -34.533   5.795   4.679  1.00 20.00     0.015 A 
HETATM    9  C3  UNL     1     -34.299   4.366   4.274  1.00 20.00     0.007 A 
HETATM   10  C4  UNL     1     -34.834   4.681   5.643  1.00 20.00     0.007 A 
ENDBRANCH   7   8
BRANCH   7  11
HETATM   11  O11 UNL     1     -33.807   7.886   5.613  1.00 20.00    -0.395 OA
HETATM   12  H27 UNL     1     -33.879   8.590   4.949  1.00 20.00     0.210 HD
ENDBRANCH   7  11
ENDBRANCH   5   7
TORSDOF 3
ENDMDL
MODEL 9
REMARK VINA RESULT:      -4.3     11.097     12.052
REMARK  3 active torsions:
REMARK  status: ('A' for Active; 'I' for Inactive)
REMARK    1  A    between atoms: C7_7  and  C9_9 
REMARK    2  A    between atoms: C8_8  and  C9_9 
REMARK    3  A    between atoms: C9_9  and  O11_11 
ROOT
HETATM    1  C1  UNL     1     -34.479  14.175  -4.650  1.00 20.00     0.027 C 
HETATM    2  C2  UNL     1     -35.125  15.118  -3.639  1.00 20.00     0.011 C 
HETATM    3  C5  UNL     1     -33.862  14.959  -5.800  1.00 20.00     0.167 C 
HETATM    4  C6  UNL     1     -33.543  16.888  -4.459  1.00 20.00     0.174 C 
HETATM    5  C8  UNL     1     -34.140  16.216  -3.220  1.00 20.00     0.039 C 
HETATM    6  O10 UNL     1     -32.927  15.921  -5.312  1.00 20.00    -0.391 OA
ENDROOT
BRANCH   5   7
HETATM    7  C9  UNL     1     -34.810  17.238  -2.308  1.00 20.00     0.128 C 
BRANCH   7   8
HETATM    8  C7  UNL     1     -34.001  17.483  -1.045  1.00 20.00     0.015 A 
HETATM    9  C3  UNL     1     -32.651  18.140  -1.126  1.00 20.00     0.007 A 
HETATM   10  C4  UNL     1     -33.813  18.882  -0.527  1.00 20.00     0.007 A 
ENDBRANCH   7   8
BRANCH   7  11
HETATM   11  O11 UNL     1     -36.106  16.766  -1.954  1.00 20.00    -0.395 OA
HETATM   12  H27 UNL     1     -36.555  16.537  -2.783  1.00 20.00     0.210 HD
ENDBRANCH   7  11
ENDBRANCH   5   7
TORSDOF 3
ENDMDL
