MODEL 1
REMARK VINA RESULT:      -5.7      0.000      0.000
REMARK  0 active torsions:
REMARK  status: ('A' for Active; 'I' for Inactive)
ROOT
HETATM    1  C1  UNL     1     -32.138   7.956   2.128  1.00 20.00     0.065 C 
HETATM    2  C2  UNL     1     -34.592   4.780   5.800  1.00 20.00     0.032 C 
HETATM    3  C3  UNL     1     -34.297   4.391   4.365  1.00 20.00     0.037 C 
HETATM    4  C4  UNL     1     -33.639   6.005   2.481  1.00 20.00     0.056 C 
HETATM    5  C5  UNL     1     -34.153   6.230   5.834  1.00 20.00     0.273 C 
HETATM    6  C6  UNL     1     -33.751   7.812   4.016  1.00 20.00     0.292 C 
HETATM    7  C7  UNL     1     -32.763   7.076   3.118  1.00 20.00     0.123 C 
HETATM    8  C8  UNL     1     -34.642   5.652   3.576  1.00 20.00     0.224 C 
HETATM    9  N9  UNL     1     -31.644   8.654   1.344  1.00 20.00    -0.197 NA
HETATM   10  N10 UNL     1     -34.633   6.768   4.554  1.00 20.00     0.094 N 
ENDROOT
TORSDOF 0
ENDMDL
MODEL 2
REMARK VINA RESULT:      -4.5      1.202      2.014
REMARK  0 active torsions:
REMARK  status: ('A' for Active; 'I' for Inactive)
ROOT
HETATM    1  C1  UNL     1     -32.340   8.758   1.449  1.00 20.00     0.065 C 
HETATM    2  C2  UNL     1     -34.858   5.967   5.381  1.00 20.00     0.032 C 
HETATM    3  C3  UNL     1     -33.850   7.077   5.604  1.00 20.00     0.037 C 
HETATM    4  C4  UNL     1     -32.268   8.043   3.829  1.00 20.00     0.056 C 
HETATM    5  C5  UNL     1     -34.833   5.813   3.875  1.00 20.00     0.273 C 
HETATM    6  C6  UNL     1     -33.188   6.553   2.226  1.00 20.00     0.292 C 
HETATM    7  C7  UNL     1     -33.042   8.042   2.517  1.00 20.00     0.123 C 
HETATM    8  C8  UNL     1     -32.776   6.800   4.555  1.00 20.00     0.224 C 
HETATM    9  N9  UNL     1     -31.785   9.324   0.602  1.00 20.00    -0.197 NA
HETATM   10  N10 UNL     1     -33.408   5.925   3.536  1.00 20.00     0.094 N 
ENDROOT
TORSDOF 0
ENDMDL
MODEL 3
REMARK VINA RESULT:      -4.1     11.751     12.261
REMARK  0 active torsions:
REMARK  status: ('A' for Active; 'I' for Inactive)
ROOT
HETATM    1  C1  UNL     1     -34.506  14.314  -4.926  1.00 20.00     0.065 C 
HETATM    2  C2  UNL     1     -34.207  17.785  -0.748  1.00 20.00     0.032 C 
HETATM    3  C3  UNL     1     -35.442  17.002  -1.148  1.00 20.00     0.037 C 
HETATM    4  C4  UNL     1     -35.785  15.785  -3.381  1.00 20.00     0.056 C 
HETATM    5  C5  UNL     1     -33.233  17.429  -1.852  1.00 20.00     0.273 C 
HETATM    6  C6  UNL     1     -33.619  16.473  -4.067  1.00 20.00     0.292 C 
HETATM    7  C7  UNL     1     -34.428  15.215  -3.773  1.00 20.00     0.123 C 
HETATM    8  C8  UNL     1     -35.443  17.093  -2.673  1.00 20.00     0.224 C 
HETATM    9  N9  UNL     1     -34.567  13.601  -5.839  1.00 20.00    -0.197 NA
HETATM   10  N10 UNL     1     -34.059  17.455  -3.067  1.00 20.00     0.094 N 
ENDROOT
TORSDOF 0
ENDMDL
MODEL 4
REMARK VINA RESULT:      -4.1     11.442     12.970
REMARK  0 active torsions:
REMARK  status: ('A' for Active; 'I' for Inactive)
ROOT
HETATM    1  C1  UNL     1     -35.078  16.450  -2.454  1.00 20.00     0.065 C 
HETATM    2  C2  UNL     1     -33.899  14.981  -7.557  1.00 20.00     0.032 C 
HETATM    3  C3  UNL     1     -34.449  14.059  -6.486  1.00 20.00     0.037 C 
HETATM    4  C4  UNL     1     -34.518  14.561  -3.970  1.00 20.00     0.056 C 
HETATM    5  C5  UNL     1     -33.680  16.268  -6.789  1.00 20.00     0.273 C 
HETATM    6  C6  UNL     1     -33.527  16.677  -4.384  1.00 20.00     0.292 C 
HETATM    7  C7  UNL     1     -34.803  16.051  -3.836  1.00 20.00     0.123 C 
HETATM    8  C8  UNL     1     -33.670  14.462  -5.236  1.00 20.00     0.224 C 
HETATM    9  N9  UNL     1     -35.294  16.768  -1.359  1.00 20.00    -0.197 NA
HETATM   10  N10 UNL     1     -33.126  15.816  -5.505  1.00 20.00     0.094 N 
ENDROOT
TORSDOF 0
ENDMDL
MODEL 5
REMARK VINA RESULT:      -4.0     11.539     12.642
REMARK  0 active torsions:
REMARK  status: ('A' for Active; 'I' for Inactive)
ROOT
HETATM    1  C1  UNL     1     -33.473  17.768  -3.669  1.00 20.00     0.065 C 
HETATM    2  C2  UNL     1     -35.569  13.475  -6.271  1.00 20.00     0.032 C 
HETATM    3  C3  UNL     1     -35.952  13.925  -4.875  1.00 20.00     0.037 C 
HETATM    4  C4  UNL     1     -34.641  15.587  -3.424  1.00 20.00     0.056 C 
HETATM    5  C5  UNL     1     -34.439  14.424  -6.612  1.00 20.00     0.273 C 
HETATM    6  C6  UNL     1     -33.055  15.831  -5.171  1.00 20.00     0.292 C 
HETATM    7  C7  UNL     1     -34.076  16.634  -4.374  1.00 20.00     0.123 C 
HETATM    8  C8  UNL     1     -34.615  14.297  -4.240  1.00 20.00     0.224 C 
HETATM    9  N9  UNL     1     -32.996  18.667  -3.112  1.00 20.00    -0.197 NA
HETATM   10  N10 UNL     1     -33.669  14.510  -5.364  1.00 20.00     0.094 N 
ENDROOT
TORSDOF 0
ENDMDL
MODEL 6
REMARK VINA RESULT:      -3.9     11.786     12.412
REMARK  0 active torsions:
REMARK  status: ('A' for Active; 'I' for Inactive)
ROOT
HETATM    1  C1  UNL     1     -33.296  17.438  -2.024  1.00 20.00     0.065 C 
HETATM    2  C2  UNL     1     -36.733  14.296  -4.837  1.00 20.00     0.032 C 
HETATM    3  C3  UNL     1     -35.253  14.025  -4.650  1.00 20.00     0.037 C 
HETATM    4  C4  UNL     1     -33.516  15.714  -3.803  1.00 20.00     0.056 C 
HETATM    5  C5  UNL     1     -36.895  15.649  -4.174  1.00 20.00     0.273 C 
HETATM    6  C6  UNL     1     -35.232  17.339  -3.582  1.00 20.00     0.292 C 
HETATM    7  C7  UNL     1     -34.219  16.562  -2.750  1.00 20.00     0.123 C 
HETATM    8  C8  UNL     1     -34.615  15.402  -4.816  1.00 20.00     0.224 C 
HETATM    9  N9  UNL     1     -32.566  18.133  -1.450  1.00 20.00    -0.197 NA
HETATM   10  N10 UNL     1     -35.701  16.391  -4.602  1.00 20.00     0.094 N 
ENDROOT
TORSDOF 0
ENDMDL
MODEL 7
REMARK VINA RESULT:      -3.9     11.803     12.372
REMARK  0 active torsions:
REMARK  status: ('A' for Active; 'I' for Inactive)
ROOT
HETATM    1  C1  UNL     1     -35.329  17.389  -0.599  1.00 20.00     0.065 C 
HETATM    2  C2  UNL     1     -34.348  14.437  -5.062  1.00 20.00     0.032 C 
HETATM    3  C3  UNL     1     -33.289  15.081  -4.189  1.00 20.00     0.037 C 
HETATM    4  C4  UNL     1     -33.707  16.889  -2.416  1.00 20.00     0.056 C 
HETATM    5  C5  UNL     1     -35.630  14.943  -4.434  1.00 20.00     0.273 C 
HETATM    6  C6  UNL     1     -36.025  16.819  -2.918  1.00 20.00     0.292 C 
HETATM    7  C7  UNL     1     -35.049  16.562  -1.776  1.00 20.00     0.123 C 
HETATM    8  C8  UNL     1     -33.877  16.453  -3.869  1.00 20.00     0.224 C 
HETATM    9  N9  UNL     1     -35.552  18.045   0.332  1.00 20.00    -0.197 NA
HETATM   10  N10 UNL     1     -35.335  16.349  -4.127  1.00 20.00     0.094 N 
ENDROOT
TORSDOF 0
ENDMDL
MODEL 8
REMARK VINA RESULT:      -3.8     11.589     12.783
REMARK  0 active torsions:
REMARK  status: ('A' for Active; 'I' for Inactive)
ROOT
HETATM    1  C1  UNL     1     -35.641  13.881  -4.980  1.00 20.00     0.065 C 
HETATM    2  C2  UNL     1     -34.572  18.894  -3.155  1.00 20.00     0.032 C 
HETATM    3  C3  UNL     1     -33.578  17.750  -3.206  1.00 20.00     0.037 C 
HETATM    4  C4  UNL     1     -34.159  15.274  -3.550  1.00 20.00     0.056 C 
HETATM    5  C5  UNL     1     -35.854  18.221  -3.600  1.00 20.00     0.273 C 
HETATM    6  C6  UNL     1     -36.455  15.854  -3.703  1.00 20.00     0.292 C 
HETATM    7  C7  UNL     1     -35.329  15.238  -4.525  1.00 20.00     0.123 C 
HETATM    8  C8  UNL     1     -34.395  16.547  -2.740  1.00 20.00     0.224 C 
HETATM    9  N9  UNL     1     -35.889  12.807  -5.341  1.00 20.00    -0.197 NA
HETATM   10  N10 UNL     1     -35.820  16.920  -2.917  1.00 20.00     0.094 N 
ENDROOT
TORSDOF 0
ENDMDL
MODEL 9
REMARK VINA RESULT:      -3.8     11.566     12.782
REMARK  0 active torsions:
REMARK  status: ('A' for Active; 'I' for Inactive)
ROOT
HETATM    1  C1  UNL     1     -35.567  13.782  -4.817  1.00 20.00     0.065 C 
HETATM    2  C2  UNL     1     -34.178  18.405  -2.307  1.00 20.00     0.032 C 
HETATM    3  C3  UNL     1     -35.303  18.259  -3.312  1.00 20.00     0.037 C 
HETATM    4  C4  UNL     1     -35.652  16.266  -4.892  1.00 20.00     0.056 C 
HETATM    5  C5  UNL     1     -33.549  17.027  -2.331  1.00 20.00     0.273 C 
HETATM    6  C6  UNL     1     -33.726  15.226  -3.974  1.00 20.00     0.292 C 
HETATM    7  C7  UNL     1     -35.230  15.025  -4.117  1.00 20.00     0.123 C 
HETATM    8  C8  UNL     1     -34.706  17.353  -4.387  1.00 20.00     0.224 C 
HETATM    9  N9  UNL     1     -35.834  12.798  -5.370  1.00 20.00    -0.197 NA
HETATM   10  N10 UNL     1     -33.550  16.669  -3.756  1.00 20.00     0.094 N 
ENDROOT
TORSDOF 0
ENDMDL
