MODEL 1
REMARK VINA RESULT:      -4.6      0.000      0.000
REMARK  0 active torsions:
REMARK  status: ('A' for Active; 'I' for Inactive)
ROOT
HETATM    1  C1  UNL     1     -32.039   8.078   2.927  1.00 20.00     0.065 C 
HETATM    2  C2  UNL     1     -33.902   4.369   5.636  1.00 20.00     0.032 C 
HETATM    3  C3  UNL     1     -34.305   4.083   4.201  1.00 20.00     0.037 C 
HETATM    4  C4  UNL     1     -33.425   6.021   2.768  1.00 20.00     0.056 C 
HETATM    5  C5  UNL     1     -34.720   5.601   5.978  1.00 20.00     0.273 C 
HETATM    6  C6  UNL     1     -33.647   7.374   4.686  1.00 20.00     0.292 C 
HETATM    7  C7  UNL     1     -33.347   7.478   3.198  1.00 20.00     0.123 C 
HETATM    8  C8  UNL     1     -34.572   5.463   3.610  1.00 20.00     0.224 C 
HETATM    9  N9  UNL     1     -31.002   8.553   2.712  1.00 20.00    -0.197 NA
HETATM   10  N10 UNL     1     -34.748   6.400   4.747  1.00 20.00     0.094 N 
ENDROOT
TORSDOF 0
ENDMDL
MODEL 2
REMARK VINA RESULT:      -4.2     11.959     12.748
REMARK  0 active torsions:
REMARK  status: ('A' for Active; 'I' for Inactive)
ROOT
HETATM    1  C1  UNL     1     -35.599  13.905  -5.011  1.00 20.00     0.065 C 
HETATM    2  C2  UNL     1     -35.207  16.946  -1.116  1.00 20.00     0.032 C 
HETATM    3  C3  UNL     1     -36.219  17.587  -2.048  1.00 20.00     0.037 C 
HETATM    4  C4  UNL     1     -36.399  16.082  -4.119  1.00 20.00     0.056 C 
HETATM    5  C5  UNL     1     -33.907  17.072  -1.890  1.00 20.00     0.273 C 
HETATM    6  C6  UNL     1     -34.164  15.457  -3.704  1.00 20.00     0.292 C 
HETATM    7  C7  UNL     1     -35.255  15.305  -4.753  1.00 20.00     0.123 C 
HETATM    8  C8  UNL     1     -35.697  17.260  -3.442  1.00 20.00     0.224 C 
HETATM    9  N9  UNL     1     -35.871  12.796  -5.215  1.00 20.00    -0.197 NA
HETATM   10  N10 UNL     1     -34.273  16.867  -3.296  1.00 20.00     0.094 N 
ENDROOT
TORSDOF 0
ENDMDL
MODEL 3
REMARK VINA RESULT:      -4.2      1.655      2.447
REMARK  0 active torsions:
REMARK  status: ('A' for Active; 'I' for Inactive)
ROOT
HETATM    1  C1  UNL     1     -32.498   9.153   1.560  1.00 20.00     0.065 C 
HETATM    2  C2  UNL     1     -35.084   5.879   4.236  1.00 20.00     0.032 C 
HETATM    3  C3  UNL     1     -34.204   6.625   5.222  1.00 20.00     0.037 C 
HETATM    4  C4  UNL     1     -32.789   8.283   3.870  1.00 20.00     0.056 C 
HETATM    5  C5  UNL     1     -34.080   5.075   3.429  1.00 20.00     0.273 C 
HETATM    6  C6  UNL     1     -32.952   6.765   2.074  1.00 20.00     0.292 C 
HETATM    7  C7  UNL     1     -32.230   8.042   2.476  1.00 20.00     0.123 C 
HETATM    8  C8  UNL     1     -32.913   6.875   4.452  1.00 20.00     0.224 C 
HETATM    9  N9  UNL     1     -32.709  10.034   0.835  1.00 20.00    -0.197 NA
HETATM   10  N10 UNL     1     -32.906   5.945   3.295  1.00 20.00     0.094 N 
ENDROOT
TORSDOF 0
ENDMDL
MODEL 4
REMARK VINA RESULT:      -4.0     12.454     13.674
REMARK  0 active torsions:
REMARK  status: ('A' for Active; 'I' for Inactive)
ROOT
HETATM    1  C1  UNL     1     -37.605  14.081  -5.111  1.00 20.00     0.065 C 
HETATM    2  C2  UNL     1     -33.593  16.172  -7.137  1.00 20.00     0.032 C 
HETATM    3  C3  UNL     1     -33.838  14.894  -7.917  1.00 20.00     0.037 C 
HETATM    4  C4  UNL     1     -35.866  13.736  -6.853  1.00 20.00     0.056 C 
HETATM    5  C5  UNL     1     -33.166  15.659  -5.773  1.00 20.00     0.273 C 
HETATM    6  C6  UNL     1     -35.232  14.763  -4.828  1.00 20.00     0.292 C 
HETATM    7  C7  UNL     1     -36.207  13.729  -5.370  1.00 20.00     0.123 C 
HETATM    8  C8  UNL     1     -34.347  13.911  -6.868  1.00 20.00     0.224 C 
HETATM    9  N9  UNL     1     -38.712  14.359  -4.906  1.00 20.00    -0.197 NA
HETATM   10  N10 UNL     1     -33.980  14.461  -5.539  1.00 20.00     0.094 N 
ENDROOT
TORSDOF 0
ENDMDL
MODEL 5
REMARK VINA RESULT:      -4.0     12.009     13.477
REMARK  0 active torsions:
REMARK  status: ('A' for Active; 'I' for Inactive)
ROOT
HETATM    1  C1  UNL     1     -37.613  14.089  -5.283  1.00 20.00     0.065 C 
HETATM    2  C2  UNL     1     -33.276  16.487  -5.246  1.00 20.00     0.032 C 
HETATM    3  C3  UNL     1     -33.570  16.177  -6.702  1.00 20.00     0.037 C 
HETATM    4  C4  UNL     1     -35.775  14.866  -6.764  1.00 20.00     0.056 C 
HETATM    5  C5  UNL     1     -33.010  15.114  -4.655  1.00 20.00     0.273 C 
HETATM    6  C6  UNL     1     -35.220  14.074  -4.614  1.00 20.00     0.292 C 
HETATM    7  C7  UNL     1     -36.236  13.856  -5.725  1.00 20.00     0.123 C 
HETATM    8  C8  UNL     1     -34.251  14.813  -6.660  1.00 20.00     0.224 C 
HETATM    9  N9  UNL     1     -38.704  14.273  -4.934  1.00 20.00    -0.197 NA
HETATM   10  N10 UNL     1     -33.946  14.213  -5.337  1.00 20.00     0.094 N 
ENDROOT
TORSDOF 0
ENDMDL
MODEL 6
REMARK VINA RESULT:      -4.0     12.418     13.218
REMARK  0 active torsions:
REMARK  status: ('A' for Active; 'I' for Inactive)
ROOT
HETATM    1  C1  UNL     1     -35.337  13.546  -6.320  1.00 20.00     0.065 C 
HETATM    2  C2  UNL     1     -33.714  16.619  -2.785  1.00 20.00     0.032 C 
HETATM    3  C3  UNL     1     -35.199  16.438  -2.534  1.00 20.00     0.037 C 
HETATM    4  C4  UNL     1     -36.101  14.911  -4.388  1.00 20.00     0.056 C 
HETATM    5  C5  UNL     1     -33.685  17.406  -4.083  1.00 20.00     0.273 C 
HETATM    6  C6  UNL     1     -34.386  15.772  -5.757  1.00 20.00     0.292 C 
HETATM    7  C7  UNL     1     -35.628  14.897  -5.834  1.00 20.00     0.123 C 
HETATM    8  C8  UNL     1     -35.803  16.338  -3.930  1.00 20.00     0.224 C 
HETATM    9  N9  UNL     1     -35.107  12.476  -6.705  1.00 20.00    -0.197 NA
HETATM   10  N10 UNL     1     -34.799  16.879  -4.880  1.00 20.00     0.094 N 
ENDROOT
TORSDOF 0
ENDMDL
MODEL 7
REMARK VINA RESULT:      -3.9     11.664     12.559
REMARK  0 active torsions:
REMARK  status: ('A' for Active; 'I' for Inactive)
ROOT
HETATM    1  C1  UNL     1     -35.338  17.402  -0.666  1.00 20.00     0.065 C 
HETATM    2  C2  UNL     1     -34.532  14.095  -4.270  1.00 20.00     0.032 C 
HETATM    3  C3  UNL     1     -33.291  14.967  -4.217  1.00 20.00     0.037 C 
HETATM    4  C4  UNL     1     -33.694  16.746  -2.412  1.00 20.00     0.056 C 
HETATM    5  C5  UNL     1     -35.592  15.048  -4.793  1.00 20.00     0.273 C 
HETATM    6  C6  UNL     1     -35.990  16.547  -2.907  1.00 20.00     0.292 C 
HETATM    7  C7  UNL     1     -35.029  17.405  -2.098  1.00 20.00     0.123 C 
HETATM    8  C8  UNL     1     -33.828  16.355  -3.884  1.00 20.00     0.224 C 
HETATM    9  N9  UNL     1     -35.582  17.399   0.468  1.00 20.00    -0.197 NA
HETATM   10  N10 UNL     1     -35.282  16.344  -4.181  1.00 20.00     0.094 N 
ENDROOT
TORSDOF 0
ENDMDL
MODEL 8
REMARK VINA RESULT:      -3.9     11.925     13.003
REMARK  0 active torsions:
REMARK  status: ('A' for Active; 'I' for Inactive)
ROOT
HETATM    1  C1  UNL     1     -33.568  17.533  -3.839  1.00 20.00     0.065 C 
HETATM    2  C2  UNL     1     -35.914  14.141  -6.589  1.00 20.00     0.032 C 
HETATM    3  C3  UNL     1     -36.143  13.740  -5.144  1.00 20.00     0.037 C 
HETATM    4  C4  UNL     1     -34.881  15.428  -3.681  1.00 20.00     0.056 C 
HETATM    5  C5  UNL     1     -34.428  13.892  -6.778  1.00 20.00     0.273 C 
HETATM    6  C6  UNL     1     -33.382  15.679  -5.483  1.00 20.00     0.292 C 
HETATM    7  C7  UNL     1     -33.550  16.080  -4.026  1.00 20.00     0.123 C 
HETATM    8  C8  UNL     1     -34.837  14.106  -4.447  1.00 20.00     0.224 C 
HETATM    9  N9  UNL     1     -33.583  18.683  -3.691  1.00 20.00    -0.197 NA
HETATM   10  N10 UNL     1     -33.808  14.271  -5.503  1.00 20.00     0.094 N 
ENDROOT
TORSDOF 0
ENDMDL
MODEL 9
REMARK VINA RESULT:      -3.9     11.913     13.384
REMARK  0 active torsions:
REMARK  status: ('A' for Active; 'I' for Inactive)
ROOT
HETATM    1  C1  UNL     1     -34.814  16.594  -2.242  1.00 20.00     0.065 C 
HETATM    2  C2  UNL     1     -34.919  15.604  -7.098  1.00 20.00     0.032 C 
HETATM    3  C3  UNL     1     -34.522  14.309  -6.414  1.00 20.00     0.037 C 
HETATM    4  C4  UNL     1     -34.380  14.793  -3.899  1.00 20.00     0.056 C 
HETATM    5  C5  UNL     1     -33.708  16.492  -6.868  1.00 20.00     0.273 C 
HETATM    6  C6  UNL     1     -33.824  17.008  -4.484  1.00 20.00     0.292 C 
HETATM    7  C7  UNL     1     -33.900  16.092  -3.271  1.00 20.00     0.123 C 
HETATM    8  C8  UNL     1     -33.655  14.758  -5.244  1.00 20.00     0.224 C 
HETATM    9  N9  UNL     1     -35.537  16.991  -1.427  1.00 20.00    -0.197 NA
HETATM   10  N10 UNL     1     -33.230  16.152  -5.523  1.00 20.00     0.094 N 
ENDROOT
TORSDOF 0
ENDMDL
