MODEL 1
REMARK VINA RESULT:      -6.0      0.000      0.000
REMARK  0 active torsions:
REMARK  status: ('A' for Active; 'I' for Inactive)
ROOT
HETATM    1  C1  UNL     1     -32.230   8.227   4.717  1.00 20.00     0.015 A 
HETATM    2  C2  UNL     1     -31.677   8.594   3.554  1.00 20.00     0.083 A 
HETATM    3  C3  UNL     1     -33.281   7.268   4.703  1.00 20.00    -0.028 A 
HETATM    4  C4  UNL     1     -33.694   6.760   3.544  1.00 20.00     0.063 A 
HETATM    5  C5  UNL     1     -32.145   8.017   2.266  1.00 20.00     0.287 A 
HETATM    6  C6  UNL     1     -34.042   6.720   5.854  1.00 20.00     0.041 C 
HETATM    7  C7  UNL     1     -34.798   5.782   3.691  1.00 20.00     0.066 C 
HETATM    8  C8  UNL     1     -34.793   5.541   5.210  1.00 20.00     0.011 C 
HETATM    9  O9  UNL     1     -31.625   8.364   1.209  1.00 20.00    -0.260 OA
HETATM   10  O10 UNL     1     -33.166   7.095   2.300  1.00 20.00    -0.279 OA
ENDROOT
TORSDOF 0
ENDMDL
MODEL 2
REMARK VINA RESULT:      -5.7      1.618      3.640
REMARK  0 active torsions:
REMARK  status: ('A' for Active; 'I' for Inactive)
ROOT
HETATM    1  C1  UNL     1     -33.526   7.201   5.644  1.00 20.00     0.015 A 
HETATM    2  C2  UNL     1     -34.326   6.132   5.743  1.00 20.00     0.083 A 
HETATM    3  C3  UNL     1     -32.918   7.487   4.391  1.00 20.00    -0.028 A 
HETATM    4  C4  UNL     1     -33.149   6.693   3.349  1.00 20.00     0.063 A 
HETATM    5  C5  UNL     1     -34.580   5.253   4.570  1.00 20.00     0.287 A 
HETATM    6  C6  UNL     1     -31.998   8.602   4.049  1.00 20.00     0.041 C 
HETATM    7  C7  UNL     1     -32.440   7.117   2.118  1.00 20.00     0.066 C 
HETATM    8  C8  UNL     1     -31.954   8.521   2.513  1.00 20.00     0.011 C 
HETATM    9  O9  UNL     1     -35.318   4.278   4.677  1.00 20.00    -0.260 OA
HETATM   10  O10 UNL     1     -33.967   5.568   3.378  1.00 20.00    -0.279 OA
ENDROOT
TORSDOF 0
ENDMDL
MODEL 3
REMARK VINA RESULT:      -5.7      1.120      2.057
REMARK  0 active torsions:
REMARK  status: ('A' for Active; 'I' for Inactive)
ROOT
HETATM    1  C1  UNL     1     -33.618   5.841   2.433  1.00 20.00     0.015 A 
HETATM    2  C2  UNL     1     -32.921   6.821   1.845  1.00 20.00     0.083 A 
HETATM    3  C3  UNL     1     -33.898   5.939   3.824  1.00 20.00    -0.028 A 
HETATM    4  C4  UNL     1     -33.462   6.992   4.511  1.00 20.00     0.063 A 
HETATM    5  C5  UNL     1     -32.442   7.995   2.623  1.00 20.00     0.287 A 
HETATM    6  C6  UNL     1     -34.640   4.981   4.682  1.00 20.00     0.041 C 
HETATM    7  C7  UNL     1     -33.826   6.947   5.948  1.00 20.00     0.066 C 
HETATM    8  C8  UNL     1     -34.848   5.799   5.969  1.00 20.00     0.011 C 
HETATM    9  O9  UNL     1     -31.805   8.886   2.068  1.00 20.00    -0.260 OA
HETATM   10  O10 UNL     1     -32.734   8.045   3.968  1.00 20.00    -0.279 OA
ENDROOT
TORSDOF 0
ENDMDL
MODEL 4
REMARK VINA RESULT:      -5.5      1.073      1.358
REMARK  0 active torsions:
REMARK  status: ('A' for Active; 'I' for Inactive)
ROOT
HETATM    1  C1  UNL     1     -33.349   7.542   5.498  1.00 20.00     0.015 A 
HETATM    2  C2  UNL     1     -32.559   8.338   4.767  1.00 20.00     0.083 A 
HETATM    3  C3  UNL     1     -33.785   6.309   4.938  1.00 20.00    -0.028 A 
HETATM    4  C4  UNL     1     -33.407   5.974   3.707  1.00 20.00     0.063 A 
HETATM    5  C5  UNL     1     -32.140   7.951   3.393  1.00 20.00     0.287 A 
HETATM    6  C6  UNL     1     -34.661   5.279   5.551  1.00 20.00     0.041 C 
HETATM    7  C7  UNL     1     -33.946   4.667   3.261  1.00 20.00     0.066 C 
HETATM    8  C8  UNL     1     -34.495   4.097   4.579  1.00 20.00     0.011 C 
HETATM    9  O9  UNL     1     -31.414   8.693   2.737  1.00 20.00    -0.260 OA
HETATM   10  O10 UNL     1     -32.589   6.751   2.891  1.00 20.00    -0.279 OA
ENDROOT
TORSDOF 0
ENDMDL
MODEL 5
REMARK VINA RESULT:      -5.4      1.930      4.138
REMARK  0 active torsions:
REMARK  status: ('A' for Active; 'I' for Inactive)
ROOT
HETATM    1  C1  UNL     1     -34.218   5.990   2.869  1.00 20.00     0.015 A 
HETATM    2  C2  UNL     1     -34.764   5.418   3.950  1.00 20.00     0.083 A 
HETATM    3  C3  UNL     1     -33.268   7.032   3.052  1.00 20.00    -0.028 A 
HETATM    4  C4  UNL     1     -32.943   7.420   4.283  1.00 20.00     0.063 A 
HETATM    5  C5  UNL     1     -34.390   5.857   5.321  1.00 20.00     0.287 A 
HETATM    6  C6  UNL     1     -32.544   7.809   2.015  1.00 20.00     0.041 C 
HETATM    7  C7  UNL     1     -31.948   8.518   4.311  1.00 20.00     0.066 C 
HETATM    8  C8  UNL     1     -31.476   8.539   2.848  1.00 20.00     0.011 C 
HETATM    9  O9  UNL     1     -34.900   5.321   6.301  1.00 20.00    -0.260 OA
HETATM   10  O10 UNL     1     -33.469   6.872   5.450  1.00 20.00    -0.279 OA
ENDROOT
TORSDOF 0
ENDMDL
MODEL 6
REMARK VINA RESULT:      -4.8     11.486     11.778
REMARK  0 active torsions:
REMARK  status: ('A' for Active; 'I' for Inactive)
ROOT
HETATM    1  C1  UNL     1     -34.220  18.279   0.845  1.00 20.00     0.015 A 
HETATM    2  C2  UNL     1     -33.037  18.737   1.274  1.00 20.00     0.083 A 
HETATM    3  C3  UNL     1     -34.311  17.742  -0.469  1.00 20.00    -0.028 A 
HETATM    4  C4  UNL     1     -33.229  17.707  -1.243  1.00 20.00     0.063 A 
HETATM    5  C5  UNL     1     -31.834  18.690   0.401  1.00 20.00     0.287 A 
HETATM    6  C6  UNL     1     -35.505  17.188  -1.156  1.00 20.00     0.041 C 
HETATM    7  C7  UNL     1     -33.484  17.128  -2.584  1.00 20.00     0.066 C 
HETATM    8  C8  UNL     1     -34.881  16.517  -2.392  1.00 20.00     0.011 C 
HETATM    9  O9  UNL     1     -30.757  19.112   0.811  1.00 20.00    -0.260 OA
HETATM   10  O10 UNL     1     -31.970  18.164  -0.864  1.00 20.00    -0.279 OA
ENDROOT
TORSDOF 0
ENDMDL
MODEL 7
REMARK VINA RESULT:      -4.6     11.138     11.444
REMARK  0 active torsions:
REMARK  status: ('A' for Active; 'I' for Inactive)
ROOT
HETATM    1  C1  UNL     1     -33.078  15.159  -4.204  1.00 20.00     0.015 A 
HETATM    2  C2  UNL     1     -33.691  14.177  -4.876  1.00 20.00     0.083 A 
HETATM    3  C3  UNL     1     -33.852  15.994  -3.352  1.00 20.00    -0.028 A 
HETATM    4  C4  UNL     1     -35.162  15.787  -3.240  1.00 20.00     0.063 A 
HETATM    5  C5  UNL     1     -35.155  13.954  -4.740  1.00 20.00     0.287 A 
HETATM    6  C6  UNL     1     -33.396  17.138  -2.522  1.00 20.00     0.041 C 
HETATM    7  C7  UNL     1     -35.832  16.740  -2.323  1.00 20.00     0.066 C 
HETATM    8  C8  UNL     1     -34.626  17.401  -1.635  1.00 20.00     0.011 C 
HETATM    9  O9  UNL     1     -35.701  13.047  -5.363  1.00 20.00    -0.260 OA
HETATM   10  O10 UNL     1     -35.865  14.788  -3.907  1.00 20.00    -0.279 OA
ENDROOT
TORSDOF 0
ENDMDL
MODEL 8
REMARK VINA RESULT:      -4.4     11.213     11.770
REMARK  0 active torsions:
REMARK  status: ('A' for Active; 'I' for Inactive)
ROOT
HETATM    1  C1  UNL     1     -36.957  14.895  -4.590  1.00 20.00     0.015 A 
HETATM    2  C2  UNL     1     -36.779  13.921  -5.492  1.00 20.00     0.083 A 
HETATM    3  C3  UNL     1     -35.818  15.439  -3.935  1.00 20.00    -0.028 A 
HETATM    4  C4  UNL     1     -34.606  14.972  -4.225  1.00 20.00     0.063 A 
HETATM    5  C5  UNL     1     -35.419  13.411  -5.810  1.00 20.00     0.287 A 
HETATM    6  C6  UNL     1     -35.772  16.508  -2.906  1.00 20.00     0.041 C 
HETATM    7  C7  UNL     1     -33.523  15.632  -3.458  1.00 20.00     0.066 C 
HETATM    8  C8  UNL     1     -34.268  16.829  -2.844  1.00 20.00     0.011 C 
HETATM    9  O9  UNL     1     -35.274  12.518  -6.641  1.00 20.00    -0.260 OA
HETATM   10  O10 UNL     1     -34.346  13.965  -5.149  1.00 20.00    -0.279 OA
ENDROOT
TORSDOF 0
ENDMDL
MODEL 9
REMARK VINA RESULT:      -4.4     11.172     12.498
REMARK  0 active torsions:
REMARK  status: ('A' for Active; 'I' for Inactive)
ROOT
HETATM    1  C1  UNL     1     -33.755  15.375  -7.188  1.00 20.00     0.015 A 
HETATM    2  C2  UNL     1     -34.187  14.179  -7.606  1.00 20.00     0.083 A 
HETATM    3  C3  UNL     1     -33.892  15.711  -5.813  1.00 20.00    -0.028 A 
HETATM    4  C4  UNL     1     -34.447  14.840  -4.974  1.00 20.00     0.063 A 
HETATM    5  C5  UNL     1     -34.803  13.212  -6.658  1.00 20.00     0.287 A 
HETATM    6  C6  UNL     1     -33.496  16.968  -5.129  1.00 20.00     0.041 C 
HETATM    7  C7  UNL     1     -34.528  15.337  -3.579  1.00 20.00     0.066 C 
HETATM    8  C8  UNL     1     -33.628  16.581  -3.645  1.00 20.00     0.011 C 
HETATM    9  O9  UNL     1     -35.193  12.119  -7.058  1.00 20.00    -0.260 OA
HETATM   10  O10 UNL     1     -34.919  13.582  -5.337  1.00 20.00    -0.279 OA
ENDROOT
TORSDOF 0
ENDMDL
