MODEL 1
REMARK VINA RESULT:      -6.3      0.000      0.000
REMARK  0 active torsions:
REMARK  status: ('A' for Active; 'I' for Inactive)
ROOT
HETATM    1  C1  UNL     1     -33.197   6.935   2.373  1.00 20.00     0.053 A 
HETATM    2  C2  UNL     1     -31.738   8.428   3.554  1.00 20.00     0.159 A 
HETATM    3  C3  UNL     1     -33.752   6.619   3.596  1.00 20.00    -0.030 A 
HETATM    4  C4  UNL     1     -32.156   7.861   2.350  1.00 20.00     0.134 A 
HETATM    5  C5  UNL     1     -33.267   7.241   4.741  1.00 20.00     0.040 A 
HETATM    6  C6  UNL     1     -34.884   5.701   3.914  1.00 20.00     0.041 C 
HETATM    7  C7  UNL     1     -34.040   6.802   5.952  1.00 20.00     0.060 C 
HETATM    8  C8  UNL     1     -34.696   5.515   5.428  1.00 20.00     0.011 C 
HETATM    9  N9  UNL     1     -32.274   8.145   4.765  1.00 20.00    -0.262 NA
HETATM   10  F10 UNL     1     -31.573   8.204   1.196  1.00 20.00    -0.205 F 
ENDROOT
TORSDOF 0
ENDMDL
MODEL 2
REMARK VINA RESULT:      -5.8      2.519      4.138
REMARK  0 active torsions:
REMARK  status: ('A' for Active; 'I' for Inactive)
ROOT
HETATM    1  C1  UNL     1     -33.673   6.833   5.596  1.00 20.00     0.053 A 
HETATM    2  C2  UNL     1     -34.775   5.368   4.050  1.00 20.00     0.159 A 
HETATM    3  C3  UNL     1     -33.043   7.399   4.507  1.00 20.00    -0.030 A 
HETATM    4  C4  UNL     1     -34.560   5.784   5.364  1.00 20.00     0.134 A 
HETATM    5  C5  UNL     1     -33.327   6.915   3.234  1.00 20.00     0.040 A 
HETATM    6  C6  UNL     1     -32.085   8.541   4.454  1.00 20.00     0.041 C 
HETATM    7  C7  UNL     1     -32.584   7.700   2.190  1.00 20.00     0.060 C 
HETATM    8  C8  UNL     1     -31.495   8.365   3.046  1.00 20.00     0.011 C 
HETATM    9  N9  UNL     1     -34.180   5.914   2.963  1.00 20.00    -0.262 NA
HETATM   10  F10 UNL     1     -35.197   5.190   6.380  1.00 20.00    -0.205 F 
ENDROOT
TORSDOF 0
ENDMDL
MODEL 3
REMARK VINA RESULT:      -5.5      2.185      3.606
REMARK  0 active torsions:
REMARK  status: ('A' for Active; 'I' for Inactive)
ROOT
HETATM    1  C1  UNL     1     -34.131   5.793   3.262  1.00 20.00     0.053 A 
HETATM    2  C2  UNL     1     -34.154   6.363   5.591  1.00 20.00     0.159 A 
HETATM    3  C3  UNL     1     -33.212   6.808   3.092  1.00 20.00    -0.030 A 
HETATM    4  C4  UNL     1     -34.622   5.566   4.546  1.00 20.00     0.134 A 
HETATM    5  C5  UNL     1     -32.807   7.546   4.198  1.00 20.00     0.040 A 
HETATM    6  C6  UNL     1     -32.503   7.248   1.856  1.00 20.00     0.041 C 
HETATM    7  C7  UNL     1     -31.767   8.559   3.810  1.00 20.00     0.060 C 
HETATM    8  C8  UNL     1     -31.981   8.627   2.290  1.00 20.00     0.011 C 
HETATM    9  N9  UNL     1     -33.245   7.357   5.454  1.00 20.00    -0.262 NA
HETATM   10  F10 UNL     1     -35.518   4.600   4.773  1.00 20.00    -0.205 F 
ENDROOT
TORSDOF 0
ENDMDL
MODEL 4
REMARK VINA RESULT:      -5.4      1.306      2.022
REMARK  0 active torsions:
REMARK  status: ('A' for Active; 'I' for Inactive)
ROOT
HETATM    1  C1  UNL     1     -32.660   8.043   3.938  1.00 20.00     0.053 A 
HETATM    2  C2  UNL     1     -32.932   6.710   1.962  1.00 20.00     0.159 A 
HETATM    3  C3  UNL     1     -33.397   7.086   4.604  1.00 20.00    -0.030 A 
HETATM    4  C4  UNL     1     -32.424   7.855   2.578  1.00 20.00     0.134 A 
HETATM    5  C5  UNL     1     -33.859   5.977   3.902  1.00 20.00     0.040 A 
HETATM    6  C6  UNL     1     -33.770   7.010   6.046  1.00 20.00     0.041 C 
HETATM    7  C7  UNL     1     -34.587   5.034   4.818  1.00 20.00     0.060 C 
HETATM    8  C8  UNL     1     -34.891   5.960   6.006  1.00 20.00     0.011 C 
HETATM    9  N9  UNL     1     -33.648   5.750   2.596  1.00 20.00    -0.262 NA
HETATM   10  F10 UNL     1     -31.720   8.750   1.876  1.00 20.00    -0.205 F 
ENDROOT
TORSDOF 0
ENDMDL
MODEL 5
REMARK VINA RESULT:      -4.4      1.920      2.451
REMARK  0 active torsions:
REMARK  status: ('A' for Active; 'I' for Inactive)
ROOT
HETATM    1  C1  UNL     1     -33.855   4.606   3.656  1.00 20.00     0.053 A 
HETATM    2  C2  UNL     1     -32.590   6.142   2.317  1.00 20.00     0.159 A 
HETATM    3  C3  UNL     1     -34.008   5.631   4.567  1.00 20.00    -0.030 A 
HETATM    4  C4  UNL     1     -33.121   4.865   2.501  1.00 20.00     0.134 A 
HETATM    5  C5  UNL     1     -33.442   6.871   4.292  1.00 20.00     0.040 A 
HETATM    6  C6  UNL     1     -34.761   5.651   5.855  1.00 20.00     0.041 C 
HETATM    7  C7  UNL     1     -33.771   7.858   5.377  1.00 20.00     0.060 C 
HETATM    8  C8  UNL     1     -34.182   6.912   6.516  1.00 20.00     0.011 C 
HETATM    9  N9  UNL     1     -32.736   7.168   3.190  1.00 20.00    -0.262 NA
HETATM   10  F10 UNL     1     -32.933   3.910   1.583  1.00 20.00    -0.205 F 
ENDROOT
TORSDOF 0
ENDMDL
MODEL 6
REMARK VINA RESULT:      -4.3     11.617     11.946
REMARK  0 active torsions:
REMARK  status: ('A' for Active; 'I' for Inactive)
ROOT
HETATM    1  C1  UNL     1     -31.827  18.506  -0.107  1.00 20.00     0.053 A 
HETATM    2  C2  UNL     1     -32.715  18.881   2.089  1.00 20.00     0.159 A 
HETATM    3  C3  UNL     1     -33.099  18.125  -0.484  1.00 20.00    -0.030 A 
HETATM    4  C4  UNL     1     -31.626  18.889   1.217  1.00 20.00     0.134 A 
HETATM    5  C5  UNL     1     -34.120  18.153   0.459  1.00 20.00     0.040 A 
HETATM    6  C6  UNL     1     -33.605  17.706  -1.822  1.00 20.00     0.041 C 
HETATM    7  C7  UNL     1     -35.429  17.758  -0.164  1.00 20.00     0.060 C 
HETATM    8  C8  UNL     1     -34.943  17.053  -1.439  1.00 20.00     0.011 C 
HETATM    9  N9  UNL     1     -33.975  18.524   1.742  1.00 20.00    -0.262 NA
HETATM   10  F10 UNL     1     -30.415  19.263   1.644  1.00 20.00    -0.205 F 
ENDROOT
TORSDOF 0
ENDMDL
MODEL 7
REMARK VINA RESULT:      -4.3     11.559     11.921
REMARK  0 active torsions:
REMARK  status: ('A' for Active; 'I' for Inactive)
ROOT
HETATM    1  C1  UNL     1     -32.328  18.219  -0.997  1.00 20.00     0.053 A 
HETATM    2  C2  UNL     1     -33.727  18.436   0.939  1.00 20.00     0.159 A 
HETATM    3  C3  UNL     1     -33.392  17.592  -1.612  1.00 20.00    -0.030 A 
HETATM    4  C4  UNL     1     -32.496  18.649   0.318  1.00 20.00     0.134 A 
HETATM    5  C5  UNL     1     -34.580  17.429  -0.909  1.00 20.00     0.040 A 
HETATM    6  C6  UNL     1     -33.506  17.067  -3.003  1.00 20.00     0.041 C 
HETATM    7  C7  UNL     1     -35.623  16.778  -1.773  1.00 20.00     0.060 C 
HETATM    8  C8  UNL     1     -34.747  16.168  -2.878  1.00 20.00     0.011 C 
HETATM    9  N9  UNL     1     -34.790  17.834   0.354  1.00 20.00    -0.262 NA
HETATM   10  F10 UNL     1     -31.500  19.258   0.970  1.00 20.00    -0.205 F 
ENDROOT
TORSDOF 0
ENDMDL
MODEL 8
REMARK VINA RESULT:      -4.2     11.520     11.708
REMARK  0 active torsions:
REMARK  status: ('A' for Active; 'I' for Inactive)
ROOT
HETATM    1  C1  UNL     1     -35.993  15.074  -4.193  1.00 20.00     0.053 A 
HETATM    2  C2  UNL     1     -33.848  14.507  -5.102  1.00 20.00     0.159 A 
HETATM    3  C3  UNL     1     -35.327  15.909  -3.319  1.00 20.00    -0.030 A 
HETATM    4  C4  UNL     1     -35.234  14.347  -5.107  1.00 20.00     0.134 A 
HETATM    5  C5  UNL     1     -33.942  16.001  -3.394  1.00 20.00     0.040 A 
HETATM    6  C6  UNL     1     -35.877  16.818  -2.272  1.00 20.00     0.041 C 
HETATM    7  C7  UNL     1     -33.421  16.999  -2.400  1.00 20.00     0.060 C 
HETATM    8  C8  UNL     1     -34.616  17.105  -1.441  1.00 20.00     0.011 C 
HETATM    9  N9  UNL     1     -33.171  15.328  -4.264  1.00 20.00    -0.262 NA
HETATM   10  F10 UNL     1     -35.821  13.517  -5.976  1.00 20.00    -0.205 F 
ENDROOT
TORSDOF 0
ENDMDL
MODEL 9
REMARK VINA RESULT:      -4.2     11.533     12.551
REMARK  0 active torsions:
REMARK  status: ('A' for Active; 'I' for Inactive)
ROOT
HETATM    1  C1  UNL     1     -34.921  14.680  -4.208  1.00 20.00     0.053 A 
HETATM    2  C2  UNL     1     -33.243  16.296  -4.778  1.00 20.00     0.159 A 
HETATM    3  C3  UNL     1     -34.898  14.289  -5.531  1.00 20.00    -0.030 A 
HETATM    4  C4  UNL     1     -34.075  15.716  -3.820  1.00 20.00     0.134 A 
HETATM    5  C5  UNL     1     -34.031  14.928  -6.411  1.00 20.00     0.040 A 
HETATM    6  C6  UNL     1     -35.660  13.202  -6.211  1.00 20.00     0.041 C 
HETATM    7  C7  UNL     1     -34.121  14.319  -7.782  1.00 20.00     0.060 C 
HETATM    8  C8  UNL     1     -35.469  13.588  -7.687  1.00 20.00     0.011 C 
HETATM    9  N9  UNL     1     -33.193  15.923  -6.080  1.00 20.00    -0.262 NA
HETATM   10  F10 UNL     1     -34.055  16.143  -2.552  1.00 20.00    -0.205 F 
ENDROOT
TORSDOF 0
ENDMDL
