MODEL 1
REMARK VINA RESULT:      -5.6      0.000      0.000
REMARK  2 active torsions:
REMARK  status: ('A' for Active; 'I' for Inactive)
REMARK    1  A    between atoms: C1_1  and  N9_9 
REMARK    2  A    between atoms: C8_8  and  N9_9 
ROOT
HETATM    1  C2  UNL     1     -34.019   5.186   5.589  1.00 20.00     0.005 C 
HETATM    2  C3  UNL     1     -34.075   6.718   5.515  1.00 20.00     0.007 C 
HETATM    3  C4  UNL     1     -35.516   5.832   3.853  1.00 20.00     0.011 C 
HETATM    4  C5  UNL     1     -33.354   5.072   3.180  1.00 20.00     0.030 C 
HETATM    5  C6  UNL     1     -34.479   4.758   4.185  1.00 20.00    -0.012 C 
HETATM    6  C7  UNL     1     -34.527   6.982   4.064  1.00 20.00     0.009 C 
HETATM    7  C8  UNL     1     -33.424   6.605   3.054  1.00 20.00     0.088 C 
ENDROOT
BRANCH   7   8
HETATM    8  N9  UNL     1     -32.165   7.251   3.289  1.00 20.00    -0.363 N 
HETATM    9  H23 UNL     1     -31.537   6.844   3.983  1.00 20.00     0.162 HD
BRANCH   8  10
HETATM   10  C1  UNL     1     -31.756   8.395   2.628  1.00 20.00     0.348 C 
HETATM   11  O10 UNL     1     -32.328   8.974   1.714  1.00 20.00    -0.284 OA
ENDBRANCH   8  10
ENDBRANCH   7   8
TORSDOF 2
ENDMDL
MODEL 2
REMARK VINA RESULT:      -4.5      1.010      1.989
REMARK  2 active torsions:
REMARK  status: ('A' for Active; 'I' for Inactive)
REMARK    1  A    between atoms: C1_1  and  N9_9 
REMARK    2  A    between atoms: C8_8  and  N9_9 
ROOT
HETATM    1  C2  UNL     1     -35.594   6.094   3.639  1.00 20.00     0.005 C 
HETATM    2  C3  UNL     1     -34.748   6.002   2.362  1.00 20.00     0.007 C 
HETATM    3  C4  UNL     1     -33.619   4.848   4.099  1.00 20.00     0.011 C 
HETATM    4  C5  UNL     1     -33.667   7.108   4.870  1.00 20.00     0.030 C 
HETATM    5  C6  UNL     1     -34.562   5.859   4.753  1.00 20.00    -0.012 C 
HETATM    6  C7  UNL     1     -33.325   5.758   2.904  1.00 20.00     0.009 C 
HETATM    7  C8  UNL     1     -32.774   7.009   3.620  1.00 20.00     0.088 C 
ENDROOT
BRANCH   7   8
HETATM    8  N9  UNL     1     -32.786   8.199   2.819  1.00 20.00    -0.363 N 
HETATM    9  H23 UNL     1     -33.509   8.895   3.000  1.00 20.00     0.162 HD
BRANCH   8  10
HETATM   10  C1  UNL     1     -31.871   8.455   1.814  1.00 20.00     0.348 C 
HETATM   11  O10 UNL     1     -32.020   9.171   0.833  1.00 20.00    -0.284 OA
ENDBRANCH   8  10
ENDBRANCH   7   8
TORSDOF 2
ENDMDL
MODEL 3
REMARK VINA RESULT:      -4.3     11.833     13.033
REMARK  2 active torsions:
REMARK  status: ('A' for Active; 'I' for Inactive)
REMARK    1  A    between atoms: C1_1  and  N9_9 
REMARK    2  A    between atoms: C8_8  and  N9_9 
ROOT
HETATM    1  C2  UNL     1     -34.671  15.040  -3.920  1.00 20.00     0.005 C 
HETATM    2  C3  UNL     1     -33.279  14.598  -4.388  1.00 20.00     0.007 C 
HETATM    3  C4  UNL     1     -33.540  16.905  -4.874  1.00 20.00     0.011 C 
HETATM    4  C5  UNL     1     -35.210  15.858  -6.222  1.00 20.00     0.030 C 
HETATM    5  C6  UNL     1     -34.938  16.294  -4.769  1.00 20.00    -0.012 C 
HETATM    6  C7  UNL     1     -32.930  15.635  -5.475  1.00 20.00     0.009 C 
HETATM    7  C8  UNL     1     -33.813  15.454  -6.727  1.00 20.00     0.088 C 
ENDROOT
BRANCH   7   8
HETATM    8  N9  UNL     1     -33.773  14.136  -7.291  1.00 20.00    -0.363 N 
HETATM    9  H23 UNL     1     -32.889  13.804  -7.676  1.00 20.00     0.162 HD
BRANCH   8  10
HETATM   10  C1  UNL     1     -34.866  13.290  -7.340  1.00 20.00     0.348 C 
HETATM   11  O10 UNL     1     -35.136  12.374  -6.575  1.00 20.00    -0.284 OA
ENDBRANCH   8  10
ENDBRANCH   7   8
TORSDOF 2
ENDMDL
MODEL 4
REMARK VINA RESULT:      -4.2     11.374     12.513
REMARK  2 active torsions:
REMARK  status: ('A' for Active; 'I' for Inactive)
REMARK    1  A    between atoms: C1_1  and  N9_9 
REMARK    2  A    between atoms: C8_8  and  N9_9 
ROOT
HETATM    1  C2  UNL     1     -34.670  16.999  -5.343  1.00 20.00     0.005 C 
HETATM    2  C3  UNL     1     -35.772  16.447  -4.428  1.00 20.00     0.007 C 
HETATM    3  C4  UNL     1     -33.712  16.369  -3.257  1.00 20.00     0.011 C 
HETATM    4  C5  UNL     1     -33.368  14.878  -5.091  1.00 20.00     0.030 C 
HETATM    5  C6  UNL     1     -33.392  16.381  -4.752  1.00 20.00    -0.012 C 
HETATM    6  C7  UNL     1     -34.993  15.551  -3.444  1.00 20.00     0.009 C 
HETATM    7  C8  UNL     1     -34.436  14.296  -4.147  1.00 20.00     0.088 C 
ENDROOT
BRANCH   7   8
HETATM    8  N9  UNL     1     -35.427  13.513  -4.827  1.00 20.00    -0.363 N 
HETATM    9  H23 UNL     1     -36.169  13.087  -4.271  1.00 20.00     0.162 HD
BRANCH   8  10
HETATM   10  C1  UNL     1     -35.433  13.303  -6.194  1.00 20.00     0.348 C 
HETATM   11  O10 UNL     1     -35.105  12.289  -6.794  1.00 20.00    -0.284 OA
ENDBRANCH   8  10
ENDBRANCH   7   8
TORSDOF 2
ENDMDL
MODEL 5
REMARK VINA RESULT:      -4.1     11.690     12.667
REMARK  2 active torsions:
REMARK  status: ('A' for Active; 'I' for Inactive)
REMARK    1  A    between atoms: C1_1  and  N9_9 
REMARK    2  A    between atoms: C8_8  and  N9_9 
ROOT
HETATM    1  C2  UNL     1     -33.581  16.579  -4.132  1.00 20.00     0.005 C 
HETATM    2  C3  UNL     1     -34.725  15.768  -3.509  1.00 20.00     0.007 C 
HETATM    3  C4  UNL     1     -33.100  14.257  -4.346  1.00 20.00     0.011 C 
HETATM    4  C5  UNL     1     -33.883  15.377  -6.306  1.00 20.00     0.030 C 
HETATM    5  C6  UNL     1     -32.938  15.576  -5.104  1.00 20.00    -0.012 C 
HETATM    6  C7  UNL     1     -34.619  14.407  -4.226  1.00 20.00     0.009 C 
HETATM    7  C8  UNL     1     -35.017  14.522  -5.713  1.00 20.00     0.088 C 
ENDROOT
BRANCH   7   8
HETATM    8  N9  UNL     1     -36.321  15.080  -5.931  1.00 20.00    -0.363 N 
HETATM    9  H23 UNL     1     -36.389  16.072  -6.157  1.00 20.00     0.162 HD
BRANCH   8  10
HETATM   10  C1  UNL     1     -37.491  14.347  -5.851  1.00 20.00     0.348 C 
HETATM   11  O10 UNL     1     -38.049  13.939  -4.841  1.00 20.00    -0.284 OA
ENDBRANCH   8  10
ENDBRANCH   7   8
TORSDOF 2
ENDMDL
MODEL 6
REMARK VINA RESULT:      -4.1     11.969     12.863
REMARK  2 active torsions:
REMARK  status: ('A' for Active; 'I' for Inactive)
REMARK    1  A    between atoms: C1_1  and  N9_9 
REMARK    2  A    between atoms: C8_8  and  N9_9 
ROOT
HETATM    1  C2  UNL     1     -32.898  14.988  -4.489  1.00 20.00     0.005 C 
HETATM    2  C3  UNL     1     -33.308  15.391  -5.912  1.00 20.00     0.007 C 
HETATM    3  C4  UNL     1     -33.628  17.254  -4.480  1.00 20.00     0.011 C 
HETATM    4  C5  UNL     1     -35.158  15.629  -3.631  1.00 20.00     0.030 C 
HETATM    5  C6  UNL     1     -33.661  15.995  -3.613  1.00 20.00    -0.012 C 
HETATM    6  C7  UNL     1     -34.286  16.560  -5.675  1.00 20.00     0.009 C 
HETATM    7  C8  UNL     1     -35.603  16.071  -5.037  1.00 20.00     0.088 C 
ENDROOT
BRANCH   7   8
HETATM    8  N9  UNL     1     -36.264  15.033  -5.775  1.00 20.00    -0.363 N 
HETATM    9  H23 UNL     1     -36.514  15.217  -6.747  1.00 20.00     0.162 HD
BRANCH   8  10
HETATM   10  C1  UNL     1     -36.584  13.798  -5.241  1.00 20.00     0.348 C 
HETATM   11  O10 UNL     1     -35.927  12.767  -5.299  1.00 20.00    -0.284 OA
ENDBRANCH   8  10
ENDBRANCH   7   8
TORSDOF 2
ENDMDL
MODEL 7
REMARK VINA RESULT:      -4.0     11.740     12.540
REMARK  2 active torsions:
REMARK  status: ('A' for Active; 'I' for Inactive)
REMARK    1  A    between atoms: C1_1  and  N9_9 
REMARK    2  A    between atoms: C8_8  and  N9_9 
ROOT
HETATM    1  C2  UNL     1     -34.310  18.172  -3.779  1.00 20.00     0.005 C 
HETATM    2  C3  UNL     1     -35.768  17.695  -3.763  1.00 20.00     0.007 C 
HETATM    3  C4  UNL     1     -34.664  16.805  -1.862  1.00 20.00     0.011 C 
HETATM    4  C5  UNL     1     -33.510  15.803  -3.698  1.00 20.00     0.030 C 
HETATM    5  C6  UNL     1     -33.596  17.124  -2.909  1.00 20.00    -0.012 C 
HETATM    6  C7  UNL     1     -35.706  16.410  -2.912  1.00 20.00     0.009 C 
HETATM    7  C8  UNL     1     -34.958  15.282  -3.653  1.00 20.00     0.088 C 
ENDROOT
BRANCH   7   8
HETATM    8  N9  UNL     1     -35.490  14.974  -4.948  1.00 20.00    -0.363 N 
HETATM    9  H23 UNL     1     -35.302  15.623  -5.713  1.00 20.00     0.162 HD
BRANCH   8  10
HETATM   10  C1  UNL     1     -36.246  13.847  -5.219  1.00 20.00     0.348 C 
HETATM   11  O10 UNL     1     -35.868  12.683  -5.242  1.00 20.00    -0.284 OA
ENDBRANCH   8  10
ENDBRANCH   7   8
TORSDOF 2
ENDMDL
MODEL 8
REMARK VINA RESULT:      -3.9     11.551     12.553
REMARK  2 active torsions:
REMARK  status: ('A' for Active; 'I' for Inactive)
REMARK    1  A    between atoms: C1_1  and  N9_9 
REMARK    2  A    between atoms: C8_8  and  N9_9 
ROOT
HETATM    1  C2  UNL     1     -35.869  17.284  -4.018  1.00 20.00     0.005 C 
HETATM    2  C3  UNL     1     -35.601  16.369  -2.816  1.00 20.00     0.007 C 
HETATM    3  C4  UNL     1     -33.602  17.533  -3.335  1.00 20.00     0.011 C 
HETATM    4  C5  UNL     1     -33.997  16.208  -5.282  1.00 20.00     0.030 C 
HETATM    5  C6  UNL     1     -34.463  17.508  -4.599  1.00 20.00    -0.012 C 
HETATM    6  C7  UNL     1     -34.075  16.152  -2.875  1.00 20.00     0.009 C 
HETATM    7  C8  UNL     1     -33.677  15.289  -4.090  1.00 20.00     0.088 C 
ENDROOT
BRANCH   7   8
HETATM    8  N9  UNL     1     -34.344  14.021  -4.155  1.00 20.00    -0.363 N 
HETATM    9  H23 UNL     1     -34.179  13.350  -3.405  1.00 20.00     0.162 HD
BRANCH   8  10
HETATM   10  C1  UNL     1     -35.199  13.657  -5.180  1.00 20.00     0.348 C 
HETATM   11  O10 UNL     1     -36.012  12.742  -5.184  1.00 20.00    -0.284 OA
ENDBRANCH   8  10
ENDBRANCH   7   8
TORSDOF 2
ENDMDL
MODEL 9
REMARK VINA RESULT:      -3.9      9.343     10.481
REMARK  2 active torsions:
REMARK  status: ('A' for Active; 'I' for Inactive)
REMARK    1  A    between atoms: C1_1  and  N9_9 
REMARK    2  A    between atoms: C8_8  and  N9_9 
ROOT
HETATM    1  C2  UNL     1     -41.737   7.861  -0.725  1.00 20.00     0.005 C 
HETATM    2  C3  UNL     1     -43.230   7.511  -0.771  1.00 20.00     0.007 C 
HETATM    3  C4  UNL     1     -42.295   6.562   1.190  1.00 20.00     0.011 C 
HETATM    4  C5  UNL     1     -41.150   5.433  -0.576  1.00 20.00     0.030 C 
HETATM    5  C6  UNL     1     -41.157   6.770   0.191  1.00 20.00    -0.012 C 
HETATM    6  C7  UNL     1     -43.318   6.240   0.098  1.00 20.00     0.009 C 
HETATM    7  C8  UNL     1     -42.638   5.040  -0.592  1.00 20.00     0.088 C 
ENDROOT
BRANCH   7   8
HETATM    8  N9  UNL     1     -43.136   4.757  -1.908  1.00 20.00    -0.363 N 
HETATM    9  H23 UNL     1     -43.634   5.497  -2.403  1.00 20.00     0.162 HD
BRANCH   8  10
HETATM   10  C1  UNL     1     -42.978   3.538  -2.541  1.00 20.00     0.348 C 
HETATM   11  O10 UNL     1     -41.980   3.115  -3.109  1.00 20.00    -0.284 OA
ENDBRANCH   8  10
ENDBRANCH   7   8
TORSDOF 2
ENDMDL
