MODEL 1
REMARK VINA RESULT:      -6.3      0.000      0.000
REMARK  0 active torsions:
REMARK  status: ('A' for Active; 'I' for Inactive)
ROOT
HETATM    1  C1  UNL     1     -32.600   7.596   3.995  1.00 20.00    -0.023 C 
HETATM    2  C2  UNL     1     -33.604   7.210   4.792  1.00 20.00    -0.083 C 
HETATM    3  C3  UNL     1     -33.447   4.712   2.893  1.00 20.00     0.132 C 
HETATM    4  C4  UNL     1     -32.786   7.136   2.584  1.00 20.00     0.040 C 
HETATM    5  C5  UNL     1     -33.909   4.121   4.197  1.00 20.00     0.079 C 
HETATM    6  C6  UNL     1     -35.035   5.069   4.588  1.00 20.00     0.017 C 
HETATM    7  C7  UNL     1     -34.648   6.439   4.031  1.00 20.00     0.025 C 
HETATM    8  C8  UNL     1     -33.937   6.138   2.697  1.00 20.00     0.067 C 
HETATM    9  C9  UNL     1     -33.759   7.539   6.233  1.00 20.00     0.043 C 
HETATM   10  O10 UNL     1     -32.729   4.118   2.097  1.00 20.00    -0.298 OA
ENDROOT
TORSDOF 0
ENDMDL
MODEL 2
REMARK VINA RESULT:      -6.3      1.365      2.286
REMARK  0 active torsions:
REMARK  status: ('A' for Active; 'I' for Inactive)
ROOT
HETATM    1  C1  UNL     1     -32.713   6.473   2.459  1.00 20.00    -0.023 C 
HETATM    2  C2  UNL     1     -32.696   7.362   3.462  1.00 20.00    -0.083 C 
HETATM    3  C3  UNL     1     -34.515   5.145   4.748  1.00 20.00     0.132 C 
HETATM    4  C4  UNL     1     -34.028   5.772   2.344  1.00 20.00     0.040 C 
HETATM    5  C5  UNL     1     -33.810   5.742   5.936  1.00 20.00     0.079 C 
HETATM    6  C6  UNL     1     -33.993   7.233   5.692  1.00 20.00     0.017 C 
HETATM    7  C7  UNL     1     -34.021   7.413   4.174  1.00 20.00     0.025 C 
HETATM    8  C8  UNL     1     -34.739   6.160   3.639  1.00 20.00     0.067 C 
HETATM    9  C9  UNL     1     -31.570   8.262   3.820  1.00 20.00     0.043 C 
HETATM   10  O10 UNL     1     -34.837   3.966   4.674  1.00 20.00    -0.298 OA
ENDROOT
TORSDOF 0
ENDMDL
MODEL 3
REMARK VINA RESULT:      -6.1      1.813      3.732
REMARK  0 active torsions:
REMARK  status: ('A' for Active; 'I' for Inactive)
ROOT
HETATM    1  C1  UNL     1     -33.977   4.096   4.375  1.00 20.00    -0.023 C 
HETATM    2  C2  UNL     1     -33.614   4.673   3.222  1.00 20.00    -0.083 C 
HETATM    3  C3  UNL     1     -33.659   7.201   5.087  1.00 20.00     0.132 C 
HETATM    4  C4  UNL     1     -34.863   4.978   5.196  1.00 20.00     0.040 C 
HETATM    5  C5  UNL     1     -32.582   7.532   4.088  1.00 20.00     0.079 C 
HETATM    6  C6  UNL     1     -33.264   7.192   2.771  1.00 20.00     0.017 C 
HETATM    7  C7  UNL     1     -34.223   6.041   3.074  1.00 20.00     0.025 C 
HETATM    8  C8  UNL     1     -34.751   6.329   4.492  1.00 20.00     0.067 C 
HETATM    9  C9  UNL     1     -32.782   4.058   2.155  1.00 20.00     0.043 C 
HETATM   10  O10 UNL     1     -33.633   7.569   6.255  1.00 20.00    -0.298 OA
ENDROOT
TORSDOF 0
ENDMDL
MODEL 4
REMARK VINA RESULT:      -5.9      1.644      2.789
REMARK  0 active torsions:
REMARK  status: ('A' for Active; 'I' for Inactive)
ROOT
HETATM    1  C1  UNL     1     -33.853   6.531   6.076  1.00 20.00    -0.023 C 
HETATM    2  C2  UNL     1     -34.402   5.724   5.159  1.00 20.00    -0.083 C 
HETATM    3  C3  UNL     1     -32.504   7.415   3.311  1.00 20.00     0.132 C 
HETATM    4  C4  UNL     1     -33.593   7.903   5.544  1.00 20.00     0.040 C 
HETATM    5  C5  UNL     1     -32.547   6.077   2.624  1.00 20.00     0.079 C 
HETATM    6  C6  UNL     1     -34.040   5.785   2.601  1.00 20.00     0.017 C 
HETATM    7  C7  UNL     1     -34.620   6.442   3.854  1.00 20.00     0.025 C 
HETATM    8  C8  UNL     1     -33.799   7.733   4.040  1.00 20.00     0.067 C 
HETATM    9  C9  UNL     1     -34.833   4.318   5.369  1.00 20.00     0.043 C 
HETATM   10  O10 UNL     1     -31.521   8.146   3.308  1.00 20.00    -0.298 OA
ENDROOT
TORSDOF 0
ENDMDL
MODEL 5
REMARK VINA RESULT:      -4.3     12.040     12.832
REMARK  0 active torsions:
REMARK  status: ('A' for Active; 'I' for Inactive)
ROOT
HETATM    1  C1  UNL     1     -36.230  15.942  -3.630  1.00 20.00    -0.023 C 
HETATM    2  C2  UNL     1     -34.947  15.856  -3.254  1.00 20.00    -0.083 C 
HETATM    3  C3  UNL     1     -34.688  14.909  -6.239  1.00 20.00     0.132 C 
HETATM    4  C4  UNL     1     -36.612  14.865  -4.595  1.00 20.00     0.040 C 
HETATM    5  C5  UNL     1     -33.368  15.584  -5.979  1.00 20.00     0.079 C 
HETATM    6  C6  UNL     1     -32.961  14.969  -4.647  1.00 20.00     0.017 C 
HETATM    7  C7  UNL     1     -34.261  14.682  -3.898  1.00 20.00     0.025 C 
HETATM    8  C8  UNL     1     -35.264  14.264  -4.990  1.00 20.00     0.067 C 
HETATM    9  C9  UNL     1     -34.258  16.733  -2.272  1.00 20.00     0.043 C 
HETATM   10  O10 UNL     1     -35.246  14.913  -7.330  1.00 20.00    -0.298 OA
ENDROOT
TORSDOF 0
ENDMDL
MODEL 6
REMARK VINA RESULT:      -4.3      1.917      3.311
REMARK  0 active torsions:
REMARK  status: ('A' for Active; 'I' for Inactive)
ROOT
HETATM    1  C1  UNL     1     -34.530   6.596   3.685  1.00 20.00    -0.023 C 
HETATM    2  C2  UNL     1     -33.552   7.050   4.480  1.00 20.00    -0.083 C 
HETATM    3  C3  UNL     1     -32.627   8.288   1.744  1.00 20.00     0.132 C 
HETATM    4  C4  UNL     1     -34.037   6.264   2.313  1.00 20.00     0.040 C 
HETATM    5  C5  UNL     1     -32.143   9.292   2.755  1.00 20.00     0.079 C 
HETATM    6  C6  UNL     1     -31.463   8.399   3.782  1.00 20.00     0.017 C 
HETATM    7  C7  UNL     1     -32.228   7.076   3.766  1.00 20.00     0.025 C 
HETATM    8  C8  UNL     1     -32.636   6.871   2.295  1.00 20.00     0.067 C 
HETATM    9  C9  UNL     1     -33.686   7.422   5.913  1.00 20.00     0.043 C 
HETATM   10  O10 UNL     1     -33.003   8.589   0.618  1.00 20.00    -0.298 OA
ENDROOT
TORSDOF 0
ENDMDL
MODEL 7
REMARK VINA RESULT:      -4.3     12.039     12.700
REMARK  0 active torsions:
REMARK  status: ('A' for Active; 'I' for Inactive)
ROOT
HETATM    1  C1  UNL     1     -33.369  15.895  -4.026  1.00 20.00    -0.023 C 
HETATM    2  C2  UNL     1     -34.659  16.065  -3.710  1.00 20.00    -0.083 C 
HETATM    3  C3  UNL     1     -34.953  13.951  -6.016  1.00 20.00     0.132 C 
HETATM    4  C4  UNL     1     -33.168  15.666  -5.490  1.00 20.00     0.040 C 
HETATM    5  C5  UNL     1     -36.117  13.638  -5.114  1.00 20.00     0.079 C 
HETATM    6  C6  UNL     1     -36.711  15.019  -4.880  1.00 20.00     0.017 C 
HETATM    7  C7  UNL     1     -35.538  15.999  -4.929  1.00 20.00     0.025 C 
HETATM    8  C8  UNL     1     -34.588  15.426  -5.998  1.00 20.00     0.067 C 
HETATM    9  C9  UNL     1     -35.202  16.362  -2.359  1.00 20.00     0.043 C 
HETATM   10  O10 UNL     1     -34.350  13.102  -6.662  1.00 20.00    -0.298 OA
ENDROOT
TORSDOF 0
ENDMDL
MODEL 8
REMARK VINA RESULT:      -4.2     11.994     13.437
REMARK  0 active torsions:
REMARK  status: ('A' for Active; 'I' for Inactive)
ROOT
HETATM    1  C1  UNL     1     -34.709  16.479  -4.392  1.00 20.00    -0.023 C 
HETATM    2  C2  UNL     1     -34.206  16.610  -5.626  1.00 20.00    -0.083 C 
HETATM    3  C3  UNL     1     -35.205  13.635  -5.774  1.00 20.00     0.132 C 
HETATM    4  C4  UNL     1     -34.503  15.106  -3.838  1.00 20.00     0.040 C 
HETATM    5  C5  UNL     1     -35.362  14.119  -7.190  1.00 20.00     0.079 C 
HETATM    6  C6  UNL     1     -34.017  14.784  -7.444  1.00 20.00     0.017 C 
HETATM    7  C7  UNL     1     -33.556  15.336  -6.095  1.00 20.00     0.025 C 
HETATM    8  C8  UNL     1     -34.046  14.308  -5.057  1.00 20.00     0.067 C 
HETATM    9  C9  UNL     1     -34.194  17.851  -6.444  1.00 20.00     0.043 C 
HETATM   10  O10 UNL     1     -35.952  12.816  -5.252  1.00 20.00    -0.298 OA
ENDROOT
TORSDOF 0
ENDMDL
MODEL 9
REMARK VINA RESULT:      -4.2     11.963     13.407
REMARK  0 active torsions:
REMARK  status: ('A' for Active; 'I' for Inactive)
ROOT
HETATM    1  C1  UNL     1     -34.174  15.092  -4.931  1.00 20.00    -0.023 C 
HETATM    2  C2  UNL     1     -34.227  15.026  -6.268  1.00 20.00    -0.083 C 
HETATM    3  C3  UNL     1     -37.146  14.093  -5.574  1.00 20.00     0.132 C 
HETATM    4  C4  UNL     1     -34.974  14.013  -4.277  1.00 20.00     0.040 C 
HETATM    5  C5  UNL     1     -37.315  14.789  -6.898  1.00 20.00     0.079 C 
HETATM    6  C6  UNL     1     -36.188  14.176  -7.718  1.00 20.00     0.017 C 
HETATM    7  C7  UNL     1     -35.065  13.865  -6.729  1.00 20.00     0.025 C 
HETATM    8  C8  UNL     1     -35.784  13.435  -5.436  1.00 20.00     0.067 C 
HETATM    9  C9  UNL     1     -33.509  15.911  -7.222  1.00 20.00     0.043 C 
HETATM   10  O10 UNL     1     -38.001  14.092  -4.697  1.00 20.00    -0.298 OA
ENDROOT
TORSDOF 0
ENDMDL
