MODEL 1
REMARK VINA RESULT:      -5.6      0.000      0.000
REMARK  1 active torsions:
REMARK  status: ('A' for Active; 'I' for Inactive)
REMARK    1  A    between atoms: C7_7  and  C8_8 
ROOT
HETATM    1  C1  UNL     1     -34.318   4.976   4.219  1.00 20.00     0.131 C 
HETATM    2  C2  UNL     1     -34.728   5.837   5.389  1.00 20.00     0.104 C 
HETATM    3  C3  UNL     1     -34.002   5.716   2.940  1.00 20.00     0.110 C 
HETATM    4  C6  UNL     1     -33.772   7.013   5.512  1.00 20.00     0.175 C 
HETATM    5  C8  UNL     1     -33.089   6.902   3.248  1.00 20.00     0.132 C 
HETATM    6  O9  UNL     1     -34.348   3.748   4.270  1.00 20.00    -0.298 OA
HETATM    7  O10 UNL     1     -33.676   7.718   4.272  1.00 20.00    -0.385 OA
ENDROOT
BRANCH   5   8
HETATM    8  C7  UNL     1     -32.871   7.751   2.031  1.00 20.00     0.015 A 
HETATM    9  C4  UNL     1     -32.636   9.229   2.171  1.00 20.00     0.007 A 
HETATM   10  C5  UNL     1     -31.512   8.326   1.743  1.00 20.00     0.007 A 
ENDBRANCH   5   8
TORSDOF 1
ENDMDL
MODEL 2
REMARK VINA RESULT:      -5.2      1.516      2.219
REMARK  1 active torsions:
REMARK  status: ('A' for Active; 'I' for Inactive)
REMARK    1  A    between atoms: C7_7  and  C8_8 
ROOT
HETATM    1  C1  UNL     1     -33.878   6.747   5.176  1.00 20.00     0.131 C 
HETATM    2  C2  UNL     1     -34.189   5.489   4.400  1.00 20.00     0.104 C 
HETATM    3  C3  UNL     1     -32.817   7.640   4.578  1.00 20.00     0.110 C 
HETATM    4  C6  UNL     1     -34.351   5.830   2.928  1.00 20.00     0.175 C 
HETATM    5  C8  UNL     1     -33.089   7.826   3.085  1.00 20.00     0.132 C 
HETATM    6  O9  UNL     1     -34.374   6.972   6.278  1.00 20.00    -0.298 OA
HETATM    7  O10 UNL     1     -33.212   6.547   2.447  1.00 20.00    -0.385 OA
ENDROOT
BRANCH   5   8
HETATM    8  C7  UNL     1     -31.978   8.584   2.421  1.00 20.00     0.015 A 
HETATM    9  C4  UNL     1     -31.745   8.444   0.942  1.00 20.00     0.007 A 
HETATM   10  C5  UNL     1     -32.289   9.730   1.499  1.00 20.00     0.007 A 
ENDBRANCH   5   8
TORSDOF 1
ENDMDL
MODEL 3
REMARK VINA RESULT:      -5.0      1.563      3.980
REMARK  1 active torsions:
REMARK  status: ('A' for Active; 'I' for Inactive)
REMARK    1  A    between atoms: C7_7  and  C8_8 
ROOT
HETATM    1  C1  UNL     1     -32.388   7.832   2.443  1.00 20.00     0.131 C 
HETATM    2  C2  UNL     1     -31.547   8.239   3.630  1.00 20.00     0.104 C 
HETATM    3  C3  UNL     1     -33.324   6.669   2.673  1.00 20.00     0.110 C 
HETATM    4  C6  UNL     1     -32.423   8.317   4.869  1.00 20.00     0.175 C 
HETATM    5  C8  UNL     1     -34.077   6.871   3.987  1.00 20.00     0.132 C 
HETATM    6  O9  UNL     1     -32.239   8.340   1.334  1.00 20.00    -0.298 OA
HETATM    7  O10 UNL     1     -33.145   7.097   5.054  1.00 20.00    -0.385 OA
ENDROOT
BRANCH   5   8
HETATM    8  C7  UNL     1     -34.907   5.669   4.328  1.00 20.00     0.015 A 
HETATM    9  C4  UNL     1     -34.291   4.298   4.326  1.00 20.00     0.007 A 
HETATM   10  C5  UNL     1     -34.688   4.941   5.625  1.00 20.00     0.007 A 
ENDBRANCH   5   8
TORSDOF 1
ENDMDL
MODEL 4
REMARK VINA RESULT:      -4.5     11.061     12.221
REMARK  1 active torsions:
REMARK  status: ('A' for Active; 'I' for Inactive)
REMARK    1  A    between atoms: C7_7  and  C8_8 
ROOT
HETATM    1  C1  UNL     1     -35.389  13.826  -5.230  1.00 20.00     0.131 C 
HETATM    2  C2  UNL     1     -35.461  14.720  -6.445  1.00 20.00     0.104 C 
HETATM    3  C3  UNL     1     -34.483  14.302  -4.119  1.00 20.00     0.110 C 
HETATM    4  C6  UNL     1     -35.644  16.162  -6.001  1.00 20.00     0.175 C 
HETATM    5  C8  UNL     1     -34.747  15.782  -3.844  1.00 20.00     0.132 C 
HETATM    6  O9  UNL     1     -35.942  12.729  -5.195  1.00 20.00    -0.298 OA
HETATM    7  O10 UNL     1     -34.633  16.534  -5.061  1.00 20.00    -0.385 OA
ENDROOT
BRANCH   5   8
HETATM    8  C7  UNL     1     -33.767  16.333  -2.851  1.00 20.00     0.015 A 
HETATM    9  C4  UNL     1     -33.596  17.819  -2.702  1.00 20.00     0.007 A 
HETATM   10  C5  UNL     1     -34.255  17.026  -1.609  1.00 20.00     0.007 A 
ENDBRANCH   5   8
TORSDOF 1
ENDMDL
MODEL 5
REMARK VINA RESULT:      -4.5      0.794      1.083
REMARK  1 active torsions:
REMARK  status: ('A' for Active; 'I' for Inactive)
REMARK    1  A    between atoms: C7_7  and  C8_8 
ROOT
HETATM    1  C1  UNL     1     -33.849   5.424   3.685  1.00 20.00     0.131 C 
HETATM    2  C2  UNL     1     -34.597   6.033   4.847  1.00 20.00     0.104 C 
HETATM    3  C3  UNL     1     -33.162   6.403   2.763  1.00 20.00     0.110 C 
HETATM    4  C6  UNL     1     -33.727   7.085   5.513  1.00 20.00     0.175 C 
HETATM    5  C8  UNL     1     -32.389   7.428   3.591  1.00 20.00     0.132 C 
HETATM    6  O9  UNL     1     -33.891   4.220   3.443  1.00 20.00    -0.298 OA
HETATM    7  O10 UNL     1     -33.260   8.037   4.554  1.00 20.00    -0.385 OA
ENDROOT
BRANCH   5   8
HETATM    8  C7  UNL     1     -31.813   8.507   2.722  1.00 20.00     0.015 A 
HETATM    9  C4  UNL     1     -31.691   8.299   1.238  1.00 20.00     0.007 A 
HETATM   10  C5  UNL     1     -32.700   9.273   1.779  1.00 20.00     0.007 A 
ENDBRANCH   5   8
TORSDOF 1
ENDMDL
MODEL 6
REMARK VINA RESULT:      -3.9     11.224     11.996
REMARK  1 active torsions:
REMARK  status: ('A' for Active; 'I' for Inactive)
REMARK    1  A    between atoms: C7_7  and  C8_8 
ROOT
HETATM    1  C1  UNL     1     -35.056  17.555  -0.442  1.00 20.00     0.131 C 
HETATM    2  C2  UNL     1     -33.982  18.614  -0.510  1.00 20.00     0.104 C 
HETATM    3  C3  UNL     1     -35.386  16.873  -1.749  1.00 20.00     0.110 C 
HETATM    4  C6  UNL     1     -32.801  18.086  -1.308  1.00 20.00     0.175 C 
HETATM    5  C8  UNL     1     -34.093  16.467  -2.454  1.00 20.00     0.132 C 
HETATM    6  O9  UNL     1     -35.699  17.343   0.584  1.00 20.00    -0.298 OA
HETATM    7  O10 UNL     1     -33.229  17.605  -2.584  1.00 20.00    -0.385 OA
ENDROOT
BRANCH   5   8
HETATM    8  C7  UNL     1     -34.368  15.920  -3.823  1.00 20.00     0.015 A 
HETATM    9  C4  UNL     1     -33.231  15.607  -4.756  1.00 20.00     0.007 A 
HETATM   10  C5  UNL     1     -34.033  14.490  -4.149  1.00 20.00     0.007 A 
ENDBRANCH   5   8
TORSDOF 1
ENDMDL
MODEL 7
REMARK VINA RESULT:      -3.8     11.400     12.938
REMARK  1 active torsions:
REMARK  status: ('A' for Active; 'I' for Inactive)
REMARK    1  A    between atoms: C7_7  and  C8_8 
ROOT
HETATM    1  C1  UNL     1     -32.909  18.248  -2.012  1.00 20.00     0.131 C 
HETATM    2  C2  UNL     1     -33.165  19.261  -3.103  1.00 20.00     0.104 C 
HETATM    3  C3  UNL     1     -33.813  17.037  -2.018  1.00 20.00     0.110 C 
HETATM    4  C6  UNL     1     -33.316  18.544  -4.434  1.00 20.00     0.175 C 
HETATM    5  C8  UNL     1     -33.909  16.479  -3.438  1.00 20.00     0.132 C 
HETATM    6  O9  UNL     1     -32.097  18.449  -1.112  1.00 20.00    -0.298 OA
HETATM    7  O10 UNL     1     -34.308  17.517  -4.345  1.00 20.00    -0.385 OA
ENDROOT
BRANCH   5   8
HETATM    8  C7  UNL     1     -34.913  15.367  -3.518  1.00 20.00     0.015 A 
HETATM    9  C4  UNL     1     -35.483  14.957  -4.847  1.00 20.00     0.007 A 
HETATM   10  C5  UNL     1     -34.531  14.046  -4.125  1.00 20.00     0.007 A 
ENDBRANCH   5   8
TORSDOF 1
ENDMDL
MODEL 8
REMARK VINA RESULT:      -3.7     11.195     11.984
REMARK  1 active torsions:
REMARK  status: ('A' for Active; 'I' for Inactive)
REMARK    1  A    between atoms: C7_7  and  C8_8 
ROOT
HETATM    1  C1  UNL     1     -34.584  14.712  -4.141  1.00 20.00     0.131 C 
HETATM    2  C2  UNL     1     -35.812  14.922  -4.994  1.00 20.00     0.104 C 
HETATM    3  C3  UNL     1     -34.245  15.837  -3.192  1.00 20.00     0.110 C 
HETATM    4  C6  UNL     1     -36.950  15.432  -4.125  1.00 20.00     0.175 C 
HETATM    5  C8  UNL     1     -35.507  16.275  -2.449  1.00 20.00     0.132 C 
HETATM    6  O9  UNL     1     -33.845  13.741  -4.290  1.00 20.00    -0.298 OA
HETATM    7  O10 UNL     1     -36.544  16.588  -3.389  1.00 20.00    -0.385 OA
ENDROOT
BRANCH   5   8
HETATM    8  C7  UNL     1     -35.247  17.488  -1.606  1.00 20.00     0.015 A 
HETATM    9  C4  UNL     1     -36.393  18.233  -0.979  1.00 20.00     0.007 A 
HETATM   10  C5  UNL     1     -35.455  17.434  -0.117  1.00 20.00     0.007 A 
ENDBRANCH   5   8
TORSDOF 1
ENDMDL
MODEL 9
REMARK VINA RESULT:      -3.7      1.563      4.349
REMARK  1 active torsions:
REMARK  status: ('A' for Active; 'I' for Inactive)
REMARK    1  A    between atoms: C7_7  and  C8_8 
ROOT
HETATM    1  C1  UNL     1     -31.958   8.275   3.670  1.00 20.00     0.131 C 
HETATM    2  C2  UNL     1     -32.213   8.451   2.192  1.00 20.00     0.104 C 
HETATM    3  C3  UNL     1     -33.047   7.566   4.442  1.00 20.00     0.110 C 
HETATM    4  C6  UNL     1     -32.707   7.141   1.604  1.00 20.00     0.175 C 
HETATM    5  C8  UNL     1     -33.475   6.310   3.684  1.00 20.00     0.132 C 
HETATM    6  O9  UNL     1     -30.984   8.775   4.228  1.00 20.00    -0.298 OA
HETATM    7  O10 UNL     1     -33.833   6.650   2.337  1.00 20.00    -0.385 OA
ENDROOT
BRANCH   5   8
HETATM    8  C7  UNL     1     -34.655   5.656   4.338  1.00 20.00     0.015 A 
HETATM    9  C4  UNL     1     -34.626   4.187   4.657  1.00 20.00     0.007 A 
HETATM   10  C5  UNL     1     -34.571   5.198   5.768  1.00 20.00     0.007 A 
ENDBRANCH   5   8
TORSDOF 1
ENDMDL
