MODEL 1
REMARK VINA RESULT:      -6.0      0.000      0.000
REMARK  2 active torsions:
REMARK  status: ('A' for Active; 'I' for Inactive)
REMARK    1  A    between atoms: C4_4  and  O10_10 
REMARK    2  A    between atoms: C5_5  and  C8_8 
ROOT
HETATM    1  C1  UNL     1     -34.169   6.508   5.095  1.00 20.00     0.040 A 
HETATM    2  C2  UNL     1     -33.361   7.517   4.581  1.00 20.00     0.030 A 
HETATM    3  C3  UNL     1     -33.775   5.253   3.114  1.00 20.00     0.153 A 
HETATM    4  C4  UNL     1     -34.385   5.352   4.355  1.00 20.00     0.083 A 
HETATM    5  C5  UNL     1     -32.797   7.320   3.331  1.00 20.00     0.038 A 
HETATM    6  N9  UNL     1     -32.984   6.211   2.582  1.00 20.00    -0.262 NA
ENDROOT
BRANCH   5   7
HETATM    7  C8  UNL     1     -31.926   8.388   2.758  1.00 20.00     0.038 A 
HETATM    8  C6  UNL     1     -32.542   9.432   1.863  1.00 20.00     0.011 A 
HETATM    9  C7  UNL     1     -31.643   8.387   1.278  1.00 20.00     0.011 A 
ENDBRANCH   5   7
BRANCH   4  10
HETATM   10  O10 UNL     1     -35.167   4.353   4.832  1.00 20.00    -0.359 OA
HETATM   11  H19 UNL     1     -36.105   4.610   4.802  1.00 20.00     0.217 HD
ENDBRANCH   4  10
TORSDOF 2
ENDMDL
MODEL 2
REMARK VINA RESULT:      -5.9      0.850      1.517
REMARK  2 active torsions:
REMARK  status: ('A' for Active; 'I' for Inactive)
REMARK    1  A    between atoms: C4_4  and  O10_10 
REMARK    2  A    between atoms: C5_5  and  C8_8 
ROOT
HETATM    1  C1  UNL     1     -33.758   5.124   3.084  1.00 20.00     0.040 A 
HETATM    2  C2  UNL     1     -32.943   6.114   2.546  1.00 20.00     0.030 A 
HETATM    3  C3  UNL     1     -34.154   6.536   4.955  1.00 20.00     0.153 A 
HETATM    4  C4  UNL     1     -34.379   5.331   4.310  1.00 20.00     0.083 A 
HETATM    5  C5  UNL     1     -32.783   7.285   3.271  1.00 20.00     0.038 A 
HETATM    6  N9  UNL     1     -33.370   7.522   4.465  1.00 20.00    -0.262 NA
ENDROOT
BRANCH   5   7
HETATM    7  C8  UNL     1     -31.913   8.362   2.715  1.00 20.00     0.038 A 
HETATM    8  C6  UNL     1     -32.527   9.412   1.826  1.00 20.00     0.011 A 
HETATM    9  C7  UNL     1     -31.618   8.377   1.238  1.00 20.00     0.011 A 
ENDBRANCH   5   7
BRANCH   4  10
HETATM   10  O10 UNL     1     -35.179   4.382   4.856  1.00 20.00    -0.359 OA
HETATM   11  H19 UNL     1     -34.678   3.834   5.484  1.00 20.00     0.217 HD
ENDBRANCH   4  10
TORSDOF 2
ENDMDL
MODEL 3
REMARK VINA RESULT:      -4.5     11.431     12.056
REMARK  2 active torsions:
REMARK  status: ('A' for Active; 'I' for Inactive)
REMARK    1  A    between atoms: C4_4  and  O10_10 
REMARK    2  A    between atoms: C5_5  and  C8_8 
ROOT
HETATM    1  C1  UNL     1     -34.715  14.310  -4.421  1.00 20.00     0.040 A 
HETATM    2  C2  UNL     1     -34.783  15.321  -3.469  1.00 20.00     0.030 A 
HETATM    3  C3  UNL     1     -33.254  15.681  -5.701  1.00 20.00     0.153 A 
HETATM    4  C4  UNL     1     -33.938  14.484  -5.560  1.00 20.00     0.083 A 
HETATM    5  C5  UNL     1     -34.060  16.480  -3.704  1.00 20.00     0.038 A 
HETATM    6  N9  UNL     1     -33.295  16.687  -4.798  1.00 20.00    -0.262 NA
ENDROOT
BRANCH   5   7
HETATM    7  C8  UNL     1     -34.118  17.580  -2.697  1.00 20.00     0.038 A 
HETATM    8  C6  UNL     1     -33.052  17.657  -1.636  1.00 20.00     0.011 A 
HETATM    9  C7  UNL     1     -34.442  17.247  -1.265  1.00 20.00     0.011 A 
ENDBRANCH   5   7
BRANCH   4  10
HETATM   10  O10 UNL     1     -33.854  13.515  -6.503  1.00 20.00    -0.359 OA
HETATM   11  H19 UNL     1     -34.628  13.541  -7.090  1.00 20.00     0.217 HD
ENDBRANCH   4  10
TORSDOF 2
ENDMDL
MODEL 4
REMARK VINA RESULT:      -4.5      2.483      4.431
REMARK  2 active torsions:
REMARK  status: ('A' for Active; 'I' for Inactive)
REMARK    1  A    between atoms: C4_4  and  O10_10 
REMARK    2  A    between atoms: C5_5  and  C8_8 
ROOT
HETATM    1  C1  UNL     1     -32.771   7.140   1.935  1.00 20.00     0.040 A 
HETATM    2  C2  UNL     1     -33.701   6.324   2.569  1.00 20.00     0.030 A 
HETATM    3  C3  UNL     1     -32.308   8.157   4.034  1.00 20.00     0.153 A 
HETATM    4  C4  UNL     1     -32.056   8.076   2.673  1.00 20.00     0.083 A 
HETATM    5  C5  UNL     1     -33.878   6.483   3.934  1.00 20.00     0.038 A 
HETATM    6  N9  UNL     1     -33.203   7.382   4.685  1.00 20.00    -0.262 NA
ENDROOT
BRANCH   5   7
HETATM    7  C8  UNL     1     -34.872   5.619   4.637  1.00 20.00     0.038 A 
HETATM    8  C6  UNL     1     -34.504   5.015   5.966  1.00 20.00     0.011 A 
HETATM    9  C7  UNL     1     -34.604   4.142   4.754  1.00 20.00     0.011 A 
ENDBRANCH   5   7
BRANCH   4  10
HETATM   10  O10 UNL     1     -31.143   8.884   2.081  1.00 20.00    -0.359 OA
HETATM   11  H19 UNL     1     -31.336   8.979   1.133  1.00 20.00     0.217 HD
ENDBRANCH   4  10
TORSDOF 2
ENDMDL
MODEL 5
REMARK VINA RESULT:      -4.5      2.360      4.178
REMARK  2 active torsions:
REMARK  status: ('A' for Active; 'I' for Inactive)
REMARK    1  A    between atoms: C4_4  and  O10_10 
REMARK    2  A    between atoms: C5_5  and  C8_8 
ROOT
HETATM    1  C1  UNL     1     -32.207   8.235   3.916  1.00 20.00     0.040 A 
HETATM    2  C2  UNL     1     -33.123   7.449   4.607  1.00 20.00     0.030 A 
HETATM    3  C3  UNL     1     -32.860   7.143   1.908  1.00 20.00     0.153 A 
HETATM    4  C4  UNL     1     -32.067   8.086   2.542  1.00 20.00     0.083 A 
HETATM    5  C5  UNL     1     -33.869   6.535   3.881  1.00 20.00     0.038 A 
HETATM    6  N9  UNL     1     -33.760   6.361   2.545  1.00 20.00    -0.262 NA
ENDROOT
BRANCH   5   7
HETATM    7  C8  UNL     1     -34.858   5.680   4.600  1.00 20.00     0.038 A 
HETATM    8  C6  UNL     1     -34.472   5.070   5.922  1.00 20.00     0.011 A 
HETATM    9  C7  UNL     1     -34.602   4.200   4.711  1.00 20.00     0.011 A 
ENDBRANCH   5   7
BRANCH   4  10
HETATM   10  O10 UNL     1     -31.182   8.839   1.844  1.00 20.00    -0.359 OA
HETATM   11  H19 UNL     1     -30.378   8.329   1.649  1.00 20.00     0.217 HD
ENDBRANCH   4  10
TORSDOF 2
ENDMDL
MODEL 6
REMARK VINA RESULT:      -4.3     11.218     12.072
REMARK  2 active torsions:
REMARK  status: ('A' for Active; 'I' for Inactive)
REMARK    1  A    between atoms: C4_4  and  O10_10 
REMARK    2  A    between atoms: C5_5  and  C8_8 
ROOT
HETATM    1  C1  UNL     1     -33.338  15.639  -5.857  1.00 20.00     0.040 A 
HETATM    2  C2  UNL     1     -33.403  16.664  -4.920  1.00 20.00     0.030 A 
HETATM    3  C3  UNL     1     -34.658  14.296  -4.404  1.00 20.00     0.153 A 
HETATM    4  C4  UNL     1     -33.974  14.429  -5.602  1.00 20.00     0.083 A 
HETATM    5  C5  UNL     1     -34.113  16.431  -3.753  1.00 20.00     0.038 A 
HETATM    6  N9  UNL     1     -34.744  15.269  -3.470  1.00 20.00    -0.262 NA
ENDROOT
BRANCH   5   7
HETATM    7  C8  UNL     1     -34.197  17.516  -2.732  1.00 20.00     0.038 A 
HETATM    8  C6  UNL     1     -33.140  17.597  -1.662  1.00 20.00     0.011 A 
HETATM    9  C7  UNL     1     -34.526  17.157  -1.307  1.00 20.00     0.011 A 
ENDBRANCH   5   7
BRANCH   4  10
HETATM   10  O10 UNL     1     -33.927  13.413  -6.498  1.00 20.00    -0.359 OA
HETATM   11  H19 UNL     1     -33.943  13.758  -7.407  1.00 20.00     0.217 HD
ENDBRANCH   4  10
TORSDOF 2
ENDMDL
MODEL 7
REMARK VINA RESULT:      -4.1     11.337     11.828
REMARK  2 active torsions:
REMARK  status: ('A' for Active; 'I' for Inactive)
REMARK    1  A    between atoms: C4_4  and  O10_10 
REMARK    2  A    between atoms: C5_5  and  C8_8 
ROOT
HETATM    1  C1  UNL     1     -35.899  13.803  -4.902  1.00 20.00     0.040 A 
HETATM    2  C2  UNL     1     -34.796  14.405  -4.307  1.00 20.00     0.030 A 
HETATM    3  C3  UNL     1     -37.208  15.678  -4.251  1.00 20.00     0.153 A 
HETATM    4  C4  UNL     1     -37.132  14.445  -4.878  1.00 20.00     0.083 A 
HETATM    5  C5  UNL     1     -34.977  15.640  -3.707  1.00 20.00     0.038 A 
HETATM    6  N9  UNL     1     -36.159  16.294  -3.663  1.00 20.00    -0.262 NA
ENDROOT
BRANCH   5   7
HETATM    7  C8  UNL     1     -33.807  16.306  -3.062  1.00 20.00     0.038 A 
HETATM    8  C6  UNL     1     -34.001  17.008  -1.743  1.00 20.00     0.011 A 
HETATM    9  C7  UNL     1     -33.770  17.810  -2.986  1.00 20.00     0.011 A 
ENDBRANCH   5   7
BRANCH   4  10
HETATM   10  O10 UNL     1     -38.224  13.881  -5.450  1.00 20.00    -0.359 OA
HETATM   11  H19 UNL     1     -38.218  12.918  -5.321  1.00 20.00     0.217 HD
ENDBRANCH   4  10
TORSDOF 2
ENDMDL
MODEL 8
REMARK VINA RESULT:      -3.9     11.627     12.019
REMARK  2 active torsions:
REMARK  status: ('A' for Active; 'I' for Inactive)
REMARK    1  A    between atoms: C4_4  and  O10_10 
REMARK    2  A    between atoms: C5_5  and  C8_8 
ROOT
HETATM    1  C1  UNL     1     -35.051  17.354  -0.571  1.00 20.00     0.040 A 
HETATM    2  C2  UNL     1     -34.276  18.100   0.311  1.00 20.00     0.030 A 
HETATM    3  C3  UNL     1     -33.249  17.407  -2.121  1.00 20.00     0.153 A 
HETATM    4  C4  UNL     1     -34.535  16.996  -1.811  1.00 20.00     0.083 A 
HETATM    5  C5  UNL     1     -33.000  18.460  -0.095  1.00 20.00     0.038 A 
HETATM    6  N9  UNL     1     -32.465  18.132  -1.292  1.00 20.00    -0.262 NA
ENDROOT
BRANCH   5   7
HETATM    7  C8  UNL     1     -32.149  19.261   0.833  1.00 20.00     0.038 A 
HETATM    8  C6  UNL     1     -31.001  18.588   1.538  1.00 20.00     0.011 A 
HETATM    9  C7  UNL     1     -32.219  18.987   2.312  1.00 20.00     0.011 A 
ENDBRANCH   5   7
BRANCH   4  10
HETATM   10  O10 UNL     1     -35.269  16.270  -2.689  1.00 20.00    -0.359 OA
HETATM   11  H19 UNL     1     -35.216  15.323  -2.476  1.00 20.00     0.217 HD
ENDBRANCH   4  10
TORSDOF 2
ENDMDL
MODEL 9
REMARK VINA RESULT:      -3.9     11.064     11.732
REMARK  2 active torsions:
REMARK  status: ('A' for Active; 'I' for Inactive)
REMARK    1  A    between atoms: C4_4  and  O10_10 
REMARK    2  A    between atoms: C5_5  and  C8_8 
ROOT
HETATM    1  C1  UNL     1     -33.257  17.804  -1.165  1.00 20.00     0.040 A 
HETATM    2  C2  UNL     1     -33.284  17.124  -2.377  1.00 20.00     0.030 A 
HETATM    3  C3  UNL     1     -35.535  17.206  -0.837  1.00 20.00     0.153 A 
HETATM    4  C4  UNL     1     -34.399  17.851  -0.374  1.00 20.00     0.083 A 
HETATM    5  C5  UNL     1     -34.470  16.511  -2.749  1.00 20.00     0.038 A 
HETATM    6  N9  UNL     1     -35.599  16.535  -2.008  1.00 20.00    -0.262 NA
ENDROOT
BRANCH   5   7
HETATM    7  C8  UNL     1     -34.523  15.775  -4.047  1.00 20.00     0.038 A 
HETATM    8  C6  UNL     1     -34.355  14.278  -4.045  1.00 20.00     0.011 A 
HETATM    9  C7  UNL     1     -33.264  15.149  -4.586  1.00 20.00     0.011 A 
ENDBRANCH   5   7
BRANCH   4  10
HETATM   10  O10 UNL     1     -34.401  18.507   0.812  1.00 20.00    -0.359 OA
HETATM   11  H19 UNL     1     -33.654  18.219   1.363  1.00 20.00     0.217 HD
ENDBRANCH   4  10
TORSDOF 2
ENDMDL
