MODEL 1
REMARK VINA RESULT:      -6.9      0.000      0.000
REMARK  2 active torsions:
REMARK  status: ('A' for Active; 'I' for Inactive)
REMARK    1  A    between atoms: C7_7  and  C8_8 
REMARK    2  A    between atoms: C9_9  and  O10_10 
ROOT
HETATM    1  C1  UNL     1     -33.926   7.287   5.938  1.00 20.00     0.003 C 
HETATM    2  C2  UNL     1     -32.925   7.634   4.839  1.00 20.00     0.005 C 
HETATM    3  C5  UNL     1     -34.355   5.825   5.865  1.00 20.00     0.032 C 
HETATM    4  C6  UNL     1     -33.893   5.809   3.383  1.00 20.00     0.036 C 
HETATM    5  C8  UNL     1     -33.464   7.281   3.446  1.00 20.00    -0.008 C 
HETATM    6  C9  UNL     1     -34.896   5.466   4.485  1.00 20.00     0.118 C 
ENDROOT
BRANCH   5   7
HETATM    7  C7  UNL     1     -32.424   7.586   2.371  1.00 20.00    -0.010 A 
HETATM    8  C3  UNL     1     -32.539   8.832   1.537  1.00 20.00     0.005 A 
HETATM    9  C4  UNL     1     -31.447   8.712   2.562  1.00 20.00     0.005 A 
ENDBRANCH   5   7
BRANCH   6  10
HETATM   10  O10 UNL     1     -35.178   4.071   4.456  1.00 20.00    -0.396 OA
HETATM   11  H26 UNL     1     -36.108   3.981   4.194  1.00 20.00     0.210 HD
ENDBRANCH   6  10
TORSDOF 2
ENDMDL
MODEL 2
REMARK VINA RESULT:      -5.2      1.422      2.307
REMARK  2 active torsions:
REMARK  status: ('A' for Active; 'I' for Inactive)
REMARK    1  A    between atoms: C7_7  and  C8_8 
REMARK    2  A    between atoms: C9_9  and  O10_10 
ROOT
HETATM    1  C1  UNL     1     -33.980   5.506   3.073  1.00 20.00     0.003 C 
HETATM    2  C2  UNL     1     -33.381   6.694   2.323  1.00 20.00     0.005 C 
HETATM    3  C5  UNL     1     -34.583   5.932   4.407  1.00 20.00     0.032 C 
HETATM    4  C6  UNL     1     -32.973   7.874   4.519  1.00 20.00     0.036 C 
HETATM    5  C8  UNL     1     -32.357   7.451   3.180  1.00 20.00    -0.008 C 
HETATM    6  C9  UNL     1     -33.570   6.682   5.268  1.00 20.00     0.118 C 
ENDROOT
BRANCH   5   7
HETATM    7  C7  UNL     1     -31.815   8.664   2.427  1.00 20.00    -0.010 A 
HETATM    8  C3  UNL     1     -31.445   8.550   0.974  1.00 20.00     0.005 A 
HETATM    9  C4  UNL     1     -32.656   9.343   1.382  1.00 20.00     0.005 A 
ENDBRANCH   5   7
BRANCH   6  10
HETATM   10  O10 UNL     1     -34.225   7.138   6.446  1.00 20.00    -0.396 OA
HETATM   11  H26 UNL     1     -35.053   6.638   6.516  1.00 20.00     0.210 HD
ENDBRANCH   6  10
TORSDOF 2
ENDMDL
MODEL 3
REMARK VINA RESULT:      -5.0      2.259      4.204
REMARK  2 active torsions:
REMARK  status: ('A' for Active; 'I' for Inactive)
REMARK    1  A    between atoms: C7_7  and  C8_8 
REMARK    2  A    between atoms: C9_9  and  O10_10 
ROOT
HETATM    1  C1  UNL     1     -31.568   8.372   4.057  1.00 20.00     0.003 C 
HETATM    2  C2  UNL     1     -32.781   7.607   4.583  1.00 20.00     0.005 C 
HETATM    3  C5  UNL     1     -31.871   9.057   2.728  1.00 20.00     0.032 C 
HETATM    4  C6  UNL     1     -33.614   7.304   2.217  1.00 20.00     0.036 C 
HETATM    5  C8  UNL     1     -33.314   6.605   3.549  1.00 20.00    -0.008 C 
HETATM    6  C9  UNL     1     -32.398   8.068   1.693  1.00 20.00     0.118 C 
ENDROOT
BRANCH   5   7
HETATM    7  C7  UNL     1     -34.557   5.894   4.077  1.00 20.00    -0.010 A 
HETATM    8  C3  UNL     1     -34.497   4.437   4.444  1.00 20.00     0.005 A 
HETATM    9  C4  UNL     1     -34.634   5.478   5.520  1.00 20.00     0.005 A 
ENDBRANCH   5   7
BRANCH   6  10
HETATM   10  O10 UNL     1     -32.755   8.788   0.518  1.00 20.00    -0.396 OA
HETATM   11  H26 UNL     1     -33.710   8.668   0.398  1.00 20.00     0.210 HD
ENDBRANCH   6  10
TORSDOF 2
ENDMDL
MODEL 4
REMARK VINA RESULT:      -4.8      2.132      4.293
REMARK  2 active torsions:
REMARK  status: ('A' for Active; 'I' for Inactive)
REMARK    1  A    between atoms: C7_7  and  C8_8 
REMARK    2  A    between atoms: C9_9  and  O10_10 
ROOT
HETATM    1  C1  UNL     1     -32.504   7.509   2.170  1.00 20.00     0.003 C 
HETATM    2  C2  UNL     1     -33.340   6.338   2.682  1.00 20.00     0.005 C 
HETATM    3  C5  UNL     1     -31.643   8.110   3.276  1.00 20.00     0.032 C 
HETATM    4  C6  UNL     1     -33.316   7.338   5.002  1.00 20.00     0.036 C 
HETATM    5  C8  UNL     1     -34.191   6.735   3.897  1.00 20.00    -0.008 C 
HETATM    6  C9  UNL     1     -32.481   8.511   4.486  1.00 20.00     0.118 C 
ENDROOT
BRANCH   5   7
HETATM    7  C7  UNL     1     -34.974   5.535   4.422  1.00 20.00    -0.010 A 
HETATM    8  C3  UNL     1     -34.333   4.175   4.472  1.00 20.00     0.005 A 
HETATM    9  C4  UNL     1     -34.616   4.920   5.747  1.00 20.00     0.005 A 
ENDBRANCH   5   7
BRANCH   6  10
HETATM   10  O10 UNL     1     -31.608   8.965   5.514  1.00 20.00    -0.396 OA
HETATM   11  H26 UNL     1     -32.164   9.393   6.183  1.00 20.00     0.210 HD
ENDBRANCH   6  10
TORSDOF 2
ENDMDL
MODEL 5
REMARK VINA RESULT:      -4.4     11.707     12.138
REMARK  2 active torsions:
REMARK  status: ('A' for Active; 'I' for Inactive)
REMARK    1  A    between atoms: C7_7  and  C8_8 
REMARK    2  A    between atoms: C9_9  and  O10_10 
ROOT
HETATM    1  C1  UNL     1     -36.441  15.534  -4.100  1.00 20.00     0.003 C 
HETATM    2  C2  UNL     1     -35.663  16.084  -2.907  1.00 20.00     0.005 C 
HETATM    3  C5  UNL     1     -35.692  14.393  -4.780  1.00 20.00     0.032 C 
HETATM    4  C6  UNL     1     -33.498  15.354  -3.984  1.00 20.00     0.036 C 
HETATM    5  C8  UNL     1     -34.241  16.508  -3.301  1.00 20.00    -0.008 C 
HETATM    6  C9  UNL     1     -34.279  14.807  -5.179  1.00 20.00     0.118 C 
ENDROOT
BRANCH   5   7
HETATM    7  C7  UNL     1     -33.468  17.001  -2.081  1.00 20.00    -0.010 A 
HETATM    8  C3  UNL     1     -33.280  18.475  -1.848  1.00 20.00     0.005 A 
HETATM    9  C4  UNL     1     -34.190  17.683  -0.952  1.00 20.00     0.005 A 
ENDBRANCH   5   7
BRANCH   6  10
HETATM   10  O10 UNL     1     -33.606  13.671  -5.711  1.00 20.00    -0.396 OA
HETATM   11  H26 UNL     1     -33.606  12.996  -5.014  1.00 20.00     0.210 HD
ENDBRANCH   6  10
TORSDOF 2
ENDMDL
MODEL 6
REMARK VINA RESULT:      -4.4     11.313     12.395
REMARK  2 active torsions:
REMARK  status: ('A' for Active; 'I' for Inactive)
REMARK    1  A    between atoms: C7_7  and  C8_8 
REMARK    2  A    between atoms: C9_9  and  O10_10 
ROOT
HETATM    1  C1  UNL     1     -33.278  15.540  -6.176  1.00 20.00     0.003 C 
HETATM    2  C2  UNL     1     -33.558  16.639  -5.153  1.00 20.00     0.005 C 
HETATM    3  C5  UNL     1     -34.359  14.464  -6.152  1.00 20.00     0.032 C 
HETATM    4  C6  UNL     1     -34.832  14.987  -3.728  1.00 20.00     0.036 C 
HETATM    5  C8  UNL     1     -33.744  16.068  -3.740  1.00 20.00    -0.008 C 
HETATM    6  C9  UNL     1     -34.548  13.888  -4.752  1.00 20.00     0.118 C 
ENDROOT
BRANCH   5   7
HETATM    7  C7  UNL     1     -34.076  17.180  -2.748  1.00 20.00    -0.010 A 
HETATM    8  C3  UNL     1     -33.105  17.536  -1.656  1.00 20.00     0.005 A 
HETATM    9  C4  UNL     1     -33.332  18.485  -2.799  1.00 20.00     0.005 A 
ENDBRANCH   5   7
BRANCH   6  10
HETATM   10  O10 UNL     1     -35.636  12.970  -4.782  1.00 20.00    -0.396 OA
HETATM   11  H26 UNL     1     -35.676  12.558  -3.905  1.00 20.00     0.210 HD
ENDBRANCH   6  10
TORSDOF 2
ENDMDL
MODEL 7
REMARK VINA RESULT:      -4.3     11.704     12.269
REMARK  2 active torsions:
REMARK  status: ('A' for Active; 'I' for Inactive)
REMARK    1  A    between atoms: C7_7  and  C8_8 
REMARK    2  A    between atoms: C9_9  and  O10_10 
ROOT
HETATM    1  C1  UNL     1     -35.519  17.333  -0.644  1.00 20.00     0.003 C 
HETATM    2  C2  UNL     1     -35.801  16.798  -2.047  1.00 20.00     0.005 C 
HETATM    3  C5  UNL     1     -34.354  18.317  -0.643  1.00 20.00     0.032 C 
HETATM    4  C6  UNL     1     -33.384  17.177  -2.676  1.00 20.00     0.036 C 
HETATM    5  C8  UNL     1     -34.549  16.179  -2.683  1.00 20.00    -0.008 C 
HETATM    6  C9  UNL     1     -33.103  17.709  -1.271  1.00 20.00     0.118 C 
ENDROOT
BRANCH   5   7
HETATM    7  C7  UNL     1     -34.844  15.703  -4.103  1.00 20.00    -0.010 A 
HETATM    8  C3  UNL     1     -34.785  14.238  -4.438  1.00 20.00     0.005 A 
HETATM    9  C4  UNL     1     -36.110  14.948  -4.400  1.00 20.00     0.005 A 
ENDBRANCH   5   7
BRANCH   6  10
HETATM   10  O10 UNL     1     -32.093  18.709  -1.331  1.00 20.00    -0.396 OA
HETATM   11  H26 UNL     1     -32.240  19.299  -0.576  1.00 20.00     0.210 HD
ENDBRANCH   6  10
TORSDOF 2
ENDMDL
MODEL 8
REMARK VINA RESULT:      -4.2     11.569     12.053
REMARK  2 active torsions:
REMARK  status: ('A' for Active; 'I' for Inactive)
REMARK    1  A    between atoms: C7_7  and  C8_8 
REMARK    2  A    between atoms: C9_9  and  O10_10 
ROOT
HETATM    1  C1  UNL     1     -33.635  14.387  -5.076  1.00 20.00     0.003 C 
HETATM    2  C2  UNL     1     -33.695  15.680  -4.266  1.00 20.00     0.005 C 
HETATM    3  C5  UNL     1     -34.960  14.100  -5.774  1.00 20.00     0.032 C 
HETATM    4  C6  UNL     1     -36.188  15.383  -3.979  1.00 20.00     0.036 C 
HETATM    5  C8  UNL     1     -34.860  15.672  -3.267  1.00 20.00    -0.008 C 
HETATM    6  C9  UNL     1     -36.124  14.087  -4.788  1.00 20.00     0.118 C 
ENDROOT
BRANCH   5   7
HETATM    7  C7  UNL     1     -34.931  16.996  -2.510  1.00 20.00    -0.010 A 
HETATM    8  C3  UNL     1     -35.185  17.009  -1.028  1.00 20.00     0.005 A 
HETATM    9  C4  UNL     1     -33.831  17.385  -1.562  1.00 20.00     0.005 A 
ENDBRANCH   5   7
BRANCH   6  10
HETATM   10  O10 UNL     1     -37.335  13.919  -5.517  1.00 20.00    -0.396 OA
HETATM   11  H26 UNL     1     -37.356  14.618  -6.188  1.00 20.00     0.210 HD
ENDBRANCH   6  10
TORSDOF 2
ENDMDL
MODEL 9
REMARK VINA RESULT:      -4.1     11.513     12.056
REMARK  2 active torsions:
REMARK  status: ('A' for Active; 'I' for Inactive)
REMARK    1  A    between atoms: C7_7  and  C8_8 
REMARK    2  A    between atoms: C9_9  and  O10_10 
ROOT
HETATM    1  C1  UNL     1     -32.898  18.785  -0.457  1.00 20.00     0.003 C 
HETATM    2  C2  UNL     1     -33.083  17.667  -1.481  1.00 20.00     0.005 C 
HETATM    3  C5  UNL     1     -33.657  18.495   0.834  1.00 20.00     0.032 C 
HETATM    4  C6  UNL     1     -35.321  17.099  -0.454  1.00 20.00     0.036 C 
HETATM    5  C8  UNL     1     -34.567  17.389  -1.758  1.00 20.00    -0.008 C 
HETATM    6  C9  UNL     1     -35.134  18.220   0.568  1.00 20.00     0.118 C 
ENDROOT
BRANCH   5   7
HETATM    7  C7  UNL     1     -34.725  16.232  -2.741  1.00 20.00    -0.010 A 
HETATM    8  C3  UNL     1     -35.028  16.505  -4.189  1.00 20.00     0.005 A 
HETATM    9  C4  UNL     1     -33.677  15.982  -3.789  1.00 20.00     0.005 A 
ENDBRANCH   5   7
BRANCH   6  10
HETATM   10  O10 UNL     1     -35.756  17.857   1.796  1.00 20.00    -0.396 OA
HETATM   11  H26 UNL     1     -35.288  18.335   2.497  1.00 20.00     0.210 HD
ENDBRANCH   6  10
TORSDOF 2
ENDMDL
