MODEL 1
REMARK VINA RESULT:      -6.3      0.000      0.000
REMARK  1 active torsions:
REMARK  status: ('A' for Active; 'I' for Inactive)
REMARK    1  A    between atoms: C2_2  and  C9_9 
ROOT
HETATM    1  C1  UNL     1     -33.029   7.660   4.503  1.00 20.00     0.053 C 
HETATM    2  C2  UNL     1     -32.701   7.534   3.208  1.00 20.00    -0.072 C 
HETATM    3  C3  UNL     1     -33.989   6.720   5.135  1.00 20.00     0.149 C 
HETATM    4  C4  UNL     1     -33.216   6.415   2.338  1.00 20.00     0.035 C 
HETATM    5  C5  UNL     1     -34.656   5.679   4.266  1.00 20.00     0.083 C 
HETATM    6  C6  UNL     1     -33.729   5.230   3.150  1.00 20.00     0.012 C 
HETATM    7  O10 UNL     1     -34.269   6.844   6.326  1.00 20.00    -0.293 OA
ENDROOT
BRANCH   2   8
HETATM    8  C9  UNL     1     -31.786   8.517   2.536  1.00 20.00     0.014 A 
HETATM    9  C7  UNL     1     -31.630   8.425   1.058  1.00 20.00     0.010 A 
HETATM   10  C8  UNL     1     -32.401   9.558   1.666  1.00 20.00     0.010 A 
ENDBRANCH   2   8
TORSDOF 1
ENDMDL
MODEL 2
REMARK VINA RESULT:      -6.3      1.365      2.205
REMARK  1 active torsions:
REMARK  status: ('A' for Active; 'I' for Inactive)
REMARK    1  A    between atoms: C2_2  and  C9_9 
ROOT
HETATM    1  C1  UNL     1     -33.804   5.766   3.294  1.00 20.00     0.053 C 
HETATM    2  C2  UNL     1     -33.109   6.908   3.423  1.00 20.00    -0.072 C 
HETATM    3  C3  UNL     1     -34.426   5.121   4.477  1.00 20.00     0.149 C 
HETATM    4  C4  UNL     1     -32.972   7.637   4.736  1.00 20.00     0.035 C 
HETATM    5  C5  UNL     1     -34.182   5.727   5.840  1.00 20.00     0.083 C 
HETATM    6  C6  UNL     1     -34.044   7.236   5.745  1.00 20.00     0.012 C 
HETATM    7  O10 UNL     1     -35.068   4.081   4.337  1.00 20.00    -0.293 OA
ENDROOT
BRANCH   2   8
HETATM    8  C9  UNL     1     -32.416   7.536   2.250  1.00 20.00     0.014 A 
HETATM    9  C7  UNL     1     -32.806   8.922   1.870  1.00 20.00     0.010 A 
HETATM   10  C8  UNL     1     -31.479   8.663   2.517  1.00 20.00     0.010 A 
ENDBRANCH   2   8
TORSDOF 1
ENDMDL
MODEL 3
REMARK VINA RESULT:      -5.3      1.564      3.888
REMARK  1 active torsions:
REMARK  status: ('A' for Active; 'I' for Inactive)
REMARK    1  A    between atoms: C2_2  and  C9_9 
ROOT
HETATM    1  C1  UNL     1     -33.199   7.460   4.933  1.00 20.00     0.053 C 
HETATM    2  C2  UNL     1     -33.741   6.625   4.032  1.00 20.00    -0.072 C 
HETATM    3  C3  UNL     1     -32.098   8.378   4.548  1.00 20.00     0.149 C 
HETATM    4  C4  UNL     1     -33.328   6.608   2.582  1.00 20.00     0.035 C 
HETATM    5  C5  UNL     1     -31.540   8.285   3.146  1.00 20.00     0.083 C 
HETATM    6  C6  UNL     1     -32.623   7.892   2.157  1.00 20.00     0.012 C 
HETATM    7  O10 UNL     1     -31.621   9.143   5.385  1.00 20.00    -0.293 OA
ENDROOT
BRANCH   2   8
HETATM    8  C9  UNL     1     -34.806   5.643   4.421  1.00 20.00     0.014 A 
HETATM    9  C7  UNL     1     -34.436   4.202   4.485  1.00 20.00     0.010 A 
HETATM   10  C8  UNL     1     -34.686   4.973   5.746  1.00 20.00     0.010 A 
ENDBRANCH   2   8
TORSDOF 1
ENDMDL
MODEL 4
REMARK VINA RESULT:      -5.3      2.118      4.371
REMARK  1 active torsions:
REMARK  status: ('A' for Active; 'I' for Inactive)
REMARK    1  A    between atoms: C2_2  and  C9_9 
ROOT
HETATM    1  C1  UNL     1     -33.240   6.796   2.640  1.00 20.00     0.053 C 
HETATM    2  C2  UNL     1     -33.757   6.659   3.871  1.00 20.00    -0.072 C 
HETATM    3  C3  UNL     1     -32.298   7.901   2.334  1.00 20.00     0.149 C 
HETATM    4  C4  UNL     1     -33.374   7.554   5.023  1.00 20.00     0.035 C 
HETATM    5  C5  UNL     1     -32.008   8.920   3.411  1.00 20.00     0.083 C 
HETATM    6  C6  UNL     1     -32.054   8.281   4.788  1.00 20.00     0.012 C 
HETATM    7  O10 UNL     1     -31.825   8.004   1.202  1.00 20.00    -0.293 OA
ENDROOT
BRANCH   2   8
HETATM    8  C9  UNL     1     -34.763   5.589   4.180  1.00 20.00     0.014 A 
HETATM    9  C7  UNL     1     -34.270   4.193   4.337  1.00 20.00     0.010 A 
HETATM   10  C8  UNL     1     -34.727   4.970   5.535  1.00 20.00     0.010 A 
ENDBRANCH   2   8
TORSDOF 1
ENDMDL
MODEL 5
REMARK VINA RESULT:      -4.6     10.832     11.608
REMARK  1 active torsions:
REMARK  status: ('A' for Active; 'I' for Inactive)
REMARK    1  A    between atoms: C2_2  and  C9_9 
ROOT
HETATM    1  C1  UNL     1     -34.782  14.400  -4.208  1.00 20.00     0.053 C 
HETATM    2  C2  UNL     1     -34.892  15.627  -3.674  1.00 20.00    -0.072 C 
HETATM    3  C3  UNL     1     -35.937  13.767  -4.893  1.00 20.00     0.149 C 
HETATM    4  C4  UNL     1     -36.145  16.459  -3.788  1.00 20.00     0.035 C 
HETATM    5  C5  UNL     1     -37.262  14.494  -4.892  1.00 20.00     0.083 C 
HETATM    6  C6  UNL     1     -37.055  15.999  -4.922  1.00 20.00     0.012 C 
HETATM    7  O10 UNL     1     -35.814  12.647  -5.386  1.00 20.00    -0.293 OA
ENDROOT
BRANCH   2   8
HETATM    8  C9  UNL     1     -33.757  16.254  -2.919  1.00 20.00     0.014 A 
HETATM    9  C7  UNL     1     -33.627  17.736  -2.959  1.00 20.00     0.010 A 
HETATM   10  C8  UNL     1     -34.084  17.053  -1.706  1.00 20.00     0.010 A 
ENDBRANCH   2   8
TORSDOF 1
ENDMDL
MODEL 6
REMARK VINA RESULT:      -4.6     10.787     11.816
REMARK  1 active torsions:
REMARK  status: ('A' for Active; 'I' for Inactive)
REMARK    1  A    between atoms: C2_2  and  C9_9 
ROOT
HETATM    1  C1  UNL     1     -34.827  14.519  -4.017  1.00 20.00     0.053 C 
HETATM    2  C2  UNL     1     -34.122  15.661  -4.049  1.00 20.00    -0.072 C 
HETATM    3  C3  UNL     1     -35.234  13.847  -5.276  1.00 20.00     0.149 C 
HETATM    4  C4  UNL     1     -33.645  16.293  -5.332  1.00 20.00     0.035 C 
HETATM    5  C5  UNL     1     -34.919  14.525  -6.590  1.00 20.00     0.083 C 
HETATM    6  C6  UNL     1     -33.621  15.309  -6.497  1.00 20.00     0.012 C 
HETATM    7  O10 UNL     1     -35.870  12.795  -5.228  1.00 20.00    -0.293 OA
ENDROOT
BRANCH   2   8
HETATM    8  C9  UNL     1     -33.762  16.390  -2.787  1.00 20.00     0.014 A 
HETATM    9  C7  UNL     1     -34.178  17.814  -2.662  1.00 20.00     0.010 A 
HETATM   10  C8  UNL     1     -34.864  16.754  -1.854  1.00 20.00     0.010 A 
ENDBRANCH   2   8
TORSDOF 1
ENDMDL
MODEL 7
REMARK VINA RESULT:      -4.6     10.594     11.426
REMARK  1 active torsions:
REMARK  status: ('A' for Active; 'I' for Inactive)
REMARK    1  A    between atoms: C2_2  and  C9_9 
ROOT
HETATM    1  C1  UNL     1     -36.629  15.571  -3.791  1.00 20.00     0.053 C 
HETATM    2  C2  UNL     1     -35.399  15.968  -3.428  1.00 20.00    -0.072 C 
HETATM    3  C3  UNL     1     -36.811  14.408  -4.696  1.00 20.00     0.149 C 
HETATM    4  C4  UNL     1     -34.147  15.240  -3.846  1.00 20.00     0.035 C 
HETATM    5  C5  UNL     1     -35.582  13.742  -5.271  1.00 20.00     0.083 C 
HETATM    6  C6  UNL     1     -34.423  13.807  -4.292  1.00 20.00     0.012 C 
HETATM    7  O10 UNL     1     -37.947  14.051  -5.009  1.00 20.00    -0.293 OA
ENDROOT
BRANCH   2   8
HETATM    8  C9  UNL     1     -35.194  17.183  -2.571  1.00 20.00     0.014 A 
HETATM    9  C7  UNL     1     -35.259  17.012  -1.094  1.00 20.00     0.010 A 
HETATM   10  C8  UNL     1     -33.943  17.264  -1.766  1.00 20.00     0.010 A 
ENDBRANCH   2   8
TORSDOF 1
ENDMDL
MODEL 8
REMARK VINA RESULT:      -4.5     11.031     11.702
REMARK  1 active torsions:
REMARK  status: ('A' for Active; 'I' for Inactive)
REMARK    1  A    between atoms: C2_2  and  C9_9 
ROOT
HETATM    1  C1  UNL     1     -33.380  17.262  -1.870  1.00 20.00     0.053 C 
HETATM    2  C2  UNL     1     -34.682  16.935  -1.904  1.00 20.00    -0.072 C 
HETATM    3  C3  UNL     1     -32.849  18.142  -0.800  1.00 20.00     0.149 C 
HETATM    4  C4  UNL     1     -35.663  17.371  -0.846  1.00 20.00     0.035 C 
HETATM    5  C5  UNL     1     -33.822  18.736   0.193  1.00 20.00     0.083 C 
HETATM    6  C6  UNL     1     -34.979  17.787   0.453  1.00 20.00     0.012 C 
HETATM    7  O10 UNL     1     -31.651  18.422  -0.778  1.00 20.00    -0.293 OA
ENDROOT
BRANCH   2   8
HETATM    8  C9  UNL     1     -35.248  16.103  -3.018  1.00 20.00     0.014 A 
HETATM    9  C7  UNL     1     -34.834  16.428  -4.410  1.00 20.00     0.010 A 
HETATM   10  C8  UNL     1     -34.322  15.188  -3.743  1.00 20.00     0.010 A 
ENDBRANCH   2   8
TORSDOF 1
ENDMDL
MODEL 9
REMARK VINA RESULT:      -4.4     11.253     11.894
REMARK  1 active torsions:
REMARK  status: ('A' for Active; 'I' for Inactive)
REMARK    1  A    between atoms: C2_2  and  C9_9 
ROOT
HETATM    1  C1  UNL     1     -32.254  18.493  -0.154  1.00 20.00     0.053 C 
HETATM    2  C2  UNL     1     -33.583  18.359  -0.282  1.00 20.00    -0.072 C 
HETATM    3  C3  UNL     1     -31.656  18.888   1.146  1.00 20.00     0.149 C 
HETATM    4  C4  UNL     1     -34.538  18.528   0.873  1.00 20.00     0.035 C 
HETATM    5  C5  UNL     1     -32.581  19.225   2.292  1.00 20.00     0.083 C 
HETATM    6  C6  UNL     1     -33.850  18.393   2.227  1.00 20.00     0.012 C 
HETATM    7  O10 UNL     1     -30.434  18.995   1.247  1.00 20.00    -0.293 OA
ENDROOT
BRANCH   2   8
HETATM    8  C9  UNL     1     -34.210  18.028  -1.605  1.00 20.00     0.014 A 
HETATM    9  C7  UNL     1     -33.660  16.872  -2.367  1.00 20.00     0.010 A 
HETATM   10  C8  UNL     1     -35.002  16.770  -1.706  1.00 20.00     0.010 A 
ENDBRANCH   2   8
TORSDOF 1
ENDMDL
