MODEL 1
REMARK VINA RESULT:      -5.4      0.000      0.000
REMARK  2 active torsions:
REMARK  status: ('A' for Active; 'I' for Inactive)
REMARK    1  A    between atoms: C7_7  and  C8_8 
REMARK    2  A    between atoms: C9_9  and  O10_10 
ROOT
HETATM    1  C1  UNL     1     -33.481   4.543   2.804  1.00 20.00     0.003 C 
HETATM    2  C2  UNL     1     -32.584   5.754   2.560  1.00 20.00     0.005 C 
HETATM    3  C5  UNL     1     -34.020   4.520   4.233  1.00 20.00     0.032 C 
HETATM    4  C6  UNL     1     -33.834   7.041   4.342  1.00 20.00     0.036 C 
HETATM    5  C8  UNL     1     -33.300   7.068   2.901  1.00 20.00    -0.008 C 
HETATM    6  C9  UNL     1     -34.724   5.824   4.606  1.00 20.00     0.118 C 
ENDROOT
BRANCH   5   7
HETATM    7  C7  UNL     1     -32.363   8.259   2.697  1.00 20.00    -0.010 A 
HETATM    8  C3  UNL     1     -31.564   8.386   1.430  1.00 20.00     0.005 A 
HETATM    9  C4  UNL     1     -32.705   9.328   1.696  1.00 20.00     0.005 A 
ENDBRANCH   5   7
BRANCH   6  10
HETATM   10  O10 UNL     1     -35.925   5.930   3.843  1.00 20.00    -0.396 OA
HETATM   11  H26 UNL     1     -35.930   5.174   3.235  1.00 20.00     0.210 HD
ENDBRANCH   6  10
TORSDOF 2
ENDMDL
MODEL 2
REMARK VINA RESULT:      -5.3      1.774      4.236
REMARK  2 active torsions:
REMARK  status: ('A' for Active; 'I' for Inactive)
REMARK    1  A    between atoms: C7_7  and  C8_8 
REMARK    2  A    between atoms: C9_9  and  O10_10 
ROOT
HETATM    1  C1  UNL     1     -32.365   8.495   4.824  1.00 20.00     0.003 C 
HETATM    2  C2  UNL     1     -33.273   7.322   5.186  1.00 20.00     0.005 C 
HETATM    3  C5  UNL     1     -31.439   8.152   3.659  1.00 20.00     0.032 C 
HETATM    4  C6  UNL     1     -33.134   6.478   2.807  1.00 20.00     0.036 C 
HETATM    5  C8  UNL     1     -34.072   6.827   3.974  1.00 20.00    -0.008 C 
HETATM    6  C9  UNL     1     -32.208   7.641   2.441  1.00 20.00     0.118 C 
ENDROOT
BRANCH   5   7
HETATM    7  C7  UNL     1     -34.933   5.622   4.352  1.00 20.00    -0.010 A 
HETATM    8  C3  UNL     1     -34.340   4.240   4.358  1.00 20.00     0.005 A 
HETATM    9  C4  UNL     1     -34.704   4.908   5.655  1.00 20.00     0.005 A 
ENDBRANCH   5   7
BRANCH   6  10
HETATM   10  O10 UNL     1     -32.974   8.716   1.899  1.00 20.00    -0.396 OA
HETATM   11  H26 UNL     1     -32.951   8.609   0.936  1.00 20.00     0.210 HD
ENDBRANCH   6  10
TORSDOF 2
ENDMDL
MODEL 3
REMARK VINA RESULT:      -5.3      1.391      2.108
REMARK  2 active torsions:
REMARK  status: ('A' for Active; 'I' for Inactive)
REMARK    1  A    between atoms: C7_7  and  C8_8 
REMARK    2  A    between atoms: C9_9  and  O10_10 
ROOT
HETATM    1  C1  UNL     1     -33.665   6.508   5.921  1.00 20.00     0.003 C 
HETATM    2  C2  UNL     1     -33.362   7.546   4.844  1.00 20.00     0.005 C 
HETATM    3  C5  UNL     1     -34.893   5.671   5.568  1.00 20.00     0.032 C 
HETATM    4  C6  UNL     1     -34.450   6.066   3.108  1.00 20.00     0.036 C 
HETATM    5  C8  UNL     1     -33.209   6.901   3.461  1.00 20.00    -0.008 C 
HETATM    6  C9  UNL     1     -34.775   5.029   4.186  1.00 20.00     0.118 C 
ENDROOT
BRANCH   5   7
HETATM    7  C7  UNL     1     -32.958   7.967   2.394  1.00 20.00    -0.010 A 
HETATM    8  C3  UNL     1     -31.931   9.041   2.624  1.00 20.00     0.005 A 
HETATM    9  C4  UNL     1     -31.677   7.963   1.607  1.00 20.00     0.005 A 
ENDBRANCH   5   7
BRANCH   6  10
HETATM   10  O10 UNL     1     -33.749   4.038   4.227  1.00 20.00    -0.396 OA
HETATM   11  H26 UNL     1     -34.193   3.191   4.384  1.00 20.00     0.210 HD
ENDBRANCH   6  10
TORSDOF 2
ENDMDL
MODEL 4
REMARK VINA RESULT:      -5.1      1.296      1.993
REMARK  2 active torsions:
REMARK  status: ('A' for Active; 'I' for Inactive)
REMARK    1  A    between atoms: C7_7  and  C8_8 
REMARK    2  A    between atoms: C9_9  and  O10_10 
ROOT
HETATM    1  C1  UNL     1     -33.767   6.708   5.453  1.00 20.00     0.003 C 
HETATM    2  C2  UNL     1     -33.032   7.826   4.718  1.00 20.00     0.005 C 
HETATM    3  C5  UNL     1     -34.856   6.082   4.584  1.00 20.00     0.032 C 
HETATM    4  C6  UNL     1     -33.561   6.721   2.507  1.00 20.00     0.036 C 
HETATM    5  C8  UNL     1     -32.459   7.343   3.379  1.00 20.00    -0.008 C 
HETATM    6  C9  UNL     1     -34.316   5.607   3.235  1.00 20.00     0.118 C 
ENDROOT
BRANCH   5   7
HETATM    7  C7  UNL     1     -31.774   8.494   2.642  1.00 20.00    -0.010 A 
HETATM    8  C3  UNL     1     -31.592   8.436   1.151  1.00 20.00     0.005 A 
HETATM    9  C4  UNL     1     -32.573   9.404   1.750  1.00 20.00     0.005 A 
ENDBRANCH   5   7
BRANCH   6  10
HETATM   10  O10 UNL     1     -33.446   4.498   3.456  1.00 20.00    -0.396 OA
HETATM   11  H26 UNL     1     -33.523   3.930   2.674  1.00 20.00     0.210 HD
ENDBRANCH   6  10
TORSDOF 2
ENDMDL
MODEL 5
REMARK VINA RESULT:      -4.6     11.157     11.686
REMARK  2 active torsions:
REMARK  status: ('A' for Active; 'I' for Inactive)
REMARK    1  A    between atoms: C7_7  and  C8_8 
REMARK    2  A    between atoms: C9_9  and  O10_10 
ROOT
HETATM    1  C1  UNL     1     -35.476  14.008  -4.726  1.00 20.00     0.003 C 
HETATM    2  C2  UNL     1     -35.735  15.254  -3.882  1.00 20.00     0.005 C 
HETATM    3  C5  UNL     1     -34.431  14.268  -5.810  1.00 20.00     0.032 C 
HETATM    4  C6  UNL     1     -33.393  16.072  -4.372  1.00 20.00     0.036 C 
HETATM    5  C8  UNL     1     -34.438  15.807  -3.276  1.00 20.00    -0.008 C 
HETATM    6  C9  UNL     1     -33.134  14.836  -5.235  1.00 20.00     0.118 C 
ENDROOT
BRANCH   5   7
HETATM    7  C7  UNL     1     -34.718  17.082  -2.480  1.00 20.00    -0.010 A 
HETATM    8  C3  UNL     1     -35.455  17.011  -1.171  1.00 20.00     0.005 A 
HETATM    9  C4  UNL     1     -33.989  17.345  -1.191  1.00 20.00     0.005 A 
ENDBRANCH   5   7
BRANCH   6  10
HETATM   10  O10 UNL     1     -32.499  13.825  -4.453  1.00 20.00    -0.396 OA
HETATM   11  H26 UNL     1     -32.790  13.964  -3.539  1.00 20.00     0.210 HD
ENDBRANCH   6  10
TORSDOF 2
ENDMDL
MODEL 6
REMARK VINA RESULT:      -4.3      1.423      1.706
REMARK  2 active torsions:
REMARK  status: ('A' for Active; 'I' for Inactive)
REMARK    1  A    between atoms: C7_7  and  C8_8 
REMARK    2  A    between atoms: C9_9  and  O10_10 
ROOT
HETATM    1  C1  UNL     1     -34.372   5.956   3.030  1.00 20.00     0.003 C 
HETATM    2  C2  UNL     1     -33.517   6.747   2.043  1.00 20.00     0.005 C 
HETATM    3  C5  UNL     1     -33.633   5.709   4.344  1.00 20.00     0.032 C 
HETATM    4  C6  UNL     1     -32.271   7.808   3.970  1.00 20.00     0.036 C 
HETATM    5  C8  UNL     1     -33.018   8.064   2.652  1.00 20.00    -0.008 C 
HETATM    6  C9  UNL     1     -33.111   7.004   4.965  1.00 20.00     0.118 C 
ENDROOT
BRANCH   5   7
HETATM    7  C7  UNL     1     -32.124   8.810   1.662  1.00 20.00    -0.010 A 
HETATM    8  C3  UNL     1     -32.599   9.072   0.260  1.00 20.00     0.005 A 
HETATM    9  C4  UNL     1     -32.470  10.209   1.234  1.00 20.00     0.005 A 
ENDBRANCH   5   7
BRANCH   6  10
HETATM   10  O10 UNL     1     -34.224   7.785   5.399  1.00 20.00    -0.396 OA
HETATM   11  H26 UNL     1     -34.686   7.255   6.067  1.00 20.00     0.210 HD
ENDBRANCH   6  10
TORSDOF 2
ENDMDL
MODEL 7
REMARK VINA RESULT:      -4.1     10.949     11.977
REMARK  2 active torsions:
REMARK  status: ('A' for Active; 'I' for Inactive)
REMARK    1  A    between atoms: C7_7  and  C8_8 
REMARK    2  A    between atoms: C9_9  and  O10_10 
ROOT
HETATM    1  C1  UNL     1     -36.363  15.630  -6.074  1.00 20.00     0.003 C 
HETATM    2  C2  UNL     1     -35.690  16.419  -4.955  1.00 20.00     0.005 C 
HETATM    3  C5  UNL     1     -35.453  14.528  -6.615  1.00 20.00     0.032 C 
HETATM    4  C6  UNL     1     -34.286  14.398  -4.374  1.00 20.00     0.036 C 
HETATM    5  C8  UNL     1     -35.206  15.501  -3.825  1.00 20.00    -0.008 C 
HETATM    6  C9  UNL     1     -34.943  13.607  -5.507  1.00 20.00     0.118 C 
ENDROOT
BRANCH   5   7
HETATM    7  C7  UNL     1     -34.490  16.310  -2.743  1.00 20.00    -0.010 A 
HETATM    8  C3  UNL     1     -34.801  17.769  -2.558  1.00 20.00     0.005 A 
HETATM    9  C4  UNL     1     -35.239  16.770  -1.523  1.00 20.00     0.005 A 
ENDBRANCH   5   7
BRANCH   6  10
HETATM   10  O10 UNL     1     -36.042  12.854  -4.996  1.00 20.00    -0.396 OA
HETATM   11  H26 UNL     1     -36.326  12.265  -5.711  1.00 20.00     0.210 HD
ENDBRANCH   6  10
TORSDOF 2
ENDMDL
MODEL 8
REMARK VINA RESULT:      -4.0     11.214     12.124
REMARK  2 active torsions:
REMARK  status: ('A' for Active; 'I' for Inactive)
REMARK    1  A    between atoms: C7_7  and  C8_8 
REMARK    2  A    between atoms: C9_9  and  O10_10 
ROOT
HETATM    1  C1  UNL     1     -33.827  15.265  -7.003  1.00 20.00     0.003 C 
HETATM    2  C2  UNL     1     -33.436  15.608  -5.568  1.00 20.00     0.005 C 
HETATM    3  C5  UNL     1     -34.375  13.843  -7.114  1.00 20.00     0.032 C 
HETATM    4  C6  UNL     1     -35.145  13.955  -4.707  1.00 20.00     0.036 C 
HETATM    5  C8  UNL     1     -34.602  15.389  -4.595  1.00 20.00    -0.008 C 
HETATM    6  C9  UNL     1     -35.528  13.591  -6.143  1.00 20.00     0.118 C 
ENDROOT
BRANCH   5   7
HETATM    7  C7  UNL     1     -34.169  15.690  -3.160  1.00 20.00    -0.010 A 
HETATM    8  C3  UNL     1     -33.657  17.055  -2.794  1.00 20.00     0.005 A 
HETATM    9  C4  UNL     1     -34.998  16.597  -2.293  1.00 20.00     0.005 A 
ENDBRANCH   5   7
BRANCH   6  10
HETATM   10  O10 UNL     1     -36.651  14.370  -6.555  1.00 20.00    -0.396 OA
HETATM   11  H26 UNL     1     -36.446  14.696  -7.444  1.00 20.00     0.210 HD
ENDBRANCH   6  10
TORSDOF 2
ENDMDL
MODEL 9
REMARK VINA RESULT:      -4.0     10.681     11.865
REMARK  2 active torsions:
REMARK  status: ('A' for Active; 'I' for Inactive)
REMARK    1  A    between atoms: C7_7  and  C8_8 
REMARK    2  A    between atoms: C9_9  and  O10_10 
ROOT
HETATM    1  C1  UNL     1     -33.430  17.953  -1.045  1.00 20.00     0.003 C 
HETATM    2  C2  UNL     1     -33.358  17.233  -2.389  1.00 20.00     0.005 C 
HETATM    3  C5  UNL     1     -34.738  18.727  -0.889  1.00 20.00     0.032 C 
HETATM    4  C6  UNL     1     -35.882  17.103  -2.456  1.00 20.00     0.036 C 
HETATM    5  C8  UNL     1     -34.570  16.317  -2.608  1.00 20.00    -0.008 C 
HETATM    6  C9  UNL     1     -35.963  17.842  -1.118  1.00 20.00     0.118 C 
ENDROOT
BRANCH   5   7
HETATM    7  C7  UNL     1     -34.499  15.650  -3.981  1.00 20.00    -0.010 A 
HETATM    8  C3  UNL     1     -33.228  14.988  -4.437  1.00 20.00     0.005 A 
HETATM    9  C4  UNL     1     -34.429  14.152  -4.092  1.00 20.00     0.005 A 
ENDBRANCH   5   7
BRANCH   6  10
HETATM   10  O10 UNL     1     -36.052  16.899  -0.050  1.00 20.00    -0.396 OA
HETATM   11  H26 UNL     1     -36.003  16.020  -0.457  1.00 20.00     0.210 HD
ENDBRANCH   6  10
TORSDOF 2
ENDMDL
