MODEL 1
REMARK VINA RESULT:      -4.3      0.000      0.000
REMARK  0 active torsions:
REMARK  status: ('A' for Active; 'I' for Inactive)
ROOT
HETATM    1  C1  UNL     1     -34.747  15.940  -3.031  1.00 20.00     0.005 C 
HETATM    2  C2  UNL     1     -33.585  16.730  -5.096  1.00 20.00     0.005 C 
HETATM    3  C3  UNL     1     -36.066  15.821  -3.815  1.00 20.00     0.008 C 
HETATM    4  C4  UNL     1     -34.901  16.615  -5.886  1.00 20.00     0.008 C 
HETATM    5  C5  UNL     1     -33.677  14.274  -4.574  1.00 20.00     0.045 C 
HETATM    6  C6  UNL     1     -35.172  13.208  -6.448  1.00 20.00     0.207 A 
HETATM    7  C7  UNL     1     -33.545  15.687  -3.961  1.00 20.00    -0.012 C 
HETATM    8  C8  UNL     1     -35.777  15.495  -5.293  1.00 20.00     0.022 C 
HETATM    9  C9  UNL     1     -34.971  14.218  -5.344  1.00 20.00     0.086 A 
HETATM   10  O10 UNL     1     -35.735  13.020  -5.142  1.00 20.00    -0.375 OA
ENDROOT
TORSDOF 0
ENDMDL
MODEL 2
REMARK VINA RESULT:      -4.3     11.486     12.528
REMARK  0 active torsions:
REMARK  status: ('A' for Active; 'I' for Inactive)
ROOT
HETATM    1  C1  UNL     1     -33.780   4.617   4.483  1.00 20.00     0.005 C 
HETATM    2  C2  UNL     1     -35.653   6.076   3.706  1.00 20.00     0.005 C 
HETATM    3  C3  UNL     1     -33.113   4.734   3.101  1.00 20.00     0.008 C 
HETATM    4  C4  UNL     1     -34.991   6.196   2.321  1.00 20.00     0.008 C 
HETATM    5  C5  UNL     1     -33.624   7.105   4.771  1.00 20.00     0.045 C 
HETATM    6  C6  UNL     1     -32.451   8.485   2.872  1.00 20.00     0.207 A 
HETATM    7  C7  UNL     1     -34.583   5.893   4.801  1.00 20.00    -0.012 C 
HETATM    8  C8  UNL     1     -33.461   6.089   2.456  1.00 20.00     0.022 C 
HETATM    9  C9  UNL     1     -33.014   7.185   3.395  1.00 20.00     0.086 A 
HETATM   10  O10 UNL     1     -31.603   7.447   3.381  1.00 20.00    -0.375 OA
ENDROOT
TORSDOF 0
ENDMDL
MODEL 3
REMARK VINA RESULT:      -4.2      1.093      2.175
REMARK  0 active torsions:
REMARK  status: ('A' for Active; 'I' for Inactive)
ROOT
HETATM    1  C1  UNL     1     -32.774  15.503  -5.392  1.00 20.00     0.005 C 
HETATM    2  C2  UNL     1     -34.571  16.974  -4.473  1.00 20.00     0.005 C 
HETATM    3  C3  UNL     1     -33.117  14.426  -4.347  1.00 20.00     0.008 C 
HETATM    4  C4  UNL     1     -34.919  15.902  -3.424  1.00 20.00     0.008 C 
HETATM    5  C5  UNL     1     -35.102  15.351  -6.316  1.00 20.00     0.045 C 
HETATM    6  C6  UNL     1     -36.726  13.584  -5.256  1.00 20.00     0.207 A 
HETATM    7  C7  UNL     1     -34.030  16.316  -5.758  1.00 20.00    -0.012 C 
HETATM    8  C8  UNL     1     -34.612  14.499  -3.981  1.00 20.00     0.022 C 
HETATM    9  C9  UNL     1     -35.415  14.333  -5.250  1.00 20.00     0.086 A 
HETATM   10  O10 UNL     1     -35.512  12.983  -5.725  1.00 20.00    -0.375 OA
ENDROOT
TORSDOF 0
ENDMDL
MODEL 4
REMARK VINA RESULT:      -4.1     11.930     12.924
REMARK  0 active torsions:
REMARK  status: ('A' for Active; 'I' for Inactive)
ROOT
HETATM    1  C1  UNL     1     -41.413   7.724  -0.462  1.00 20.00     0.005 C 
HETATM    2  C2  UNL     1     -43.374   7.307   1.026  1.00 20.00     0.005 C 
HETATM    3  C3  UNL     1     -40.793   6.385  -0.026  1.00 20.00     0.008 C 
HETATM    4  C4  UNL     1     -42.760   5.966   1.468  1.00 20.00     0.008 C 
HETATM    5  C5  UNL     1     -43.417   6.508  -1.356  1.00 20.00     0.045 C 
HETATM    6  C6  UNL     1     -43.417   3.888  -1.224  1.00 20.00     0.207 A 
HETATM    7  C7  UNL     1     -42.950   7.644  -0.418  1.00 20.00    -0.012 C 
HETATM    8  C8  UNL     1     -41.903   5.378   0.331  1.00 20.00     0.022 C 
HETATM    9  C9  UNL     1     -42.800   5.221  -0.874  1.00 20.00     0.086 A 
HETATM   10  O10 UNL     1     -42.265   4.389  -1.914  1.00 20.00    -0.375 OA
ENDROOT
TORSDOF 0
ENDMDL
MODEL 5
REMARK VINA RESULT:      -3.9      1.939      3.054
REMARK  0 active torsions:
REMARK  status: ('A' for Active; 'I' for Inactive)
ROOT
HETATM    1  C1  UNL     1     -35.114  16.177  -2.881  1.00 20.00     0.005 C 
HETATM    2  C2  UNL     1     -34.787  14.074  -4.187  1.00 20.00     0.005 C 
HETATM    3  C3  UNL     1     -33.679  16.615  -3.221  1.00 20.00     0.008 C 
HETATM    4  C4  UNL     1     -33.349  14.505  -4.529  1.00 20.00     0.008 C 
HETATM    5  C5  UNL     1     -35.679  16.127  -5.326  1.00 20.00     0.045 C 
HETATM    6  C6  UNL     1     -33.820  16.859  -7.026  1.00 20.00     0.207 A 
HETATM    7  C7  UNL     1     -35.693  15.309  -4.014  1.00 20.00    -0.012 C 
HETATM    8  C8  UNL     1     -33.258  16.041  -4.587  1.00 20.00     0.022 C 
HETATM    9  C9  UNL     1     -34.253  16.513  -5.621  1.00 20.00     0.086 A 
HETATM   10  O10 UNL     1     -34.077  17.872  -6.045  1.00 20.00    -0.375 OA
ENDROOT
TORSDOF 0
ENDMDL
MODEL 6
REMARK VINA RESULT:      -3.9      1.638      3.325
REMARK  0 active torsions:
REMARK  status: ('A' for Active; 'I' for Inactive)
ROOT
HETATM    1  C1  UNL     1     -35.478  13.231  -7.486  1.00 20.00     0.005 C 
HETATM    2  C2  UNL     1     -36.560  15.381  -6.821  1.00 20.00     0.005 C 
HETATM    3  C3  UNL     1     -34.115  13.939  -7.569  1.00 20.00     0.008 C 
HETATM    4  C4  UNL     1     -35.200  16.097  -6.903  1.00 20.00     0.008 C 
HETATM    5  C5  UNL     1     -35.650  13.840  -5.058  1.00 20.00     0.045 C 
HETATM    6  C6  UNL     1     -33.633  15.120  -3.972  1.00 20.00     0.207 A 
HETATM    7  C7  UNL     1     -36.369  13.903  -6.424  1.00 20.00    -0.012 C 
HETATM    8  C8  UNL     1     -34.064  15.111  -6.570  1.00 20.00     0.022 C 
HETATM    9  C9  UNL     1     -34.334  14.563  -5.188  1.00 20.00     0.086 A 
HETATM   10  O10 UNL     1     -33.220  13.890  -4.583  1.00 20.00    -0.375 OA
ENDROOT
TORSDOF 0
ENDMDL
MODEL 7
REMARK VINA RESULT:      -3.9      1.386      2.489
REMARK  0 active torsions:
REMARK  status: ('A' for Active; 'I' for Inactive)
ROOT
HETATM    1  C1  UNL     1     -33.330  14.447  -4.475  1.00 20.00     0.005 C 
HETATM    2  C2  UNL     1     -33.705  16.525  -3.141  1.00 20.00     0.005 C 
HETATM    3  C3  UNL     1     -34.800  14.044  -4.266  1.00 20.00     0.008 C 
HETATM    4  C4  UNL     1     -35.177  16.127  -2.928  1.00 20.00     0.008 C 
HETATM    5  C5  UNL     1     -34.067  16.551  -5.627  1.00 20.00     0.045 C 
HETATM    6  C6  UNL     1     -36.642  16.923  -5.963  1.00 20.00     0.207 A 
HETATM    7  C7  UNL     1     -33.190  15.981  -4.489  1.00 20.00    -0.012 C 
HETATM    8  C8  UNL     1     -35.680  15.301  -4.125  1.00 20.00     0.022 C 
HETATM    9  C9  UNL     1     -35.494  16.145  -5.365  1.00 20.00     0.086 A 
HETATM   10  O10 UNL     1     -36.204  15.677  -6.520  1.00 20.00    -0.375 OA
ENDROOT
TORSDOF 0
ENDMDL
MODEL 8
REMARK VINA RESULT:      -3.9     11.942     13.010
REMARK  0 active torsions:
REMARK  status: ('A' for Active; 'I' for Inactive)
ROOT
HETATM    1  C1  UNL     1     -34.784   6.183   2.159  1.00 20.00     0.005 C 
HETATM    2  C2  UNL     1     -33.241   4.482   3.141  1.00 20.00     0.005 C 
HETATM    3  C3  UNL     1     -35.684   6.090   3.403  1.00 20.00     0.008 C 
HETATM    4  C4  UNL     1     -34.137   4.383   4.389  1.00 20.00     0.008 C 
HETATM    5  C5  UNL     1     -32.866   6.924   3.598  1.00 20.00     0.045 C 
HETATM    6  C6  UNL     1     -33.314   7.241   6.163  1.00 20.00     0.207 A 
HETATM    7  C7  UNL     1     -33.317   5.897   2.533  1.00 20.00    -0.012 C 
HETATM    8  C8  UNL     1     -34.841   5.729   4.642  1.00 20.00     0.022 C 
HETATM    9  C9  UNL     1     -33.764   6.778   4.798  1.00 20.00     0.086 A 
HETATM   10  O10 UNL     1     -34.215   8.018   5.362  1.00 20.00    -0.375 OA
ENDROOT
TORSDOF 0
ENDMDL
MODEL 9
REMARK VINA RESULT:      -3.9      1.150      1.647
REMARK  0 active torsions:
REMARK  status: ('A' for Active; 'I' for Inactive)
ROOT
HETATM    1  C1  UNL     1     -35.648  16.225  -4.127  1.00 20.00     0.005 C 
HETATM    2  C2  UNL     1     -33.339  15.275  -4.159  1.00 20.00     0.005 C 
HETATM    3  C3  UNL     1     -35.502  16.638  -5.602  1.00 20.00     0.008 C 
HETATM    4  C4  UNL     1     -33.185  15.686  -5.634  1.00 20.00     0.008 C 
HETATM    5  C5  UNL     1     -35.299  13.823  -4.763  1.00 20.00     0.045 C 
HETATM    6  C6  UNL     1     -35.006  13.262  -7.309  1.00 20.00     0.207 A 
HETATM    7  C7  UNL     1     -34.815  14.963  -3.837  1.00 20.00    -0.012 C 
HETATM    8  C8  UNL     1     -34.557  15.666  -6.334  1.00 20.00     0.022 C 
HETATM    9  C9  UNL     1     -35.116  14.270  -6.189  1.00 20.00     0.086 A 
HETATM   10  O10 UNL     1     -36.223  13.976  -7.054  1.00 20.00    -0.375 OA
ENDROOT
TORSDOF 0
ENDMDL
