MODEL 1
REMARK VINA RESULT:      -4.9      0.000      0.000
REMARK  0 active torsions:
REMARK  status: ('A' for Active; 'I' for Inactive)
ROOT
HETATM    1  C1  UNL     1     -35.385  13.955  -4.976  1.00 20.00     0.132 C 
HETATM    2  C2  UNL     1     -35.656  15.205  -5.806  1.00 20.00     0.084 C 
HETATM    3  C3  UNL     1     -33.029  14.387  -4.639  1.00 20.00     0.013 C 
HETATM    4  C4  UNL     1     -33.193  15.671  -5.504  1.00 20.00     0.006 C 
HETATM    5  C5  UNL     1     -34.221  16.597  -2.563  1.00 20.00     0.011 A 
HETATM    6  C6  UNL     1     -35.693  16.287  -2.727  1.00 20.00     0.011 A 
HETATM    7  C7  UNL     1     -34.371  14.301  -3.887  1.00 20.00     0.064 C 
HETATM    8  C8  UNL     1     -34.623  16.167  -5.156  1.00 20.00     0.002 C 
HETATM    9  C9  UNL     1     -34.693  15.755  -3.712  1.00 20.00    -0.026 A 
HETATM   10  O10 UNL     1     -35.872  12.854  -5.171  1.00 20.00    -0.298 OA
ENDROOT
TORSDOF 0
ENDMDL
MODEL 2
REMARK VINA RESULT:      -4.5      0.848      2.658
REMARK  0 active torsions:
REMARK  status: ('A' for Active; 'I' for Inactive)
ROOT
HETATM    1  C1  UNL     1     -35.337  13.882  -4.864  1.00 20.00     0.132 C 
HETATM    2  C2  UNL     1     -34.058  13.954  -4.038  1.00 20.00     0.084 C 
HETATM    3  C3  UNL     1     -36.347  15.874  -3.936  1.00 20.00     0.013 C 
HETATM    4  C4  UNL     1     -35.096  16.019  -3.021  1.00 20.00     0.006 C 
HETATM    5  C5  UNL     1     -34.130  17.308  -5.844  1.00 20.00     0.011 A 
HETATM    6  C6  UNL     1     -33.537  16.065  -6.472  1.00 20.00     0.011 A 
HETATM    7  C7  UNL     1     -35.759  15.302  -5.240  1.00 20.00     0.064 C 
HETATM    8  C8  UNL     1     -33.931  15.498  -3.907  1.00 20.00     0.002 C 
HETATM    9  C9  UNL     1     -34.410  15.956  -5.256  1.00 20.00    -0.026 A 
HETATM   10  O10 UNL     1     -35.941  12.860  -5.150  1.00 20.00    -0.298 OA
ENDROOT
TORSDOF 0
ENDMDL
MODEL 3
REMARK VINA RESULT:      -4.4      1.380      2.195
REMARK  0 active torsions:
REMARK  status: ('A' for Active; 'I' for Inactive)
ROOT
HETATM    1  C1  UNL     1     -37.074  14.339  -5.242  1.00 20.00     0.132 C 
HETATM    2  C2  UNL     1     -36.814  15.731  -5.805  1.00 20.00     0.084 C 
HETATM    3  C3  UNL     1     -35.391  13.216  -6.567  1.00 20.00     0.013 C 
HETATM    4  C4  UNL     1     -35.071  14.588  -7.231  1.00 20.00     0.006 C 
HETATM    5  C5  UNL     1     -33.415  14.688  -4.435  1.00 20.00     0.011 A 
HETATM    6  C6  UNL     1     -34.469  15.342  -3.569  1.00 20.00     0.011 A 
HETATM    7  C7  UNL     1     -35.740  13.604  -5.118  1.00 20.00     0.064 C 
HETATM    8  C8  UNL     1     -35.289  15.610  -6.082  1.00 20.00     0.002 C 
HETATM    9  C9  UNL     1     -34.836  14.782  -4.912  1.00 20.00    -0.026 A 
HETATM   10  O10 UNL     1     -38.169  13.878  -4.967  1.00 20.00    -0.298 OA
ENDROOT
TORSDOF 0
ENDMDL
MODEL 4
REMARK VINA RESULT:      -4.3      1.190      2.037
REMARK  0 active torsions:
REMARK  status: ('A' for Active; 'I' for Inactive)
ROOT
HETATM    1  C1  UNL     1     -35.361  13.761  -5.469  1.00 20.00     0.132 C 
HETATM    2  C2  UNL     1     -34.436  14.018  -6.653  1.00 20.00     0.084 C 
HETATM    3  C3  UNL     1     -34.102  15.078  -3.878  1.00 20.00     0.013 C 
HETATM    4  C4  UNL     1     -33.076  15.373  -5.012  1.00 20.00     0.006 C 
HETATM    5  C5  UNL     1     -35.454  17.521  -5.557  1.00 20.00     0.011 A 
HETATM    6  C6  UNL     1     -36.289  16.700  -6.514  1.00 20.00     0.011 A 
HETATM    7  C7  UNL     1     -35.447  15.035  -4.629  1.00 20.00     0.064 C 
HETATM    8  C8  UNL     1     -33.956  15.451  -6.290  1.00 20.00     0.002 C 
HETATM    9  C9  UNL     1     -35.206  16.049  -5.706  1.00 20.00    -0.026 A 
HETATM   10  O10 UNL     1     -35.915  12.703  -5.217  1.00 20.00    -0.298 OA
ENDROOT
TORSDOF 0
ENDMDL
MODEL 5
REMARK VINA RESULT:      -4.2      1.769      2.724
REMARK  0 active torsions:
REMARK  status: ('A' for Active; 'I' for Inactive)
ROOT
HETATM    1  C1  UNL     1     -33.944  16.505  -5.718  1.00 20.00     0.132 C 
HETATM    2  C2  UNL     1     -32.942  15.477  -5.208  1.00 20.00     0.084 C 
HETATM    3  C3  UNL     1     -35.912  15.367  -4.889  1.00 20.00     0.013 C 
HETATM    4  C4  UNL     1     -34.975  14.242  -4.359  1.00 20.00     0.006 C 
HETATM    5  C5  UNL     1     -34.803  16.529  -2.055  1.00 20.00     0.011 A 
HETATM    6  C6  UNL     1     -33.606  17.291  -2.578  1.00 20.00     0.011 A 
HETATM    7  C7  UNL     1     -35.069  16.642  -4.693  1.00 20.00     0.064 C 
HETATM    8  C8  UNL     1     -33.692  15.006  -3.930  1.00 20.00     0.002 C 
HETATM    9  C9  UNL     1     -34.306  16.292  -3.451  1.00 20.00    -0.026 A 
HETATM   10  O10 UNL     1     -33.876  17.096  -6.783  1.00 20.00    -0.298 OA
ENDROOT
TORSDOF 0
ENDMDL
MODEL 6
REMARK VINA RESULT:      -4.2      2.665      4.039
REMARK  0 active torsions:
REMARK  status: ('A' for Active; 'I' for Inactive)
ROOT
HETATM    1  C1  UNL     1     -33.382  18.116  -2.732  1.00 20.00     0.132 C 
HETATM    2  C2  UNL     1     -34.234  18.479  -3.942  1.00 20.00     0.084 C 
HETATM    3  C3  UNL     1     -35.082  16.812  -1.610  1.00 20.00     0.013 C 
HETATM    4  C4  UNL     1     -36.046  17.154  -2.784  1.00 20.00     0.006 C 
HETATM    5  C5  UNL     1     -34.293  14.670  -3.935  1.00 20.00     0.011 A 
HETATM    6  C6  UNL     1     -33.188  15.459  -4.601  1.00 20.00     0.011 A 
HETATM    7  C7  UNL     1     -33.715  16.686  -2.309  1.00 20.00     0.064 C 
HETATM    8  C8  UNL     1     -35.111  17.198  -4.024  1.00 20.00     0.002 C 
HETATM    9  C9  UNL     1     -34.124  16.132  -3.640  1.00 20.00    -0.026 A 
HETATM   10  O10 UNL     1     -32.588  18.857  -2.175  1.00 20.00    -0.298 OA
ENDROOT
TORSDOF 0
ENDMDL
MODEL 7
REMARK VINA RESULT:      -4.1      1.662      2.608
REMARK  0 active torsions:
REMARK  status: ('A' for Active; 'I' for Inactive)
ROOT
HETATM    1  C1  UNL     1     -35.181  13.178  -6.420  1.00 20.00     0.132 C 
HETATM    2  C2  UNL     1     -36.044  13.537  -5.216  1.00 20.00     0.084 C 
HETATM    3  C3  UNL     1     -35.271  15.363  -7.452  1.00 20.00     0.013 C 
HETATM    4  C4  UNL     1     -36.190  15.822  -6.282  1.00 20.00     0.006 C 
HETATM    5  C5  UNL     1     -33.195  16.060  -5.040  1.00 20.00     0.011 A 
HETATM    6  C6  UNL     1     -33.090  14.681  -4.429  1.00 20.00     0.011 A 
HETATM    7  C7  UNL     1     -34.303  14.379  -6.769  1.00 20.00     0.064 C 
HETATM    8  C8  UNL     1     -35.647  15.032  -5.059  1.00 20.00     0.002 C 
HETATM    9  C9  UNL     1     -34.185  14.993  -5.407  1.00 20.00    -0.026 A 
HETATM   10  O10 UNL     1     -35.211  12.118  -7.024  1.00 20.00    -0.298 OA
ENDROOT
TORSDOF 0
ENDMDL
MODEL 8
REMARK VINA RESULT:      -4.1      1.080      2.575
REMARK  0 active torsions:
REMARK  status: ('A' for Active; 'I' for Inactive)
ROOT
HETATM    1  C1  UNL     1     -34.705  14.419  -4.420  1.00 20.00     0.132 C 
HETATM    2  C2  UNL     1     -33.239  14.832  -4.370  1.00 20.00     0.084 C 
HETATM    3  C3  UNL     1     -35.486  16.082  -2.846  1.00 20.00     0.013 C 
HETATM    4  C4  UNL     1     -34.011  16.558  -2.697  1.00 20.00     0.006 C 
HETATM    5  C5  UNL     1     -35.019  18.035  -5.412  1.00 20.00     0.011 A 
HETATM    6  C6  UNL     1     -34.588  16.988  -6.415  1.00 20.00     0.011 A 
HETATM    7  C7  UNL     1     -35.571  15.675  -4.330  1.00 20.00     0.064 C 
HETATM    8  C8  UNL     1     -33.415  16.355  -4.117  1.00 20.00     0.002 C 
HETATM    9  C9  UNL     1     -34.628  16.661  -4.951  1.00 20.00    -0.026 A 
HETATM   10  O10 UNL     1     -35.118  13.273  -4.488  1.00 20.00    -0.298 OA
ENDROOT
TORSDOF 0
ENDMDL
MODEL 9
REMARK VINA RESULT:      -4.0      1.662      3.304
REMARK  0 active torsions:
REMARK  status: ('A' for Active; 'I' for Inactive)
ROOT
HETATM    1  C1  UNL     1     -35.862  15.028  -4.720  1.00 20.00     0.132 C 
HETATM    2  C2  UNL     1     -34.678  14.248  -4.160  1.00 20.00     0.084 C 
HETATM    3  C3  UNL     1     -34.541  16.703  -5.860  1.00 20.00     0.013 C 
HETATM    4  C4  UNL     1     -33.266  16.000  -5.308  1.00 20.00     0.006 C 
HETATM    5  C5  UNL     1     -34.048  14.226  -7.917  1.00 20.00     0.011 A 
HETATM    6  C6  UNL     1     -34.922  13.194  -7.239  1.00 20.00     0.011 A 
HETATM    7  C7  UNL     1     -35.502  15.527  -6.118  1.00 20.00     0.064 C 
HETATM    8  C8  UNL     1     -33.652  14.495  -5.302  1.00 20.00     0.002 C 
HETATM    9  C9  UNL     1     -34.537  14.451  -6.516  1.00 20.00    -0.026 A 
HETATM   10  O10 UNL     1     -36.910  15.244  -4.134  1.00 20.00    -0.298 OA
ENDROOT
TORSDOF 0
ENDMDL
