MODEL 1
REMARK VINA RESULT:      -5.8      0.000      0.000
REMARK  0 active torsions:
REMARK  status: ('A' for Active; 'I' for Inactive)
ROOT
HETATM    1  C1  UNL     1     -32.721   7.400   3.425  1.00 20.00     0.136 C 
HETATM    2  C2  UNL     1     -32.905   4.975   2.557  1.00 20.00     0.018 A 
HETATM    3  C3  UNL     1     -33.230   8.057   5.992  1.00 20.00     0.018 A 
HETATM    4  C4  UNL     1     -34.070   4.502   5.590  1.00 20.00     0.011 A 
HETATM    5  C5  UNL     1     -33.408   6.396   2.556  1.00 20.00     0.060 A 
HETATM    6  C6  UNL     1     -32.785   7.181   4.873  1.00 20.00     0.060 A 
HETATM    7  C7  UNL     1     -34.321   5.254   2.995  1.00 20.00     0.002 A 
HETATM    8  C8  UNL     1     -34.243   7.185   5.340  1.00 20.00     0.002 A 
HETATM    9  C9  UNL     1     -34.884   4.885   4.384  1.00 20.00    -0.005 A 
HETATM   10  C10 UNL     1     -34.813   5.811   5.601  1.00 20.00    -0.005 A 
HETATM   11  O11 UNL     1     -32.103   8.341   2.947  1.00 20.00    -0.297 OA
ENDROOT
TORSDOF 0
ENDMDL
MODEL 2
REMARK VINA RESULT:      -5.5      1.935      3.915
REMARK  0 active torsions:
REMARK  status: ('A' for Active; 'I' for Inactive)
ROOT
HETATM    1  C1  UNL     1     -34.230   4.824   4.360  1.00 20.00     0.136 C 
HETATM    2  C2  UNL     1     -33.748   6.792   5.961  1.00 20.00     0.018 A 
HETATM    3  C3  UNL     1     -32.955   4.540   1.999  1.00 20.00     0.018 A 
HETATM    4  C4  UNL     1     -31.903   7.759   3.425  1.00 20.00     0.011 A 
HETATM    5  C5  UNL     1     -34.696   6.074   5.034  1.00 20.00     0.060 A 
HETATM    6  C6  UNL     1     -33.111   4.952   3.422  1.00 20.00     0.060 A 
HETATM    7  C7  UNL     1     -34.263   7.509   4.739  1.00 20.00     0.002 A 
HETATM    8  C8  UNL     1     -33.489   5.898   2.280  1.00 20.00     0.002 A 
HETATM    9  C9  UNL     1     -33.357   8.085   3.629  1.00 20.00    -0.005 A 
HETATM   10  C10 UNL     1     -32.903   7.285   2.406  1.00 20.00    -0.005 A 
HETATM   11  O11 UNL     1     -34.736   3.739   4.610  1.00 20.00    -0.297 OA
ENDROOT
TORSDOF 0
ENDMDL
MODEL 3
REMARK VINA RESULT:      -5.5      1.401      2.796
REMARK  0 active torsions:
REMARK  status: ('A' for Active; 'I' for Inactive)
ROOT
HETATM    1  C1  UNL     1     -33.565   7.321   5.487  1.00 20.00     0.136 C 
HETATM    2  C2  UNL     1     -31.898   7.767   3.566  1.00 20.00     0.018 A 
HETATM    3  C3  UNL     1     -34.772   4.932   5.825  1.00 20.00     0.018 A 
HETATM    4  C4  UNL     1     -32.867   4.756   2.687  1.00 20.00     0.011 A 
HETATM    5  C5  UNL     1     -33.231   8.036   4.217  1.00 20.00     0.060 A 
HETATM    6  C6  UNL     1     -33.682   5.862   5.417  1.00 20.00     0.060 A 
HETATM    7  C7  UNL     1     -33.163   7.451   2.809  1.00 20.00     0.002 A 
HETATM    8  C8  UNL     1     -34.793   5.471   4.440  1.00 20.00     0.002 A 
HETATM    9  C9  UNL     1     -33.524   6.046   2.278  1.00 20.00    -0.005 A 
HETATM   10  C10 UNL     1     -34.295   5.005   3.092  1.00 20.00    -0.005 A 
HETATM   11  O11 UNL     1     -33.698   7.925   6.542  1.00 20.00    -0.297 OA
ENDROOT
TORSDOF 0
ENDMDL
MODEL 4
REMARK VINA RESULT:      -5.5      1.529      2.718
REMARK  0 active torsions:
REMARK  status: ('A' for Active; 'I' for Inactive)
ROOT
HETATM    1  C1  UNL     1     -33.246   4.970   2.861  1.00 20.00     0.136 C 
HETATM    2  C2  UNL     1     -33.681   4.002   5.215  1.00 20.00     0.018 A 
HETATM    3  C3  UNL     1     -32.590   7.557   2.464  1.00 20.00     0.018 A 
HETATM    4  C4  UNL     1     -33.351   7.163   6.037  1.00 20.00     0.011 A 
HETATM    5  C5  UNL     1     -34.199   4.382   3.851  1.00 20.00     0.060 A 
HETATM    6  C6  UNL     1     -32.649   6.264   3.201  1.00 20.00     0.060 A 
HETATM    7  C7  UNL     1     -34.766   5.043   5.105  1.00 20.00     0.002 A 
HETATM    8  C8  UNL     1     -33.744   7.320   3.370  1.00 20.00     0.002 A 
HETATM    9  C9  UNL     1     -34.634   6.487   5.636  1.00 20.00    -0.005 A 
HETATM   10  C10 UNL     1     -34.073   7.646   4.808  1.00 20.00    -0.005 A 
HETATM   11  O11 UNL     1     -32.951   4.379   1.832  1.00 20.00    -0.297 OA
ENDROOT
TORSDOF 0
ENDMDL
MODEL 5
REMARK VINA RESULT:      -4.9      1.782      3.068
REMARK  0 active torsions:
REMARK  status: ('A' for Active; 'I' for Inactive)
ROOT
HETATM    1  C1  UNL     1     -34.403   5.501   4.752  1.00 20.00     0.136 C 
HETATM    2  C2  UNL     1     -34.285   5.451   2.173  1.00 20.00     0.018 A 
HETATM    3  C3  UNL     1     -33.792   7.706   6.182  1.00 20.00     0.018 A 
HETATM    4  C4  UNL     1     -33.018   8.439   2.665  1.00 20.00     0.011 A 
HETATM    5  C5  UNL     1     -33.762   4.980   3.506  1.00 20.00     0.060 A 
HETATM    6  C6  UNL     1     -34.289   6.940   5.005  1.00 20.00     0.060 A 
HETATM    7  C7  UNL     1     -32.851   5.734   2.541  1.00 20.00     0.002 A 
HETATM    8  C8  UNL     1     -32.816   7.338   5.122  1.00 20.00     0.002 A 
HETATM    9  C9  UNL     1     -32.243   7.151   2.622  1.00 20.00    -0.005 A 
HETATM   10  C10 UNL     1     -32.257   8.008   3.889  1.00 20.00    -0.005 A 
HETATM   11  O11 UNL     1     -35.024   4.765   5.505  1.00 20.00    -0.297 OA
ENDROOT
TORSDOF 0
ENDMDL
MODEL 6
REMARK VINA RESULT:      -4.9      0.786      2.814
REMARK  0 active torsions:
REMARK  status: ('A' for Active; 'I' for Inactive)
ROOT
HETATM    1  C1  UNL     1     -32.661   7.123   3.226  1.00 20.00     0.136 C 
HETATM    2  C2  UNL     1     -34.223   7.922   5.121  1.00 20.00     0.018 A 
HETATM    3  C3  UNL     1     -33.035   4.781   1.939  1.00 20.00     0.018 A 
HETATM    4  C4  UNL     1     -35.488   4.926   4.672  1.00 20.00     0.011 A 
HETATM    5  C5  UNL     1     -32.865   7.446   4.671  1.00 20.00     0.060 A 
HETATM    6  C6  UNL     1     -33.440   6.009   2.678  1.00 20.00     0.060 A 
HETATM    7  C7  UNL     1     -33.662   6.648   5.701  1.00 20.00     0.002 A 
HETATM    8  C8  UNL     1     -33.103   4.715   3.423  1.00 20.00     0.002 A 
HETATM    9  C9  UNL     1     -34.356   5.273   5.599  1.00 20.00    -0.005 A 
HETATM   10  C10 UNL     1     -34.140   4.298   4.439  1.00 20.00    -0.005 A 
HETATM   11  O11 UNL     1     -31.906   7.782   2.526  1.00 20.00    -0.297 OA
ENDROOT
TORSDOF 0
ENDMDL
MODEL 7
REMARK VINA RESULT:      -4.7     11.701     13.018
REMARK  0 active torsions:
REMARK  status: ('A' for Active; 'I' for Inactive)
ROOT
HETATM    1  C1  UNL     1     -35.724  13.717  -4.996  1.00 20.00     0.136 C 
HETATM    2  C2  UNL     1     -33.648  15.221  -4.689  1.00 20.00     0.018 A 
HETATM    3  C3  UNL     1     -38.209  14.729  -5.286  1.00 20.00     0.018 A 
HETATM    4  C4  UNL     1     -35.961  17.547  -4.569  1.00 20.00     0.011 A 
HETATM    5  C5  UNL     1     -34.606  14.200  -4.130  1.00 20.00     0.060 A 
HETATM    6  C6  UNL     1     -36.724  14.708  -5.405  1.00 20.00     0.060 A 
HETATM    7  C7  UNL     1     -34.463  15.570  -3.470  1.00 20.00     0.002 A 
HETATM    8  C8  UNL     1     -37.409  15.302  -4.171  1.00 20.00     0.002 A 
HETATM    9  C9  UNL     1     -35.439  16.764  -3.396  1.00 20.00    -0.005 A 
HETATM   10  C10 UNL     1     -36.915  16.679  -3.793  1.00 20.00    -0.005 A 
HETATM   11  O11 UNL     1     -35.780  12.556  -5.376  1.00 20.00    -0.297 OA
ENDROOT
TORSDOF 0
ENDMDL
MODEL 8
REMARK VINA RESULT:      -4.6     12.190     13.655
REMARK  0 active torsions:
REMARK  status: ('A' for Active; 'I' for Inactive)
ROOT
HETATM    1  C1  UNL     1     -35.421  13.678  -5.465  1.00 20.00     0.136 C 
HETATM    2  C2  UNL     1     -35.530  14.488  -7.914  1.00 20.00     0.018 A 
HETATM    3  C3  UNL     1     -34.752  15.318  -3.430  1.00 20.00     0.018 A 
HETATM    4  C4  UNL     1     -34.314  17.214  -6.548  1.00 20.00     0.011 A 
HETATM    5  C5  UNL     1     -34.878  13.634  -6.857  1.00 20.00     0.060 A 
HETATM    6  C6  UNL     1     -35.328  14.956  -4.755  1.00 20.00     0.060 A 
HETATM    7  C7  UNL     1     -34.078  14.716  -7.579  1.00 20.00     0.002 A 
HETATM    8  C8  UNL     1     -33.863  15.377  -4.621  1.00 20.00     0.002 A 
HETATM    9  C9  UNL     1     -33.507  16.059  -7.075  1.00 20.00    -0.005 A 
HETATM   10  C10 UNL     1     -33.434  16.448  -5.597  1.00 20.00    -0.005 A 
HETATM   11  O11 UNL     1     -35.951  12.700  -4.957  1.00 20.00    -0.297 OA
ENDROOT
TORSDOF 0
ENDMDL
MODEL 9
REMARK VINA RESULT:      -4.6     11.582     12.743
REMARK  0 active torsions:
REMARK  status: ('A' for Active; 'I' for Inactive)
ROOT
HETATM    1  C1  UNL     1     -35.402  13.888  -5.140  1.00 20.00     0.136 C 
HETATM    2  C2  UNL     1     -37.361  15.266  -4.176  1.00 20.00     0.018 A 
HETATM    3  C3  UNL     1     -32.903  14.033  -4.133  1.00 20.00     0.018 A 
HETATM    4  C4  UNL     1     -34.927  16.558  -2.392  1.00 20.00     0.011 A 
HETATM    5  C5  UNL     1     -36.413  14.976  -5.311  1.00 20.00     0.060 A 
HETATM    6  C6  UNL     1     -34.391  14.078  -4.096  1.00 20.00     0.060 A 
HETATM    7  C7  UNL     1     -36.424  16.350  -4.645  1.00 20.00     0.002 A 
HETATM    8  C8  UNL     1     -33.571  15.337  -4.383  1.00 20.00     0.002 A 
HETATM    9  C9  UNL     1     -35.384  17.045  -3.740  1.00 20.00    -0.005 A 
HETATM   10  C10 UNL     1     -33.956  16.532  -3.541  1.00 20.00    -0.005 A 
HETATM   11  O11 UNL     1     -35.441  12.870  -5.816  1.00 20.00    -0.297 OA
ENDROOT
TORSDOF 0
ENDMDL
