MODEL 1
REMARK VINA RESULT:      -4.2      0.000      0.000
REMARK  2 active torsions:
REMARK  status: ('A' for Active; 'I' for Inactive)
REMARK    1  A    between atoms: C8_8  and  C9_9 
REMARK    2  A    between atoms: C9_9  and  N11_11 
ROOT
HETATM    1  C1  UNL     1     -35.732  13.990  -4.981  1.00 20.00     0.096 C 
HETATM    2  C9  UNL     1     -35.508  15.387  -4.588  1.00 20.00     0.332 C 
HETATM    3  N10 UNL     1     -35.912  12.887  -5.293  1.00 20.00    -0.195 NA
ENDROOT
BRANCH   2   4
HETATM    4  C8  UNL     1     -34.551  15.476  -3.407  1.00 20.00     0.033 A 
HETATM    5  C4  UNL     1     -33.666  16.681  -3.239  1.00 20.00     0.008 A 
HETATM    6  C5  UNL     1     -34.812  16.451  -2.292  1.00 20.00     0.008 A 
ENDBRANCH   2   4
BRANCH   2   7
HETATM    7  N11 UNL     1     -34.991  16.151  -5.729  1.00 20.00     0.106 N 
HETATM    8  C6  UNL     1     -34.098  15.328  -6.545  1.00 20.00     0.274 C 
HETATM    9  C2  UNL     1     -34.044  16.087  -7.864  1.00 20.00     0.032 C 
HETATM   10  C3  UNL     1     -35.343  16.885  -7.918  1.00 20.00     0.032 C 
HETATM   11  C7  UNL     1     -36.078  16.538  -6.631  1.00 20.00     0.274 C 
ENDBRANCH   2   7
TORSDOF 2
ENDMDL
MODEL 2
REMARK VINA RESULT:      -4.1      1.278      3.677
REMARK  2 active torsions:
REMARK  status: ('A' for Active; 'I' for Inactive)
REMARK    1  A    between atoms: C8_8  and  C9_9 
REMARK    2  A    between atoms: C9_9  and  N11_11 
ROOT
HETATM    1  C1  UNL     1     -35.329  13.867  -5.059  1.00 20.00     0.096 C 
HETATM    2  C9  UNL     1     -34.590  15.115  -4.835  1.00 20.00     0.332 C 
HETATM    3  N10 UNL     1     -35.911  12.878  -5.236  1.00 20.00    -0.195 NA
ENDROOT
BRANCH   2   4
HETATM    4  C8  UNL     1     -35.126  16.235  -5.717  1.00 20.00     0.033 A 
HETATM    5  C4  UNL     1     -34.183  17.229  -6.336  1.00 20.00     0.008 A 
HETATM    6  C5  UNL     1     -34.879  16.214  -7.200  1.00 20.00     0.008 A 
ENDBRANCH   2   4
BRANCH   2   7
HETATM    7  N11 UNL     1     -34.666  15.493  -3.419  1.00 20.00     0.106 N 
HETATM    8  C6  UNL     1     -33.581  16.410  -3.066  1.00 20.00     0.274 C 
HETATM    9  C2  UNL     1     -34.071  17.035  -1.768  1.00 20.00     0.032 C 
HETATM   10  C3  UNL     1     -35.591  16.919  -1.819  1.00 20.00     0.032 C 
HETATM   11  C7  UNL     1     -35.895  16.240  -3.146  1.00 20.00     0.274 C 
ENDBRANCH   2   7
TORSDOF 2
ENDMDL
MODEL 3
REMARK VINA RESULT:      -4.0      1.960      3.254
REMARK  2 active torsions:
REMARK  status: ('A' for Active; 'I' for Inactive)
REMARK    1  A    between atoms: C8_8  and  C9_9 
REMARK    2  A    between atoms: C9_9  and  N11_11 
ROOT
HETATM    1  C1  UNL     1     -33.885  16.797  -5.117  1.00 20.00     0.096 C 
HETATM    2  C9  UNL     1     -34.126  16.184  -3.805  1.00 20.00     0.332 C 
HETATM    3  N10 UNL     1     -33.693  17.278  -6.155  1.00 20.00    -0.195 NA
ENDROOT
BRANCH   2   4
HETATM    4  C8  UNL     1     -34.526  17.234  -2.777  1.00 20.00     0.033 A 
HETATM    5  C4  UNL     1     -35.082  16.815  -1.444  1.00 20.00     0.008 A 
HETATM    6  C5  UNL     1     -33.709  17.421  -1.528  1.00 20.00     0.008 A 
ENDBRANCH   2   4
BRANCH   2   7
HETATM    7  N11 UNL     1     -35.163  15.152  -3.917  1.00 20.00     0.106 N 
HETATM    8  C6  UNL     1     -36.387  15.704  -4.499  1.00 20.00     0.274 C 
HETATM    9  C2  UNL     1     -37.137  14.462  -4.957  1.00 20.00     0.032 C 
HETATM   10  C3  UNL     1     -36.060  13.404  -5.179  1.00 20.00     0.032 C 
HETATM   11  C7  UNL     1     -34.747  14.097  -4.843  1.00 20.00     0.274 C 
ENDBRANCH   2   7
TORSDOF 2
ENDMDL
MODEL 4
REMARK VINA RESULT:      -4.0     11.135     12.548
REMARK  2 active torsions:
REMARK  status: ('A' for Active; 'I' for Inactive)
REMARK    1  A    between atoms: C8_8  and  C9_9 
REMARK    2  A    between atoms: C9_9  and  N11_11 
ROOT
HETATM    1  C1  UNL     1     -33.289   5.340   2.802  1.00 20.00     0.096 C 
HETATM    2  C9  UNL     1     -33.840   6.451   3.588  1.00 20.00     0.332 C 
HETATM    3  N10 UNL     1     -32.856   4.463   2.179  1.00 20.00    -0.195 NA
ENDROOT
BRANCH   2   4
HETATM    4  C8  UNL     1     -33.594   6.243   5.077  1.00 20.00     0.033 A 
HETATM    5  C4  UNL     1     -34.008   7.296   6.068  1.00 20.00     0.008 A 
HETATM    6  C5  UNL     1     -34.748   5.988   6.007  1.00 20.00     0.008 A 
ENDBRANCH   2   4
BRANCH   2   7
HETATM    7  N11 UNL     1     -33.253   7.719   3.142  1.00 20.00     0.106 N 
HETATM    8  C6  UNL     1     -31.822   7.767   3.447  1.00 20.00     0.274 C 
HETATM    9  C2  UNL     1     -31.316   8.877   2.537  1.00 20.00     0.032 C 
HETATM   10  C3  UNL     1     -32.311   8.931   1.381  1.00 20.00     0.032 C 
HETATM   11  C7  UNL     1     -33.333   7.845   1.685  1.00 20.00     0.274 C 
ENDBRANCH   2   7
TORSDOF 2
ENDMDL
MODEL 5
REMARK VINA RESULT:      -4.0      1.168      1.326
REMARK  2 active torsions:
REMARK  status: ('A' for Active; 'I' for Inactive)
REMARK    1  A    between atoms: C8_8  and  C9_9 
REMARK    2  A    between atoms: C9_9  and  N11_11 
ROOT
HETATM    1  C1  UNL     1     -34.667  14.679  -4.041  1.00 20.00     0.096 C 
HETATM    2  C9  UNL     1     -34.748  16.120  -3.770  1.00 20.00     0.332 C 
HETATM    3  N10 UNL     1     -34.605  13.540  -4.255  1.00 20.00    -0.195 NA
ENDROOT
BRANCH   2   4
HETATM    4  C8  UNL     1     -33.666  16.555  -2.791  1.00 20.00     0.033 A 
HETATM    5  C4  UNL     1     -33.406  18.016  -2.549  1.00 20.00     0.008 A 
HETATM    6  C5  UNL     1     -34.043  17.178  -1.474  1.00 20.00     0.008 A 
ENDBRANCH   2   4
BRANCH   2   7
HETATM    7  N11 UNL     1     -34.638  16.871  -5.026  1.00 20.00     0.106 N 
HETATM    8  C6  UNL     1     -33.522  16.376  -5.833  1.00 20.00     0.274 C 
HETATM    9  C2  UNL     1     -33.840  16.914  -7.221  1.00 20.00     0.032 C 
HETATM   10  C3  UNL     1     -35.353  17.112  -7.236  1.00 20.00     0.032 C 
HETATM   11  C7  UNL     1     -35.825  16.670  -5.858  1.00 20.00     0.274 C 
ENDBRANCH   2   7
TORSDOF 2
ENDMDL
MODEL 6
REMARK VINA RESULT:      -4.0      1.431      3.868
REMARK  2 active torsions:
REMARK  status: ('A' for Active; 'I' for Inactive)
REMARK    1  A    between atoms: C8_8  and  C9_9 
REMARK    2  A    between atoms: C9_9  and  N11_11 
ROOT
HETATM    1  C1  UNL     1     -37.013  14.238  -5.141  1.00 20.00     0.096 C 
HETATM    2  C9  UNL     1     -35.584  14.515  -5.331  1.00 20.00     0.332 C 
HETATM    3  N10 UNL     1     -38.141  14.016  -4.989  1.00 20.00    -0.195 NA
ENDROOT
BRANCH   2   4
HETATM    4  C8  UNL     1     -35.261  14.742  -6.802  1.00 20.00     0.033 A 
HETATM    5  C4  UNL     1     -33.886  15.188  -7.216  1.00 20.00     0.008 A 
HETATM    6  C5  UNL     1     -34.350  13.793  -7.532  1.00 20.00     0.008 A 
ENDBRANCH   2   4
BRANCH   2   7
HETATM    7  N11 UNL     1     -35.191  15.682  -4.532  1.00 20.00     0.106 N 
HETATM    8  C6  UNL     1     -36.212  15.998  -3.533  1.00 20.00     0.274 C 
HETATM    9  C2  UNL     1     -35.462  16.878  -2.544  1.00 20.00     0.032 C 
HETATM   10  C3  UNL     1     -33.995  16.487  -2.695  1.00 20.00     0.032 C 
HETATM   11  C7  UNL     1     -33.981  15.398  -3.758  1.00 20.00     0.274 C 
ENDBRANCH   2   7
TORSDOF 2
ENDMDL
MODEL 7
REMARK VINA RESULT:      -4.0      1.723      2.007
REMARK  2 active torsions:
REMARK  status: ('A' for Active; 'I' for Inactive)
REMARK    1  A    between atoms: C8_8  and  C9_9 
REMARK    2  A    between atoms: C9_9  and  N11_11 
ROOT
HETATM    1  C1  UNL     1     -36.606  15.841  -3.834  1.00 20.00     0.096 C 
HETATM    2  C9  UNL     1     -35.598  16.820  -3.407  1.00 20.00     0.332 C 
HETATM    3  N10 UNL     1     -37.403  15.070  -4.174  1.00 20.00    -0.195 NA
ENDROOT
BRANCH   2   4
HETATM    4  C8  UNL     1     -35.029  16.457  -2.041  1.00 20.00     0.033 A 
HETATM    5  C4  UNL     1     -34.007  17.345  -1.386  1.00 20.00     0.008 A 
HETATM    6  C5  UNL     1     -35.401  17.263  -0.827  1.00 20.00     0.008 A 
ENDBRANCH   2   4
BRANCH   2   7
HETATM    7  N11 UNL     1     -34.527  16.904  -4.405  1.00 20.00     0.106 N 
HETATM    8  C6  UNL     1     -33.892  15.600  -4.600  1.00 20.00     0.274 C 
HETATM    9  C2  UNL     1     -33.178  15.763  -5.934  1.00 20.00     0.032 C 
HETATM   10  C3  UNL     1     -33.947  16.857  -6.667  1.00 20.00     0.032 C 
HETATM   11  C7  UNL     1     -35.067  17.260  -5.719  1.00 20.00     0.274 C 
ENDBRANCH   2   7
TORSDOF 2
ENDMDL
MODEL 8
REMARK VINA RESULT:      -3.9      2.613      4.561
REMARK  2 active torsions:
REMARK  status: ('A' for Active; 'I' for Inactive)
REMARK    1  A    between atoms: C8_8  and  C9_9 
REMARK    2  A    between atoms: C9_9  and  N11_11 
ROOT
HETATM    1  C1  UNL     1     -36.291  17.368  -3.979  1.00 20.00     0.096 C 
HETATM    2  C9  UNL     1     -35.776  16.106  -3.433  1.00 20.00     0.332 C 
HETATM    3  N10 UNL     1     -36.700  18.365  -4.407  1.00 20.00    -0.195 NA
ENDROOT
BRANCH   2   4
HETATM    4  C8  UNL     1     -35.134  15.260  -4.525  1.00 20.00     0.033 A 
HETATM    5  C4  UNL     1     -34.366  14.017  -4.167  1.00 20.00     0.008 A 
HETATM    6  C5  UNL     1     -35.695  13.905  -4.861  1.00 20.00     0.008 A 
ENDBRANCH   2   4
BRANCH   2   7
HETATM    7  N11 UNL     1     -34.813  16.380  -2.361  1.00 20.00     0.106 N 
HETATM    8  C6  UNL     1     -33.739  17.253  -2.837  1.00 20.00     0.274 C 
HETATM    9  C2  UNL     1     -33.136  17.788  -1.545  1.00 20.00     0.032 C 
HETATM   10  C3  UNL     1     -34.257  17.696  -0.515  1.00 20.00     0.032 C 
HETATM   11  C7  UNL     1     -35.447  17.121  -1.270  1.00 20.00     0.274 C 
ENDBRANCH   2   7
TORSDOF 2
ENDMDL
MODEL 9
REMARK VINA RESULT:      -3.8      1.405      3.858
REMARK  2 active torsions:
REMARK  status: ('A' for Active; 'I' for Inactive)
REMARK    1  A    between atoms: C8_8  and  C9_9 
REMARK    2  A    between atoms: C9_9  and  N11_11 
ROOT
HETATM    1  C1  UNL     1     -35.804  13.930  -5.511  1.00 20.00     0.096 C 
HETATM    2  C9  UNL     1     -35.758  15.342  -5.909  1.00 20.00     0.332 C 
HETATM    3  N10 UNL     1     -35.837  12.814  -5.196  1.00 20.00    -0.195 NA
ENDROOT
BRANCH   2   4
HETATM    4  C8  UNL     1     -37.125  15.823  -6.380  1.00 20.00     0.033 A 
HETATM    5  C4  UNL     1     -37.301  17.227  -6.888  1.00 20.00     0.008 A 
HETATM    6  C5  UNL     1     -37.379  16.068  -7.842  1.00 20.00     0.008 A 
ENDBRANCH   2   4
BRANCH   2   7
HETATM    7  N11 UNL     1     -35.282  16.163  -4.790  1.00 20.00     0.106 N 
HETATM    8  C6  UNL     1     -36.104  15.947  -3.599  1.00 20.00     0.274 C 
HETATM    9  C2  UNL     1     -35.224  16.479  -2.476  1.00 20.00     0.032 C 
HETATM   10  C3  UNL     1     -33.796  16.363  -3.000  1.00 20.00     0.032 C 
HETATM   11  C7  UNL     1     -33.929  15.766  -4.393  1.00 20.00     0.274 C 
ENDBRANCH   2   7
TORSDOF 2
ENDMDL
