MODEL 1
REMARK VINA RESULT:      -4.4      0.000      0.000
REMARK  0 active torsions:
REMARK  status: ('A' for Active; 'I' for Inactive)
ROOT
HETATM    1  C1  UNL     1     -35.795  13.848  -4.989  1.00 20.00     0.064 C 
HETATM    2  C2  UNL     1     -34.445  15.412  -3.617  1.00 20.00     0.045 C 
HETATM    3  C3  UNL     1     -35.541  16.213  -5.734  1.00 20.00     0.056 C 
HETATM    4  C4  UNL     1     -33.125  15.421  -4.376  1.00 20.00     0.170 C 
HETATM    5  C5  UNL     1     -35.646  15.245  -4.549  1.00 20.00     0.097 C 
HETATM    6  C6  UNL     1     -34.141  16.291  -6.386  1.00 20.00     0.055 C 
HETATM    7  C7  UNL     1     -33.842  15.102  -7.312  1.00 20.00     0.045 C 
HETATM    8  C8  UNL     1     -34.062  17.572  -7.234  1.00 20.00     0.045 C 
HETATM    9  N9  UNL     1     -35.915  12.747  -5.337  1.00 20.00    -0.197 NA
HETATM   10  O10 UNL     1     -33.119  16.424  -5.388  1.00 20.00    -0.381 OA
ENDROOT
TORSDOF 0
ENDMDL
MODEL 2
REMARK VINA RESULT:      -4.3      1.259      1.904
REMARK  0 active torsions:
REMARK  status: ('A' for Active; 'I' for Inactive)
ROOT
HETATM    1  C1  UNL     1     -35.279  13.654  -4.704  1.00 20.00     0.064 C 
HETATM    2  C2  UNL     1     -33.069  14.770  -4.538  1.00 20.00     0.045 C 
HETATM    3  C3  UNL     1     -35.130  15.910  -3.655  1.00 20.00     0.056 C 
HETATM    4  C4  UNL     1     -33.125  15.731  -5.718  1.00 20.00     0.170 C 
HETATM    5  C5  UNL     1     -34.443  14.561  -3.899  1.00 20.00     0.097 C 
HETATM    6  C6  UNL     1     -35.040  16.907  -4.833  1.00 20.00     0.055 C 
HETATM    7  C7  UNL     1     -36.029  16.592  -5.964  1.00 20.00     0.045 C 
HETATM    8  C8  UNL     1     -35.363  18.318  -4.311  1.00 20.00     0.045 C 
HETATM    9  N9  UNL     1     -35.938  12.939  -5.337  1.00 20.00    -0.197 NA
HETATM   10  O10 UNL     1     -33.699  16.980  -5.339  1.00 20.00    -0.381 OA
ENDROOT
TORSDOF 0
ENDMDL
MODEL 3
REMARK VINA RESULT:      -4.2      1.253      2.927
REMARK  0 active torsions:
REMARK  status: ('A' for Active; 'I' for Inactive)
ROOT
HETATM    1  C1  UNL     1     -35.060  13.682  -5.283  1.00 20.00     0.064 C 
HETATM    2  C2  UNL     1     -33.958  15.624  -6.364  1.00 20.00     0.045 C 
HETATM    3  C3  UNL     1     -33.490  15.086  -3.952  1.00 20.00     0.056 C 
HETATM    4  C4  UNL     1     -34.821  16.777  -5.869  1.00 20.00     0.170 C 
HETATM    5  C5  UNL     1     -33.840  14.506  -5.327  1.00 20.00     0.097 C 
HETATM    6  C6  UNL     1     -34.298  16.343  -3.552  1.00 20.00     0.055 C 
HETATM    7  C7  UNL     1     -35.718  16.015  -3.068  1.00 20.00     0.045 C 
HETATM    8  C8  UNL     1     -33.567  17.055  -2.402  1.00 20.00     0.045 C 
HETATM    9  N9  UNL     1     -36.020  13.032  -5.248  1.00 20.00    -0.197 NA
HETATM   10  O10 UNL     1     -34.337  17.289  -4.630  1.00 20.00    -0.381 OA
ENDROOT
TORSDOF 0
ENDMDL
MODEL 4
REMARK VINA RESULT:      -4.2      1.790      2.097
REMARK  0 active torsions:
REMARK  status: ('A' for Active; 'I' for Inactive)
ROOT
HETATM    1  C1  UNL     1     -37.417  14.779  -4.995  1.00 20.00     0.064 C 
HETATM    2  C2  UNL     1     -35.213  15.297  -3.981  1.00 20.00     0.045 C 
HETATM    3  C3  UNL     1     -35.558  15.560  -6.458  1.00 20.00     0.056 C 
HETATM    4  C4  UNL     1     -34.430  14.028  -4.293  1.00 20.00     0.170 C 
HETATM    5  C5  UNL     1     -36.222  15.636  -5.078  1.00 20.00     0.097 C 
HETATM    6  C6  UNL     1     -34.659  14.321  -6.679  1.00 20.00     0.055 C 
HETATM    7  C7  UNL     1     -35.457  13.044  -6.978  1.00 20.00     0.045 C 
HETATM    8  C8  UNL     1     -33.738  14.587  -7.882  1.00 20.00     0.045 C 
HETATM    9  N9  UNL     1     -38.359  14.105  -4.929  1.00 20.00    -0.197 NA
HETATM   10  O10 UNL     1     -33.783  14.120  -5.560  1.00 20.00    -0.381 OA
ENDROOT
TORSDOF 0
ENDMDL
MODEL 5
REMARK VINA RESULT:      -4.1      1.440      2.960
REMARK  0 active torsions:
REMARK  status: ('A' for Active; 'I' for Inactive)
ROOT
HETATM    1  C1  UNL     1     -36.769  14.015  -5.147  1.00 20.00     0.064 C 
HETATM    2  C2  UNL     1     -34.950  15.111  -6.428  1.00 20.00     0.045 C 
HETATM    3  C3  UNL     1     -34.666  14.653  -3.971  1.00 20.00     0.056 C 
HETATM    4  C4  UNL     1     -35.160  16.575  -6.062  1.00 20.00     0.170 C 
HETATM    5  C5  UNL     1     -35.311  14.172  -5.277  1.00 20.00     0.097 C 
HETATM    6  C6  UNL     1     -34.785  16.172  -3.710  1.00 20.00     0.055 C 
HETATM    7  C7  UNL     1     -36.171  16.588  -3.196  1.00 20.00     0.045 C 
HETATM    8  C8  UNL     1     -33.753  16.572  -2.642  1.00 20.00     0.045 C 
HETATM    9  N9  UNL     1     -37.919  13.891  -5.043  1.00 20.00    -0.197 NA
HETATM   10  O10 UNL     1     -34.435  16.920  -4.884  1.00 20.00    -0.381 OA
ENDROOT
TORSDOF 0
ENDMDL
MODEL 6
REMARK VINA RESULT:      -4.0      2.440      3.306
REMARK  0 active torsions:
REMARK  status: ('A' for Active; 'I' for Inactive)
ROOT
HETATM    1  C1  UNL     1     -33.677  17.020  -5.314  1.00 20.00     0.064 C 
HETATM    2  C2  UNL     1     -33.093  14.781  -4.421  1.00 20.00     0.045 C 
HETATM    3  C3  UNL     1     -33.770  15.044  -6.829  1.00 20.00     0.056 C 
HETATM    4  C4  UNL     1     -34.472  14.186  -4.168  1.00 20.00     0.170 C 
HETATM    5  C5  UNL     1     -33.080  15.713  -5.633  1.00 20.00     0.097 C 
HETATM    6  C6  UNL     1     -35.101  14.331  -6.495  1.00 20.00     0.055 C 
HETATM    7  C7  UNL     1     -36.281  15.302  -6.340  1.00 20.00     0.045 C 
HETATM    8  C8  UNL     1     -35.443  13.363  -7.640  1.00 20.00     0.045 C 
HETATM    9  N9  UNL     1     -34.146  18.052  -5.063  1.00 20.00    -0.197 NA
HETATM   10  O10 UNL     1     -34.963  13.513  -5.325  1.00 20.00    -0.381 OA
ENDROOT
TORSDOF 0
ENDMDL
MODEL 7
REMARK VINA RESULT:      -3.9      3.272      4.289
REMARK  0 active torsions:
REMARK  status: ('A' for Active; 'I' for Inactive)
ROOT
HETATM    1  C1  UNL     1     -33.193  18.255  -2.794  1.00 20.00     0.064 C 
HETATM    2  C2  UNL     1     -34.896  17.157  -1.363  1.00 20.00     0.045 C 
HETATM    3  C3  UNL     1     -33.858  15.903  -3.280  1.00 20.00     0.056 C 
HETATM    4  C4  UNL     1     -36.147  17.296  -2.219  1.00 20.00     0.170 C 
HETATM    5  C5  UNL     1     -33.635  16.978  -2.210  1.00 20.00     0.097 C 
HETATM    6  C6  UNL     1     -35.208  16.003  -4.029  1.00 20.00     0.055 C 
HETATM    7  C7  UNL     1     -35.218  17.098  -5.106  1.00 20.00     0.045 C 
HETATM    8  C8  UNL     1     -35.485  14.661  -4.727  1.00 20.00     0.045 C 
HETATM    9  N9  UNL     1     -32.843  19.261  -3.255  1.00 20.00    -0.197 NA
HETATM   10  O10 UNL     1     -36.291  16.190  -3.106  1.00 20.00    -0.381 OA
ENDROOT
TORSDOF 0
ENDMDL
MODEL 8
REMARK VINA RESULT:      -3.8      1.327      2.997
REMARK  0 active torsions:
REMARK  status: ('A' for Active; 'I' for Inactive)
ROOT
HETATM    1  C1  UNL     1     -34.299  13.971  -6.854  1.00 20.00     0.064 C 
HETATM    2  C2  UNL     1     -34.510  16.396  -7.328  1.00 20.00     0.045 C 
HETATM    3  C3  UNL     1     -33.155  15.607  -5.362  1.00 20.00     0.056 C 
HETATM    4  C4  UNL     1     -35.588  16.808  -6.335  1.00 20.00     0.170 C 
HETATM    5  C5  UNL     1     -33.622  15.276  -6.785  1.00 20.00     0.097 C 
HETATM    6  C6  UNL     1     -34.258  16.154  -4.428  1.00 20.00     0.055 C 
HETATM    7  C7  UNL     1     -35.185  15.057  -3.884  1.00 20.00     0.045 C 
HETATM    8  C8  UNL     1     -33.590  16.838  -3.223  1.00 20.00     0.045 C 
HETATM    9  N9  UNL     1     -34.832  12.941  -6.908  1.00 20.00    -0.197 NA
HETATM   10  O10 UNL     1     -35.019  17.180  -5.082  1.00 20.00    -0.381 OA
ENDROOT
TORSDOF 0
ENDMDL
MODEL 9
REMARK VINA RESULT:      -3.8      2.119      3.107
REMARK  0 active torsions:
REMARK  status: ('A' for Active; 'I' for Inactive)
ROOT
HETATM    1  C1  UNL     1     -36.544  16.365  -5.187  1.00 20.00     0.064 C 
HETATM    2  C2  UNL     1     -36.582  13.887  -5.291  1.00 20.00     0.045 C 
HETATM    3  C3  UNL     1     -34.820  15.068  -3.939  1.00 20.00     0.056 C 
HETATM    4  C4  UNL     1     -35.503  13.610  -6.329  1.00 20.00     0.170 C 
HETATM    5  C5  UNL     1     -36.266  15.123  -4.447  1.00 20.00     0.097 C 
HETATM    6  C6  UNL     1     -33.776  14.646  -4.998  1.00 20.00     0.055 C 
HETATM    7  C7  UNL     1     -33.408  15.780  -5.966  1.00 20.00     0.045 C 
HETATM    8  C8  UNL     1     -32.488  14.214  -4.276  1.00 20.00     0.045 C 
HETATM    9  N9  UNL     1     -36.763  17.345  -5.769  1.00 20.00    -0.197 NA
HETATM   10  O10 UNL     1     -34.220  13.489  -5.721  1.00 20.00    -0.381 OA
ENDROOT
TORSDOF 0
ENDMDL
