MODEL 1
REMARK VINA RESULT:      -4.9      0.000      0.000
REMARK  1 active torsions:
REMARK  status: ('A' for Active; 'I' for Inactive)
REMARK    1  A    between atoms: C11_11  and  C12_12 
ROOT
HETATM    1  C1  UNL     1     -34.654  17.725  -5.216  1.00 20.00     0.009 C 
HETATM    2  C2  UNL     1     -33.608  16.289  -3.446  1.00 20.00     0.009 C 
HETATM    3  C3  UNL     1     -36.093  16.256  -3.781  1.00 20.00     0.009 C 
HETATM    4  C4  UNL     1     -33.271  15.738  -5.869  1.00 20.00     0.017 C 
HETATM    5  C5  UNL     1     -35.762  15.705  -6.205  1.00 20.00     0.017 C 
HETATM    6  C6  UNL     1     -34.714  14.265  -4.432  1.00 20.00     0.017 C 
HETATM    7  C8  UNL     1     -33.420  16.882  -4.852  1.00 20.00    -0.013 C 
HETATM    8  C9  UNL     1     -35.917  16.849  -5.188  1.00 20.00    -0.013 C 
HETATM    9  C10 UNL     1     -34.866  15.406  -3.411  1.00 20.00    -0.013 C 
HETATM   10  C12 UNL     1     -34.529  14.837  -5.857  1.00 20.00    -0.011 C 
ENDROOT
BRANCH  10  11
HETATM   11  C11 UNL     1     -34.379  13.713  -6.857  1.00 20.00     0.153 A 
HETATM   12  C7  UNL     1     -35.541  13.261  -7.698  1.00 20.00     0.201 A 
HETATM   13  O13 UNL     1     -35.117  12.529  -6.536  1.00 20.00    -0.380 OA
ENDBRANCH  10  11
TORSDOF 1
ENDMDL
MODEL 2
REMARK VINA RESULT:      -4.9      0.035      2.085
REMARK  1 active torsions:
REMARK  status: ('A' for Active; 'I' for Inactive)
REMARK    1  A    between atoms: C11_11  and  C12_12 
ROOT
HETATM    1  C1  UNL     1     -36.093  16.299  -3.777  1.00 20.00     0.009 C 
HETATM    2  C2  UNL     1     -34.631  17.751  -5.205  1.00 20.00     0.009 C 
HETATM    3  C3  UNL     1     -33.610  16.305  -3.428  1.00 20.00     0.009 C 
HETATM    4  C4  UNL     1     -35.755  15.742  -6.198  1.00 20.00     0.017 C 
HETATM    5  C5  UNL     1     -34.732  14.293  -4.417  1.00 20.00     0.017 C 
HETATM    6  C6  UNL     1     -33.266  15.747  -5.849  1.00 20.00     0.017 C 
HETATM    7  C8  UNL     1     -35.903  16.888  -5.184  1.00 20.00    -0.013 C 
HETATM    8  C9  UNL     1     -34.878  15.436  -3.398  1.00 20.00    -0.013 C 
HETATM    9  C10 UNL     1     -33.408  16.895  -4.834  1.00 20.00    -0.013 C 
HETATM   10  C12 UNL     1     -34.534  14.861  -5.843  1.00 20.00    -0.011 C 
ENDROOT
BRANCH  10  11
HETATM   11  C11 UNL     1     -34.390  13.735  -6.841  1.00 20.00     0.153 A 
HETATM   12  C7  UNL     1     -35.562  13.266  -7.658  1.00 20.00     0.201 A 
HETATM   13  O13 UNL     1     -35.108  12.543  -6.502  1.00 20.00    -0.380 OA
ENDBRANCH  10  11
TORSDOF 1
ENDMDL
MODEL 3
REMARK VINA RESULT:      -4.9      0.040      2.085
REMARK  1 active torsions:
REMARK  status: ('A' for Active; 'I' for Inactive)
REMARK    1  A    between atoms: C11_11  and  C12_12 
ROOT
HETATM    1  C1  UNL     1     -33.616  16.325  -3.424  1.00 20.00     0.009 C 
HETATM    2  C2  UNL     1     -36.102  16.265  -3.746  1.00 20.00     0.009 C 
HETATM    3  C3  UNL     1     -34.686  17.747  -5.191  1.00 20.00     0.009 C 
HETATM    4  C4  UNL     1     -34.705  14.288  -4.399  1.00 20.00     0.017 C 
HETATM    5  C5  UNL     1     -33.285  15.772  -5.847  1.00 20.00     0.017 C 
HETATM    6  C6  UNL     1     -35.777  15.712  -6.171  1.00 20.00     0.017 C 
HETATM    7  C8  UNL     1     -34.865  15.429  -3.380  1.00 20.00    -0.013 C 
HETATM    8  C9  UNL     1     -33.442  16.918  -4.832  1.00 20.00    -0.013 C 
HETATM    9  C10 UNL     1     -35.940  16.857  -5.156  1.00 20.00    -0.013 C 
HETATM   10  C12 UNL     1     -34.533  14.858  -5.827  1.00 20.00    -0.011 C 
ENDROOT
BRANCH  10  11
HETATM   11  C11 UNL     1     -34.377  13.734  -6.826  1.00 20.00     0.153 A 
HETATM   12  C7  UNL     1     -35.534  13.279  -7.671  1.00 20.00     0.201 A 
HETATM   13  O13 UNL     1     -35.113  12.548  -6.507  1.00 20.00    -0.380 OA
ENDBRANCH  10  11
TORSDOF 1
ENDMDL
MODEL 4
REMARK VINA RESULT:      -4.8      1.159      1.639
REMARK  1 active torsions:
REMARK  status: ('A' for Active; 'I' for Inactive)
REMARK    1  A    between atoms: C11_11  and  C12_12 
ROOT
HETATM    1  C1  UNL     1     -36.105  17.758  -4.122  1.00 20.00     0.009 C 
HETATM    2  C2  UNL     1     -33.607  17.773  -3.911  1.00 20.00     0.009 C 
HETATM    3  C3  UNL     1     -35.000  16.540  -2.229  1.00 20.00     0.009 C 
HETATM    4  C4  UNL     1     -34.701  16.486  -5.765  1.00 20.00     0.017 C 
HETATM    5  C5  UNL     1     -36.097  15.250  -4.080  1.00 20.00     0.017 C 
HETATM    6  C6  UNL     1     -33.593  15.265  -3.868  1.00 20.00     0.017 C 
HETATM    7  C8  UNL     1     -34.781  17.758  -4.904  1.00 20.00    -0.013 C 
HETATM    8  C9  UNL     1     -36.181  16.520  -3.214  1.00 20.00    -0.013 C 
HETATM    9  C10 UNL     1     -33.670  16.534  -3.002  1.00 20.00    -0.013 C 
HETATM   10  C12 UNL     1     -34.769  15.224  -4.873  1.00 20.00    -0.011 C 
ENDROOT
BRANCH  10  11
HETATM   11  C11 UNL     1     -34.690  13.976  -5.722  1.00 20.00     0.153 A 
HETATM   12  C7  UNL     1     -35.847  13.544  -6.580  1.00 20.00     0.201 A 
HETATM   13  O13 UNL     1     -35.569  12.922  -5.315  1.00 20.00    -0.380 OA
ENDBRANCH  10  11
TORSDOF 1
ENDMDL
MODEL 5
REMARK VINA RESULT:      -4.8      1.232      1.673
REMARK  1 active torsions:
REMARK  status: ('A' for Active; 'I' for Inactive)
REMARK    1  A    between atoms: C11_11  and  C12_12 
ROOT
HETATM    1  C1  UNL     1     -33.619  17.839  -3.852  1.00 20.00     0.009 C 
HETATM    2  C2  UNL     1     -34.963  16.625  -2.118  1.00 20.00     0.009 C 
HETATM    3  C3  UNL     1     -36.123  17.840  -3.980  1.00 20.00     0.009 C 
HETATM    4  C4  UNL     1     -33.619  15.333  -3.795  1.00 20.00     0.017 C 
HETATM    5  C5  UNL     1     -34.781  16.550  -5.661  1.00 20.00     0.017 C 
HETATM    6  C6  UNL     1     -36.129  15.332  -3.924  1.00 20.00     0.017 C 
HETATM    7  C8  UNL     1     -33.660  16.606  -2.934  1.00 20.00    -0.013 C 
HETATM    8  C9  UNL     1     -34.826  17.827  -4.805  1.00 20.00    -0.013 C 
HETATM    9  C10 UNL     1     -36.176  16.606  -3.063  1.00 20.00    -0.013 C 
HETATM   10  C12 UNL     1     -34.827  15.293  -4.760  1.00 20.00    -0.011 C 
ENDROOT
BRANCH  10  11
HETATM   11  C11 UNL     1     -34.785  14.040  -5.605  1.00 20.00     0.153 A 
HETATM   12  C7  UNL     1     -35.995  13.574  -6.366  1.00 20.00     0.201 A 
HETATM   13  O13 UNL     1     -35.604  12.969  -5.123  1.00 20.00    -0.380 OA
ENDBRANCH  10  11
TORSDOF 1
ENDMDL
MODEL 6
REMARK VINA RESULT:      -4.8      1.197      2.677
REMARK  1 active torsions:
REMARK  status: ('A' for Active; 'I' for Inactive)
REMARK    1  A    between atoms: C11_11  and  C12_12 
ROOT
HETATM    1  C1  UNL     1     -35.090  16.557  -2.149  1.00 20.00     0.009 C 
HETATM    2  C2  UNL     1     -36.138  17.818  -4.046  1.00 20.00     0.009 C 
HETATM    3  C3  UNL     1     -33.643  17.784  -3.789  1.00 20.00     0.009 C 
HETATM    4  C4  UNL     1     -36.175  15.311  -4.035  1.00 20.00     0.017 C 
HETATM    5  C5  UNL     1     -33.675  15.277  -3.777  1.00 20.00     0.017 C 
HETATM    6  C6  UNL     1     -34.725  16.540  -5.678  1.00 20.00     0.017 C 
HETATM    7  C8  UNL     1     -36.252  16.570  -3.155  1.00 20.00    -0.013 C 
HETATM    8  C9  UNL     1     -33.746  16.537  -2.896  1.00 20.00    -0.013 C 
HETATM    9  C10 UNL     1     -34.799  17.803  -4.803  1.00 20.00    -0.013 C 
HETATM   10  C12 UNL     1     -34.833  15.269  -4.803  1.00 20.00    -0.011 C 
ENDROOT
BRANCH  10  11
HETATM   11  C11 UNL     1     -34.760  14.030  -5.667  1.00 20.00     0.153 A 
HETATM   12  C7  UNL     1     -35.934  13.593  -6.500  1.00 20.00     0.201 A 
HETATM   13  O13 UNL     1     -35.617  12.962  -5.248  1.00 20.00    -0.380 OA
ENDBRANCH  10  11
TORSDOF 1
ENDMDL
MODEL 7
REMARK VINA RESULT:      -4.7      1.539      2.903
REMARK  1 active torsions:
REMARK  status: ('A' for Active; 'I' for Inactive)
REMARK    1  A    between atoms: C11_11  and  C12_12 
ROOT
HETATM    1  C1  UNL     1     -34.133  16.123  -3.126  1.00 20.00     0.009 C 
HETATM    2  C2  UNL     1     -34.089  17.596  -5.155  1.00 20.00     0.009 C 
HETATM    3  C3  UNL     1     -32.906  15.384  -5.184  1.00 20.00     0.009 C 
HETATM    4  C4  UNL     1     -36.216  16.452  -4.482  1.00 20.00     0.017 C 
HETATM    5  C5  UNL     1     -35.032  14.236  -4.511  1.00 20.00     0.017 C 
HETATM    6  C6  UNL     1     -34.988  15.711  -6.545  1.00 20.00     0.017 C 
HETATM    7  C8  UNL     1     -34.939  17.132  -3.961  1.00 20.00    -0.013 C 
HETATM    8  C9  UNL     1     -33.751  14.910  -3.990  1.00 20.00    -0.013 C 
HETATM    9  C10 UNL     1     -33.706  16.390  -6.029  1.00 20.00    -0.013 C 
HETATM   10  C12 UNL     1     -35.859  15.230  -5.360  1.00 20.00    -0.011 C 
ENDROOT
BRANCH  10  11
HETATM   11  C11 UNL     1     -37.116  14.565  -5.871  1.00 20.00     0.153 A 
HETATM   12  C7  UNL     1     -38.458  14.867  -5.263  1.00 20.00     0.201 A 
HETATM   13  O13 UNL     1     -37.734  13.667  -4.942  1.00 20.00    -0.380 OA
ENDBRANCH  10  11
TORSDOF 1
ENDMDL
MODEL 8
REMARK VINA RESULT:      -4.7      1.551      2.587
REMARK  1 active torsions:
REMARK  status: ('A' for Active; 'I' for Inactive)
REMARK    1  A    between atoms: C11_11  and  C12_12 
ROOT
HETATM    1  C1  UNL     1     -32.934  15.445  -5.235  1.00 20.00     0.009 C 
HETATM    2  C2  UNL     1     -34.048  16.190  -3.116  1.00 20.00     0.009 C 
HETATM    3  C3  UNL     1     -34.033  17.696  -5.122  1.00 20.00     0.009 C 
HETATM    4  C4  UNL     1     -35.069  14.361  -4.493  1.00 20.00     0.017 C 
HETATM    5  C5  UNL     1     -35.055  15.869  -6.504  1.00 20.00     0.017 C 
HETATM    6  C6  UNL     1     -36.172  16.616  -4.380  1.00 20.00     0.017 C 
HETATM    7  C8  UNL     1     -33.746  14.980  -4.015  1.00 20.00    -0.013 C 
HETATM    8  C9  UNL     1     -33.730  16.493  -6.030  1.00 20.00    -0.013 C 
HETATM    9  C10 UNL     1     -34.850  17.242  -3.901  1.00 20.00    -0.013 C 
HETATM   10  C12 UNL     1     -35.894  15.398  -5.292  1.00 20.00    -0.011 C 
ENDROOT
BRANCH  10  11
HETATM   11  C11 UNL     1     -37.195  14.787  -5.761  1.00 20.00     0.153 A 
HETATM   12  C7  UNL     1     -38.435  14.853  -4.913  1.00 20.00     0.201 A 
HETATM   13  O13 UNL     1     -37.635  13.662  -4.991  1.00 20.00    -0.380 OA
ENDBRANCH  10  11
TORSDOF 1
ENDMDL
MODEL 9
REMARK VINA RESULT:      -4.7      1.558      2.233
REMARK  1 active torsions:
REMARK  status: ('A' for Active; 'I' for Inactive)
REMARK    1  A    between atoms: C11_11  and  C12_12 
ROOT
HETATM    1  C1  UNL     1     -34.120  17.692  -5.087  1.00 20.00     0.009 C 
HETATM    2  C2  UNL     1     -32.978  15.462  -5.195  1.00 20.00     0.009 C 
HETATM    3  C3  UNL     1     -34.133  16.179  -3.087  1.00 20.00     0.009 C 
HETATM    4  C4  UNL     1     -35.090  15.853  -6.488  1.00 20.00     0.017 C 
HETATM    5  C5  UNL     1     -36.248  16.572  -4.376  1.00 20.00     0.017 C 
HETATM    6  C6  UNL     1     -35.105  14.337  -4.484  1.00 20.00     0.017 C 
HETATM    7  C8  UNL     1     -33.784  16.497  -5.996  1.00 20.00    -0.013 C 
HETATM    8  C9  UNL     1     -34.943  17.219  -3.878  1.00 20.00    -0.013 C 
HETATM    9  C10 UNL     1     -33.797  14.978  -3.987  1.00 20.00    -0.013 C 
HETATM   10  C12 UNL     1     -35.937  15.362  -5.290  1.00 20.00    -0.011 C 
ENDROOT
BRANCH  10  11
HETATM   11  C11 UNL     1     -37.220  14.729  -5.777  1.00 20.00     0.153 A 
HETATM   12  C7  UNL     1     -38.494  14.847  -4.987  1.00 20.00     0.201 A 
HETATM   13  O13 UNL     1     -37.698  13.652  -4.963  1.00 20.00    -0.380 OA
ENDBRANCH  10  11
TORSDOF 1
ENDMDL
