MODEL 1
REMARK VINA RESULT:      -4.5      0.000      0.000
REMARK  1 active torsions:
REMARK  status: ('A' for Active; 'I' for Inactive)
REMARK    1  A    between atoms: C5_5  and  C9_9 
ROOT
HETATM    1  C1  UNL     1     -34.816  14.084  -4.427  1.00 20.00     0.133 C 
HETATM    2  C2  UNL     1     -33.340  14.343  -4.635  1.00 20.00     0.093 C 
HETATM    3  C3  UNL     1     -35.612  15.077  -3.584  1.00 20.00     0.065 C 
HETATM    4  C4  UNL     1     -33.051  15.734  -5.194  1.00 20.00     0.050 C 
HETATM    5  C5  UNL     1     -34.706  16.148  -2.947  1.00 20.00     0.058 C 
HETATM    6  C6  UNL     1     -36.783  15.623  -4.405  1.00 20.00     0.019 C 
HETATM    7  C7  UNL     1     -33.534  15.883  -6.636  1.00 20.00     0.022 C 
HETATM    8  O10 UNL     1     -35.350  13.080  -4.903  1.00 20.00    -0.298 OA
HETATM    9  S11 UNL     1     -33.745  17.096  -4.184  1.00 20.00    -0.159 SA
ENDROOT
BRANCH   5  10
HETATM   10  C9  UNL     1     -35.476  17.135  -2.070  1.00 20.00     0.011 C 
HETATM   11  C8  UNL     1     -34.773  17.388  -0.777  1.00 20.00     0.006 C 
ENDBRANCH   5  10
TORSDOF 1
ENDMDL
MODEL 2
REMARK VINA RESULT:      -4.4      0.986      1.068
REMARK  1 active torsions:
REMARK  status: ('A' for Active; 'I' for Inactive)
REMARK    1  A    between atoms: C5_5  and  C9_9 
ROOT
HETATM    1  C1  UNL     1     -35.195  13.893  -5.015  1.00 20.00     0.133 C 
HETATM    2  C2  UNL     1     -33.917  14.127  -5.791  1.00 20.00     0.093 C 
HETATM    3  C3  UNL     1     -35.513  14.823  -3.847  1.00 20.00     0.065 C 
HETATM    4  C4  UNL     1     -33.790  15.557  -6.311  1.00 20.00     0.050 C 
HETATM    5  C5  UNL     1     -34.358  15.800  -3.558  1.00 20.00     0.058 C 
HETATM    6  C6  UNL     1     -36.877  15.478  -4.070  1.00 20.00     0.019 C 
HETATM    7  C7  UNL     1     -34.806  15.859  -7.412  1.00 20.00     0.022 C 
HETATM    8  O10 UNL     1     -35.941  12.955  -5.304  1.00 20.00    -0.298 OA
HETATM    9  S11 UNL     1     -33.923  16.836  -5.005  1.00 20.00    -0.159 SA
ENDROOT
BRANCH   5  10
HETATM   10  C9  UNL     1     -34.639  16.720  -2.371  1.00 20.00     0.011 C 
HETATM   11  C8  UNL     1     -33.388  17.355  -1.857  1.00 20.00     0.006 C 
ENDBRANCH   5  10
TORSDOF 1
ENDMDL
MODEL 3
REMARK VINA RESULT:      -4.3      1.747      2.034
REMARK  1 active torsions:
REMARK  status: ('A' for Active; 'I' for Inactive)
REMARK    1  A    between atoms: C5_5  and  C9_9 
ROOT
HETATM    1  C1  UNL     1     -36.904  14.264  -4.811  1.00 20.00     0.133 C 
HETATM    2  C2  UNL     1     -35.855  13.311  -5.341  1.00 20.00     0.093 C 
HETATM    3  C3  UNL     1     -36.438  15.495  -4.039  1.00 20.00     0.065 C 
HETATM    4  C4  UNL     1     -34.799  14.004  -6.200  1.00 20.00     0.050 C 
HETATM    5  C5  UNL     1     -34.916  15.485  -3.801  1.00 20.00     0.058 C 
HETATM    6  C6  UNL     1     -36.981  16.758  -4.711  1.00 20.00     0.019 C 
HETATM    7  C7  UNL     1     -35.375  14.499  -7.526  1.00 20.00     0.022 C 
HETATM    8  O10 UNL     1     -38.103  14.031  -4.976  1.00 20.00    -0.298 OA
HETATM    9  S11 UNL     1     -33.953  15.393  -5.356  1.00 20.00    -0.159 SA
ENDROOT
BRANCH   5  10
HETATM   10  C9  UNL     1     -34.429  16.691  -3.000  1.00 20.00     0.011 C 
HETATM   11  C8  UNL     1     -35.049  16.737  -1.641  1.00 20.00     0.006 C 
ENDBRANCH   5  10
TORSDOF 1
ENDMDL
MODEL 4
REMARK VINA RESULT:      -4.2      2.027      3.665
REMARK  1 active torsions:
REMARK  status: ('A' for Active; 'I' for Inactive)
REMARK    1  A    between atoms: C5_5  and  C9_9 
ROOT
HETATM    1  C1  UNL     1     -35.472  13.923  -5.378  1.00 20.00     0.133 C 
HETATM    2  C2  UNL     1     -35.055  14.678  -4.134  1.00 20.00     0.093 C 
HETATM    3  C3  UNL     1     -35.318  14.615  -6.729  1.00 20.00     0.065 C 
HETATM    4  C4  UNL     1     -33.622  15.201  -4.207  1.00 20.00     0.050 C 
HETATM    5  C5  UNL     1     -34.872  16.081  -6.579  1.00 20.00     0.058 C 
HETATM    6  C6  UNL     1     -34.438  13.760  -7.645  1.00 20.00     0.019 C 
HETATM    7  C7  UNL     1     -32.597  14.069  -4.164  1.00 20.00     0.022 C 
HETATM    8  O10 UNL     1     -35.952  12.791  -5.292  1.00 20.00    -0.298 OA
HETATM    9  S11 UNL     1     -33.292  16.255  -5.669  1.00 20.00    -0.159 SA
ENDROOT
BRANCH   5  10
HETATM   10  C9  UNL     1     -34.742  16.806  -7.918  1.00 20.00     0.011 C 
HETATM   11  C8  UNL     1     -34.090  18.141  -7.762  1.00 20.00     0.006 C 
ENDBRANCH   5  10
TORSDOF 1
ENDMDL
MODEL 5
REMARK VINA RESULT:      -4.1      1.908      3.124
REMARK  1 active torsions:
REMARK  status: ('A' for Active; 'I' for Inactive)
REMARK    1  A    between atoms: C5_5  and  C9_9 
ROOT
HETATM    1  C1  UNL     1     -34.281  14.345  -4.260  1.00 20.00     0.133 C 
HETATM    2  C2  UNL     1     -34.210  15.700  -3.589  1.00 20.00     0.093 C 
HETATM    3  C3  UNL     1     -35.612  13.908  -4.866  1.00 20.00     0.065 C 
HETATM    4  C4  UNL     1     -34.686  16.837  -4.490  1.00 20.00     0.050 C 
HETATM    5  C5  UNL     1     -36.742  14.906  -4.556  1.00 20.00     0.058 C 
HETATM    6  C6  UNL     1     -35.419  13.587  -6.350  1.00 20.00     0.019 C 
HETATM    7  C7  UNL     1     -33.726  17.087  -5.652  1.00 20.00     0.022 C 
HETATM    8  O10 UNL     1     -33.295  13.606  -4.288  1.00 20.00    -0.298 OA
HETATM    9  S11 UNL     1     -36.379  16.600  -5.150  1.00 20.00    -0.159 SA
ENDROOT
BRANCH   5  10
HETATM   10  C9  UNL     1     -38.094  14.473  -5.123  1.00 20.00     0.011 C 
HETATM   11  C8  UNL     1     -39.176  15.439  -4.768  1.00 20.00     0.006 C 
ENDBRANCH   5  10
TORSDOF 1
ENDMDL
MODEL 6
REMARK VINA RESULT:      -4.0      2.367      4.292
REMARK  1 active torsions:
REMARK  status: ('A' for Active; 'I' for Inactive)
REMARK    1  A    between atoms: C5_5  and  C9_9 
ROOT
HETATM    1  C1  UNL     1     -33.803  16.961  -2.255  1.00 20.00     0.133 C 
HETATM    2  C2  UNL     1     -35.106  16.920  -1.485  1.00 20.00     0.093 C 
HETATM    3  C3  UNL     1     -33.669  16.084  -3.496  1.00 20.00     0.065 C 
HETATM    4  C4  UNL     1     -36.325  17.198  -2.362  1.00 20.00     0.050 C 
HETATM    5  C5  UNL     1     -34.888  15.162  -3.684  1.00 20.00     0.058 C 
HETATM    6  C6  UNL     1     -33.323  16.956  -4.706  1.00 20.00     0.019 C 
HETATM    7  C7  UNL     1     -36.367  18.648  -2.841  1.00 20.00     0.022 C 
HETATM    8  O10 UNL     1     -32.867  17.664  -1.867  1.00 20.00    -0.298 OA
HETATM    9  S11 UNL     1     -36.466  16.083  -3.809  1.00 20.00    -0.159 SA
ENDROOT
BRANCH   5  10
HETATM   10  C9  UNL     1     -34.763  14.248  -4.903  1.00 20.00     0.011 C 
HETATM   11  C8  UNL     1     -36.050  13.553  -5.207  1.00 20.00     0.006 C 
ENDBRANCH   5  10
TORSDOF 1
ENDMDL
MODEL 7
REMARK VINA RESULT:      -4.0      1.726      2.888
REMARK  1 active torsions:
REMARK  status: ('A' for Active; 'I' for Inactive)
REMARK    1  A    between atoms: C5_5  and  C9_9 
ROOT
HETATM    1  C1  UNL     1     -34.161  15.705  -6.232  1.00 20.00     0.133 C 
HETATM    2  C2  UNL     1     -35.564  16.246  -6.400  1.00 20.00     0.093 C 
HETATM    3  C3  UNL     1     -33.485  15.859  -4.872  1.00 20.00     0.065 C 
HETATM    4  C4  UNL     1     -36.539  15.711  -5.353  1.00 20.00     0.050 C 
HETATM    5  C5  UNL     1     -34.333  16.699  -3.899  1.00 20.00     0.058 C 
HETATM    6  C6  UNL     1     -33.069  14.483  -4.347  1.00 20.00     0.019 C 
HETATM    7  C7  UNL     1     -36.824  14.222  -5.545  1.00 20.00     0.022 C 
HETATM    8  O10 UNL     1     -33.573  15.181  -7.180  1.00 20.00    -0.298 OA
HETATM    9  S11 UNL     1     -36.004  16.002  -3.625  1.00 20.00    -0.159 SA
ENDROOT
BRANCH   5  10
HETATM   10  C9  UNL     1     -33.661  16.897  -2.541  1.00 20.00     0.011 C 
HETATM   11  C8  UNL     1     -34.664  16.999  -1.439  1.00 20.00     0.006 C 
ENDBRANCH   5  10
TORSDOF 1
ENDMDL
MODEL 8
REMARK VINA RESULT:      -4.0      1.853      2.232
REMARK  1 active torsions:
REMARK  status: ('A' for Active; 'I' for Inactive)
REMARK    1  A    between atoms: C5_5  and  C9_9 
ROOT
HETATM    1  C1  UNL     1     -35.617  13.653  -5.044  1.00 20.00     0.133 C 
HETATM    2  C2  UNL     1     -34.488  14.130  -4.156  1.00 20.00     0.093 C 
HETATM    3  C3  UNL     1     -36.886  14.497  -5.115  1.00 20.00     0.065 C 
HETATM    4  C4  UNL     1     -34.055  15.562  -4.458  1.00 20.00     0.050 C 
HETATM    5  C5  UNL     1     -36.854  15.672  -4.120  1.00 20.00     0.058 C 
HETATM    6  C6  UNL     1     -37.162  14.887  -6.569  1.00 20.00     0.019 C 
HETATM    7  C7  UNL     1     -33.365  15.677  -5.817  1.00 20.00     0.022 C 
HETATM    8  O10 UNL     1     -35.519  12.594  -5.668  1.00 20.00    -0.298 OA
HETATM    9  S11 UNL     1     -35.420  16.782  -4.374  1.00 20.00    -0.159 SA
ENDROOT
BRANCH   5  10
HETATM   10  C9  UNL     1     -38.129  16.513  -4.148  1.00 20.00     0.011 C 
HETATM   11  C8  UNL     1     -37.884  17.904  -3.662  1.00 20.00     0.006 C 
ENDBRANCH   5  10
TORSDOF 1
ENDMDL
MODEL 9
REMARK VINA RESULT:      -3.9      2.237      2.991
REMARK  1 active torsions:
REMARK  status: ('A' for Active; 'I' for Inactive)
REMARK    1  A    between atoms: C5_5  and  C9_9 
ROOT
HETATM    1  C1  UNL     1     -36.330  16.031  -6.256  1.00 20.00     0.133 C 
HETATM    2  C2  UNL     1     -36.906  14.652  -6.016  1.00 20.00     0.093 C 
HETATM    3  C3  UNL     1     -35.383  16.611  -5.209  1.00 20.00     0.065 C 
HETATM    4  C4  UNL     1     -35.835  13.597  -5.750  1.00 20.00     0.050 C 
HETATM    5  C5  UNL     1     -35.279  15.710  -3.965  1.00 20.00     0.058 C 
HETATM    6  C6  UNL     1     -34.048  16.966  -5.867  1.00 20.00     0.019 C 
HETATM    7  C7  UNL     1     -34.999  13.302  -6.994  1.00 20.00     0.022 C 
HETATM    8  O10 UNL     1     -36.645  16.676  -7.258  1.00 20.00    -0.298 OA
HETATM    9  S11 UNL     1     -34.716  14.012  -4.360  1.00 20.00    -0.159 SA
ENDROOT
BRANCH   5  10
HETATM   10  C9  UNL     1     -34.362  16.286  -2.886  1.00 20.00     0.011 C 
HETATM   11  C8  UNL     1     -35.136  16.773  -1.706  1.00 20.00     0.006 C 
ENDBRANCH   5  10
TORSDOF 1
ENDMDL
