MODEL 1
REMARK VINA RESULT:      -6.3      0.000      0.000
REMARK  3 active torsions:
REMARK  status: ('A' for Active; 'I' for Inactive)
REMARK    1  A    between atoms: C6_6  and  C9_9 
REMARK    2  A    between atoms: C7_7  and  C9_9 
REMARK    3  A    between atoms: C8_8  and  O10_10 
ROOT
HETATM    1  C1  UNL     1     -34.508   5.484   3.538  1.00 20.00     0.003 C 
HETATM    2  C2  UNL     1     -33.552   6.283   2.653  1.00 20.00     0.007 C 
HETATM    3  C5  UNL     1     -34.424   6.107   4.932  1.00 20.00     0.032 C 
HETATM    4  C7  UNL     1     -32.636   7.014   3.629  1.00 20.00     0.015 C 
HETATM    5  C8  UNL     1     -33.592   7.374   4.764  1.00 20.00     0.122 C 
ENDROOT
BRANCH   4   6
HETATM    6  C9  UNL     1     -31.948   8.225   3.016  1.00 20.00     0.011 C 
BRANCH   6   7
HETATM    7  C6  UNL     1     -32.566   8.583   1.685  1.00 20.00    -0.014 A 
HETATM    8  C3  UNL     1     -32.631  10.019   1.243  1.00 20.00     0.005 A 
HETATM    9  C4  UNL     1     -31.700   9.062   0.553  1.00 20.00     0.005 A 
ENDBRANCH   6   7
ENDBRANCH   4   6
BRANCH   5  10
HETATM   10  O10 UNL     1     -32.887   7.693   5.948  1.00 20.00    -0.395 OA
HETATM   11  H26 UNL     1     -32.982   8.651   6.088  1.00 20.00     0.210 HD
ENDBRANCH   5  10
TORSDOF 3
ENDMDL
MODEL 2
REMARK VINA RESULT:      -6.0      1.548      2.005
REMARK  3 active torsions:
REMARK  status: ('A' for Active; 'I' for Inactive)
REMARK    1  A    between atoms: C6_6  and  C9_9 
REMARK    2  A    between atoms: C7_7  and  C9_9 
REMARK    3  A    between atoms: C8_8  and  O10_10 
ROOT
HETATM    1  C1  UNL     1     -34.417   6.264   5.850  1.00 20.00     0.003 C 
HETATM    2  C2  UNL     1     -33.380   7.292   5.399  1.00 20.00     0.007 C 
HETATM    3  C5  UNL     1     -34.773   5.441   4.611  1.00 20.00     0.032 C 
HETATM    4  C7  UNL     1     -33.508   7.334   3.879  1.00 20.00     0.015 C 
HETATM    5  C8  UNL     1     -33.781   5.871   3.536  1.00 20.00     0.122 C 
ENDROOT
BRANCH   4   6
HETATM    6  C9  UNL     1     -32.275   7.894   3.188  1.00 20.00     0.011 C 
BRANCH   6   7
HETATM    7  C6  UNL     1     -32.605   8.375   1.795  1.00 20.00    -0.014 A 
HETATM    8  C3  UNL     1     -32.456   9.829   1.441  1.00 20.00     0.005 A 
HETATM    9  C4  UNL     1     -31.509   8.814   0.865  1.00 20.00     0.005 A 
ENDBRANCH   6   7
ENDBRANCH   4   6
BRANCH   5  10
HETATM   10  O10 UNL     1     -34.331   5.742   2.240  1.00 20.00    -0.395 OA
HETATM   11  H26 UNL     1     -35.298   5.798   2.333  1.00 20.00     0.210 HD
ENDBRANCH   5  10
TORSDOF 3
ENDMDL
MODEL 3
REMARK VINA RESULT:      -5.1      1.004      4.134
REMARK  3 active torsions:
REMARK  status: ('A' for Active; 'I' for Inactive)
REMARK    1  A    between atoms: C6_6  and  C9_9 
REMARK    2  A    between atoms: C7_7  and  C9_9 
REMARK    3  A    between atoms: C8_8  and  O10_10 
ROOT
HETATM    1  C1  UNL     1     -32.211   9.126   1.374  1.00 20.00     0.003 C 
HETATM    2  C2  UNL     1     -32.863   7.744   1.322  1.00 20.00     0.007 C 
HETATM    3  C5  UNL     1     -31.702   9.307   2.805  1.00 20.00     0.032 C 
HETATM    4  C7  UNL     1     -33.113   7.377   2.782  1.00 20.00     0.015 C 
HETATM    5  C8  UNL     1     -31.879   7.949   3.477  1.00 20.00     0.122 C 
ENDROOT
BRANCH   4   6
HETATM    6  C9  UNL     1     -33.287   5.882   3.004  1.00 20.00     0.011 C 
BRANCH   6   7
HETATM    7  C6  UNL     1     -34.538   5.594   3.800  1.00 20.00    -0.014 A 
HETATM    8  C3  UNL     1     -34.587   4.413   4.731  1.00 20.00     0.005 A 
HETATM    9  C4  UNL     1     -34.554   5.809   5.288  1.00 20.00     0.005 A 
ENDBRANCH   6   7
ENDBRANCH   4   6
BRANCH   5  10
HETATM   10  O10 UNL     1     -32.091   8.083   4.869  1.00 20.00    -0.395 OA
HETATM   11  H26 UNL     1     -31.668   8.915   5.144  1.00 20.00     0.210 HD
ENDBRANCH   5  10
TORSDOF 3
ENDMDL
MODEL 4
REMARK VINA RESULT:      -4.5     10.738     11.590
REMARK  3 active torsions:
REMARK  status: ('A' for Active; 'I' for Inactive)
REMARK    1  A    between atoms: C6_6  and  C9_9 
REMARK    2  A    between atoms: C7_7  and  C9_9 
REMARK    3  A    between atoms: C8_8  and  O10_10 
ROOT
HETATM    1  C1  UNL     1     -34.038  14.411  -7.456  1.00 20.00     0.003 C 
HETATM    2  C2  UNL     1     -33.826  15.258  -6.201  1.00 20.00     0.007 C 
HETATM    3  C5  UNL     1     -35.071  13.346  -7.086  1.00 20.00     0.032 C 
HETATM    4  C7  UNL     1     -34.372  14.405  -5.059  1.00 20.00     0.015 C 
HETATM    5  C8  UNL     1     -35.584  13.737  -5.704  1.00 20.00     0.122 C 
ENDROOT
BRANCH   4   6
HETATM    6  C9  UNL     1     -34.721  15.215  -3.819  1.00 20.00     0.011 C 
BRANCH   6   7
HETATM    7  C6  UNL     1     -33.644  16.228  -3.512  1.00 20.00    -0.014 A 
HETATM    8  C3  UNL     1     -33.977  17.694  -3.458  1.00 20.00     0.005 A 
HETATM    9  C4  UNL     1     -33.639  16.953  -2.195  1.00 20.00     0.005 A 
ENDBRANCH   6   7
ENDBRANCH   4   6
BRANCH   5  10
HETATM   10  O10 UNL     1     -35.999  12.605  -4.965  1.00 20.00    -0.395 OA
HETATM   11  H26 UNL     1     -36.650  12.130  -5.510  1.00 20.00     0.210 HD
ENDBRANCH   5  10
TORSDOF 3
ENDMDL
MODEL 5
REMARK VINA RESULT:      -4.2     10.432     11.173
REMARK  3 active torsions:
REMARK  status: ('A' for Active; 'I' for Inactive)
REMARK    1  A    between atoms: C6_6  and  C9_9 
REMARK    2  A    between atoms: C7_7  and  C9_9 
REMARK    3  A    between atoms: C8_8  and  O10_10 
ROOT
HETATM    1  C1  UNL     1     -35.247  17.760   0.221  1.00 20.00     0.003 C 
HETATM    2  C2  UNL     1     -35.317  17.011  -1.110  1.00 20.00     0.007 C 
HETATM    3  C5  UNL     1     -33.924  18.526   0.213  1.00 20.00     0.032 C 
HETATM    4  C7  UNL     1     -33.880  16.997  -1.624  1.00 20.00     0.015 C 
HETATM    5  C8  UNL     1     -33.370  18.372  -1.199  1.00 20.00     0.122 C 
ENDROOT
BRANCH   4   6
HETATM    6  C9  UNL     1     -33.781  16.756  -3.123  1.00 20.00     0.011 C 
BRANCH   6   7
HETATM    7  C6  UNL     1     -34.684  15.624  -3.551  1.00 20.00    -0.014 A 
HETATM    8  C3  UNL     1     -34.903  15.342  -5.012  1.00 20.00     0.005 A 
HETATM    9  C4  UNL     1     -34.103  14.385  -4.173  1.00 20.00     0.005 A 
ENDBRANCH   6   7
ENDBRANCH   4   6
BRANCH   5  10
HETATM   10  O10 UNL     1     -31.956  18.420  -1.210  1.00 20.00    -0.395 OA
HETATM   11  H26 UNL     1     -31.661  18.367  -0.285  1.00 20.00     0.210 HD
ENDBRANCH   5  10
TORSDOF 3
ENDMDL
MODEL 6
REMARK VINA RESULT:      -4.2     10.864     12.332
REMARK  3 active torsions:
REMARK  status: ('A' for Active; 'I' for Inactive)
REMARK    1  A    between atoms: C6_6  and  C9_9 
REMARK    2  A    between atoms: C7_7  and  C9_9 
REMARK    3  A    between atoms: C8_8  and  O10_10 
ROOT
HETATM    1  C1  UNL     1     -33.870  17.108  -7.118  1.00 20.00     0.003 C 
HETATM    2  C2  UNL     1     -33.730  17.224  -5.600  1.00 20.00     0.007 C 
HETATM    3  C5  UNL     1     -34.039  15.619  -7.421  1.00 20.00     0.032 C 
HETATM    4  C7  UNL     1     -33.371  15.816  -5.133  1.00 20.00     0.015 C 
HETATM    5  C8  UNL     1     -34.208  14.942  -6.064  1.00 20.00     0.122 C 
ENDROOT
BRANCH   4   6
HETATM    6  C9  UNL     1     -33.665  15.578  -3.660  1.00 20.00     0.011 C 
BRANCH   6   7
HETATM    7  C6  UNL     1     -34.196  16.830  -3.004  1.00 20.00    -0.014 A 
HETATM    8  C3  UNL     1     -35.068  16.733  -1.782  1.00 20.00     0.005 A 
HETATM    9  C4  UNL     1     -33.667  17.267  -1.666  1.00 20.00     0.005 A 
ENDBRANCH   6   7
ENDBRANCH   4   6
BRANCH   5  10
HETATM   10  O10 UNL     1     -33.730  13.611  -6.086  1.00 20.00    -0.395 OA
HETATM   11  H26 UNL     1     -34.500  13.029  -5.960  1.00 20.00     0.210 HD
ENDBRANCH   5  10
TORSDOF 3
ENDMDL
MODEL 7
REMARK VINA RESULT:      -4.2     10.404     11.113
REMARK  3 active torsions:
REMARK  status: ('A' for Active; 'I' for Inactive)
REMARK    1  A    between atoms: C6_6  and  C9_9 
REMARK    2  A    between atoms: C7_7  and  C9_9 
REMARK    3  A    between atoms: C8_8  and  O10_10 
ROOT
HETATM    1  C1  UNL     1     -37.093  14.534  -4.876  1.00 20.00     0.003 C 
HETATM    2  C2  UNL     1     -36.482  15.555  -3.916  1.00 20.00     0.007 C 
HETATM    3  C5  UNL     1     -35.950  13.618  -5.313  1.00 20.00     0.032 C 
HETATM    4  C7  UNL     1     -34.981  15.487  -4.180  1.00 20.00     0.015 C 
HETATM    5  C8  UNL     1     -34.763  13.997  -4.434  1.00 20.00     0.122 C 
ENDROOT
BRANCH   4   6
HETATM    6  C9  UNL     1     -34.144  16.030  -3.031  1.00 20.00     0.011 C 
BRANCH   6   7
HETATM    7  C6  UNL     1     -34.854  17.165  -2.332  1.00 20.00    -0.014 A 
HETATM    8  C3  UNL     1     -35.240  17.038  -0.884  1.00 20.00     0.005 A 
HETATM    9  C4  UNL     1     -34.138  17.978  -1.289  1.00 20.00     0.005 A 
ENDBRANCH   6   7
ENDBRANCH   4   6
BRANCH   5  10
HETATM   10  O10 UNL     1     -33.533  13.764  -5.093  1.00 20.00    -0.395 OA
HETATM   11  H26 UNL     1     -33.155  14.634  -5.309  1.00 20.00     0.210 HD
ENDBRANCH   5  10
TORSDOF 3
ENDMDL
MODEL 8
REMARK VINA RESULT:      -4.1     10.508     11.179
REMARK  3 active torsions:
REMARK  status: ('A' for Active; 'I' for Inactive)
REMARK    1  A    between atoms: C6_6  and  C9_9 
REMARK    2  A    between atoms: C7_7  and  C9_9 
REMARK    3  A    between atoms: C8_8  and  O10_10 
ROOT
HETATM    1  C1  UNL     1     -33.679  18.090  -0.256  1.00 20.00     0.003 C 
HETATM    2  C2  UNL     1     -33.089  17.797  -1.635  1.00 20.00     0.007 C 
HETATM    3  C5  UNL     1     -35.138  17.633  -0.307  1.00 20.00     0.032 C 
HETATM    4  C7  UNL     1     -34.300  17.617  -2.546  1.00 20.00     0.015 C 
HETATM    5  C8  UNL     1     -35.289  16.896  -1.633  1.00 20.00     0.122 C 
ENDROOT
BRANCH   4   6
HETATM    6  C9  UNL     1     -33.985  16.846  -3.819  1.00 20.00     0.011 C 
BRANCH   6   7
HETATM    7  C6  UNL     1     -33.786  15.377  -3.528  1.00 20.00    -0.014 A 
HETATM    8  C3  UNL     1     -34.570  14.342  -4.287  1.00 20.00     0.005 A 
HETATM    9  C4  UNL     1     -33.094  14.494  -4.528  1.00 20.00     0.005 A 
ENDBRANCH   6   7
ENDBRANCH   4   6
BRANCH   5  10
HETATM   10  O10 UNL     1     -36.610  16.991  -2.132  1.00 20.00    -0.395 OA
HETATM   11  H26 UNL     1     -37.032  17.744  -1.683  1.00 20.00     0.210 HD
ENDBRANCH   5  10
TORSDOF 3
ENDMDL
MODEL 9
REMARK VINA RESULT:      -4.0     10.895     11.480
REMARK  3 active torsions:
REMARK  status: ('A' for Active; 'I' for Inactive)
REMARK    1  A    between atoms: C6_6  and  C9_9 
REMARK    2  A    between atoms: C7_7  and  C9_9 
REMARK    3  A    between atoms: C8_8  and  O10_10 
ROOT
HETATM    1  C1  UNL     1     -31.144  18.597   1.830  1.00 20.00     0.003 C 
HETATM    2  C2  UNL     1     -31.536  18.633   0.353  1.00 20.00     0.007 C 
HETATM    3  C5  UNL     1     -32.448  18.695   2.623  1.00 20.00     0.032 C 
HETATM    4  C7  UNL     1     -32.954  19.197   0.341  1.00 20.00     0.015 C 
HETATM    5  C8  UNL     1     -33.564  18.569   1.592  1.00 20.00     0.122 C 
ENDROOT
BRANCH   4   6
HETATM    6  C9  UNL     1     -33.720  18.868  -0.931  1.00 20.00     0.011 C 
BRANCH   6   7
HETATM    7  C6  UNL     1     -34.004  17.387  -1.026  1.00 20.00    -0.014 A 
HETATM    8  C3  UNL     1     -35.370  16.903  -1.428  1.00 20.00     0.005 A 
HETATM    9  C4  UNL     1     -34.207  16.740  -2.367  1.00 20.00     0.005 A 
ENDBRANCH   6   7
ENDBRANCH   4   6
BRANCH   5  10
HETATM   10  O10 UNL     1     -34.728  19.262   1.999  1.00 20.00    -0.395 OA
HETATM   11  H26 UNL     1     -35.136  19.632   1.197  1.00 20.00     0.210 HD
ENDBRANCH   5  10
TORSDOF 3
ENDMDL
