MODEL 1
REMARK VINA RESULT:      -3.3      0.000      0.000
REMARK  1 active torsions:
REMARK  status: ('A' for Active; 'I' for Inactive)
REMARK    1  A    between atoms: N5_5  and  N6_6 
ROOT
HETATM    1  C1  UNL     1     -33.753   7.205   5.742  1.00 20.00     0.130 C 
HETATM    2  C2  UNL     1     -34.570   4.989   5.219  1.00 20.00     0.130 C 
HETATM    3  N5  UNL     1     -34.439   6.370   4.760  1.00 20.00    -0.259 NA
ENDROOT
BRANCH   3   4
HETATM    4  N6  UNL     1     -33.799   6.525   3.464  1.00 20.00    -0.259 NA
HETATM    5  C3  UNL     1     -33.417   5.213   2.952  1.00 20.00     0.130 C 
HETATM    6  C4  UNL     1     -32.679   7.464   3.441  1.00 20.00     0.130 C 
ENDBRANCH   3   4
TORSDOF 1
ENDMDL
MODEL 2
REMARK VINA RESULT:      -3.3      0.134      2.991
REMARK  1 active torsions:
REMARK  status: ('A' for Active; 'I' for Inactive)
REMARK    1  A    between atoms: N5_5  and  N6_6 
ROOT
HETATM    1  C1  UNL     1     -33.331   5.163   2.914  1.00 20.00     0.130 C 
HETATM    2  C2  UNL     1     -32.729   7.442   3.458  1.00 20.00     0.130 C 
HETATM    3  N5  UNL     1     -33.799   6.447   3.427  1.00 20.00    -0.259 NA
ENDROOT
BRANCH   3   4
HETATM    4  N6  UNL     1     -34.477   6.240   4.696  1.00 20.00    -0.259 NA
HETATM    5  C3  UNL     1     -33.847   7.063   5.723  1.00 20.00     0.130 C 
HETATM    6  C4  UNL     1     -34.590   4.843   5.112  1.00 20.00     0.130 C 
ENDBRANCH   3   4
TORSDOF 1
ENDMDL
MODEL 3
REMARK VINA RESULT:      -3.3      0.604      2.077
REMARK  1 active torsions:
REMARK  status: ('A' for Active; 'I' for Inactive)
REMARK    1  A    between atoms: N5_5  and  N6_6 
ROOT
HETATM    1  C1  UNL     1     -32.646   7.484   3.477  1.00 20.00     0.130 C 
HETATM    2  C2  UNL     1     -33.726   7.215   5.624  1.00 20.00     0.130 C 
HETATM    3  N5  UNL     1     -33.864   7.085   4.175  1.00 20.00    -0.259 NA
ENDROOT
BRANCH   3   4
HETATM    4  N6  UNL     1     -34.273   5.768   3.716  1.00 20.00    -0.259 NA
HETATM    5  C3  UNL     1     -34.638   4.946   4.865  1.00 20.00     0.130 C 
HETATM    6  C4  UNL     1     -33.309   5.093   2.849  1.00 20.00     0.130 C 
ENDBRANCH   3   4
TORSDOF 1
ENDMDL
MODEL 4
REMARK VINA RESULT:      -3.3      0.616      2.180
REMARK  1 active torsions:
REMARK  status: ('A' for Active; 'I' for Inactive)
REMARK    1  A    between atoms: N5_5  and  N6_6 
ROOT
HETATM    1  C1  UNL     1     -34.732   5.052   4.804  1.00 20.00     0.130 C 
HETATM    2  C2  UNL     1     -33.325   5.185   2.841  1.00 20.00     0.130 C 
HETATM    3  N5  UNL     1     -34.284   5.885   3.692  1.00 20.00    -0.259 NA
ENDROOT
BRANCH   3   4
HETATM    4  N6  UNL     1     -33.825   7.166   4.204  1.00 20.00    -0.259 NA
HETATM    5  C3  UNL     1     -32.585   7.540   3.532  1.00 20.00     0.130 C 
HETATM    6  C4  UNL     1     -33.698   7.236   5.658  1.00 20.00     0.130 C 
ENDBRANCH   3   4
TORSDOF 1
ENDMDL
MODEL 5
REMARK VINA RESULT:      -3.1      0.492      1.460
REMARK  1 active torsions:
REMARK  status: ('A' for Active; 'I' for Inactive)
REMARK    1  A    between atoms: N5_5  and  N6_6 
ROOT
HETATM    1  C1  UNL     1     -33.678   7.324   5.716  1.00 20.00     0.130 C 
HETATM    2  C2  UNL     1     -34.772   5.293   4.989  1.00 20.00     0.130 C 
HETATM    3  N5  UNL     1     -34.153   6.549   4.573  1.00 20.00    -0.259 NA
ENDROOT
BRANCH   3   4
HETATM    4  N6  UNL     1     -33.077   6.409   3.606  1.00 20.00    -0.259 NA
HETATM    5  C3  UNL     1     -32.930   7.655   2.861  1.00 20.00     0.130 C 
HETATM    6  C4  UNL     1     -33.197   5.256   2.716  1.00 20.00     0.130 C 
ENDBRANCH   3   4
TORSDOF 1
ENDMDL
MODEL 6
REMARK VINA RESULT:      -2.9      0.514      2.757
REMARK  1 active torsions:
REMARK  status: ('A' for Active; 'I' for Inactive)
REMARK    1  A    between atoms: N5_5  and  N6_6 
ROOT
HETATM    1  C1  UNL     1     -33.651   5.683   2.631  1.00 20.00     0.130 C 
HETATM    2  C2  UNL     1     -32.367   7.621   3.298  1.00 20.00     0.130 C 
HETATM    3  N5  UNL     1     -33.553   6.808   3.556  1.00 20.00    -0.259 NA
ENDROOT
BRANCH   3   4
HETATM    4  N6  UNL     1     -33.676   6.323   4.921  1.00 20.00    -0.259 NA
HETATM    5  C3  UNL     1     -34.781   5.373   5.000  1.00 20.00     0.130 C 
HETATM    6  C4  UNL     1     -33.783   7.368   5.937  1.00 20.00     0.130 C 
ENDBRANCH   3   4
TORSDOF 1
ENDMDL
MODEL 7
REMARK VINA RESULT:      -2.8      1.578      3.270
REMARK  1 active torsions:
REMARK  status: ('A' for Active; 'I' for Inactive)
REMARK    1  A    between atoms: N5_5  and  N6_6 
ROOT
HETATM    1  C1  UNL     1     -31.493   8.205   3.730  1.00 20.00     0.130 C 
HETATM    2  C2  UNL     1     -32.523   8.703   1.599  1.00 20.00     0.130 C 
HETATM    3  N5  UNL     1     -32.235   7.670   2.593  1.00 20.00    -0.259 NA
ENDROOT
BRANCH   3   4
HETATM    4  N6  UNL     1     -33.399   6.945   3.074  1.00 20.00    -0.259 NA
HETATM    5  C3  UNL     1     -33.597   7.232   4.491  1.00 20.00     0.130 C 
HETATM    6  C4  UNL     1     -33.380   5.508   2.808  1.00 20.00     0.130 C 
ENDBRANCH   3   4
TORSDOF 1
ENDMDL
MODEL 8
REMARK VINA RESULT:      -2.8      1.570      2.435
REMARK  1 active torsions:
REMARK  status: ('A' for Active; 'I' for Inactive)
REMARK    1  A    between atoms: N5_5  and  N6_6 
ROOT
HETATM    1  C1  UNL     1     -33.543   7.254   4.560  1.00 20.00     0.130 C 
HETATM    2  C2  UNL     1     -33.452   5.550   2.847  1.00 20.00     0.130 C 
HETATM    3  N5  UNL     1     -33.410   6.982   3.132  1.00 20.00    -0.259 NA
ENDROOT
BRANCH   3   4
HETATM    4  N6  UNL     1     -32.240   7.674   2.616  1.00 20.00    -0.259 NA
HETATM    5  C3  UNL     1     -31.478   8.232   3.728  1.00 20.00     0.130 C 
HETATM    6  C4  UNL     1     -32.523   8.678   1.592  1.00 20.00     0.130 C 
ENDBRANCH   3   4
TORSDOF 1
ENDMDL
MODEL 9
REMARK VINA RESULT:      -2.8      1.063      2.171
REMARK  1 active torsions:
REMARK  status: ('A' for Active; 'I' for Inactive)
REMARK    1  A    between atoms: N5_5  and  N6_6 
ROOT
HETATM    1  C1  UNL     1     -34.935   5.627   4.144  1.00 20.00     0.130 C 
HETATM    2  C2  UNL     1     -33.214   4.703   2.717  1.00 20.00     0.130 C 
HETATM    3  N5  UNL     1     -33.870   5.920   3.189  1.00 20.00    -0.259 NA
ENDROOT
BRANCH   3   4
HETATM    4  N6  UNL     1     -32.976   6.916   3.756  1.00 20.00    -0.259 NA
HETATM    5  C3  UNL     1     -33.542   7.423   5.001  1.00 20.00     0.130 C 
HETATM    6  C4  UNL     1     -32.607   7.999   2.846  1.00 20.00     0.130 C 
ENDBRANCH   3   4
TORSDOF 1
ENDMDL
