MODEL 1
REMARK VINA RESULT:      -4.7      0.000      0.000
REMARK  0 active torsions:
REMARK  status: ('A' for Active; 'I' for Inactive)
ROOT
HETATM    1  C1  UNL     1     -32.752   7.171   2.556  1.00 20.00     0.032 C 
HETATM    2  C2  UNL     1     -34.787   5.022   5.713  1.00 20.00     0.032 C 
HETATM    3  C3  UNL     1     -32.940   7.588   4.000  1.00 20.00     0.109 C 
HETATM    4  C4  UNL     1     -33.127   5.703   2.598  1.00 20.00     0.109 C 
HETATM    5  C5  UNL     1     -34.094   6.367   5.792  1.00 20.00     0.109 C 
HETATM    6  C6  UNL     1     -34.285   4.484   4.388  1.00 20.00     0.109 C 
HETATM    7  N7  UNL     1     -34.123   6.836   4.410  1.00 20.00    -0.250 NA
HETATM    8  N8  UNL     1     -34.239   5.674   3.544  1.00 20.00    -0.250 NA
ENDROOT
TORSDOF 0
ENDMDL
MODEL 2
REMARK VINA RESULT:      -4.7      0.097      3.316
REMARK  0 active torsions:
REMARK  status: ('A' for Active; 'I' for Inactive)
ROOT
HETATM    1  C1  UNL     1     -34.802   5.131   5.792  1.00 20.00     0.032 C 
HETATM    2  C2  UNL     1     -32.755   7.081   2.517  1.00 20.00     0.032 C 
HETATM    3  C3  UNL     1     -34.360   4.528   4.475  1.00 20.00     0.109 C 
HETATM    4  C4  UNL     1     -34.045   6.443   5.811  1.00 20.00     0.109 C 
HETATM    5  C5  UNL     1     -33.197   5.635   2.616  1.00 20.00     0.109 C 
HETATM    6  C6  UNL     1     -32.886   7.552   3.951  1.00 20.00     0.109 C 
HETATM    7  N7  UNL     1     -34.283   5.687   3.590  1.00 20.00    -0.250 NA
HETATM    8  N8  UNL     1     -34.090   6.869   4.415  1.00 20.00    -0.250 NA
ENDROOT
TORSDOF 0
ENDMDL
MODEL 3
REMARK VINA RESULT:      -4.3      0.811      1.850
REMARK  0 active torsions:
REMARK  status: ('A' for Active; 'I' for Inactive)
ROOT
HETATM    1  C1  UNL     1     -33.466   4.972   2.520  1.00 20.00     0.032 C 
HETATM    2  C2  UNL     1     -33.979   7.356   6.095  1.00 20.00     0.032 C 
HETATM    3  C3  UNL     1     -32.792   6.282   2.876  1.00 20.00     0.109 C 
HETATM    4  C4  UNL     1     -34.061   4.550   3.849  1.00 20.00     0.109 C 
HETATM    5  C5  UNL     1     -33.083   7.633   4.906  1.00 20.00     0.109 C 
HETATM    6  C6  UNL     1     -34.356   5.905   5.877  1.00 20.00     0.109 C 
HETATM    7  N7  UNL     1     -33.721   6.884   3.828  1.00 20.00    -0.250 NA
HETATM    8  N8  UNL     1     -34.505   5.816   4.427  1.00 20.00    -0.250 NA
ENDROOT
TORSDOF 0
ENDMDL
MODEL 4
REMARK VINA RESULT:      -4.3      0.809      2.769
REMARK  0 active torsions:
REMARK  status: ('A' for Active; 'I' for Inactive)
ROOT
HETATM    1  C1  UNL     1     -34.036   7.256   6.087  1.00 20.00     0.032 C 
HETATM    2  C2  UNL     1     -33.455   4.856   2.533  1.00 20.00     0.032 C 
HETATM    3  C3  UNL     1     -34.382   5.796   5.878  1.00 20.00     0.109 C 
HETATM    4  C4  UNL     1     -33.137   7.542   4.902  1.00 20.00     0.109 C 
HETATM    5  C5  UNL     1     -34.050   4.434   3.861  1.00 20.00     0.109 C 
HETATM    6  C6  UNL     1     -32.809   6.182   2.883  1.00 20.00     0.109 C 
HETATM    7  N7  UNL     1     -34.522   5.694   4.428  1.00 20.00    -0.250 NA
HETATM    8  N8  UNL     1     -33.755   6.773   3.826  1.00 20.00    -0.250 NA
ENDROOT
TORSDOF 0
ENDMDL
MODEL 5
REMARK VINA RESULT:      -3.8      0.710      2.851
REMARK  0 active torsions:
REMARK  status: ('A' for Active; 'I' for Inactive)
ROOT
HETATM    1  C1  UNL     1     -34.700   5.617   5.871  1.00 20.00     0.032 C 
HETATM    2  C2  UNL     1     -32.777   7.291   2.374  1.00 20.00     0.032 C 
HETATM    3  C3  UNL     1     -33.991   6.949   5.742  1.00 20.00     0.109 C 
HETATM    4  C4  UNL     1     -34.871   5.206   4.422  1.00 20.00     0.109 C 
HETATM    5  C5  UNL     1     -32.902   7.900   3.756  1.00 20.00     0.109 C 
HETATM    6  C6  UNL     1     -33.777   6.154   2.438  1.00 20.00     0.109 C 
HETATM    7  N7  UNL     1     -33.086   6.735   4.616  1.00 20.00    -0.250 NA
HETATM    8  N8  UNL     1     -33.628   5.658   3.803  1.00 20.00    -0.250 NA
ENDROOT
TORSDOF 0
ENDMDL
MODEL 6
REMARK VINA RESULT:      -3.8      0.672      1.906
REMARK  0 active torsions:
REMARK  status: ('A' for Active; 'I' for Inactive)
ROOT
HETATM    1  C1  UNL     1     -32.789   7.287   2.411  1.00 20.00     0.032 C 
HETATM    2  C2  UNL     1     -34.706   5.523   5.866  1.00 20.00     0.032 C 
HETATM    3  C3  UNL     1     -33.762   6.127   2.449  1.00 20.00     0.109 C 
HETATM    4  C4  UNL     1     -32.942   7.876   3.798  1.00 20.00     0.109 C 
HETATM    5  C5  UNL     1     -34.852   5.127   4.411  1.00 20.00     0.109 C 
HETATM    6  C6  UNL     1     -34.027   6.874   5.761  1.00 20.00     0.109 C 
HETATM    7  N7  UNL     1     -33.614   5.616   3.809  1.00 20.00    -0.250 NA
HETATM    8  N8  UNL     1     -33.107   6.695   4.642  1.00 20.00    -0.250 NA
ENDROOT
TORSDOF 0
ENDMDL
MODEL 7
REMARK VINA RESULT:      -3.6     12.011     12.740
REMARK  0 active torsions:
REMARK  status: ('A' for Active; 'I' for Inactive)
ROOT
HETATM    1  C1  UNL     1     -35.507  13.031  -6.759  1.00 20.00     0.032 C 
HETATM    2  C2  UNL     1     -33.567  15.615  -3.881  1.00 20.00     0.032 C 
HETATM    3  C3  UNL     1     -36.036  13.503  -5.421  1.00 20.00     0.109 C 
HETATM    4  C4  UNL     1     -34.328  13.957  -6.979  1.00 20.00     0.109 C 
HETATM    5  C5  UNL     1     -34.935  14.971  -3.788  1.00 20.00     0.109 C 
HETATM    6  C6  UNL     1     -33.224  15.421  -5.345  1.00 20.00     0.109 C 
HETATM    7  N7  UNL     1     -34.820  13.818  -4.677  1.00 20.00    -0.250 NA
HETATM    8  N8  UNL     1     -33.765  14.097  -5.639  1.00 20.00    -0.250 NA
ENDROOT
TORSDOF 0
ENDMDL
MODEL 8
REMARK VINA RESULT:      -3.6     11.991     12.749
REMARK  0 active torsions:
REMARK  status: ('A' for Active; 'I' for Inactive)
ROOT
HETATM    1  C1  UNL     1     -33.584  15.618  -3.848  1.00 20.00     0.032 C 
HETATM    2  C2  UNL     1     -35.504  13.048  -6.753  1.00 20.00     0.032 C 
HETATM    3  C3  UNL     1     -33.241  15.443  -5.312  1.00 20.00     0.109 C 
HETATM    4  C4  UNL     1     -34.948  14.963  -3.761  1.00 20.00     0.109 C 
HETATM    5  C5  UNL     1     -34.332  13.985  -6.961  1.00 20.00     0.109 C 
HETATM    6  C6  UNL     1     -36.036  13.501  -5.408  1.00 20.00     0.109 C 
HETATM    7  N7  UNL     1     -33.770  14.117  -5.620  1.00 20.00    -0.250 NA
HETATM    8  N8  UNL     1     -34.822  13.820  -4.662  1.00 20.00    -0.250 NA
ENDROOT
TORSDOF 0
ENDMDL
MODEL 9
REMARK VINA RESULT:      -3.4     12.090     13.367
REMARK  0 active torsions:
REMARK  status: ('A' for Active; 'I' for Inactive)
ROOT
HETATM    1  C1  UNL     1     -34.065  14.338  -7.918  1.00 20.00     0.032 C 
HETATM    2  C2  UNL     1     -34.367  15.271  -3.703  1.00 20.00     0.032 C 
HETATM    3  C3  UNL     1     -34.795  13.565  -6.839  1.00 20.00     0.109 C 
HETATM    4  C4  UNL     1     -33.790  15.660  -7.230  1.00 20.00     0.109 C 
HETATM    5  C5  UNL     1     -34.968  14.096  -4.447  1.00 20.00     0.109 C 
HETATM    6  C6  UNL     1     -33.958  16.189  -4.837  1.00 20.00     0.109 C 
HETATM    7  N7  UNL     1     -34.105  13.969  -5.618  1.00 20.00    -0.250 NA
HETATM    8  N8  UNL     1     -33.483  15.261  -5.860  1.00 20.00    -0.250 NA
ENDROOT
TORSDOF 0
ENDMDL
