MODEL 1
REMARK VINA RESULT:      -5.3      0.000      0.000
REMARK  0 active torsions:
REMARK  status: ('A' for Active; 'I' for Inactive)
ROOT
HETATM    1  C1  UNL     1     -34.631   5.474   5.803  1.00 20.00     0.000 C 
HETATM    2  C2  UNL     1     -34.020   6.874   5.809  1.00 20.00     0.003 C 
HETATM    3  C3  UNL     1     -34.028   4.610   4.697  1.00 20.00     0.003 C 
HETATM    4  C4  UNL     1     -34.144   7.550   4.441  1.00 20.00     0.044 C 
HETATM    5  C5  UNL     1     -34.160   5.285   3.332  1.00 20.00     0.044 C 
HETATM    6  C6  UNL     1     -31.732   9.053   2.446  1.00 20.00     0.032 C 
HETATM    7  C7  UNL     1     -33.077   8.656   1.901  1.00 20.00     0.112 C 
HETATM    8  C8  UNL     1     -31.376   7.919   3.370  1.00 20.00     0.112 C 
HETATM    9  C9  UNL     1     -33.546   6.678   3.355  1.00 20.00     0.095 A 
HETATM   10  N10 UNL     1     -33.182   7.207   2.036  1.00 20.00    -0.223 NA
HETATM   11  N11 UNL     1     -32.143   6.756   2.940  1.00 20.00    -0.223 NA
ENDROOT
TORSDOF 0
ENDMDL
MODEL 2
REMARK VINA RESULT:      -4.6      1.017      2.184
REMARK  0 active torsions:
REMARK  status: ('A' for Active; 'I' for Inactive)
ROOT
HETATM    1  C1  UNL     1     -34.496   4.403   4.356  1.00 20.00     0.000 C 
HETATM    2  C2  UNL     1     -33.798   4.727   3.036  1.00 20.00     0.003 C 
HETATM    3  C3  UNL     1     -34.932   5.675   5.079  1.00 20.00     0.003 C 
HETATM    4  C4  UNL     1     -32.621   5.686   3.239  1.00 20.00     0.044 C 
HETATM    5  C5  UNL     1     -33.755   6.628   5.287  1.00 20.00     0.044 C 
HETATM    6  C6  UNL     1     -31.871   8.692   1.672  1.00 20.00     0.032 C 
HETATM    7  C7  UNL     1     -31.217   8.287   2.965  1.00 20.00     0.112 C 
HETATM    8  C8  UNL     1     -33.297   8.242   1.840  1.00 20.00     0.112 C 
HETATM    9  C9  UNL     1     -33.070   6.940   3.962  1.00 20.00     0.095 A 
HETATM   10  N10 UNL     1     -32.275   8.173   3.962  1.00 20.00    -0.223 NA
HETATM   11  N11 UNL     1     -33.550   8.141   3.273  1.00 20.00    -0.223 NA
ENDROOT
TORSDOF 0
ENDMDL
MODEL 3
REMARK VINA RESULT:      -4.5     11.520     12.446
REMARK  0 active torsions:
REMARK  status: ('A' for Active; 'I' for Inactive)
ROOT
HETATM    1  C1  UNL     1     -35.051  16.242  -2.800  1.00 20.00     0.000 C 
HETATM    2  C2  UNL     1     -36.175  15.930  -3.786  1.00 20.00     0.003 C 
HETATM    3  C3  UNL     1     -33.689  16.230  -3.489  1.00 20.00     0.003 C 
HETATM    4  C4  UNL     1     -35.932  14.608  -4.519  1.00 20.00     0.044 C 
HETATM    5  C5  UNL     1     -33.445  14.907  -4.215  1.00 20.00     0.044 C 
HETATM    6  C6  UNL     1     -35.923  13.887  -7.916  1.00 20.00     0.032 C 
HETATM    7  C7  UNL     1     -35.321  12.950  -6.905  1.00 20.00     0.112 C 
HETATM    8  C8  UNL     1     -35.530  15.250  -7.413  1.00 20.00     0.112 C 
HETATM    9  C9  UNL     1     -34.574  14.610  -5.193  1.00 20.00     0.095 A 
HETATM   10  N10 UNL     1     -34.225  13.664  -6.259  1.00 20.00    -0.223 NA
HETATM   11  N11 UNL     1     -34.356  15.074  -6.566  1.00 20.00    -0.223 NA
ENDROOT
TORSDOF 0
ENDMDL
MODEL 4
REMARK VINA RESULT:      -4.4     11.368     12.252
REMARK  0 active torsions:
REMARK  status: ('A' for Active; 'I' for Inactive)
ROOT
HETATM    1  C1  UNL     1     -34.130  17.967  -0.589  1.00 20.00     0.000 C 
HETATM    2  C2  UNL     1     -33.001  17.729  -1.590  1.00 20.00     0.003 C 
HETATM    3  C3  UNL     1     -35.301  17.020  -0.839  1.00 20.00     0.003 C 
HETATM    4  C4  UNL     1     -33.497  17.824  -3.035  1.00 20.00     0.044 C 
HETATM    5  C5  UNL     1     -35.800  17.122  -2.280  1.00 20.00     0.044 C 
HETATM    6  C6  UNL     1     -33.156  15.605  -5.684  1.00 20.00     0.032 C 
HETATM    7  C7  UNL     1     -34.166  16.719  -5.708  1.00 20.00     0.112 C 
HETATM    8  C8  UNL     1     -33.208  15.111  -4.263  1.00 20.00     0.112 C 
HETATM    9  C9  UNL     1     -34.663  16.883  -3.265  1.00 20.00     0.095 A 
HETATM   10  N10 UNL     1     -35.094  16.480  -4.608  1.00 20.00    -0.223 NA
HETATM   11  N11 UNL     1     -34.504  15.499  -3.720  1.00 20.00    -0.223 NA
ENDROOT
TORSDOF 0
ENDMDL
MODEL 5
REMARK VINA RESULT:      -4.3      1.470      2.465
REMARK  0 active torsions:
REMARK  status: ('A' for Active; 'I' for Inactive)
ROOT
HETATM    1  C1  UNL     1     -34.429   5.973   4.511  1.00 20.00     0.000 C 
HETATM    2  C2  UNL     1     -34.489   6.129   2.992  1.00 20.00     0.003 C 
HETATM    3  C3  UNL     1     -33.901   7.240   5.178  1.00 20.00     0.003 C 
HETATM    4  C4  UNL     1     -33.134   6.543   2.413  1.00 20.00     0.044 C 
HETATM    5  C5  UNL     1     -32.544   7.647   4.603  1.00 20.00     0.044 C 
HETATM    6  C6  UNL     1     -32.295   9.170   0.302  1.00 20.00     0.032 C 
HETATM    7  C7  UNL     1     -31.255   8.425   1.094  1.00 20.00     0.112 C 
HETATM    8  C8  UNL     1     -33.452   9.284   1.258  1.00 20.00     0.112 C 
HETATM    9  C9  UNL     1     -32.622   7.798   3.090  1.00 20.00     0.095 A 
HETATM   10  N10 UNL     1     -31.563   8.629   2.505  1.00 20.00    -0.223 NA
HETATM   11  N11 UNL     1     -32.911   9.151   2.606  1.00 20.00    -0.223 NA
ENDROOT
TORSDOF 0
ENDMDL
MODEL 6
REMARK VINA RESULT:      -4.1     11.612     12.732
REMARK  0 active torsions:
REMARK  status: ('A' for Active; 'I' for Inactive)
ROOT
HETATM    1  C1  UNL     1     -33.186  19.225  -2.359  1.00 20.00     0.000 C 
HETATM    2  C2  UNL     1     -33.278  18.959  -3.861  1.00 20.00     0.003 C 
HETATM    3  C3  UNL     1     -32.990  17.929  -1.577  1.00 20.00     0.003 C 
HETATM    4  C4  UNL     1     -34.370  17.938  -4.188  1.00 20.00     0.044 C 
HETATM    5  C5  UNL     1     -34.085  16.913  -1.901  1.00 20.00     0.044 C 
HETATM    6  C6  UNL     1     -34.230  15.012  -6.053  1.00 20.00     0.032 C 
HETATM    7  C7  UNL     1     -35.370  15.300  -5.115  1.00 20.00     0.112 C 
HETATM    8  C8  UNL     1     -33.022  15.512  -5.307  1.00 20.00     0.112 C 
HETATM    9  C9  UNL     1     -34.163  16.660  -3.400  1.00 20.00     0.095 A 
HETATM   10  N10 UNL     1     -34.807  15.395  -3.773  1.00 20.00    -0.223 NA
HETATM   11  N11 UNL     1     -33.369  15.529  -3.890  1.00 20.00    -0.223 NA
ENDROOT
TORSDOF 0
ENDMDL
MODEL 7
REMARK VINA RESULT:      -4.0     11.146     12.569
REMARK  0 active torsions:
REMARK  status: ('A' for Active; 'I' for Inactive)
ROOT
HETATM    1  C1  UNL     1     -33.713  16.102  -3.433  1.00 20.00     0.000 C 
HETATM    2  C2  UNL     1     -34.962  16.900  -3.800  1.00 20.00     0.003 C 
HETATM    3  C3  UNL     1     -33.575  14.856  -4.305  1.00 20.00     0.003 C 
HETATM    4  C4  UNL     1     -36.224  16.034  -3.741  1.00 20.00     0.044 C 
HETATM    5  C5  UNL     1     -34.832  13.990  -4.238  1.00 20.00     0.044 C 
HETATM    6  C6  UNL     1     -38.712  15.516  -6.107  1.00 20.00     0.032 C 
HETATM    7  C7  UNL     1     -38.539  14.602  -4.925  1.00 20.00     0.112 C 
HETATM    8  C8  UNL     1     -37.300  15.827  -6.524  1.00 20.00     0.112 C 
HETATM    9  C9  UNL     1     -36.068  14.800  -4.607  1.00 20.00     0.095 A 
HETATM   10  N10 UNL     1     -37.216  13.997  -5.043  1.00 20.00    -0.223 NA
HETATM   11  N11 UNL     1     -36.456  14.751  -6.019  1.00 20.00    -0.223 NA
ENDROOT
TORSDOF 0
ENDMDL
MODEL 8
REMARK VINA RESULT:      -4.0     11.559     12.523
REMARK  0 active torsions:
REMARK  status: ('A' for Active; 'I' for Inactive)
ROOT
HETATM    1  C1  UNL     1     -34.035  16.817  -2.281  1.00 20.00     0.000 C 
HETATM    2  C2  UNL     1     -33.628  15.931  -3.456  1.00 20.00     0.003 C 
HETATM    3  C3  UNL     1     -35.521  16.667  -1.962  1.00 20.00     0.003 C 
HETATM    4  C4  UNL     1     -34.494  16.195  -4.691  1.00 20.00     0.044 C 
HETATM    5  C5  UNL     1     -36.384  16.938  -3.193  1.00 20.00     0.044 C 
HETATM    6  C6  UNL     1     -36.293  14.000  -6.691  1.00 20.00     0.032 C 
HETATM    7  C7  UNL     1     -36.540  15.483  -6.721  1.00 20.00     0.112 C 
HETATM    8  C8  UNL     1     -36.066  13.708  -5.232  1.00 20.00     0.112 C 
HETATM    9  C9  UNL     1     -35.965  16.047  -4.355  1.00 20.00     0.095 A 
HETATM   10  N10 UNL     1     -36.992  15.869  -5.388  1.00 20.00    -0.223 NA
HETATM   11  N11 UNL     1     -36.697  14.783  -4.475  1.00 20.00    -0.223 NA
ENDROOT
TORSDOF 0
ENDMDL
MODEL 9
REMARK VINA RESULT:      -4.0     11.804     12.758
REMARK  0 active torsions:
REMARK  status: ('A' for Active; 'I' for Inactive)
ROOT
HETATM    1  C1  UNL     1     -35.558  16.956  -1.562  1.00 20.00     0.000 C 
HETATM    2  C2  UNL     1     -36.218  16.677  -2.910  1.00 20.00     0.003 C 
HETATM    3  C3  UNL     1     -34.179  17.587  -1.739  1.00 20.00     0.003 C 
HETATM    4  C4  UNL     1     -35.324  15.822  -3.812  1.00 20.00     0.044 C 
HETATM    5  C5  UNL     1     -33.286  16.728  -2.634  1.00 20.00     0.044 C 
HETATM    6  C6  UNL     1     -34.269  16.341  -7.079  1.00 20.00     0.032 C 
HETATM    7  C7  UNL     1     -33.598  15.341  -6.179  1.00 20.00     0.112 C 
HETATM    8  C8  UNL     1     -34.558  17.502  -6.167  1.00 20.00     0.112 C 
HETATM    9  C9  UNL     1     -33.959  16.460  -3.974  1.00 20.00     0.095 A 
HETATM   10  N10 UNL     1     -33.040  16.084  -5.054  1.00 20.00    -0.223 NA
HETATM   11  N11 UNL     1     -33.632  17.407  -5.044  1.00 20.00    -0.223 NA
ENDROOT
TORSDOF 0
ENDMDL
