MODEL 1
REMARK VINA RESULT:      -4.2      0.000      0.000
REMARK  2 active torsions:
REMARK  status: ('A' for Active; 'I' for Inactive)
REMARK    1  A    between atoms: C6_6  and  N9_9 
REMARK    2  A    between atoms: C7_7  and  N9_9 
ROOT
HETATM    1  C1  UNL     1     -32.680   8.658   1.715  1.00 20.00     0.100 C 
HETATM    2  C4  UNL     1     -32.371   6.300   2.354  1.00 20.00     0.065 C 
HETATM    3  C5  UNL     1     -31.411   8.148   3.760  1.00 20.00     0.065 C 
HETATM    4  C7  UNL     1     -32.576   7.731   2.856  1.00 20.00     0.237 C 
HETATM    5  N8  UNL     1     -32.761   9.388   0.815  1.00 20.00    -0.195 NA
ENDROOT
BRANCH   4   6
HETATM    6  N9  UNL     1     -33.804   7.775   3.628  1.00 20.00     0.110 N 
HETATM    7  H23 UNL     1     -33.815   8.620   4.202  1.00 20.00     0.318 HD
BRANCH   6   8
HETATM    8  C6  UNL     1     -33.922   6.610   4.498  1.00 20.00     0.214 C 
HETATM    9  C2  UNL     1     -35.184   5.842   4.132  1.00 20.00     0.042 C 
HETATM   10  C3  UNL     1     -33.946   7.077   5.946  1.00 20.00     0.042 C 
ENDBRANCH   6   8
ENDBRANCH   4   6
TORSDOF 2
ENDMDL
MODEL 2
REMARK VINA RESULT:      -4.0      1.612      3.736
REMARK  2 active torsions:
REMARK  status: ('A' for Active; 'I' for Inactive)
REMARK    1  A    between atoms: C6_6  and  N9_9 
REMARK    2  A    between atoms: C7_7  and  N9_9 
ROOT
HETATM    1  C1  UNL     1     -33.988   6.654   5.130  1.00 20.00     0.100 C 
HETATM    2  C4  UNL     1     -34.000   4.428   4.076  1.00 20.00     0.065 C 
HETATM    3  C5  UNL     1     -35.304   6.329   3.077  1.00 20.00     0.065 C 
HETATM    4  C7  UNL     1     -34.035   5.940   3.841  1.00 20.00     0.237 C 
HETATM    5  N8  UNL     1     -33.951   7.215   6.145  1.00 20.00    -0.195 NA
ENDROOT
BRANCH   4   6
HETATM    6  N9  UNL     1     -32.879   6.307   3.043  1.00 20.00     0.110 N 
HETATM    7  H23 UNL     1     -32.037   5.909   3.460  1.00 20.00     0.318 HD
BRANCH   6   8
HETATM    8  C6  UNL     1     -32.730   7.757   2.969  1.00 20.00     0.214 C 
HETATM    9  C2  UNL     1     -32.699   8.179   1.507  1.00 20.00     0.042 C 
HETATM   10  C3  UNL     1     -31.458   8.160   3.700  1.00 20.00     0.042 C 
ENDBRANCH   6   8
ENDBRANCH   4   6
TORSDOF 2
ENDMDL
MODEL 3
REMARK VINA RESULT:      -3.9      1.556      2.061
REMARK  2 active torsions:
REMARK  status: ('A' for Active; 'I' for Inactive)
REMARK    1  A    between atoms: C6_6  and  N9_9 
REMARK    2  A    between atoms: C7_7  and  N9_9 
ROOT
HETATM    1  C1  UNL     1     -32.670   7.321   2.716  1.00 20.00     0.100 C 
HETATM    2  C4  UNL     1     -34.501   6.258   1.457  1.00 20.00     0.065 C 
HETATM    3  C5  UNL     1     -32.957   4.884   2.886  1.00 20.00     0.065 C 
HETATM    4  C7  UNL     1     -33.666   6.234   2.740  1.00 20.00     0.237 C 
HETATM    5  N8  UNL     1     -31.886   8.177   2.696  1.00 20.00    -0.195 NA
ENDROOT
BRANCH   4   6
HETATM    6  N9  UNL     1     -34.556   6.419   3.871  1.00 20.00     0.110 N 
HETATM    7  H23 UNL     1     -34.855   7.395   3.913  1.00 20.00     0.318 HD
BRANCH   6   8
HETATM    8  C6  UNL     1     -33.893   6.073   5.124  1.00 20.00     0.214 C 
HETATM    9  C2  UNL     1     -34.682   4.970   5.815  1.00 20.00     0.042 C 
HETATM   10  C3  UNL     1     -33.792   7.320   5.989  1.00 20.00     0.042 C 
ENDBRANCH   6   8
ENDBRANCH   4   6
TORSDOF 2
ENDMDL
MODEL 4
REMARK VINA RESULT:      -3.9      1.734      3.923
REMARK  2 active torsions:
REMARK  status: ('A' for Active; 'I' for Inactive)
REMARK    1  A    between atoms: C6_6  and  N9_9 
REMARK    2  A    between atoms: C7_7  and  N9_9 
ROOT
HETATM    1  C1  UNL     1     -34.098   4.669   4.155  1.00 20.00     0.100 C 
HETATM    2  C4  UNL     1     -35.359   6.507   3.109  1.00 20.00     0.065 C 
HETATM    3  C5  UNL     1     -33.983   6.906   5.173  1.00 20.00     0.065 C 
HETATM    4  C7  UNL     1     -34.088   6.114   3.865  1.00 20.00     0.237 C 
HETATM    5  N8  UNL     1     -34.106   3.531   4.384  1.00 20.00    -0.195 NA
ENDROOT
BRANCH   4   6
HETATM    6  N9  UNL     1     -32.942   6.432   3.034  1.00 20.00     0.110 N 
HETATM    7  H23 UNL     1     -32.113   5.965   3.403  1.00 20.00     0.318 HD
BRANCH   6   8
HETATM    8  C6  UNL     1     -32.699   7.870   3.000  1.00 20.00     0.214 C 
HETATM    9  C2  UNL     1     -32.685   8.338   1.552  1.00 20.00     0.042 C 
HETATM   10  C3  UNL     1     -31.380   8.163   3.700  1.00 20.00     0.042 C 
ENDBRANCH   6   8
ENDBRANCH   4   6
TORSDOF 2
ENDMDL
MODEL 5
REMARK VINA RESULT:      -3.8     10.584     11.564
REMARK  2 active torsions:
REMARK  status: ('A' for Active; 'I' for Inactive)
REMARK    1  A    between atoms: C6_6  and  N9_9 
REMARK    2  A    between atoms: C7_7  and  N9_9 
ROOT
HETATM    1  C1  UNL     1     -35.221  13.802  -5.202  1.00 20.00     0.100 C 
HETATM    2  C4  UNL     1     -33.028  14.511  -4.334  1.00 20.00     0.065 C 
HETATM    3  C5  UNL     1     -33.883  15.381  -6.531  1.00 20.00     0.065 C 
HETATM    4  C7  UNL     1     -34.273  14.928  -5.121  1.00 20.00     0.237 C 
HETATM    5  N8  UNL     1     -35.967  12.914  -5.266  1.00 20.00    -0.195 NA
ENDROOT
BRANCH   4   6
HETATM    6  N9  UNL     1     -34.902  16.040  -4.431  1.00 20.00     0.110 N 
HETATM    7  H23 UNL     1     -35.140  16.768  -5.106  1.00 20.00     0.318 HD
BRANCH   6   8
HETATM    8  C6  UNL     1     -34.012  16.603  -3.421  1.00 20.00     0.214 C 
HETATM    9  C2  UNL     1     -34.737  16.636  -2.083  1.00 20.00     0.042 C 
HETATM   10  C3  UNL     1     -33.582  17.993  -3.863  1.00 20.00     0.042 C 
ENDBRANCH   6   8
ENDBRANCH   4   6
TORSDOF 2
ENDMDL
MODEL 6
REMARK VINA RESULT:      -3.8      1.597      3.881
REMARK  2 active torsions:
REMARK  status: ('A' for Active; 'I' for Inactive)
REMARK    1  A    between atoms: C6_6  and  N9_9 
REMARK    2  A    between atoms: C7_7  and  N9_9 
ROOT
HETATM    1  C1  UNL     1     -32.896   6.003   2.850  1.00 20.00     0.100 C 
HETATM    2  C4  UNL     1     -34.020   7.726   4.204  1.00 20.00     0.065 C 
HETATM    3  C5  UNL     1     -31.571   7.905   3.673  1.00 20.00     0.065 C 
HETATM    4  C7  UNL     1     -32.938   7.444   3.159  1.00 20.00     0.237 C 
HETATM    5  N8  UNL     1     -32.863   4.868   2.608  1.00 20.00    -0.195 NA
ENDROOT
BRANCH   4   6
HETATM    6  N9  UNL     1     -33.258   8.187   1.954  1.00 20.00     0.110 N 
HETATM    7  H23 UNL     1     -33.366   7.538   1.173  1.00 20.00     0.318 HD
BRANCH   6   8
HETATM    8  C6  UNL     1     -32.207   9.145   1.632  1.00 20.00     0.214 C 
HETATM    9  C2  UNL     1     -32.838  10.504   1.362  1.00 20.00     0.042 C 
HETATM   10  C3  UNL     1     -31.428   8.636   0.428  1.00 20.00     0.042 C 
ENDBRANCH   6   8
ENDBRANCH   4   6
TORSDOF 2
ENDMDL
MODEL 7
REMARK VINA RESULT:      -3.7      1.365      4.015
REMARK  2 active torsions:
REMARK  status: ('A' for Active; 'I' for Inactive)
REMARK    1  A    between atoms: C6_6  and  N9_9 
REMARK    2  A    between atoms: C7_7  and  N9_9 
ROOT
HETATM    1  C1  UNL     1     -33.350   7.474   4.467  1.00 20.00     0.100 C 
HETATM    2  C4  UNL     1     -31.253   8.040   3.306  1.00 20.00     0.065 C 
HETATM    3  C5  UNL     1     -32.699   6.152   2.497  1.00 20.00     0.065 C 
HETATM    4  C7  UNL     1     -32.690   7.538   3.150  1.00 20.00     0.237 C 
HETATM    5  N8  UNL     1     -33.868   7.423   5.505  1.00 20.00    -0.195 NA
ENDROOT
BRANCH   4   6
HETATM    6  N9  UNL     1     -33.410   8.462   2.294  1.00 20.00     0.110 N 
HETATM    7  H23 UNL     1     -34.028   7.939   1.672  1.00 20.00     0.318 HD
BRANCH   6   8
HETATM    8  C6  UNL     1     -32.490   9.258   1.488  1.00 20.00     0.214 C 
HETATM    9  C2  UNL     1     -32.785  10.734   1.708  1.00 20.00     0.042 C 
HETATM   10  C3  UNL     1     -32.648   8.863   0.027  1.00 20.00     0.042 C 
ENDBRANCH   6   8
ENDBRANCH   4   6
TORSDOF 2
ENDMDL
MODEL 8
REMARK VINA RESULT:      -3.6     10.930     12.355
REMARK  2 active torsions:
REMARK  status: ('A' for Active; 'I' for Inactive)
REMARK    1  A    between atoms: C6_6  and  N9_9 
REMARK    2  A    between atoms: C7_7  and  N9_9 
ROOT
HETATM    1  C1  UNL     1     -35.391  13.715  -5.846  1.00 20.00     0.100 C 
HETATM    2  C4  UNL     1     -34.071  14.386  -7.814  1.00 20.00     0.065 C 
HETATM    3  C5  UNL     1     -35.805  15.924  -6.844  1.00 20.00     0.065 C 
HETATM    4  C7  UNL     1     -34.754  14.856  -6.528  1.00 20.00     0.237 C 
HETATM    5  N8  UNL     1     -35.893  12.815  -5.311  1.00 20.00    -0.195 NA
ENDROOT
BRANCH   4   6
HETATM    6  N9  UNL     1     -33.747  15.436  -5.659  1.00 20.00     0.110 N 
HETATM    7  H23 UNL     1     -33.320  14.701  -5.093  1.00 20.00     0.318 HD
BRANCH   6   8
HETATM    8  C6  UNL     1     -34.330  16.436  -4.771  1.00 20.00     0.214 C 
HETATM    9  C2  UNL     1     -33.533  17.728  -4.885  1.00 20.00     0.042 C 
HETATM   10  C3  UNL     1     -34.327  15.895  -3.349  1.00 20.00     0.042 C 
ENDBRANCH   6   8
ENDBRANCH   4   6
TORSDOF 2
ENDMDL
MODEL 9
REMARK VINA RESULT:      -3.6     10.612     11.576
REMARK  2 active torsions:
REMARK  status: ('A' for Active; 'I' for Inactive)
REMARK    1  A    between atoms: C6_6  and  N9_9 
REMARK    2  A    between atoms: C7_7  and  N9_9 
ROOT
HETATM    1  C1  UNL     1     -36.934  14.523  -4.880  1.00 20.00     0.100 C 
HETATM    2  C4  UNL     1     -34.614  14.188  -4.124  1.00 20.00     0.065 C 
HETATM    3  C5  UNL     1     -35.112  15.540  -6.182  1.00 20.00     0.065 C 
HETATM    4  C7  UNL     1     -35.604  15.151  -4.785  1.00 20.00     0.237 C 
HETATM    5  N8  UNL     1     -37.982  14.027  -4.955  1.00 20.00    -0.195 NA
ENDROOT
BRANCH   4   6
HETATM    6  N9  UNL     1     -35.692  16.349  -3.970  1.00 20.00     0.110 N 
HETATM    7  H23 UNL     1     -35.578  17.173  -4.563  1.00 20.00     0.318 HD
BRANCH   6   8
HETATM    8  C6  UNL     1     -34.661  16.362  -2.938  1.00 20.00     0.214 C 
HETATM    9  C2  UNL     1     -35.297  16.725  -1.605  1.00 20.00     0.042 C 
HETATM   10  C3  UNL     1     -33.579  17.354  -3.336  1.00 20.00     0.042 C 
ENDBRANCH   6   8
ENDBRANCH   4   6
TORSDOF 2
ENDMDL
