MODEL 1
REMARK VINA RESULT:      -6.4      0.000      0.000
REMARK  0 active torsions:
REMARK  status: ('A' for Active; 'I' for Inactive)
ROOT
HETATM    1  C1  UNL     1     -34.322   5.676   5.883  1.00 20.00    -0.029 A 
HETATM    2  C2  UNL     1     -34.018   6.951   5.623  1.00 20.00    -0.018 A 
HETATM    3  C3  UNL     1     -32.825   7.130   3.421  1.00 20.00     0.135 A 
HETATM    4  C4  UNL     1     -34.711   4.888   4.669  1.00 20.00     0.033 A 
HETATM    5  C5  UNL     1     -33.266   5.863   2.668  1.00 20.00     0.084 A 
HETATM    6  C6  UNL     1     -34.156   7.226   4.185  1.00 20.00     0.082 A 
HETATM    7  C7  UNL     1     -34.575   5.885   3.508  1.00 20.00     0.011 A 
HETATM    8  O8  UNL     1     -31.809   7.792   3.415  1.00 20.00    -0.297 OA
ENDROOT
TORSDOF 0
ENDMDL
MODEL 2
REMARK VINA RESULT:      -6.2      1.417      2.182
REMARK  0 active torsions:
REMARK  status: ('A' for Active; 'I' for Inactive)
ROOT
HETATM    1  C1  UNL     1     -33.554   7.317   5.404  1.00 20.00    -0.029 A 
HETATM    2  C2  UNL     1     -33.541   7.294   4.068  1.00 20.00    -0.018 A 
HETATM    3  C3  UNL     1     -33.617   4.924   3.239  1.00 20.00     0.135 A 
HETATM    4  C4  UNL     1     -34.415   6.256   6.020  1.00 20.00     0.033 A 
HETATM    5  C5  UNL     1     -34.249   4.153   4.410  1.00 20.00     0.084 A 
HETATM    6  C6  UNL     1     -34.398   6.207   3.569  1.00 20.00     0.082 A 
HETATM    7  C7  UNL     1     -34.966   5.471   4.821  1.00 20.00     0.011 A 
HETATM    8  O8  UNL     1     -32.806   4.629   2.388  1.00 20.00    -0.297 OA
ENDROOT
TORSDOF 0
ENDMDL
MODEL 3
REMARK VINA RESULT:      -6.0      1.866      3.168
REMARK  0 active torsions:
REMARK  status: ('A' for Active; 'I' for Inactive)
ROOT
HETATM    1  C1  UNL     1     -32.674   7.227   3.453  1.00 20.00    -0.029 A 
HETATM    2  C2  UNL     1     -33.482   6.364   2.829  1.00 20.00    -0.018 A 
HETATM    3  C3  UNL     1     -34.445   4.729   4.473  1.00 20.00     0.135 A 
HETATM    4  C4  UNL     1     -33.146   7.616   4.821  1.00 20.00     0.033 A 
HETATM    5  C5  UNL     1     -34.353   5.472   5.817  1.00 20.00     0.084 A 
HETATM    6  C6  UNL     1     -34.633   6.035   3.683  1.00 20.00     0.082 A 
HETATM    7  C7  UNL     1     -34.436   6.807   5.022  1.00 20.00     0.011 A 
HETATM    8  O8  UNL     1     -34.385   3.559   4.162  1.00 20.00    -0.297 OA
ENDROOT
TORSDOF 0
ENDMDL
MODEL 4
REMARK VINA RESULT:      -6.0      1.418      2.134
REMARK  0 active torsions:
REMARK  status: ('A' for Active; 'I' for Inactive)
ROOT
HETATM    1  C1  UNL     1     -33.940   4.001   4.104  1.00 20.00    -0.029 A 
HETATM    2  C2  UNL     1     -34.680   4.742   4.933  1.00 20.00    -0.018 A 
HETATM    3  C3  UNL     1     -33.786   7.086   5.037  1.00 20.00     0.135 A 
HETATM    4  C4  UNL     1     -33.445   4.748   2.902  1.00 20.00     0.033 A 
HETATM    5  C5  UNL     1     -33.017   7.239   3.713  1.00 20.00     0.084 A 
HETATM    6  C6  UNL     1     -34.804   6.114   4.417  1.00 20.00     0.082 A 
HETATM    7  C7  UNL     1     -33.974   6.176   3.099  1.00 20.00     0.011 A 
HETATM    8  O8  UNL     1     -33.637   7.553   6.146  1.00 20.00    -0.297 OA
ENDROOT
TORSDOF 0
ENDMDL
MODEL 5
REMARK VINA RESULT:      -4.2      1.150      2.127
REMARK  0 active torsions:
REMARK  status: ('A' for Active; 'I' for Inactive)
ROOT
HETATM    1  C1  UNL     1     -35.194   5.886   3.897  1.00 20.00    -0.029 A 
HETATM    2  C2  UNL     1     -34.406   5.810   2.820  1.00 20.00    -0.018 A 
HETATM    3  C3  UNL     1     -32.732   7.682   2.834  1.00 20.00     0.135 A 
HETATM    4  C4  UNL     1     -34.486   6.348   5.134  1.00 20.00     0.033 A 
HETATM    5  C5  UNL     1     -32.638   8.070   4.320  1.00 20.00     0.084 A 
HETATM    6  C6  UNL     1     -33.033   6.210   3.164  1.00 20.00     0.082 A 
HETATM    7  C7  UNL     1     -33.045   6.610   4.671  1.00 20.00     0.011 A 
HETATM    8  O8  UNL     1     -32.619   8.306   1.801  1.00 20.00    -0.297 OA
ENDROOT
TORSDOF 0
ENDMDL
MODEL 6
REMARK VINA RESULT:      -4.1      1.549      2.235
REMARK  0 active torsions:
REMARK  status: ('A' for Active; 'I' for Inactive)
ROOT
HETATM    1  C1  UNL     1     -34.821   5.595   5.764  1.00 20.00    -0.029 A 
HETATM    2  C2  UNL     1     -34.517   4.815   4.722  1.00 20.00    -0.018 A 
HETATM    3  C3  UNL     1     -34.029   6.219   2.698  1.00 20.00     0.135 A 
HETATM    4  C4  UNL     1     -34.035   6.870   5.815  1.00 20.00     0.033 A 
HETATM    5  C5  UNL     1     -33.622   7.578   3.291  1.00 20.00     0.084 A 
HETATM    6  C6  UNL     1     -33.470   5.444   3.903  1.00 20.00     0.082 A 
HETATM    7  C7  UNL     1     -33.147   6.819   4.564  1.00 20.00     0.011 A 
HETATM    8  O8  UNL     1     -34.586   5.890   1.672  1.00 20.00    -0.297 OA
ENDROOT
TORSDOF 0
ENDMDL
MODEL 7
REMARK VINA RESULT:      -4.0      8.769      9.550
REMARK  0 active torsions:
REMARK  status: ('A' for Active; 'I' for Inactive)
ROOT
HETATM    1  C1  UNL     1     -41.309   5.001  -0.229  1.00 20.00    -0.029 A 
HETATM    2  C2  UNL     1     -40.598   6.108  -0.465  1.00 20.00    -0.018 A 
HETATM    3  C3  UNL     1     -42.126   8.079  -0.755  1.00 20.00     0.135 A 
HETATM    4  C4  UNL     1     -42.525   5.232   0.616  1.00 20.00     0.033 A 
HETATM    5  C5  UNL     1     -43.407   7.655  -0.015  1.00 20.00     0.084 A 
HETATM    6  C6  UNL     1     -41.225   7.267   0.190  1.00 20.00     0.082 A 
HETATM    7  C7  UNL     1     -42.521   6.745   0.883  1.00 20.00     0.011 A 
HETATM    8  O8  UNL     1     -41.916   8.782  -1.721  1.00 20.00    -0.297 OA
ENDROOT
TORSDOF 0
ENDMDL
MODEL 8
REMARK VINA RESULT:      -4.0      9.043      9.887
REMARK  0 active torsions:
REMARK  status: ('A' for Active; 'I' for Inactive)
ROOT
HETATM    1  C1  UNL     1     -42.858   8.328  -0.742  1.00 20.00    -0.029 A 
HETATM    2  C2  UNL     1     -43.417   7.617   0.241  1.00 20.00    -0.018 A 
HETATM    3  C3  UNL     1     -42.373   5.337   0.368  1.00 20.00     0.135 A 
HETATM    4  C4  UNL     1     -41.388   8.085  -0.904  1.00 20.00     0.033 A 
HETATM    5  C5  UNL     1     -40.995   5.534  -0.285  1.00 20.00     0.084 A 
HETATM    6  C6  UNL     1     -42.406   6.778   0.903  1.00 20.00     0.082 A 
HETATM    7  C7  UNL     1     -41.059   7.024   0.157  1.00 20.00     0.011 A 
HETATM    8  O8  UNL     1     -43.140   4.400   0.429  1.00 20.00    -0.297 OA
ENDROOT
TORSDOF 0
ENDMDL
MODEL 9
REMARK VINA RESULT:      -3.9      1.687      3.177
REMARK  0 active torsions:
REMARK  status: ('A' for Active; 'I' for Inactive)
ROOT
HETATM    1  C1  UNL     1     -32.121   8.705   2.249  1.00 20.00    -0.029 A 
HETATM    2  C2  UNL     1     -31.713   8.378   3.479  1.00 20.00    -0.018 A 
HETATM    3  C3  UNL     1     -33.537   7.167   4.707  1.00 20.00     0.135 A 
HETATM    4  C4  UNL     1     -33.001   7.673   1.609  1.00 20.00     0.033 A 
HETATM    5  C5  UNL     1     -34.410   6.589   3.580  1.00 20.00     0.084 A 
HETATM    6  C6  UNL     1     -32.255   7.066   3.864  1.00 20.00     0.082 A 
HETATM    7  C7  UNL     1     -33.143   6.579   2.678  1.00 20.00     0.011 A 
HETATM    8  O8  UNL     1     -33.777   7.557   5.830  1.00 20.00    -0.297 OA
ENDROOT
TORSDOF 0
ENDMDL
