MODEL 1
REMARK VINA RESULT:      -5.1      0.000      0.000
REMARK  0 active torsions:
REMARK  status: ('A' for Active; 'I' for Inactive)
ROOT
HETATM    1  C1  UNL     1     -31.796   8.110   2.615  1.00 20.00     0.086 C 
HETATM    2  C2  UNL     1     -32.829   7.162   2.076  1.00 20.00     0.055 C 
HETATM    3  C3  UNL     1     -34.705   5.408   4.990  1.00 20.00     0.030 C 
HETATM    4  C4  UNL     1     -34.544   5.850   3.529  1.00 20.00     0.010 C 
HETATM    5  C5  UNL     1     -34.377   6.534   5.987  1.00 20.00     0.272 C 
HETATM    6  C6  UNL     1     -33.183   6.504   3.386  1.00 20.00     0.045 C 
HETATM    7  C7  UNL     1     -33.063   7.684   4.346  1.00 20.00     0.345 C 
HETATM    8  N8  UNL     1     -31.845   8.391   3.884  1.00 20.00    -0.270 NA
HETATM    9  N9  UNL     1     -33.082   7.182   5.720  1.00 20.00     0.108 N 
HETATM   10  H21 UNL     1     -32.959   7.962   6.365  1.00 20.00     0.318 HD
ENDROOT
TORSDOF 0
ENDMDL
MODEL 2
REMARK VINA RESULT:      -5.0      1.499      2.085
REMARK  0 active torsions:
REMARK  status: ('A' for Active; 'I' for Inactive)
ROOT
HETATM    1  C1  UNL     1     -32.045   8.209   2.639  1.00 20.00     0.086 C 
HETATM    2  C2  UNL     1     -32.022   8.304   4.138  1.00 20.00     0.055 C 
HETATM    3  C3  UNL     1     -34.721   5.977   5.683  1.00 20.00     0.030 C 
HETATM    4  C4  UNL     1     -33.449   6.835   5.744  1.00 20.00     0.010 C 
HETATM    5  C5  UNL     1     -34.758   5.063   4.446  1.00 20.00     0.272 C 
HETATM    6  C6  UNL     1     -33.280   7.513   4.397  1.00 20.00     0.045 C 
HETATM    7  C7  UNL     1     -33.199   6.468   3.289  1.00 20.00     0.345 C 
HETATM    8  N8  UNL     1     -32.732   7.238   2.112  1.00 20.00    -0.270 NA
HETATM    9  N9  UNL     1     -34.487   5.782   3.189  1.00 20.00     0.108 N 
HETATM   10  H21 UNL     1     -34.453   5.111   2.421  1.00 20.00     0.318 HD
ENDROOT
TORSDOF 0
ENDMDL
MODEL 3
REMARK VINA RESULT:      -4.8      0.920      3.160
REMARK  0 active torsions:
REMARK  status: ('A' for Active; 'I' for Inactive)
ROOT
HETATM    1  C1  UNL     1     -34.873   5.912   5.713  1.00 20.00     0.086 C 
HETATM    2  C2  UNL     1     -34.824   5.507   4.267  1.00 20.00     0.055 C 
HETATM    3  C3  UNL     1     -32.398   7.815   2.298  1.00 20.00     0.030 C 
HETATM    4  C4  UNL     1     -33.229   6.538   2.488  1.00 20.00     0.010 C 
HETATM    5  C5  UNL     1     -31.607   8.198   3.562  1.00 20.00     0.272 C 
HETATM    6  C6  UNL     1     -34.030   6.688   3.767  1.00 20.00     0.045 C 
HETATM    7  C7  UNL     1     -33.094   6.930   4.948  1.00 20.00     0.345 C 
HETATM    8  N8  UNL     1     -33.968   6.747   6.132  1.00 20.00    -0.270 NA
HETATM    9  N9  UNL     1     -32.440   8.226   4.777  1.00 20.00     0.108 N 
HETATM   10  H21 UNL     1     -31.845   8.413   5.585  1.00 20.00     0.318 HD
ENDROOT
TORSDOF 0
ENDMDL
MODEL 4
REMARK VINA RESULT:      -4.6      1.467      3.730
REMARK  0 active torsions:
REMARK  status: ('A' for Active; 'I' for Inactive)
ROOT
HETATM    1  C1  UNL     1     -34.792   5.688   5.582  1.00 20.00     0.086 C 
HETATM    2  C2  UNL     1     -34.043   6.887   6.090  1.00 20.00     0.055 C 
HETATM    3  C3  UNL     1     -31.706   8.293   3.324  1.00 20.00     0.030 C 
HETATM    4  C4  UNL     1     -32.483   8.387   4.645  1.00 20.00     0.010 C 
HETATM    5  C5  UNL     1     -32.543   7.676   2.190  1.00 20.00     0.272 C 
HETATM    6  C6  UNL     1     -33.100   7.030   4.921  1.00 20.00     0.045 C 
HETATM    7  C7  UNL     1     -34.006   6.618   3.765  1.00 20.00     0.345 C 
HETATM    8  N8  UNL     1     -34.758   5.459   4.302  1.00 20.00    -0.270 NA
HETATM    9  N9  UNL     1     -33.187   6.408   2.572  1.00 20.00     0.108 N 
HETATM   10  H21 UNL     1     -33.782   6.091   1.806  1.00 20.00     0.318 HD
ENDROOT
TORSDOF 0
ENDMDL
MODEL 5
REMARK VINA RESULT:      -4.4      1.709      3.669
REMARK  0 active torsions:
REMARK  status: ('A' for Active; 'I' for Inactive)
ROOT
HETATM    1  C1  UNL     1     -34.585   4.250   4.742  1.00 20.00     0.086 C 
HETATM    2  C2  UNL     1     -34.599   5.436   5.664  1.00 20.00     0.055 C 
HETATM    3  C3  UNL     1     -32.334   8.264   4.263  1.00 20.00     0.030 C 
HETATM    4  C4  UNL     1     -33.445   7.716   5.171  1.00 20.00     0.010 C 
HETATM    5  C5  UNL     1     -32.443   7.747   2.818  1.00 20.00     0.272 C 
HETATM    6  C6  UNL     1     -33.492   6.210   4.993  1.00 20.00     0.045 C 
HETATM    7  C7  UNL     1     -33.740   5.861   3.528  1.00 20.00     0.345 C 
HETATM    8  N8  UNL     1     -34.066   4.415   3.561  1.00 20.00    -0.270 NA
HETATM    9  N9  UNL     1     -32.584   6.283   2.738  1.00 20.00     0.108 N 
HETATM   10  H21 UNL     1     -32.725   6.014   1.764  1.00 20.00     0.318 HD
ENDROOT
TORSDOF 0
ENDMDL
MODEL 6
REMARK VINA RESULT:      -4.0     12.097     12.711
REMARK  0 active torsions:
REMARK  status: ('A' for Active; 'I' for Inactive)
ROOT
HETATM    1  C1  UNL     1     -35.238  13.053  -7.108  1.00 20.00     0.086 C 
HETATM    2  C2  UNL     1     -35.956  13.335  -5.819  1.00 20.00     0.055 C 
HETATM    3  C3  UNL     1     -33.930  15.852  -3.663  1.00 20.00     0.030 C 
HETATM    4  C4  UNL     1     -35.206  15.092  -4.052  1.00 20.00     0.010 C 
HETATM    5  C5  UNL     1     -33.190  16.426  -4.884  1.00 20.00     0.272 C 
HETATM    6  C6  UNL     1     -34.848  14.109  -5.150  1.00 20.00     0.045 C 
HETATM    7  C7  UNL     1     -34.248  14.848  -6.343  1.00 20.00     0.345 C 
HETATM    8  N8  UNL     1     -34.242  13.830  -7.421  1.00 20.00    -0.270 NA
HETATM    9  N9  UNL     1     -32.967  15.430  -5.946  1.00 20.00     0.108 N 
HETATM   10  H21 UNL     1     -32.541  15.889  -6.751  1.00 20.00     0.318 HD
ENDROOT
TORSDOF 0
ENDMDL
MODEL 7
REMARK VINA RESULT:      -4.0     11.741     12.708
REMARK  0 active torsions:
REMARK  status: ('A' for Active; 'I' for Inactive)
ROOT
HETATM    1  C1  UNL     1     -35.326  12.944  -6.953  1.00 20.00     0.086 C 
HETATM    2  C2  UNL     1     -34.324  13.915  -7.510  1.00 20.00     0.055 C 
HETATM    3  C3  UNL     1     -33.496  16.658  -4.888  1.00 20.00     0.030 C 
HETATM    4  C4  UNL     1     -33.221  15.850  -6.165  1.00 20.00     0.010 C 
HETATM    5  C5  UNL     1     -33.914  15.768  -3.705  1.00 20.00     0.272 C 
HETATM    6  C6  UNL     1     -34.404  14.929  -6.397  1.00 20.00     0.045 C 
HETATM    7  C7  UNL     1     -34.606  14.019  -5.189  1.00 20.00     0.345 C 
HETATM    8  N8  UNL     1     -35.563  12.996  -5.675  1.00 20.00    -0.270 NA
HETATM    9  N9  UNL     1     -35.002  14.834  -4.041  1.00 20.00     0.108 N 
HETATM   10  H21 UNL     1     -35.181  14.227  -3.242  1.00 20.00     0.318 HD
ENDROOT
TORSDOF 0
ENDMDL
MODEL 8
REMARK VINA RESULT:      -4.0     11.643     12.489
REMARK  0 active torsions:
REMARK  status: ('A' for Active; 'I' for Inactive)
ROOT
HETATM    1  C1  UNL     1     -35.669  13.251  -7.392  1.00 20.00     0.086 C 
HETATM    2  C2  UNL     1     -36.540  14.200  -6.617  1.00 20.00     0.055 C 
HETATM    3  C3  UNL     1     -34.657  15.513  -3.484  1.00 20.00     0.030 C 
HETATM    4  C4  UNL     1     -35.771  15.565  -4.540  1.00 20.00     0.010 C 
HETATM    5  C5  UNL     1     -33.274  15.236  -4.099  1.00 20.00     0.272 C 
HETATM    6  C6  UNL     1     -35.652  14.325  -5.405  1.00 20.00     0.045 C 
HETATM    7  C7  UNL     1     -34.270  14.264  -6.049  1.00 20.00     0.345 C 
HETATM    8  N8  UNL     1     -34.407  13.205  -7.078  1.00 20.00    -0.270 NA
HETATM    9  N9  UNL     1     -33.266  14.073  -5.003  1.00 20.00     0.108 N 
HETATM   10  H21 UNL     1     -32.345  13.989  -5.431  1.00 20.00     0.318 HD
ENDROOT
TORSDOF 0
ENDMDL
MODEL 9
REMARK VINA RESULT:      -3.9     11.477     12.407
REMARK  0 active torsions:
REMARK  status: ('A' for Active; 'I' for Inactive)
ROOT
HETATM    1  C1  UNL     1     -38.360  14.785  -4.714  1.00 20.00     0.086 C 
HETATM    2  C2  UNL     1     -37.738  16.084  -4.286  1.00 20.00     0.055 C 
HETATM    3  C3  UNL     1     -33.936  15.617  -3.641  1.00 20.00     0.030 C 
HETATM    4  C4  UNL     1     -35.191  16.460  -3.908  1.00 20.00     0.010 C 
HETATM    5  C5  UNL     1     -33.851  14.380  -4.553  1.00 20.00     0.272 C 
HETATM    6  C6  UNL     1     -36.389  15.530  -3.901  1.00 20.00     0.045 C 
HETATM    7  C7  UNL     1     -36.213  14.437  -4.951  1.00 20.00     0.345 C 
HETATM    8  N8  UNL     1     -37.556  13.815  -5.040  1.00 20.00    -0.270 NA
HETATM    9  N9  UNL     1     -35.090  13.584  -4.564  1.00 20.00     0.108 N 
HETATM   10  H21 UNL     1     -34.994  12.826  -5.239  1.00 20.00     0.318 HD
ENDROOT
TORSDOF 0
ENDMDL
