MODEL 1
REMARK VINA RESULT:      -4.8      0.000      0.000
REMARK  2 active torsions:
REMARK  status: ('A' for Active; 'I' for Inactive)
REMARK    1  A    between atoms: C2_2  and  C3_3 
REMARK    2  A    between atoms: C2_2  and  N4_4 
ROOT
HETATM    1  C1  UNL     1     -32.646   7.582   2.509  1.00 20.00     0.157 C 
HETATM    2  N4  UNL     1     -32.945   6.611   3.101  1.00 20.00    -0.267 NA
HETATM    3  S8  UNL     1     -32.226   8.881   1.690  1.00 20.00    -0.055 SA
ENDROOT
BRANCH   2   4
HETATM    4  C2  UNL     1     -33.819   6.835   4.251  1.00 20.00     0.267 C 
BRANCH   4   5
HETATM    5  C3  UNL     1     -34.700   5.626   4.448  1.00 20.00     0.405 C 
HETATM    6  F5  UNL     1     -35.896   5.810   3.847  1.00 20.00    -0.169 F 
HETATM    7  F6  UNL     1     -34.931   5.393   5.757  1.00 20.00    -0.169 F 
HETATM    8  F7  UNL     1     -34.142   4.518   3.917  1.00 20.00    -0.169 F 
ENDBRANCH   4   5
ENDBRANCH   2   4
TORSDOF 2
ENDMDL
MODEL 2
REMARK VINA RESULT:      -4.7      0.771      1.370
REMARK  2 active torsions:
REMARK  status: ('A' for Active; 'I' for Inactive)
REMARK    1  A    between atoms: C2_2  and  C3_3 
REMARK    2  A    between atoms: C2_2  and  N4_4 
ROOT
HETATM    1  C1  UNL     1     -32.620   7.825   2.707  1.00 20.00     0.157 C 
HETATM    2  N4  UNL     1     -32.942   7.104   3.579  1.00 20.00    -0.267 NA
HETATM    3  S8  UNL     1     -32.173   8.818   1.545  1.00 20.00    -0.055 SA
ENDROOT
BRANCH   2   4
HETATM    4  C2  UNL     1     -33.691   5.922   3.157  1.00 20.00     0.267 C 
BRANCH   4   5
HETATM    5  C3  UNL     1     -34.747   5.609   4.187  1.00 20.00     0.405 C 
HETATM    6  F5  UNL     1     -34.544   6.336   5.308  1.00 20.00    -0.169 F 
HETATM    7  F6  UNL     1     -34.724   4.305   4.536  1.00 20.00    -0.169 F 
HETATM    8  F7  UNL     1     -35.983   5.899   3.730  1.00 20.00    -0.169 F 
ENDBRANCH   4   5
ENDBRANCH   2   4
TORSDOF 2
ENDMDL
MODEL 3
REMARK VINA RESULT:      -4.7      0.762      1.486
REMARK  2 active torsions:
REMARK  status: ('A' for Active; 'I' for Inactive)
REMARK    1  A    between atoms: C2_2  and  C3_3 
REMARK    2  A    between atoms: C2_2  and  N4_4 
ROOT
HETATM    1  C1  UNL     1     -32.619   7.834   2.717  1.00 20.00     0.157 C 
HETATM    2  N4  UNL     1     -32.941   7.114   3.590  1.00 20.00    -0.267 NA
HETATM    3  S8  UNL     1     -32.174   8.826   1.554  1.00 20.00    -0.055 SA
ENDROOT
BRANCH   2   4
HETATM    4  C2  UNL     1     -33.685   5.929   3.169  1.00 20.00     0.267 C 
BRANCH   4   5
HETATM    5  C3  UNL     1     -34.742   5.614   4.198  1.00 20.00     0.405 C 
HETATM    6  F5  UNL     1     -34.714   4.302   4.519  1.00 20.00    -0.169 F 
HETATM    7  F6  UNL     1     -35.979   5.896   3.736  1.00 20.00    -0.169 F 
HETATM    8  F7  UNL     1     -34.549   6.317   5.334  1.00 20.00    -0.169 F 
ENDBRANCH   4   5
ENDBRANCH   2   4
TORSDOF 2
ENDMDL
MODEL 4
REMARK VINA RESULT:      -4.2      4.351      5.082
REMARK  2 active torsions:
REMARK  status: ('A' for Active; 'I' for Inactive)
REMARK    1  A    between atoms: C2_2  and  C3_3 
REMARK    2  A    between atoms: C2_2  and  N4_4 
ROOT
HETATM    1  C1  UNL     1     -33.004   6.943   2.804  1.00 20.00     0.157 C 
HETATM    2  N4  UNL     1     -32.200   7.696   2.393  1.00 20.00    -0.267 NA
HETATM    3  S8  UNL     1     -34.073   5.902   3.362  1.00 20.00    -0.055 SA
ENDROOT
BRANCH   2   4
HETATM    4  C2  UNL     1     -32.714   9.022   2.056  1.00 20.00     0.267 C 
BRANCH   4   5
HETATM    5  C3  UNL     1     -32.286   9.379   0.655  1.00 20.00     0.405 C 
HETATM    6  F5  UNL     1     -33.201   8.953  -0.243  1.00 20.00    -0.169 F 
HETATM    7  F6  UNL     1     -31.106   8.805   0.339  1.00 20.00    -0.169 F 
HETATM    8  F7  UNL     1     -32.156  10.714   0.504  1.00 20.00    -0.169 F 
ENDBRANCH   4   5
ENDBRANCH   2   4
TORSDOF 2
ENDMDL
MODEL 5
REMARK VINA RESULT:      -4.2      4.321      5.034
REMARK  2 active torsions:
REMARK  status: ('A' for Active; 'I' for Inactive)
REMARK    1  A    between atoms: C2_2  and  C3_3 
REMARK    2  A    between atoms: C2_2  and  N4_4 
ROOT
HETATM    1  C1  UNL     1     -33.119   6.945   2.885  1.00 20.00     0.157 C 
HETATM    2  N4  UNL     1     -32.295   7.598   2.359  1.00 20.00    -0.267 NA
HETATM    3  S8  UNL     1     -34.219   6.039   3.597  1.00 20.00    -0.055 SA
ENDROOT
BRANCH   2   4
HETATM    4  C2  UNL     1     -32.680   8.983   2.096  1.00 20.00     0.267 C 
BRANCH   4   5
HETATM    5  C3  UNL     1     -32.287   9.349   0.687  1.00 20.00     0.405 C 
HETATM    6  F5  UNL     1     -32.172  10.690   0.561  1.00 20.00    -0.169 F 
HETATM    7  F6  UNL     1     -33.210   8.933  -0.206  1.00 20.00    -0.169 F 
HETATM    8  F7  UNL     1     -31.100   8.803   0.348  1.00 20.00    -0.169 F 
ENDBRANCH   4   5
ENDBRANCH   2   4
TORSDOF 2
ENDMDL
MODEL 6
REMARK VINA RESULT:      -4.1      3.820      4.429
REMARK  2 active torsions:
REMARK  status: ('A' for Active; 'I' for Inactive)
REMARK    1  A    between atoms: C2_2  and  C3_3 
REMARK    2  A    between atoms: C2_2  and  N4_4 
ROOT
HETATM    1  C1  UNL     1     -34.072   6.332   4.201  1.00 20.00     0.157 C 
HETATM    2  N4  UNL     1     -33.629   7.316   3.733  1.00 20.00    -0.267 NA
HETATM    3  S8  UNL     1     -34.684   5.016   4.856  1.00 20.00    -0.055 SA
ENDROOT
BRANCH   2   4
HETATM    4  C2  UNL     1     -32.775   7.111   2.563  1.00 20.00     0.267 C 
BRANCH   4   5
HETATM    5  C3  UNL     1     -32.108   8.414   2.202  1.00 20.00     0.405 C 
HETATM    6  F5  UNL     1     -31.402   8.891   3.250  1.00 20.00    -0.169 F 
HETATM    7  F6  UNL     1     -33.015   9.354   1.858  1.00 20.00    -0.169 F 
HETATM    8  F7  UNL     1     -31.253   8.260   1.169  1.00 20.00    -0.169 F 
ENDBRANCH   4   5
ENDBRANCH   2   4
TORSDOF 2
ENDMDL
MODEL 7
REMARK VINA RESULT:      -3.9      2.844      3.324
REMARK  2 active torsions:
REMARK  status: ('A' for Active; 'I' for Inactive)
REMARK    1  A    between atoms: C2_2  and  C3_3 
REMARK    2  A    between atoms: C2_2  and  N4_4 
ROOT
HETATM    1  C1  UNL     1     -34.378   6.212   5.184  1.00 20.00     0.157 C 
HETATM    2  N4  UNL     1     -34.900   5.339   4.594  1.00 20.00    -0.267 NA
HETATM    3  S8  UNL     1     -33.696   7.404   5.989  1.00 20.00    -0.055 SA
ENDROOT
BRANCH   2   4
HETATM    4  C2  UNL     1     -33.987   4.418   3.919  1.00 20.00     0.267 C 
BRANCH   4   5
HETATM    5  C3  UNL     1     -33.395   5.101   2.712  1.00 20.00     0.405 C 
HETATM    6  F5  UNL     1     -32.858   4.192   1.869  1.00 20.00    -0.169 F 
HETATM    7  F6  UNL     1     -32.414   5.961   3.064  1.00 20.00    -0.169 F 
HETATM    8  F7  UNL     1     -34.331   5.791   2.027  1.00 20.00    -0.169 F 
ENDBRANCH   4   5
ENDBRANCH   2   4
TORSDOF 2
ENDMDL
MODEL 8
REMARK VINA RESULT:      -3.8      3.467      4.022
REMARK  2 active torsions:
REMARK  status: ('A' for Active; 'I' for Inactive)
REMARK    1  A    between atoms: C2_2  and  C3_3 
REMARK    2  A    between atoms: C2_2  and  N4_4 
ROOT
HETATM    1  C1  UNL     1     -34.345   5.701   4.141  1.00 20.00     0.157 C 
HETATM    2  N4  UNL     1     -34.160   6.161   3.075  1.00 20.00    -0.267 NA
HETATM    3  S8  UNL     1     -34.623   5.081   5.581  1.00 20.00    -0.055 SA
ENDROOT
BRANCH   2   4
HETATM    4  C2  UNL     1     -32.754   6.323   2.708  1.00 20.00     0.267 C 
BRANCH   4   5
HETATM    5  C3  UNL     1     -32.369   7.775   2.841  1.00 20.00     0.405 C 
HETATM    6  F5  UNL     1     -31.399   8.090   1.955  1.00 20.00    -0.169 F 
HETATM    7  F6  UNL     1     -31.900   8.050   4.076  1.00 20.00    -0.169 F 
HETATM    8  F7  UNL     1     -33.420   8.587   2.601  1.00 20.00    -0.169 F 
ENDBRANCH   4   5
ENDBRANCH   2   4
TORSDOF 2
ENDMDL
MODEL 9
REMARK VINA RESULT:      -3.4     11.716     12.201
REMARK  2 active torsions:
REMARK  status: ('A' for Active; 'I' for Inactive)
REMARK    1  A    between atoms: C2_2  and  C3_3 
REMARK    2  A    between atoms: C2_2  and  N4_4 
ROOT
HETATM    1  C1  UNL     1     -36.421  13.915  -5.080  1.00 20.00     0.157 C 
HETATM    2  N4  UNL     1     -35.346  13.450  -4.977  1.00 20.00    -0.267 NA
HETATM    3  S8  UNL     1     -37.887  14.523  -5.207  1.00 20.00    -0.055 SA
ENDROOT
BRANCH   2   4
HETATM    4  C2  UNL     1     -34.279  14.213  -5.623  1.00 20.00     0.267 C 
BRANCH   4   5
HETATM    5  C3  UNL     1     -33.322  14.718  -4.572  1.00 20.00     0.405 C 
HETATM    6  F5  UNL     1     -32.553  15.711  -5.071  1.00 20.00    -0.169 F 
HETATM    7  F6  UNL     1     -32.498  13.738  -4.145  1.00 20.00    -0.169 F 
HETATM    8  F7  UNL     1     -33.980  15.209  -3.501  1.00 20.00    -0.169 F 
ENDBRANCH   4   5
ENDBRANCH   2   4
TORSDOF 2
ENDMDL
