MODEL 1
REMARK VINA RESULT:      -5.6      0.000      0.000
REMARK  5 active torsions:
REMARK  status: ('A' for Active; 'I' for Inactive)
REMARK    1  A    between atoms: C5_5  and  C7_7 
REMARK    2  A    between atoms: C6_6  and  C8_8 
REMARK    3  A    between atoms: C6_6  and  C9_9 
REMARK    4  A    between atoms: C7_7  and  O11_11 
REMARK    5  A    between atoms: C9_9  and  O11_11 
ROOT
HETATM    1  C1  UNL     1     -32.707   9.202   0.110  1.00 20.00     0.061 C 
HETATM    2  C5  UNL     1     -31.833   8.798   1.222  1.00 20.00     0.150 C 
HETATM    3  N10 UNL     1     -33.395   9.521  -0.769  1.00 20.00    -0.197 NA
ENDROOT
BRANCH   2   4
HETATM    4  C7  UNL     1     -32.643   8.329   2.424  1.00 20.00     0.182 C 
BRANCH   4   5
HETATM    5  O11 UNL     1     -32.329   6.976   2.711  1.00 20.00    -0.385 OA
BRANCH   5   6
HETATM    6  C9  UNL     1     -33.477   6.137   2.569  1.00 20.00     0.117 C 
HETATM    7  C4  UNL     1     -33.014   4.687   2.532  1.00 20.00     0.039 C 
BRANCH   6   8
HETATM    8  C6  UNL     1     -34.417   6.448   3.740  1.00 20.00     0.035 C 
BRANCH   8   9
HETATM    9  C8  UNL     1     -33.865   6.143   5.144  1.00 20.00    -0.020 C 
HETATM   10  C2  UNL     1     -33.840   7.381   6.042  1.00 20.00     0.009 C 
HETATM   11  C3  UNL     1     -34.704   5.044   5.801  1.00 20.00     0.009 C 
ENDBRANCH   8   9
ENDBRANCH   6   8
ENDBRANCH   5   6
ENDBRANCH   4   5
ENDBRANCH   2   4
TORSDOF 5
ENDMDL
MODEL 2
REMARK VINA RESULT:      -5.3      2.416      5.163
REMARK  5 active torsions:
REMARK  status: ('A' for Active; 'I' for Inactive)
REMARK    1  A    between atoms: C5_5  and  C7_7 
REMARK    2  A    between atoms: C6_6  and  C8_8 
REMARK    3  A    between atoms: C6_6  and  C9_9 
REMARK    4  A    between atoms: C7_7  and  O11_11 
REMARK    5  A    between atoms: C9_9  and  O11_11 
ROOT
HETATM    1  C1  UNL     1     -34.220   6.367   5.010  1.00 20.00     0.061 C 
HETATM    2  C5  UNL     1     -34.423   5.630   3.752  1.00 20.00     0.150 C 
HETATM    3  N10 UNL     1     -34.061   6.947   6.002  1.00 20.00    -0.197 NA
ENDROOT
BRANCH   2   4
HETATM    4  C7  UNL     1     -33.984   6.453   2.548  1.00 20.00     0.182 C 
BRANCH   4   5
HETATM    5  O11 UNL     1     -32.588   6.692   2.619  1.00 20.00    -0.385 OA
BRANCH   5   6
HETATM    6  C9  UNL     1     -32.302   8.093   2.617  1.00 20.00     0.117 C 
HETATM    7  C4  UNL     1     -31.426   8.409   3.822  1.00 20.00     0.039 C 
BRANCH   6   8
HETATM    8  C6  UNL     1     -31.635   8.420   1.275  1.00 20.00     0.035 C 
BRANCH   8   9
HETATM    9  C8  UNL     1     -32.198   9.639   0.524  1.00 20.00    -0.020 C 
HETATM   10  C2  UNL     1     -33.193   9.244  -0.568  1.00 20.00     0.009 C 
HETATM   11  C3  UNL     1     -32.871  10.591   1.516  1.00 20.00     0.009 C 
ENDBRANCH   8   9
ENDBRANCH   6   8
ENDBRANCH   5   6
ENDBRANCH   4   5
ENDBRANCH   2   4
TORSDOF 5
ENDMDL
MODEL 3
REMARK VINA RESULT:      -5.2      2.646      5.105
REMARK  5 active torsions:
REMARK  status: ('A' for Active; 'I' for Inactive)
REMARK    1  A    between atoms: C5_5  and  C7_7 
REMARK    2  A    between atoms: C6_6  and  C8_8 
REMARK    3  A    between atoms: C6_6  and  C9_9 
REMARK    4  A    between atoms: C7_7  and  O11_11 
REMARK    5  A    between atoms: C9_9  and  O11_11 
ROOT
HETATM    1  C1  UNL     1     -34.516   4.894   5.133  1.00 20.00     0.061 C 
HETATM    2  C5  UNL     1     -34.626   6.156   5.882  1.00 20.00     0.150 C 
HETATM    3  N10 UNL     1     -34.430   3.899   4.543  1.00 20.00    -0.197 NA
ENDROOT
BRANCH   2   4
HETATM    4  C7  UNL     1     -33.520   7.130   5.499  1.00 20.00     0.182 C 
BRANCH   4   5
HETATM    5  O11 UNL     1     -33.729   7.589   4.173  1.00 20.00    -0.385 OA
BRANCH   5   6
HETATM    6  C9  UNL     1     -32.667   7.177   3.310  1.00 20.00     0.117 C 
HETATM    7  C4  UNL     1     -33.251   6.310   2.203  1.00 20.00     0.039 C 
BRANCH   6   8
HETATM    8  C6  UNL     1     -31.983   8.448   2.791  1.00 20.00     0.035 C 
BRANCH   8   9
HETATM    9  C8  UNL     1     -32.412   8.919   1.389  1.00 20.00    -0.020 C 
HETATM   10  C2  UNL     1     -32.832  10.389   1.371  1.00 20.00     0.009 C 
HETATM   11  C3  UNL     1     -31.267   8.696   0.397  1.00 20.00     0.009 C 
ENDBRANCH   8   9
ENDBRANCH   6   8
ENDBRANCH   5   6
ENDBRANCH   4   5
ENDBRANCH   2   4
TORSDOF 5
ENDMDL
MODEL 4
REMARK VINA RESULT:      -5.2      1.111      1.834
REMARK  5 active torsions:
REMARK  status: ('A' for Active; 'I' for Inactive)
REMARK    1  A    between atoms: C5_5  and  C7_7 
REMARK    2  A    between atoms: C6_6  and  C8_8 
REMARK    3  A    between atoms: C6_6  and  C9_9 
REMARK    4  A    between atoms: C7_7  and  O11_11 
REMARK    5  A    between atoms: C9_9  and  O11_11 
ROOT
HETATM    1  C1  UNL     1     -32.878   9.456   0.231  1.00 20.00     0.061 C 
HETATM    2  C5  UNL     1     -32.285   9.688   1.557  1.00 20.00     0.150 C 
HETATM    3  N10 UNL     1     -33.345   9.274  -0.816  1.00 20.00    -0.197 NA
ENDROOT
BRANCH   2   4
HETATM    4  C7  UNL     1     -31.890   8.379   2.227  1.00 20.00     0.182 C 
BRANCH   4   5
HETATM    5  O11 UNL     1     -32.991   7.485   2.210  1.00 20.00    -0.385 OA
BRANCH   5   6
HETATM    6  C9  UNL     1     -33.148   6.833   3.472  1.00 20.00     0.117 C 
HETATM    7  C4  UNL     1     -32.751   7.807   4.573  1.00 20.00     0.039 C 
BRANCH   6   8
HETATM    8  C6  UNL     1     -34.605   6.366   3.566  1.00 20.00     0.035 C 
BRANCH   8   9
HETATM    9  C8  UNL     1     -34.855   5.105   4.412  1.00 20.00    -0.020 C 
HETATM   10  C2  UNL     1     -33.943   3.945   4.012  1.00 20.00     0.009 C 
HETATM   11  C3  UNL     1     -34.657   5.431   5.895  1.00 20.00     0.009 C 
ENDBRANCH   8   9
ENDBRANCH   6   8
ENDBRANCH   5   6
ENDBRANCH   4   5
ENDBRANCH   2   4
TORSDOF 5
ENDMDL
MODEL 5
REMARK VINA RESULT:      -4.8      2.469      4.706
REMARK  5 active torsions:
REMARK  status: ('A' for Active; 'I' for Inactive)
REMARK    1  A    between atoms: C5_5  and  C7_7 
REMARK    2  A    between atoms: C6_6  and  C8_8 
REMARK    3  A    between atoms: C6_6  and  C9_9 
REMARK    4  A    between atoms: C7_7  and  O11_11 
REMARK    5  A    between atoms: C9_9  and  O11_11 
ROOT
HETATM    1  C1  UNL     1     -34.143   6.484   6.005  1.00 20.00     0.061 C 
HETATM    2  C5  UNL     1     -34.683   5.121   5.870  1.00 20.00     0.150 C 
HETATM    3  N10 UNL     1     -33.718   7.558   6.113  1.00 20.00    -0.197 NA
ENDROOT
BRANCH   2   4
HETATM    4  C7  UNL     1     -34.575   4.620   4.436  1.00 20.00     0.182 C 
BRANCH   4   5
HETATM    5  O11 UNL     1     -34.595   5.722   3.544  1.00 20.00    -0.385 OA
BRANCH   5   6
HETATM    6  C9  UNL     1     -33.298   5.968   2.996  1.00 20.00     0.117 C 
HETATM    7  C4  UNL     1     -32.888   4.760   2.164  1.00 20.00     0.039 C 
BRANCH   6   8
HETATM    8  C6  UNL     1     -33.384   7.266   2.184  1.00 20.00     0.035 C 
BRANCH   8   9
HETATM    9  C8  UNL     1     -32.077   8.069   2.058  1.00 20.00    -0.020 C 
HETATM   10  C2  UNL     1     -32.285   9.416   1.366  1.00 20.00     0.009 C 
HETATM   11  C3  UNL     1     -31.472   8.290   3.447  1.00 20.00     0.009 C 
ENDBRANCH   8   9
ENDBRANCH   6   8
ENDBRANCH   5   6
ENDBRANCH   4   5
ENDBRANCH   2   4
TORSDOF 5
ENDMDL
MODEL 6
REMARK VINA RESULT:      -4.3     10.889     11.360
REMARK  5 active torsions:
REMARK  status: ('A' for Active; 'I' for Inactive)
REMARK    1  A    between atoms: C5_5  and  C7_7 
REMARK    2  A    between atoms: C6_6  and  C8_8 
REMARK    3  A    between atoms: C6_6  and  C9_9 
REMARK    4  A    between atoms: C7_7  and  O11_11 
REMARK    5  A    between atoms: C9_9  and  O11_11 
ROOT
HETATM    1  C1  UNL     1     -35.991  13.458  -5.616  1.00 20.00     0.061 C 
HETATM    2  C5  UNL     1     -36.782  14.462  -4.886  1.00 20.00     0.150 C 
HETATM    3  N10 UNL     1     -35.369  12.667  -6.193  1.00 20.00    -0.197 NA
ENDROOT
BRANCH   2   4
HETATM    4  C7  UNL     1     -35.886  15.446  -4.147  1.00 20.00     0.182 C 
BRANCH   4   5
HETATM    5  O11 UNL     1     -34.689  14.795  -3.751  1.00 20.00    -0.385 OA
BRANCH   5   6
HETATM    6  C9  UNL     1     -33.579  15.695  -3.770  1.00 20.00     0.117 C 
HETATM    7  C4  UNL     1     -33.125  15.873  -5.212  1.00 20.00     0.039 C 
BRANCH   6   8
HETATM    8  C6  UNL     1     -34.040  17.001  -3.110  1.00 20.00     0.035 C 
BRANCH   8   9
HETATM    9  C8  UNL     1     -33.806  17.108  -1.593  1.00 20.00    -0.020 C 
HETATM   10  C2  UNL     1     -32.834  18.231  -1.230  1.00 20.00     0.009 C 
HETATM   11  C3  UNL     1     -35.143  17.330  -0.879  1.00 20.00     0.009 C 
ENDBRANCH   8   9
ENDBRANCH   6   8
ENDBRANCH   5   6
ENDBRANCH   4   5
ENDBRANCH   2   4
TORSDOF 5
ENDMDL
MODEL 7
REMARK VINA RESULT:      -4.2     10.788     11.618
REMARK  5 active torsions:
REMARK  status: ('A' for Active; 'I' for Inactive)
REMARK    1  A    between atoms: C5_5  and  C7_7 
REMARK    2  A    between atoms: C6_6  and  C8_8 
REMARK    3  A    between atoms: C6_6  and  C9_9 
REMARK    4  A    between atoms: C7_7  and  O11_11 
REMARK    5  A    between atoms: C9_9  and  O11_11 
ROOT
HETATM    1  C1  UNL     1     -34.690  13.417  -7.213  1.00 20.00     0.061 C 
HETATM    2  C5  UNL     1     -34.164  14.726  -7.630  1.00 20.00     0.150 C 
HETATM    3  N10 UNL     1     -35.105  12.383  -6.887  1.00 20.00    -0.197 NA
ENDROOT
BRANCH   2   4
HETATM    4  C7  UNL     1     -33.674  15.534  -6.436  1.00 20.00     0.182 C 
BRANCH   4   5
HETATM    5  O11 UNL     1     -34.683  15.569  -5.439  1.00 20.00    -0.385 OA
BRANCH   5   6
HETATM    6  C9  UNL     1     -34.130  15.374  -4.136  1.00 20.00     0.117 C 
HETATM    7  C4  UNL     1     -32.894  14.494  -4.261  1.00 20.00     0.039 C 
BRANCH   6   8
HETATM    8  C6  UNL     1     -33.834  16.761  -3.554  1.00 20.00     0.035 C 
BRANCH   8   9
HETATM    9  C8  UNL     1     -33.790  16.851  -2.018  1.00 20.00    -0.020 C 
HETATM   10  C2  UNL     1     -32.992  18.059  -1.527  1.00 20.00     0.009 C 
HETATM   11  C3  UNL     1     -35.215  16.913  -1.463  1.00 20.00     0.009 C 
ENDBRANCH   8   9
ENDBRANCH   6   8
ENDBRANCH   5   6
ENDBRANCH   4   5
ENDBRANCH   2   4
TORSDOF 5
ENDMDL
MODEL 8
REMARK VINA RESULT:      -4.2     11.004     11.906
REMARK  5 active torsions:
REMARK  status: ('A' for Active; 'I' for Inactive)
REMARK    1  A    between atoms: C5_5  and  C7_7 
REMARK    2  A    between atoms: C6_6  and  C8_8 
REMARK    3  A    between atoms: C6_6  and  C9_9 
REMARK    4  A    between atoms: C7_7  and  O11_11 
REMARK    5  A    between atoms: C9_9  and  O11_11 
ROOT
HETATM    1  C1  UNL     1     -35.415  13.432  -6.143  1.00 20.00     0.061 C 
HETATM    2  C5  UNL     1     -34.752  14.110  -7.268  1.00 20.00     0.150 C 
HETATM    3  N10 UNL     1     -35.938  12.896  -5.256  1.00 20.00    -0.197 NA
ENDROOT
BRANCH   2   4
HETATM    4  C7  UNL     1     -34.046  15.381  -6.814  1.00 20.00     0.182 C 
BRANCH   4   5
HETATM    5  O11 UNL     1     -33.355  15.133  -5.600  1.00 20.00    -0.385 OA
BRANCH   5   6
HETATM    6  C9  UNL     1     -33.281  16.313  -4.796  1.00 20.00     0.117 C 
HETATM    7  C4  UNL     1     -34.063  17.420  -5.489  1.00 20.00     0.039 C 
BRANCH   6   8
HETATM    8  C6  UNL     1     -33.829  15.955  -3.409  1.00 20.00     0.035 C 
BRANCH   8   9
HETATM    9  C8  UNL     1     -34.259  17.142  -2.529  1.00 20.00    -0.020 C 
HETATM   10  C2  UNL     1     -35.398  16.780  -1.576  1.00 20.00     0.009 C 
HETATM   11  C3  UNL     1     -33.057  17.652  -1.728  1.00 20.00     0.009 C 
ENDBRANCH   8   9
ENDBRANCH   6   8
ENDBRANCH   5   6
ENDBRANCH   4   5
ENDBRANCH   2   4
TORSDOF 5
ENDMDL
MODEL 9
REMARK VINA RESULT:      -4.0     10.835     11.633
REMARK  5 active torsions:
REMARK  status: ('A' for Active; 'I' for Inactive)
REMARK    1  A    between atoms: C5_5  and  C7_7 
REMARK    2  A    between atoms: C6_6  and  C8_8 
REMARK    3  A    between atoms: C6_6  and  C9_9 
REMARK    4  A    between atoms: C7_7  and  O11_11 
REMARK    5  A    between atoms: C9_9  and  O11_11 
ROOT
HETATM    1  C1  UNL     1     -37.118  13.984  -5.206  1.00 20.00     0.061 C 
HETATM    2  C5  UNL     1     -35.740  13.688  -5.625  1.00 20.00     0.150 C 
HETATM    3  N10 UNL     1     -38.207  14.216  -4.875  1.00 20.00    -0.197 NA
ENDROOT
BRANCH   2   4
HETATM    4  C7  UNL     1     -34.728  14.179  -4.599  1.00 20.00     0.182 C 
BRANCH   4   5
HETATM    5  O11 UNL     1     -33.753  14.985  -5.240  1.00 20.00    -0.385 OA
BRANCH   5   6
HETATM    6  C9  UNL     1     -33.465  16.157  -4.474  1.00 20.00     0.117 C 
HETATM    7  C4  UNL     1     -34.029  17.366  -5.206  1.00 20.00     0.039 C 
BRANCH   6   8
HETATM    8  C6  UNL     1     -34.071  15.950  -3.080  1.00 20.00     0.035 C 
BRANCH   8   9
HETATM    9  C8  UNL     1     -34.331  17.228  -2.263  1.00 20.00    -0.020 C 
HETATM   10  C2  UNL     1     -35.373  17.017  -1.165  1.00 20.00     0.009 C 
HETATM   11  C3  UNL     1     -33.020  17.720  -1.644  1.00 20.00     0.009 C 
ENDBRANCH   8   9
ENDBRANCH   6   8
ENDBRANCH   5   6
ENDBRANCH   4   5
ENDBRANCH   2   4
TORSDOF 5
ENDMDL
