MODEL 1
REMARK VINA RESULT:      -5.6      0.000      0.000
REMARK  0 active torsions:
REMARK  status: ('A' for Active; 'I' for Inactive)
ROOT
HETATM    1  C1  UNL     1     -33.072   6.142   2.706  1.00 20.00     0.061 A 
HETATM    2  C2  UNL     1     -32.756   8.169   4.656  1.00 20.00     0.053 A 
HETATM    3  C3  UNL     1     -33.610   6.033   3.975  1.00 20.00     0.019 A 
HETATM    4  C4  UNL     1     -33.466   7.017   4.946  1.00 20.00    -0.041 A 
HETATM    5  C5  UNL     1     -32.356   7.303   2.411  1.00 20.00     0.155 A 
HETATM    6  C6  UNL     1     -32.199   8.310   3.380  1.00 20.00     0.155 A 
HETATM    7  C7  UNL     1     -34.391   4.946   4.541  1.00 20.00     0.160 A 
HETATM    8  C8  UNL     1     -34.138   6.663   6.234  1.00 20.00     0.047 A 
HETATM    9  C9  UNL     1     -34.757   5.279   5.968  1.00 20.00     0.088 A 
HETATM   10  O10 UNL     1     -34.692   3.932   3.938  1.00 20.00    -0.292 OA
HETATM   11  F11 UNL     1     -31.813   7.461   1.197  1.00 20.00    -0.203 F 
HETATM   12  F12 UNL     1     -31.508   9.417   3.076  1.00 20.00    -0.203 F 
ENDROOT
TORSDOF 0
ENDMDL
MODEL 2
REMARK VINA RESULT:      -5.5      3.112      4.605
REMARK  0 active torsions:
REMARK  status: ('A' for Active; 'I' for Inactive)
ROOT
HETATM    1  C1  UNL     1     -33.341   7.176   5.322  1.00 20.00     0.061 A 
HETATM    2  C2  UNL     1     -34.245   5.873   2.978  1.00 20.00     0.053 A 
HETATM    3  C3  UNL     1     -32.847   7.488   4.069  1.00 20.00     0.019 A 
HETATM    4  C4  UNL     1     -33.277   6.861   2.907  1.00 20.00    -0.041 A 
HETATM    5  C5  UNL     1     -34.316   6.180   5.396  1.00 20.00     0.155 A 
HETATM    6  C6  UNL     1     -34.765   5.533   4.231  1.00 20.00     0.155 A 
HETATM    7  C7  UNL     1     -31.839   8.472   3.708  1.00 20.00     0.160 A 
HETATM    8  C8  UNL     1     -32.592   7.375   1.682  1.00 20.00     0.047 A 
HETATM    9  C9  UNL     1     -31.629   8.452   2.213  1.00 20.00     0.088 A 
HETATM   10  O10 UNL     1     -31.267   9.192   4.507  1.00 20.00    -0.292 OA
HETATM   11  F11 UNL     1     -34.829   5.837   6.584  1.00 20.00    -0.203 F 
HETATM   12  F12 UNL     1     -35.703   4.580   4.325  1.00 20.00    -0.203 F 
ENDROOT
TORSDOF 0
ENDMDL
MODEL 3
REMARK VINA RESULT:      -5.3      2.956      4.010
REMARK  0 active torsions:
REMARK  status: ('A' for Active; 'I' for Inactive)
ROOT
HETATM    1  C1  UNL     1     -34.124   6.136   3.077  1.00 20.00     0.061 A 
HETATM    2  C2  UNL     1     -33.449   7.086   5.656  1.00 20.00     0.053 A 
HETATM    3  C3  UNL     1     -33.208   7.154   3.270  1.00 20.00     0.019 A 
HETATM    4  C4  UNL     1     -32.863   7.634   4.527  1.00 20.00    -0.041 A 
HETATM    5  C5  UNL     1     -34.715   5.583   4.212  1.00 20.00     0.155 A 
HETATM    6  C6  UNL     1     -34.380   6.055   5.493  1.00 20.00     0.155 A 
HETATM    7  C7  UNL     1     -32.452   7.899   2.276  1.00 20.00     0.160 A 
HETATM    8  C8  UNL     1     -31.853   8.735   4.471  1.00 20.00     0.047 A 
HETATM    9  C9  UNL     1     -31.576   8.915   2.968  1.00 20.00     0.088 A 
HETATM   10  O10 UNL     1     -32.530   7.713   1.075  1.00 20.00    -0.292 OA
HETATM   11  F11 UNL     1     -35.610   4.595   4.083  1.00 20.00    -0.203 F 
HETATM   12  F12 UNL     1     -34.961   5.508   6.572  1.00 20.00    -0.203 F 
ENDROOT
TORSDOF 0
ENDMDL
MODEL 4
REMARK VINA RESULT:      -5.3      1.293      2.418
REMARK  0 active torsions:
REMARK  status: ('A' for Active; 'I' for Inactive)
ROOT
HETATM    1  C1  UNL     1     -32.726   8.170   4.493  1.00 20.00     0.061 A 
HETATM    2  C2  UNL     1     -32.958   6.402   2.295  1.00 20.00     0.053 A 
HETATM    3  C3  UNL     1     -33.448   6.994   4.568  1.00 20.00     0.019 A 
HETATM    4  C4  UNL     1     -33.574   6.112   3.501  1.00 20.00    -0.041 A 
HETATM    5  C5  UNL     1     -32.105   8.464   3.279  1.00 20.00     0.155 A 
HETATM    6  C6  UNL     1     -32.220   7.586   2.187  1.00 20.00     0.155 A 
HETATM    7  C7  UNL     1     -34.185   6.449   5.697  1.00 20.00     0.160 A 
HETATM    8  C8  UNL     1     -34.403   4.914   3.833  1.00 20.00     0.047 A 
HETATM    9  C9  UNL     1     -34.815   5.135   5.300  1.00 20.00     0.088 A 
HETATM   10  O10 UNL     1     -34.267   6.987   6.785  1.00 20.00    -0.292 OA
HETATM   11  F11 UNL     1     -31.394   9.591   3.150  1.00 20.00    -0.203 F 
HETATM   12  F12 UNL     1     -31.615   7.888   1.030  1.00 20.00    -0.203 F 
ENDROOT
TORSDOF 0
ENDMDL
MODEL 5
REMARK VINA RESULT:      -5.3     11.543     12.792
REMARK  0 active torsions:
REMARK  status: ('A' for Active; 'I' for Inactive)
ROOT
HETATM    1  C1  UNL     1     -34.836  14.994  -3.706  1.00 20.00     0.061 A 
HETATM    2  C2  UNL     1     -33.458  16.714  -5.481  1.00 20.00     0.053 A 
HETATM    3  C3  UNL     1     -34.716  14.716  -5.055  1.00 20.00     0.019 A 
HETATM    4  C4  UNL     1     -34.044  15.548  -5.943  1.00 20.00    -0.041 A 
HETATM    5  C5  UNL     1     -34.247  16.169  -3.239  1.00 20.00     0.155 A 
HETATM    6  C6  UNL     1     -33.562  17.023  -4.121  1.00 20.00     0.155 A 
HETATM    7  C7  UNL     1     -35.227  13.576  -5.799  1.00 20.00     0.160 A 
HETATM    8  C8  UNL     1     -34.055  15.028  -7.345  1.00 20.00     0.047 A 
HETATM    9  C9  UNL     1     -34.845  13.711  -7.253  1.00 20.00     0.088 A 
HETATM   10  O10 UNL     1     -35.863  12.664  -5.303  1.00 20.00    -0.292 OA
HETATM   11  F11 UNL     1     -34.333  16.487  -1.941  1.00 20.00    -0.203 F 
HETATM   12  F12 UNL     1     -33.003  18.147  -3.651  1.00 20.00    -0.203 F 
ENDROOT
TORSDOF 0
ENDMDL
MODEL 6
REMARK VINA RESULT:      -5.1     12.224     12.422
REMARK  0 active torsions:
REMARK  status: ('A' for Active; 'I' for Inactive)
ROOT
HETATM    1  C1  UNL     1     -33.188  17.147  -2.325  1.00 20.00     0.061 A 
HETATM    2  C2  UNL     1     -35.732  17.231  -1.086  1.00 20.00     0.053 A 
HETATM    3  C3  UNL     1     -33.381  17.709  -1.076  1.00 20.00     0.019 A 
HETATM    4  C4  UNL     1     -34.621  17.760  -0.451  1.00 20.00    -0.041 A 
HETATM    5  C5  UNL     1     -34.306  16.614  -2.966  1.00 20.00     0.155 A 
HETATM    6  C6  UNL     1     -35.569  16.655  -2.351  1.00 20.00     0.155 A 
HETATM    7  C7  UNL     1     -32.402  18.328  -0.197  1.00 20.00     0.160 A 
HETATM    8  C8  UNL     1     -34.567  18.417   0.891  1.00 20.00     0.047 A 
HETATM    9  C9  UNL     1     -33.086  18.799   1.065  1.00 20.00     0.088 A 
HETATM   10  O10 UNL     1     -31.219  18.438  -0.458  1.00 20.00    -0.292 OA
HETATM   11  F11 UNL     1     -34.177  16.057  -4.177  1.00 20.00    -0.203 F 
HETATM   12  F12 UNL     1     -36.631  16.137  -2.985  1.00 20.00    -0.203 F 
ENDROOT
TORSDOF 0
ENDMDL
MODEL 7
REMARK VINA RESULT:      -4.9     11.914     12.337
REMARK  0 active torsions:
REMARK  status: ('A' for Active; 'I' for Inactive)
ROOT
HETATM    1  C1  UNL     1     -35.423  17.226  -0.597  1.00 20.00     0.061 A 
HETATM    2  C2  UNL     1     -32.832  17.818  -1.570  1.00 20.00     0.053 A 
HETATM    3  C3  UNL     1     -34.512  17.963   0.137  1.00 20.00     0.019 A 
HETATM    4  C4  UNL     1     -33.236  18.264  -0.323  1.00 20.00    -0.041 A 
HETATM    5  C5  UNL     1     -35.019  16.776  -1.853  1.00 20.00     0.155 A 
HETATM    6  C6  UNL     1     -33.732  17.070  -2.337  1.00 20.00     0.155 A 
HETATM    7  C7  UNL     1     -34.669  18.548   1.458  1.00 20.00     0.160 A 
HETATM    8  C8  UNL     1     -32.443  19.072   0.654  1.00 20.00     0.047 A 
HETATM    9  C9  UNL     1     -33.397  19.263   1.847  1.00 20.00     0.088 A 
HETATM   10  O10 UNL     1     -35.681  18.462   2.130  1.00 20.00    -0.292 OA
HETATM   11  F11 UNL     1     -35.861  16.057  -2.607  1.00 20.00    -0.203 F 
HETATM   12  F12 UNL     1     -33.364  16.627  -3.548  1.00 20.00    -0.203 F 
ENDROOT
TORSDOF 0
ENDMDL
MODEL 8
REMARK VINA RESULT:      -4.8     11.950     12.270
REMARK  0 active torsions:
REMARK  status: ('A' for Active; 'I' for Inactive)
ROOT
HETATM    1  C1  UNL     1     -36.195  15.646  -3.204  1.00 20.00     0.061 A 
HETATM    2  C2  UNL     1     -33.514  15.707  -4.109  1.00 20.00     0.053 A 
HETATM    3  C3  UNL     1     -35.778  14.940  -4.317  1.00 20.00     0.019 A 
HETATM    4  C4  UNL     1     -34.467  14.957  -4.778  1.00 20.00    -0.041 A 
HETATM    5  C5  UNL     1     -35.237  16.402  -2.530  1.00 20.00     0.155 A 
HETATM    6  C6  UNL     1     -33.905  16.432  -2.979  1.00 20.00     0.155 A 
HETATM    7  C7  UNL     1     -36.557  14.082  -5.196  1.00 20.00     0.160 A 
HETATM    8  C8  UNL     1     -34.269  14.114  -5.996  1.00 20.00     0.047 A 
HETATM    9  C9  UNL     1     -35.664  13.528  -6.280  1.00 20.00     0.088 A 
HETATM   10  O10 UNL     1     -37.746  13.860  -5.058  1.00 20.00    -0.292 OA
HETATM   11  F11 UNL     1     -35.586  17.106  -1.445  1.00 20.00    -0.203 F 
HETATM   12  F12 UNL     1     -33.000  17.166  -2.315  1.00 20.00    -0.203 F 
ENDROOT
TORSDOF 0
ENDMDL
MODEL 9
REMARK VINA RESULT:      -4.8     12.210     12.664
REMARK  0 active torsions:
REMARK  status: ('A' for Active; 'I' for Inactive)
ROOT
HETATM    1  C1  UNL     1     -33.713  18.713   1.271  1.00 20.00     0.061 A 
HETATM    2  C2  UNL     1     -36.115  17.542   0.337  1.00 20.00     0.053 A 
HETATM    3  C3  UNL     1     -33.809  18.127   0.022  1.00 20.00     0.019 A 
HETATM    4  C4  UNL     1     -34.979  17.547  -0.455  1.00 20.00    -0.041 A 
HETATM    5  C5  UNL     1     -34.857  18.709   2.070  1.00 20.00     0.155 A 
HETATM    6  C6  UNL     1     -36.050  18.127   1.606  1.00 20.00     0.155 A 
HETATM    7  C7  UNL     1     -32.786  17.994  -1.001  1.00 20.00     0.160 A 
HETATM    8  C8  UNL     1     -34.826  16.982  -1.831  1.00 20.00     0.047 A 
HETATM    9  C9  UNL     1     -33.362  17.278  -2.199  1.00 20.00     0.088 A 
HETATM   10  O10 UNL     1     -31.645  18.405  -0.887  1.00 20.00    -0.292 OA
HETATM   11  F11 UNL     1     -34.820  19.262   3.289  1.00 20.00    -0.203 F 
HETATM   12  F12 UNL     1     -37.137  18.134   2.390  1.00 20.00    -0.203 F 
ENDROOT
TORSDOF 0
ENDMDL
