MODEL 1
REMARK VINA RESULT:      -4.9      0.000      0.000
REMARK  1 active torsions:
REMARK  status: ('A' for Active; 'I' for Inactive)
REMARK    1  A    between atoms: C3_3  and  C8_8 
ROOT
HETATM    1  C1  UNL     1     -32.651   6.327   2.147  1.00 20.00     0.058 A 
HETATM    2  C2  UNL     1     -33.318   7.057   4.220  1.00 20.00    -0.037 A 
HETATM    3  C3  UNL     1     -32.558   7.356   3.071  1.00 20.00    -0.031 A 
HETATM    4  C4  UNL     1     -33.943   5.844   4.128  1.00 20.00    -0.011 A 
HETATM    5  C5  UNL     1     -33.619   7.720   5.512  1.00 20.00     0.040 C 
HETATM    6  C6  UNL     1     -34.754   5.492   5.316  1.00 20.00     0.047 C 
HETATM    7  C7  UNL     1     -34.252   6.558   6.340  1.00 20.00     0.010 C 
HETATM    8  S9  UNL     1     -33.657   5.031   2.696  1.00 20.00    -0.105 SA
ENDROOT
BRANCH   3   9
HETATM    9  C8  UNL     1     -31.770   8.592   2.873  1.00 20.00     0.154 C 
HETATM   10 CL10 UNL     1     -32.161   9.357   1.312  1.00 20.00    -0.126 Cl
ENDBRANCH   3   9
TORSDOF 1
ENDMDL
MODEL 2
REMARK VINA RESULT:      -4.4      1.663      2.355
REMARK  1 active torsions:
REMARK  status: ('A' for Active; 'I' for Inactive)
REMARK    1  A    between atoms: C3_3  and  C8_8 
ROOT
HETATM    1  C1  UNL     1     -32.802   8.268   4.556  1.00 20.00     0.058 A 
HETATM    2  C2  UNL     1     -33.361   6.167   3.814  1.00 20.00    -0.037 A 
HETATM    3  C3  UNL     1     -32.747   7.392   3.484  1.00 20.00    -0.031 A 
HETATM    4  C4  UNL     1     -33.847   6.158   5.093  1.00 20.00    -0.011 A 
HETATM    5  C5  UNL     1     -33.617   4.875   3.133  1.00 20.00     0.040 C 
HETATM    6  C6  UNL     1     -34.500   4.887   5.482  1.00 20.00     0.047 C 
HETATM    7  C7  UNL     1     -34.650   4.197   4.089  1.00 20.00     0.010 C 
HETATM    8  S9  UNL     1     -33.593   7.581   5.933  1.00 20.00    -0.105 SA
ENDROOT
BRANCH   3   9
HETATM    9  C8  UNL     1     -32.128   7.705   2.177  1.00 20.00     0.154 C 
HETATM   10 CL10 UNL     1     -32.530   9.361   1.658  1.00 20.00    -0.126 Cl
ENDBRANCH   3   9
TORSDOF 1
ENDMDL
MODEL 3
REMARK VINA RESULT:      -4.2     11.617     12.031
REMARK  1 active torsions:
REMARK  status: ('A' for Active; 'I' for Inactive)
REMARK    1  A    between atoms: C3_3  and  C8_8 
ROOT
HETATM    1  C1  UNL     1     -35.478  16.966  -1.208  1.00 20.00     0.058 A 
HETATM    2  C2  UNL     1     -33.443  17.925  -0.741  1.00 20.00    -0.037 A 
HETATM    3  C3  UNL     1     -34.186  17.166  -1.669  1.00 20.00    -0.031 A 
HETATM    4  C4  UNL     1     -34.179  18.263   0.361  1.00 20.00    -0.011 A 
HETATM    5  C5  UNL     1     -32.062  18.457  -0.649  1.00 20.00     0.040 C 
HETATM    6  C6  UNL     1     -33.436  19.063   1.361  1.00 20.00     0.047 C 
HETATM    7  C7  UNL     1     -31.971  18.880   0.851  1.00 20.00     0.010 C 
HETATM    8  S9  UNL     1     -35.755  17.704   0.333  1.00 20.00    -0.105 SA
ENDROOT
BRANCH   3   9
HETATM    9  C8  UNL     1     -33.666  16.653  -2.955  1.00 20.00     0.154 C 
HETATM   10 CL10 UNL     1     -34.650  15.290  -3.545  1.00 20.00    -0.126 Cl
ENDBRANCH   3   9
TORSDOF 1
ENDMDL
MODEL 4
REMARK VINA RESULT:      -4.1     11.697     12.165
REMARK  1 active torsions:
REMARK  status: ('A' for Active; 'I' for Inactive)
REMARK    1  A    between atoms: C3_3  and  C8_8 
ROOT
HETATM    1  C1  UNL     1     -34.367  18.546   1.407  1.00 20.00     0.058 A 
HETATM    2  C2  UNL     1     -33.746  17.876  -0.700  1.00 20.00    -0.037 A 
HETATM    3  C3  UNL     1     -33.346  18.552   0.470  1.00 20.00    -0.031 A 
HETATM    4  C4  UNL     1     -35.023  17.394  -0.611  1.00 20.00    -0.011 A 
HETATM    5  C5  UNL     1     -33.138  17.547  -2.012  1.00 20.00     0.040 C 
HETATM    6  C6  UNL     1     -35.483  16.674  -1.820  1.00 20.00     0.047 C 
HETATM    7  C7  UNL     1     -34.377  17.086  -2.844  1.00 20.00     0.010 C 
HETATM    8  S9  UNL     1     -35.779  17.720   0.844  1.00 20.00    -0.105 SA
ENDROOT
BRANCH   3   9
HETATM    9  C8  UNL     1     -32.023  19.181   0.676  1.00 20.00     0.154 C 
HETATM   10 CL10 UNL     1     -31.197  18.487   2.094  1.00 20.00    -0.126 Cl
ENDBRANCH   3   9
TORSDOF 1
ENDMDL
MODEL 5
REMARK VINA RESULT:      -4.0     11.610     11.870
REMARK  1 active torsions:
REMARK  status: ('A' for Active; 'I' for Inactive)
REMARK    1  A    between atoms: C3_3  and  C8_8 
ROOT
HETATM    1  C1  UNL     1     -35.530  15.338  -4.838  1.00 20.00     0.058 A 
HETATM    2  C2  UNL     1     -34.422  16.407  -3.133  1.00 20.00    -0.037 A 
HETATM    3  C3  UNL     1     -34.285  15.671  -4.327  1.00 20.00    -0.031 A 
HETATM    4  C4  UNL     1     -35.732  16.602  -2.790  1.00 20.00    -0.011 A 
HETATM    5  C5  UNL     1     -33.510  17.032  -2.145  1.00 20.00     0.040 C 
HETATM    6  C6  UNL     1     -35.921  17.373  -1.541  1.00 20.00     0.047 C 
HETATM    7  C7  UNL     1     -34.474  17.342  -0.956  1.00 20.00     0.010 C 
HETATM    8  S9  UNL     1     -36.828  15.929  -3.859  1.00 20.00    -0.105 SA
ENDROOT
BRANCH   3   9
HETATM    9  C8  UNL     1     -32.996  15.302  -4.953  1.00 20.00     0.154 C 
HETATM   10 CL10 UNL     1     -32.249  13.919  -4.113  1.00 20.00    -0.126 Cl
ENDBRANCH   3   9
TORSDOF 1
ENDMDL
MODEL 6
REMARK VINA RESULT:      -3.9     11.799     12.272
REMARK  1 active torsions:
REMARK  status: ('A' for Active; 'I' for Inactive)
REMARK    1  A    between atoms: C3_3  and  C8_8 
ROOT
HETATM    1  C1  UNL     1     -33.120  18.735   0.836  1.00 20.00     0.058 A 
HETATM    2  C2  UNL     1     -34.524  17.639  -0.616  1.00 20.00    -0.037 A 
HETATM    3  C3  UNL     1     -34.398  18.229   0.659  1.00 20.00    -0.031 A 
HETATM    4  C4  UNL     1     -33.367  17.718  -1.341  1.00 20.00    -0.011 A 
HETATM    5  C5  UNL     1     -35.592  16.953  -1.382  1.00 20.00     0.040 C 
HETATM    6  C6  UNL     1     -33.456  17.111  -2.688  1.00 20.00     0.047 C 
HETATM    7  C7  UNL     1     -34.793  16.315  -2.563  1.00 20.00     0.010 C 
HETATM    8  S9  UNL     1     -32.110  18.485  -0.547  1.00 20.00    -0.105 SA
ENDROOT
BRANCH   3   9
HETATM    9  C8  UNL     1     -35.475  18.300   1.670  1.00 20.00     0.154 C 
HETATM   10 CL10 UNL     1     -34.824  18.749   3.267  1.00 20.00    -0.126 Cl
ENDBRANCH   3   9
TORSDOF 1
ENDMDL
MODEL 7
REMARK VINA RESULT:      -3.9     11.589     11.934
REMARK  1 active torsions:
REMARK  status: ('A' for Active; 'I' for Inactive)
REMARK    1  A    between atoms: C3_3  and  C8_8 
ROOT
HETATM    1  C1  UNL     1     -32.940  17.904  -1.494  1.00 20.00     0.058 A 
HETATM    2  C2  UNL     1     -34.649  17.784   0.037  1.00 20.00    -0.037 A 
HETATM    3  C3  UNL     1     -34.216  17.419  -1.254  1.00 20.00    -0.031 A 
HETATM    4  C4  UNL     1     -33.709  18.513   0.712  1.00 20.00    -0.011 A 
HETATM    5  C5  UNL     1     -35.864  17.580   0.860  1.00 20.00     0.040 C 
HETATM    6  C6  UNL     1     -34.123  18.916   2.075  1.00 20.00     0.047 C 
HETATM    7  C7  UNL     1     -35.651  18.602   2.022  1.00 20.00     0.010 C 
HETATM    8  S9  UNL     1     -32.301  18.784  -0.149  1.00 20.00    -0.105 SA
ENDROOT
BRANCH   3   9
HETATM    9  C8  UNL     1     -35.008  16.629  -2.223  1.00 20.00     0.154 C 
HETATM   10 CL10 UNL     1     -33.948  15.793  -3.386  1.00 20.00    -0.126 Cl
ENDBRANCH   3   9
TORSDOF 1
ENDMDL
MODEL 8
REMARK VINA RESULT:      -3.9     12.043     12.307
REMARK  1 active torsions:
REMARK  status: ('A' for Active; 'I' for Inactive)
REMARK    1  A    between atoms: C3_3  and  C8_8 
ROOT
HETATM    1  C1  UNL     1     -35.189  18.543   1.554  1.00 20.00     0.058 A 
HETATM    2  C2  UNL     1     -32.934  18.717   1.153  1.00 20.00    -0.037 A 
HETATM    3  C3  UNL     1     -34.206  18.523   0.578  1.00 20.00    -0.031 A 
HETATM    4  C4  UNL     1     -32.997  18.874   2.510  1.00 20.00    -0.011 A 
HETATM    5  C5  UNL     1     -31.535  18.799   0.667  1.00 20.00     0.040 C 
HETATM    6  C6  UNL     1     -31.681  19.083   3.156  1.00 20.00     0.047 C 
HETATM    7  C7  UNL     1     -30.718  18.684   1.993  1.00 20.00     0.010 C 
HETATM    8  S9  UNL     1     -34.544  18.799   3.139  1.00 20.00    -0.105 SA
ENDROOT
BRANCH   3   9
HETATM    9  C8  UNL     1     -34.462  18.324  -0.866  1.00 20.00     0.154 C 
HETATM   10 CL10 UNL     1     -35.351  16.807  -1.155  1.00 20.00    -0.126 Cl
ENDBRANCH   3   9
TORSDOF 1
ENDMDL
MODEL 9
REMARK VINA RESULT:      -3.8     11.844     12.111
REMARK  1 active torsions:
REMARK  status: ('A' for Active; 'I' for Inactive)
REMARK    1  A    between atoms: C3_3  and  C8_8 
ROOT
HETATM    1  C1  UNL     1     -35.659  15.391  -4.769  1.00 20.00     0.058 A 
HETATM    2  C2  UNL     1     -34.475  16.437  -3.100  1.00 20.00    -0.037 A 
HETATM    3  C3  UNL     1     -34.392  15.712  -4.306  1.00 20.00    -0.031 A 
HETATM    4  C4  UNL     1     -35.769  16.634  -2.701  1.00 20.00    -0.011 A 
HETATM    5  C5  UNL     1     -33.520  17.047  -2.144  1.00 20.00     0.040 C 
HETATM    6  C6  UNL     1     -35.902  17.393  -1.437  1.00 20.00     0.047 C 
HETATM    7  C7  UNL     1     -34.431  17.348  -0.913  1.00 20.00     0.010 C 
HETATM    8  S9  UNL     1     -36.912  15.978  -3.730  1.00 20.00    -0.105 SA
ENDROOT
BRANCH   3   9
HETATM    9  C8  UNL     1     -33.133  15.343  -4.989  1.00 20.00     0.154 C 
HETATM   10 CL10 UNL     1     -33.191  15.774  -6.717  1.00 20.00    -0.126 Cl
ENDBRANCH   3   9
TORSDOF 1
ENDMDL
