MODEL 1
REMARK VINA RESULT:      -6.2      0.000      0.000
REMARK  0 active torsions:
REMARK  status: ('A' for Active; 'I' for Inactive)
ROOT
HETATM    1  C1  UNL     1     -32.290   8.217   4.696  1.00 20.00     0.009 A 
HETATM    2  C2  UNL     1     -31.724   8.625   3.487  1.00 20.00     0.024 A 
HETATM    3  C3  UNL     1     -33.083   7.021   2.258  1.00 20.00     0.034 A 
HETATM    4  C4  UNL     1     -33.248   7.217   4.666  1.00 20.00    -0.047 A 
HETATM    5  C5  UNL     1     -33.651   6.612   3.457  1.00 20.00    -0.019 A 
HETATM    6  C6  UNL     1     -32.118   8.031   2.277  1.00 20.00     0.034 A 
HETATM    7  C7  UNL     1     -33.981   6.623   5.848  1.00 20.00     0.074 A 
HETATM    8  C8  UNL     1     -34.684   5.568   3.712  1.00 20.00     0.185 A 
HETATM    9  C9  UNL     1     -34.930   5.626   5.211  1.00 20.00     0.160 A 
HETATM   10  O10 UNL     1     -34.338   4.484   4.589  1.00 20.00    -0.370 OA
HETATM   11 CL11 UNL     1     -31.400   8.554   0.800  1.00 20.00    -0.084 Cl
ENDROOT
TORSDOF 0
ENDMDL
MODEL 2
REMARK VINA RESULT:      -4.8     11.540     11.883
REMARK  0 active torsions:
REMARK  status: ('A' for Active; 'I' for Inactive)
ROOT
HETATM    1  C1  UNL     1     -36.645  16.452  -3.061  1.00 20.00     0.009 A 
HETATM    2  C2  UNL     1     -35.615  17.062  -2.341  1.00 20.00     0.024 A 
HETATM    3  C3  UNL     1     -33.947  15.732  -3.515  1.00 20.00     0.034 A 
HETATM    4  C4  UNL     1     -36.307  15.491  -4.000  1.00 20.00    -0.047 A 
HETATM    5  C5  UNL     1     -34.965  15.123  -4.235  1.00 20.00    -0.019 A 
HETATM    6  C6  UNL     1     -34.277  16.705  -2.567  1.00 20.00     0.034 A 
HETATM    7  C7  UNL     1     -37.253  14.706  -4.880  1.00 20.00     0.074 A 
HETATM    8  C8  UNL     1     -34.888  14.069  -5.287  1.00 20.00     0.185 A 
HETATM    9  C9  UNL     1     -36.326  13.859  -5.730  1.00 20.00     0.160 A 
HETATM   10  O10 UNL     1     -35.590  12.838  -5.053  1.00 20.00    -0.370 OA
HETATM   11 CL11 UNL     1     -33.028  17.473  -1.662  1.00 20.00    -0.084 Cl
ENDROOT
TORSDOF 0
ENDMDL
MODEL 3
REMARK VINA RESULT:      -4.8      2.816      4.002
REMARK  0 active torsions:
REMARK  status: ('A' for Active; 'I' for Inactive)
ROOT
HETATM    1  C1  UNL     1     -33.019   7.747   5.274  1.00 20.00     0.009 A 
HETATM    2  C2  UNL     1     -33.841   6.657   5.567  1.00 20.00     0.024 A 
HETATM    3  C3  UNL     1     -33.830   5.964   3.233  1.00 20.00     0.034 A 
HETATM    4  C4  UNL     1     -32.613   7.926   3.961  1.00 20.00    -0.047 A 
HETATM    5  C5  UNL     1     -33.011   7.044   2.935  1.00 20.00    -0.019 A 
HETATM    6  C6  UNL     1     -34.243   5.773   4.554  1.00 20.00     0.034 A 
HETATM    7  C7  UNL     1     -31.733   9.033   3.424  1.00 20.00     0.074 A 
HETATM    8  C8  UNL     1     -32.439   7.472   1.626  1.00 20.00     0.185 A 
HETATM    9  C9  UNL     1     -31.587   8.687   1.955  1.00 20.00     0.160 A 
HETATM   10  O10 UNL     1     -32.764   8.789   1.151  1.00 20.00    -0.370 OA
HETATM   11 CL11 UNL     1     -35.260   4.438   4.944  1.00 20.00    -0.084 Cl
ENDROOT
TORSDOF 0
ENDMDL
MODEL 4
REMARK VINA RESULT:      -4.8     11.647     12.014
REMARK  0 active torsions:
REMARK  status: ('A' for Active; 'I' for Inactive)
ROOT
HETATM    1  C1  UNL     1     -35.576  17.086  -0.961  1.00 20.00     0.009 A 
HETATM    2  C2  UNL     1     -34.727  17.826  -0.136  1.00 20.00     0.024 A 
HETATM    3  C3  UNL     1     -32.930  17.672  -1.771  1.00 20.00     0.034 A 
HETATM    4  C4  UNL     1     -35.086  16.652  -2.183  1.00 20.00    -0.047 A 
HETATM    5  C5  UNL     1     -33.769  16.938  -2.597  1.00 20.00    -0.019 A 
HETATM    6  C6  UNL     1     -33.414  18.117  -0.538  1.00 20.00     0.034 A 
HETATM    7  C7  UNL     1     -35.825  15.839  -3.222  1.00 20.00     0.074 A 
HETATM    8  C8  UNL     1     -33.504  16.350  -3.941  1.00 20.00     0.185 A 
HETATM    9  C9  UNL     1     -34.822  15.715  -4.353  1.00 20.00     0.160 A 
HETATM   10  O10 UNL     1     -33.657  14.929  -4.093  1.00 20.00    -0.370 OA
HETATM   11 CL11 UNL     1     -32.388  19.031   0.502  1.00 20.00    -0.084 Cl
ENDROOT
TORSDOF 0
ENDMDL
MODEL 5
REMARK VINA RESULT:      -4.7      1.206      2.207
REMARK  0 active torsions:
REMARK  status: ('A' for Active; 'I' for Inactive)
ROOT
HETATM    1  C1  UNL     1     -33.686   5.684   2.297  1.00 20.00     0.009 A 
HETATM    2  C2  UNL     1     -33.083   6.818   1.750  1.00 20.00     0.024 A 
HETATM    3  C3  UNL     1     -32.905   7.839   3.953  1.00 20.00     0.034 A 
HETATM    4  C4  UNL     1     -33.886   5.645   3.667  1.00 20.00    -0.047 A 
HETATM    5  C5  UNL     1     -33.502   6.713   4.503  1.00 20.00    -0.019 A 
HETATM    6  C6  UNL     1     -32.696   7.887   2.572  1.00 20.00     0.034 A 
HETATM    7  C7  UNL     1     -34.521   4.526   4.462  1.00 20.00     0.074 A 
HETATM    8  C8  UNL     1     -33.837   6.413   5.925  1.00 20.00     0.185 A 
HETATM    9  C9  UNL     1     -34.420   5.010   5.896  1.00 20.00     0.160 A 
HETATM   10  O10 UNL     1     -35.212   6.147   6.246  1.00 20.00    -0.370 OA
HETATM   11 CL11 UNL     1     -31.956   9.276   1.870  1.00 20.00    -0.084 Cl
ENDROOT
TORSDOF 0
ENDMDL
MODEL 6
REMARK VINA RESULT:      -4.7      2.895      4.434
REMARK  0 active torsions:
REMARK  status: ('A' for Active; 'I' for Inactive)
ROOT
HETATM    1  C1  UNL     1     -34.108   5.881   2.659  1.00 20.00     0.009 A 
HETATM    2  C2  UNL     1     -34.670   5.301   3.797  1.00 20.00     0.024 A 
HETATM    3  C3  UNL     1     -33.472   6.856   5.237  1.00 20.00     0.034 A 
HETATM    4  C4  UNL     1     -33.236   6.944   2.829  1.00 20.00    -0.047 A 
HETATM    5  C5  UNL     1     -32.911   7.439   4.109  1.00 20.00    -0.019 A 
HETATM    6  C6  UNL     1     -34.355   5.785   5.076  1.00 20.00     0.034 A 
HETATM    7  C7  UNL     1     -32.514   7.711   1.744  1.00 20.00     0.074 A 
HETATM    8  C8  UNL     1     -31.951   8.575   4.003  1.00 20.00     0.185 A 
HETATM    9  C9  UNL     1     -31.757   8.779   2.509  1.00 20.00     0.160 A 
HETATM   10  O10 UNL     1     -30.693   8.331   3.352  1.00 20.00    -0.370 OA
HETATM   11 CL11 UNL     1     -35.063   5.048   6.464  1.00 20.00    -0.084 Cl
ENDROOT
TORSDOF 0
ENDMDL
MODEL 7
REMARK VINA RESULT:      -4.5     11.823     12.187
REMARK  0 active torsions:
REMARK  status: ('A' for Active; 'I' for Inactive)
ROOT
HETATM    1  C1  UNL     1     -32.927  17.788  -1.643  1.00 20.00     0.009 A 
HETATM    2  C2  UNL     1     -33.365  18.199  -0.383  1.00 20.00     0.024 A 
HETATM    3  C3  UNL     1     -35.542  17.176  -0.759  1.00 20.00     0.034 A 
HETATM    4  C4  UNL     1     -33.805  17.074  -2.442  1.00 20.00    -0.047 A 
HETATM    5  C5  UNL     1     -35.112  16.763  -2.012  1.00 20.00    -0.019 A 
HETATM    6  C6  UNL     1     -34.663  17.895   0.056  1.00 20.00     0.034 A 
HETATM    7  C7  UNL     1     -33.543  16.541  -3.832  1.00 20.00     0.074 A 
HETATM    8  C8  UNL     1     -35.841  15.998  -3.063  1.00 20.00     0.185 A 
HETATM    9  C9  UNL     1     -34.826  15.809  -4.178  1.00 20.00     0.160 A 
HETATM   10  O10 UNL     1     -35.995  16.612  -4.353  1.00 20.00    -0.370 OA
HETATM   11 CL11 UNL     1     -35.177  18.417   1.615  1.00 20.00    -0.084 Cl
ENDROOT
TORSDOF 0
ENDMDL
MODEL 8
REMARK VINA RESULT:      -4.5     11.618     11.863
REMARK  0 active torsions:
REMARK  status: ('A' for Active; 'I' for Inactive)
ROOT
HETATM    1  C1  UNL     1     -33.425  15.508  -3.821  1.00 20.00     0.009 A 
HETATM    2  C2  UNL     1     -34.198  14.697  -4.653  1.00 20.00     0.024 A 
HETATM    3  C3  UNL     1     -36.247  15.528  -3.633  1.00 20.00     0.034 A 
HETATM    4  C4  UNL     1     -34.077  16.319  -2.907  1.00 20.00    -0.047 A 
HETATM    5  C5  UNL     1     -35.484  16.337  -2.803  1.00 20.00    -0.019 A 
HETATM    6  C6  UNL     1     -35.599  14.707  -4.560  1.00 20.00     0.034 A 
HETATM    7  C7  UNL     1     -33.441  17.264  -1.912  1.00 20.00     0.074 A 
HETATM    8  C8  UNL     1     -35.918  17.290  -1.741  1.00 20.00     0.185 A 
HETATM    9  C9  UNL     1     -34.630  17.914  -1.230  1.00 20.00     0.160 A 
HETATM   10  O10 UNL     1     -35.436  17.069  -0.406  1.00 20.00    -0.370 OA
HETATM   11 CL11 UNL     1     -36.528  13.695  -5.599  1.00 20.00    -0.084 Cl
ENDROOT
TORSDOF 0
ENDMDL
MODEL 9
REMARK VINA RESULT:      -4.5     11.739     12.567
REMARK  0 active torsions:
REMARK  status: ('A' for Active; 'I' for Inactive)
ROOT
HETATM    1  C1  UNL     1     -33.183  15.897  -5.644  1.00 20.00     0.009 A 
HETATM    2  C2  UNL     1     -33.357  16.417  -4.360  1.00 20.00     0.024 A 
HETATM    3  C3  UNL     1     -35.291  14.985  -3.993  1.00 20.00     0.034 A 
HETATM    4  C4  UNL     1     -34.068  14.924  -6.081  1.00 20.00    -0.047 A 
HETATM    5  C5  UNL     1     -35.123  14.462  -5.268  1.00 20.00    -0.019 A 
HETATM    6  C6  UNL     1     -34.403  15.964  -3.541  1.00 20.00     0.034 A 
HETATM    7  C7  UNL     1     -34.068  14.233  -7.426  1.00 20.00     0.074 A 
HETATM    8  C8  UNL     1     -35.921  13.425  -5.983  1.00 20.00     0.185 A 
HETATM    9  C9  UNL     1     -35.212  13.244  -7.316  1.00 20.00     0.160 A 
HETATM   10  O10 UNL     1     -36.529  13.793  -7.233  1.00 20.00    -0.370 OA
HETATM   11 CL11 UNL     1     -34.595  16.626  -1.962  1.00 20.00    -0.084 Cl
ENDROOT
TORSDOF 0
ENDMDL
