MODEL 1
REMARK VINA RESULT:      -5.2      0.000      0.000
REMARK  0 active torsions:
REMARK  status: ('A' for Active; 'I' for Inactive)
ROOT
HETATM    1  C1  UNL     1     -36.187  17.202  -1.936  1.00 20.00     0.012 A 
HETATM    2  C2  UNL     1     -35.468  17.716  -0.855  1.00 20.00     0.024 A 
HETATM    3  C3  UNL     1     -33.403  17.216  -1.994  1.00 20.00     0.031 A 
HETATM    4  C4  UNL     1     -35.533  16.683  -3.067  1.00 20.00    -0.021 A 
HETATM    5  C5  UNL     1     -34.117  16.702  -3.085  1.00 20.00    -0.048 A 
HETATM    6  C6  UNL     1     -34.077  17.721  -0.883  1.00 20.00     0.034 A 
HETATM    7  C7  UNL     1     -33.373  16.169  -4.288  1.00 20.00     0.039 C 
HETATM    8  C8  UNL     1     -33.430  14.642  -4.451  1.00 20.00     0.007 C 
HETATM    9  C9  UNL     1     -34.801  13.992  -4.230  1.00 20.00     0.035 C 
HETATM   10  C10 UNL     1     -36.329  16.116  -4.218  1.00 20.00     0.184 A 
HETATM   11  C11 UNL     1     -35.919  14.788  -4.825  1.00 20.00     0.156 A 
HETATM   12  O12 UNL     1     -37.073  14.904  -3.991  1.00 20.00    -0.370 OA
HETATM   13 CL13 UNL     1     -33.191  18.352   0.449  1.00 20.00    -0.084 Cl
ENDROOT
TORSDOF 0
ENDMDL
MODEL 2
REMARK VINA RESULT:      -5.1      2.626      3.868
REMARK  0 active torsions:
REMARK  status: ('A' for Active; 'I' for Inactive)
ROOT
HETATM    1  C1  UNL     1     -34.154  19.062   1.525  1.00 20.00     0.012 A 
HETATM    2  C2  UNL     1     -32.947  19.020   2.225  1.00 20.00     0.024 A 
HETATM    3  C3  UNL     1     -31.779  18.525   0.174  1.00 20.00     0.031 A 
HETATM    4  C4  UNL     1     -34.203  18.837   0.138  1.00 20.00    -0.021 A 
HETATM    5  C5  UNL     1     -32.987  18.570  -0.537  1.00 20.00    -0.048 A 
HETATM    6  C6  UNL     1     -31.761  18.749   1.550  1.00 20.00     0.034 A 
HETATM    7  C7  UNL     1     -32.990  18.338  -2.030  1.00 20.00     0.039 C 
HETATM    8  C8  UNL     1     -33.613  17.004  -2.469  1.00 20.00     0.007 C 
HETATM    9  C9  UNL     1     -34.923  16.613  -1.777  1.00 20.00     0.035 C 
HETATM   10  C10 UNL     1     -35.522  18.870  -0.597  1.00 20.00     0.184 A 
HETATM   11  C11 UNL     1     -35.848  17.774  -1.593  1.00 20.00     0.156 A 
HETATM   12  O12 UNL     1     -36.479  17.833  -0.313  1.00 20.00    -0.370 OA
HETATM   13 CL13 UNL     1     -30.273  18.694   2.412  1.00 20.00    -0.084 Cl
ENDROOT
TORSDOF 0
ENDMDL
MODEL 3
REMARK VINA RESULT:      -5.1      2.163      2.768
REMARK  0 active torsions:
REMARK  status: ('A' for Active; 'I' for Inactive)
ROOT
HETATM    1  C1  UNL     1     -35.407  15.334  -3.372  1.00 20.00     0.012 A 
HETATM    2  C2  UNL     1     -34.646  16.340  -2.775  1.00 20.00     0.024 A 
HETATM    3  C3  UNL     1     -34.075  17.198  -4.955  1.00 20.00     0.031 A 
HETATM    4  C4  UNL     1     -35.520  15.235  -4.769  1.00 20.00    -0.021 A 
HETATM    5  C5  UNL     1     -34.842  16.193  -5.562  1.00 20.00    -0.048 A 
HETATM    6  C6  UNL     1     -33.979  17.270  -3.566  1.00 20.00     0.034 A 
HETATM    7  C7  UNL     1     -34.947  16.134  -7.069  1.00 20.00     0.039 C 
HETATM    8  C8  UNL     1     -34.201  14.958  -7.717  1.00 20.00     0.007 C 
HETATM    9  C9  UNL     1     -34.361  13.598  -7.030  1.00 20.00     0.035 C 
HETATM   10  C10 UNL     1     -36.335  14.128  -5.396  1.00 20.00     0.184 A 
HETATM   11  C11 UNL     1     -35.760  13.348  -6.563  1.00 20.00     0.156 A 
HETATM   12  O12 UNL     1     -35.857  12.777  -5.256  1.00 20.00    -0.370 OA
HETATM   13 CL13 UNL     1     -33.038  18.509  -2.831  1.00 20.00    -0.084 Cl
ENDROOT
TORSDOF 0
ENDMDL
MODEL 4
REMARK VINA RESULT:      -5.0      1.402      1.701
REMARK  0 active torsions:
REMARK  status: ('A' for Active; 'I' for Inactive)
ROOT
HETATM    1  C1  UNL     1     -36.388  16.471  -2.849  1.00 20.00     0.012 A 
HETATM    2  C2  UNL     1     -35.374  16.977  -2.034  1.00 20.00     0.024 A 
HETATM    3  C3  UNL     1     -33.764  16.551  -3.777  1.00 20.00     0.031 A 
HETATM    4  C4  UNL     1     -36.115  15.993  -4.143  1.00 20.00    -0.021 A 
HETATM    5  C5  UNL     1     -34.777  16.044  -4.604  1.00 20.00    -0.048 A 
HETATM    6  C6  UNL     1     -34.062  17.015  -2.498  1.00 20.00     0.034 A 
HETATM    7  C7  UNL     1     -34.440  15.556  -5.994  1.00 20.00     0.039 C 
HETATM    8  C8  UNL     1     -34.523  14.033  -6.175  1.00 20.00     0.007 C 
HETATM    9  C9  UNL     1     -35.745  13.346  -5.554  1.00 20.00     0.035 C 
HETATM   10  C10 UNL     1     -37.224  15.433  -5.002  1.00 20.00     0.184 A 
HETATM   11  C11 UNL     1     -37.005  14.129  -5.745  1.00 20.00     0.156 A 
HETATM   12  O12 UNL     1     -37.841  14.200  -4.588  1.00 20.00    -0.370 OA
HETATM   13 CL13 UNL     1     -32.812  17.636  -1.493  1.00 20.00    -0.084 Cl
ENDROOT
TORSDOF 0
ENDMDL
MODEL 5
REMARK VINA RESULT:      -4.9      2.302      3.829
REMARK  0 active torsions:
REMARK  status: ('A' for Active; 'I' for Inactive)
ROOT
HETATM    1  C1  UNL     1     -33.291  15.010  -4.884  1.00 20.00     0.012 A 
HETATM    2  C2  UNL     1     -33.311  15.779  -3.720  1.00 20.00     0.024 A 
HETATM    3  C3  UNL     1     -35.702  15.504  -3.581  1.00 20.00     0.031 A 
HETATM    4  C4  UNL     1     -34.472  14.472  -5.424  1.00 20.00    -0.021 A 
HETATM    5  C5  UNL     1     -35.691  14.726  -4.748  1.00 20.00    -0.048 A 
HETATM    6  C6  UNL     1     -34.516  16.028  -3.070  1.00 20.00     0.034 A 
HETATM    7  C7  UNL     1     -36.983  14.154  -5.283  1.00 20.00     0.039 C 
HETATM    8  C8  UNL     1     -37.481  14.806  -6.583  1.00 20.00     0.007 C 
HETATM    9  C9  UNL     1     -36.420  15.058  -7.659  1.00 20.00     0.035 C 
HETATM   10  C10 UNL     1     -34.432  13.656  -6.695  1.00 20.00     0.184 A 
HETATM   11  C11 UNL     1     -35.449  13.928  -7.787  1.00 20.00     0.156 A 
HETATM   12  O12 UNL     1     -34.084  14.331  -7.918  1.00 20.00    -0.370 OA
HETATM   13 CL13 UNL     1     -34.540  16.978  -1.636  1.00 20.00    -0.084 Cl
ENDROOT
TORSDOF 0
ENDMDL
MODEL 6
REMARK VINA RESULT:      -4.8      2.855      4.789
REMARK  0 active torsions:
REMARK  status: ('A' for Active; 'I' for Inactive)
ROOT
HETATM    1  C1  UNL     1     -33.302  15.839  -3.818  1.00 20.00     0.012 A 
HETATM    2  C2  UNL     1     -33.914  14.747  -4.436  1.00 20.00     0.024 A 
HETATM    3  C3  UNL     1     -36.075  15.593  -3.781  1.00 20.00     0.031 A 
HETATM    4  C4  UNL     1     -34.058  16.830  -3.168  1.00 20.00    -0.021 A 
HETATM    5  C5  UNL     1     -35.468  16.695  -3.162  1.00 20.00    -0.048 A 
HETATM    6  C6  UNL     1     -35.300  14.623  -4.415  1.00 20.00     0.034 A 
HETATM    7  C7  UNL     1     -36.322  17.745  -2.489  1.00 20.00     0.039 C 
HETATM    8  C8  UNL     1     -36.239  17.749  -0.955  1.00 20.00     0.007 C 
HETATM    9  C9  UNL     1     -34.836  17.612  -0.355  1.00 20.00     0.035 C 
HETATM   10  C10 UNL     1     -33.375  17.994  -2.491  1.00 20.00     0.184 A 
HETATM   11  C11 UNL     1     -33.811  18.407  -1.098  1.00 20.00     0.156 A 
HETATM   12  O12 UNL     1     -32.577  17.722  -1.324  1.00 20.00    -0.370 OA
HETATM   13 CL13 UNL     1     -36.056  13.277  -5.174  1.00 20.00    -0.084 Cl
ENDROOT
TORSDOF 0
ENDMDL
MODEL 7
REMARK VINA RESULT:      -4.8      3.254      5.645
REMARK  0 active torsions:
REMARK  status: ('A' for Active; 'I' for Inactive)
ROOT
HETATM    1  C1  UNL     1     -32.976  17.660  -1.714  1.00 20.00     0.012 A 
HETATM    2  C2  UNL     1     -33.646  16.787  -2.572  1.00 20.00     0.024 A 
HETATM    3  C3  UNL     1     -35.709  17.228  -1.403  1.00 20.00     0.031 A 
HETATM    4  C4  UNL     1     -33.652  18.335  -0.683  1.00 20.00    -0.021 A 
HETATM    5  C5  UNL     1     -35.044  18.110  -0.540  1.00 20.00    -0.048 A 
HETATM    6  C6  UNL     1     -35.012  16.569  -2.415  1.00 20.00     0.034 A 
HETATM    7  C7  UNL     1     -35.815  18.826   0.544  1.00 20.00     0.039 C 
HETATM    8  C8  UNL     1     -35.513  18.341   1.971  1.00 20.00     0.007 C 
HETATM    9  C9  UNL     1     -34.035  18.114   2.306  1.00 20.00     0.035 C 
HETATM   10  C10 UNL     1     -32.905  19.263   0.245  1.00 20.00     0.184 A 
HETATM   11  C11 UNL     1     -33.145  19.174   1.740  1.00 20.00     0.156 A 
HETATM   12  O12 UNL     1     -31.942  18.684   1.145  1.00 20.00    -0.370 OA
HETATM   13 CL13 UNL     1     -35.838  15.491  -3.470  1.00 20.00    -0.084 Cl
ENDROOT
TORSDOF 0
ENDMDL
MODEL 8
REMARK VINA RESULT:      -4.8      3.123      4.264
REMARK  0 active torsions:
REMARK  status: ('A' for Active; 'I' for Inactive)
ROOT
HETATM    1  C1  UNL     1     -32.460  18.745   0.242  1.00 20.00     0.012 A 
HETATM    2  C2  UNL     1     -32.822  18.939   1.576  1.00 20.00     0.024 A 
HETATM    3  C3  UNL     1     -34.987  17.979   1.124  1.00 20.00     0.031 A 
HETATM    4  C4  UNL     1     -33.349  18.166  -0.680  1.00 20.00    -0.021 A 
HETATM    5  C5  UNL     1     -34.630  17.777  -0.216  1.00 20.00    -0.048 A 
HETATM    6  C6  UNL     1     -34.086  18.558   2.016  1.00 20.00     0.034 A 
HETATM    7  C7  UNL     1     -35.613  17.136  -1.169  1.00 20.00     0.039 C 
HETATM    8  C8  UNL     1     -36.201  18.091  -2.219  1.00 20.00     0.007 C 
HETATM    9  C9  UNL     1     -35.207  19.041  -2.897  1.00 20.00     0.035 C 
HETATM   10  C10 UNL     1     -32.944  17.981  -2.123  1.00 20.00     0.184 A 
HETATM   11  C11 UNL     1     -33.907  18.378  -3.225  1.00 20.00     0.156 A 
HETATM   12  O12 UNL     1     -32.750  19.160  -2.926  1.00 20.00    -0.370 OA
HETATM   13 CL13 UNL     1     -34.535  18.800   3.659  1.00 20.00    -0.084 Cl
ENDROOT
TORSDOF 0
ENDMDL
MODEL 9
REMARK VINA RESULT:      -4.8      1.929      2.760
REMARK  0 active torsions:
REMARK  status: ('A' for Active; 'I' for Inactive)
ROOT
HETATM    1  C1  UNL     1     -33.357  17.866  -4.767  1.00 20.00     0.012 A 
HETATM    2  C2  UNL     1     -33.513  18.429  -3.499  1.00 20.00     0.024 A 
HETATM    3  C3  UNL     1     -34.147  16.274  -2.625  1.00 20.00     0.031 A 
HETATM    4  C4  UNL     1     -33.592  16.499  -4.994  1.00 20.00    -0.021 A 
HETATM    5  C5  UNL     1     -33.988  15.700  -3.894  1.00 20.00    -0.048 A 
HETATM    6  C6  UNL     1     -33.910  17.633  -2.429  1.00 20.00     0.034 A 
HETATM    7  C7  UNL     1     -34.236  14.222  -4.088  1.00 20.00     0.039 C 
HETATM    8  C8  UNL     1     -35.506  13.886  -4.886  1.00 20.00     0.007 C 
HETATM    9  C9  UNL     1     -35.754  14.727  -6.142  1.00 20.00     0.035 C 
HETATM   10  C10 UNL     1     -33.434  15.914  -6.377  1.00 20.00     0.184 A 
HETATM   11  C11 UNL     1     -34.504  14.985  -6.920  1.00 20.00     0.156 A 
HETATM   12  O12 UNL     1     -34.366  16.326  -7.395  1.00 20.00    -0.370 OA
HETATM   13 CL13 UNL     1     -34.105  18.326  -0.867  1.00 20.00    -0.084 Cl
ENDROOT
TORSDOF 0
ENDMDL
