MODEL 1
REMARK VINA RESULT:      -5.5      0.000      0.000
REMARK  0 active torsions:
REMARK  status: ('A' for Active; 'I' for Inactive)
ROOT
HETATM    1  C1  UNL     1     -32.430   8.294   4.687  1.00 20.00     0.009 A 
HETATM    2  C2  UNL     1     -31.869   8.761   3.499  1.00 20.00     0.019 A 
HETATM    3  C3  UNL     1     -32.949   6.983   2.236  1.00 20.00     0.029 A 
HETATM    4  C4  UNL     1     -33.243   7.173   4.632  1.00 20.00    -0.047 A 
HETATM    5  C5  UNL     1     -33.509   6.511   3.414  1.00 20.00    -0.019 A 
HETATM    6  C6  UNL     1     -32.126   8.111   2.283  1.00 20.00     0.011 A 
HETATM    7  C7  UNL     1     -33.953   6.505   5.787  1.00 20.00     0.074 A 
HETATM    8  C8  UNL     1     -34.414   5.347   3.639  1.00 20.00     0.185 A 
HETATM    9  C9  UNL     1     -34.637   5.315   5.141  1.00 20.00     0.160 A 
HETATM   10  O10 UNL     1     -35.699   5.602   4.230  1.00 20.00    -0.370 OA
HETATM   11 BR11 UNL     1     -31.352   8.772   0.688  1.00 20.00    -0.051 Br
ENDROOT
TORSDOF 0
ENDMDL
MODEL 2
REMARK VINA RESULT:      -5.1     11.438     11.872
REMARK  0 active torsions:
REMARK  status: ('A' for Active; 'I' for Inactive)
ROOT
HETATM    1  C1  UNL     1     -33.313  15.878  -4.482  1.00 20.00     0.009 A 
HETATM    2  C2  UNL     1     -33.582  16.557  -3.293  1.00 20.00     0.019 A 
HETATM    3  C3  UNL     1     -35.809  15.582  -3.185  1.00 20.00     0.029 A 
HETATM    4  C4  UNL     1     -34.302  15.060  -5.006  1.00 20.00    -0.047 A 
HETATM    5  C5  UNL     1     -35.550  14.904  -4.368  1.00 20.00    -0.019 A 
HETATM    6  C6  UNL     1     -34.819  16.411  -2.650  1.00 20.00     0.011 A 
HETATM    7  C7  UNL     1     -34.223  14.232  -6.269  1.00 20.00     0.074 A 
HETATM    8  C8  UNL     1     -36.418  13.968  -5.138  1.00 20.00     0.185 A 
HETATM    9  C9  UNL     1     -35.599  13.600  -6.363  1.00 20.00     0.160 A 
HETATM   10  O10 UNL     1     -35.930  12.635  -5.364  1.00 20.00    -0.370 OA
HETATM   11 BR11 UNL     1     -35.151  17.344  -1.038  1.00 20.00    -0.051 Br
ENDROOT
TORSDOF 0
ENDMDL
MODEL 3
REMARK VINA RESULT:      -4.7     11.791     12.139
REMARK  0 active torsions:
REMARK  status: ('A' for Active; 'I' for Inactive)
ROOT
HETATM    1  C1  UNL     1     -35.596  17.064  -0.981  1.00 20.00     0.009 A 
HETATM    2  C2  UNL     1     -34.749  17.779  -0.134  1.00 20.00     0.019 A 
HETATM    3  C3  UNL     1     -32.948  17.669  -1.768  1.00 20.00     0.029 A 
HETATM    4  C4  UNL     1     -35.103  16.659  -2.211  1.00 20.00    -0.047 A 
HETATM    5  C5  UNL     1     -33.784  16.956  -2.614  1.00 20.00    -0.019 A 
HETATM    6  C6  UNL     1     -33.436  18.079  -0.524  1.00 20.00     0.011 A 
HETATM    7  C7  UNL     1     -35.843  15.885  -3.279  1.00 20.00     0.074 A 
HETATM    8  C8  UNL     1     -33.519  16.412  -3.977  1.00 20.00     0.185 A 
HETATM    9  C9  UNL     1     -34.798  15.688  -4.360  1.00 20.00     0.160 A 
HETATM   10  O10 UNL     1     -34.362  16.859  -5.052  1.00 20.00    -0.370 OA
HETATM   11 BR11 UNL     1     -32.313  19.054   0.646  1.00 20.00    -0.051 Br
ENDROOT
TORSDOF 0
ENDMDL
MODEL 4
REMARK VINA RESULT:      -4.7     11.643     11.858
REMARK  0 active torsions:
REMARK  status: ('A' for Active; 'I' for Inactive)
ROOT
HETATM    1  C1  UNL     1     -33.400  16.863  -2.458  1.00 20.00     0.009 A 
HETATM    2  C2  UNL     1     -34.301  17.576  -1.668  1.00 20.00     0.019 A 
HETATM    3  C3  UNL     1     -36.187  16.507  -2.775  1.00 20.00     0.029 A 
HETATM    4  C4  UNL     1     -33.908  15.980  -3.399  1.00 20.00    -0.047 A 
HETATM    5  C5  UNL     1     -35.297  15.795  -3.565  1.00 20.00    -0.019 A 
HETATM    6  C6  UNL     1     -35.684  17.400  -1.825  1.00 20.00     0.011 A 
HETATM    7  C7  UNL     1     -33.119  15.108  -4.348  1.00 20.00     0.074 A 
HETATM    8  C8  UNL     1     -35.566  14.790  -4.633  1.00 20.00     0.185 A 
HETATM    9  C9  UNL     1     -34.193  14.410  -5.162  1.00 20.00     0.160 A 
HETATM   10  O10 UNL     1     -35.016  13.472  -4.467  1.00 20.00    -0.370 OA
HETATM   11 BR11 UNL     1     -36.880  18.381  -0.736  1.00 20.00    -0.051 Br
ENDROOT
TORSDOF 0
ENDMDL
MODEL 5
REMARK VINA RESULT:      -4.6     11.559     11.876
REMARK  0 active torsions:
REMARK  status: ('A' for Active; 'I' for Inactive)
ROOT
HETATM    1  C1  UNL     1     -32.909  17.895  -1.497  1.00 20.00     0.009 A 
HETATM    2  C2  UNL     1     -33.428  17.170  -2.570  1.00 20.00     0.019 A 
HETATM    3  C3  UNL     1     -35.521  16.815  -1.379  1.00 20.00     0.029 A 
HETATM    4  C4  UNL     1     -33.707  18.068  -0.377  1.00 20.00    -0.047 A 
HETATM    5  C5  UNL     1     -35.011  17.534  -0.307  1.00 20.00    -0.019 A 
HETATM    6  C6  UNL     1     -34.723  16.635  -2.512  1.00 20.00     0.011 A 
HETATM    7  C7  UNL     1     -33.352  18.818   0.887  1.00 20.00     0.074 A 
HETATM    8  C8  UNL     1     -35.646  17.872   0.999  1.00 20.00     0.185 A 
HETATM    9  C9  UNL     1     -34.572  18.626   1.766  1.00 20.00     0.160 A 
HETATM   10  O10 UNL     1     -35.777  19.263   1.339  1.00 20.00    -0.370 OA
HETATM   11 BR11 UNL     1     -35.398  15.659  -3.986  1.00 20.00    -0.051 Br
ENDROOT
TORSDOF 0
ENDMDL
MODEL 6
REMARK VINA RESULT:      -4.6     11.527     11.976
REMARK  0 active torsions:
REMARK  status: ('A' for Active; 'I' for Inactive)
ROOT
HETATM    1  C1  UNL     1     -32.945  17.825  -1.750  1.00 20.00     0.009 A 
HETATM    2  C2  UNL     1     -33.437  18.156  -0.488  1.00 20.00     0.019 A 
HETATM    3  C3  UNL     1     -35.553  17.056  -0.975  1.00 20.00     0.029 A 
HETATM    4  C4  UNL     1     -33.768  17.113  -2.609  1.00 20.00    -0.047 A 
HETATM    5  C5  UNL     1     -35.070  16.724  -2.232  1.00 20.00    -0.019 A 
HETATM    6  C6  UNL     1     -34.731  17.775  -0.103  1.00 20.00     0.011 A 
HETATM    7  C7  UNL     1     -33.438  16.647  -4.009  1.00 20.00     0.074 A 
HETATM    8  C8  UNL     1     -35.731  15.969  -3.336  1.00 20.00     0.185 A 
HETATM    9  C9  UNL     1     -34.720  15.980  -4.470  1.00 20.00     0.160 A 
HETATM   10  O10 UNL     1     -35.089  14.771  -3.805  1.00 20.00    -0.370 OA
HETATM   11 BR11 UNL     1     -35.368  18.238   1.617  1.00 20.00    -0.051 Br
ENDROOT
TORSDOF 0
ENDMDL
MODEL 7
REMARK VINA RESULT:      -4.6     11.521     11.977
REMARK  0 active torsions:
REMARK  status: ('A' for Active; 'I' for Inactive)
ROOT
HETATM    1  C1  UNL     1     -33.765  14.765  -4.752  1.00 20.00     0.009 A 
HETATM    2  C2  UNL     1     -33.363  15.599  -3.709  1.00 20.00     0.019 A 
HETATM    3  C3  UNL     1     -35.671  16.230  -3.262  1.00 20.00     0.029 A 
HETATM    4  C4  UNL     1     -35.119  14.678  -5.036  1.00 20.00    -0.047 A 
HETATM    5  C5  UNL     1     -36.079  15.403  -4.299  1.00 20.00    -0.019 A 
HETATM    6  C6  UNL     1     -34.308  16.326  -2.970  1.00 20.00     0.011 A 
HETATM    7  C7  UNL     1     -35.772  13.837  -6.110  1.00 20.00     0.074 A 
HETATM    8  C8  UNL     1     -37.452  15.121  -4.807  1.00 20.00     0.185 A 
HETATM    9  C9  UNL     1     -37.243  14.184  -5.985  1.00 20.00     0.160 A 
HETATM   10  O10 UNL     1     -37.903  13.756  -4.793  1.00 20.00    -0.370 OA
HETATM   11 BR11 UNL     1     -33.730  17.447  -1.559  1.00 20.00    -0.051 Br
ENDROOT
TORSDOF 0
ENDMDL
MODEL 8
REMARK VINA RESULT:      -4.6     11.559     11.928
REMARK  0 active torsions:
REMARK  status: ('A' for Active; 'I' for Inactive)
ROOT
HETATM    1  C1  UNL     1     -35.820  17.396  -0.181  1.00 20.00     0.009 A 
HETATM    2  C2  UNL     1     -35.501  16.921  -1.453  1.00 20.00     0.019 A 
HETATM    3  C3  UNL     1     -33.227  17.762  -1.248  1.00 20.00     0.029 A 
HETATM    4  C4  UNL     1     -34.834  18.051   0.540  1.00 20.00    -0.047 A 
HETATM    5  C5  UNL     1     -33.537  18.239   0.018  1.00 20.00    -0.019 A 
HETATM    6  C6  UNL     1     -34.215  17.102  -1.983  1.00 20.00     0.011 A 
HETATM    7  C7  UNL     1     -34.958  18.637   1.928  1.00 20.00     0.074 A 
HETATM    8  C8  UNL     1     -32.678  18.963   0.998  1.00 20.00     0.185 A 
HETATM    9  C9  UNL     1     -33.597  19.263   2.170  1.00 20.00     0.160 A 
HETATM   10  O10 UNL     1     -32.492  18.367   2.294  1.00 20.00    -0.370 OA
HETATM   11 BR11 UNL     1     -33.814  16.444  -3.710  1.00 20.00    -0.051 Br
ENDROOT
TORSDOF 0
ENDMDL
MODEL 9
REMARK VINA RESULT:      -4.5      1.365      2.273
REMARK  0 active torsions:
REMARK  status: ('A' for Active; 'I' for Inactive)
ROOT
HETATM    1  C1  UNL     1     -33.111   5.260   2.300  1.00 20.00     0.009 A 
HETATM    2  C2  UNL     1     -32.669   6.462   1.748  1.00 20.00     0.019 A 
HETATM    3  C3  UNL     1     -33.465   7.699   3.686  1.00 20.00     0.029 A 
HETATM    4  C4  UNL     1     -33.727   5.297   3.542  1.00 20.00    -0.047 A 
HETATM    5  C5  UNL     1     -33.908   6.508   4.242  1.00 20.00    -0.019 A 
HETATM    6  C6  UNL     1     -32.845   7.672   2.435  1.00 20.00     0.011 A 
HETATM    7  C7  UNL     1     -34.272   4.123   4.323  1.00 20.00     0.074 A 
HETATM    8  C8  UNL     1     -34.588   6.261   5.546  1.00 20.00     0.185 A 
HETATM    9  C9  UNL     1     -34.867   4.768   5.560  1.00 20.00     0.160 A 
HETATM   10  O10 UNL     1     -33.950   5.368   6.475  1.00 20.00    -0.370 OA
HETATM   11 BR11 UNL     1     -32.232   9.285   1.658  1.00 20.00    -0.051 Br
ENDROOT
TORSDOF 0
ENDMDL
