MODEL 1
REMARK VINA RESULT:      -5.7      0.000      0.000
REMARK  0 active torsions:
REMARK  status: ('A' for Active; 'I' for Inactive)
ROOT
HETATM    1  C1  UNL     1     -35.402  17.647   0.084  1.00 20.00     0.012 A 
HETATM    2  C2  UNL     1     -35.265  16.984  -1.135  1.00 20.00     0.024 A 
HETATM    3  C3  UNL     1     -32.963  17.713  -1.290  1.00 20.00     0.031 A 
HETATM    4  C4  UNL     1     -34.323  18.348   0.635  1.00 20.00    -0.021 A 
HETATM    5  C5  UNL     1     -33.082  18.384  -0.066  1.00 20.00    -0.048 A 
HETATM    6  C6  UNL     1     -34.051  17.015  -1.818  1.00 20.00     0.034 A 
HETATM    7  C7  UNL     1     -31.900  19.188   0.483  1.00 20.00     0.039 C 
HETATM    8  C8  UNL     1     -31.306  18.760   1.851  1.00 20.00     0.007 C 
HETATM    9  C9  UNL     1     -32.203  18.997   3.093  1.00 20.00     0.035 C 
HETATM   10  C10 UNL     1     -34.386  19.054   1.949  1.00 20.00     0.184 A 
HETATM   11  C11 UNL     1     -33.461  18.252   2.887  1.00 20.00     0.156 A 
HETATM   12  O12 UNL     1     -34.770  18.617   3.251  1.00 20.00    -0.370 OA
HETATM   13 CL13 UNL     1     -33.893  16.195  -3.324  1.00 20.00    -0.084 Cl
ENDROOT
TORSDOF 0
ENDMDL
MODEL 2
REMARK VINA RESULT:      -5.3      2.964      4.888
REMARK  0 active torsions:
REMARK  status: ('A' for Active; 'I' for Inactive)
ROOT
HETATM    1  C1  UNL     1     -31.936  19.263   1.122  1.00 20.00     0.012 A 
HETATM    2  C2  UNL     1     -31.907  19.116   2.509  1.00 20.00     0.024 A 
HETATM    3  C3  UNL     1     -34.204  18.354   2.490  1.00 20.00     0.031 A 
HETATM    4  C4  UNL     1     -33.095  18.955   0.400  1.00 20.00    -0.021 A 
HETATM    5  C5  UNL     1     -34.250  18.494   1.096  1.00 20.00    -0.048 A 
HETATM    6  C6  UNL     1     -33.036  18.662   3.189  1.00 20.00     0.034 A 
HETATM    7  C7  UNL     1     -35.550  18.202   0.341  1.00 20.00     0.039 C 
HETATM    8  C8  UNL     1     -35.532  17.068  -0.719  1.00 20.00     0.007 C 
HETATM    9  C9  UNL     1     -34.705  17.341  -2.001  1.00 20.00     0.035 C 
HETATM   10  C10 UNL     1     -33.189  19.058  -1.087  1.00 20.00     0.184 A 
HETATM   11  C11 UNL     1     -33.311  17.604  -1.588  1.00 20.00     0.156 A 
HETATM   12  O12 UNL     1     -32.388  18.514  -2.135  1.00 20.00    -0.370 OA
HETATM   13 CL13 UNL     1     -32.991  18.486   4.902  1.00 20.00    -0.084 Cl
ENDROOT
TORSDOF 0
ENDMDL
MODEL 3
REMARK VINA RESULT:      -5.3      3.841      6.395
REMARK  0 active torsions:
REMARK  status: ('A' for Active; 'I' for Inactive)
ROOT
HETATM    1  C1  UNL     1     -33.112  17.368  -2.508  1.00 20.00     0.012 A 
HETATM    2  C2  UNL     1     -33.546  17.665  -1.216  1.00 20.00     0.024 A 
HETATM    3  C3  UNL     1     -35.714  16.710  -1.710  1.00 20.00     0.031 A 
HETATM    4  C4  UNL     1     -33.968  16.736  -3.416  1.00 20.00    -0.021 A 
HETATM    5  C5  UNL     1     -35.294  16.402  -3.011  1.00 20.00    -0.048 A 
HETATM    6  C6  UNL     1     -34.841  17.336  -0.819  1.00 20.00     0.034 A 
HETATM    7  C7  UNL     1     -36.272  15.761  -4.000  1.00 20.00     0.039 C 
HETATM    8  C8  UNL     1     -35.915  14.361  -4.566  1.00 20.00     0.007 C 
HETATM    9  C9  UNL     1     -34.706  14.301  -5.535  1.00 20.00     0.035 C 
HETATM   10  C10 UNL     1     -33.562  16.360  -4.803  1.00 20.00     0.184 A 
HETATM   11  C11 UNL     1     -33.526  14.817  -4.812  1.00 20.00     0.156 A 
HETATM   12  O12 UNL     1     -32.465  15.599  -5.304  1.00 20.00    -0.370 OA
HETATM   13 CL13 UNL     1     -35.369  17.708   0.778  1.00 20.00    -0.084 Cl
ENDROOT
TORSDOF 0
ENDMDL
MODEL 4
REMARK VINA RESULT:      -5.0      4.210      6.607
REMARK  0 active torsions:
REMARK  status: ('A' for Active; 'I' for Inactive)
ROOT
HETATM    1  C1  UNL     1     -36.081  16.284  -2.670  1.00 20.00     0.012 A 
HETATM    2  C2  UNL     1     -35.486  17.037  -1.657  1.00 20.00     0.024 A 
HETATM    3  C3  UNL     1     -33.318  16.735  -2.688  1.00 20.00     0.031 A 
HETATM    4  C4  UNL     1     -35.306  15.751  -3.705  1.00 20.00    -0.021 A 
HETATM    5  C5  UNL     1     -33.898  15.978  -3.714  1.00 20.00    -0.048 A 
HETATM    6  C6  UNL     1     -34.111  17.262  -1.667  1.00 20.00     0.034 A 
HETATM    7  C7  UNL     1     -33.016  15.361  -4.802  1.00 20.00     0.039 C 
HETATM    8  C8  UNL     1     -33.263  15.801  -6.270  1.00 20.00     0.007 C 
HETATM    9  C9  UNL     1     -34.595  15.331  -6.911  1.00 20.00     0.035 C 
HETATM   10  C10 UNL     1     -35.877  14.963  -4.838  1.00 20.00     0.184 A 
HETATM   11  C11 UNL     1     -35.700  15.855  -6.084  1.00 20.00     0.156 A 
HETATM   12  O12 UNL     1     -36.926  15.243  -5.764  1.00 20.00    -0.370 OA
HETATM   13 CL13 UNL     1     -33.385  18.191  -0.411  1.00 20.00    -0.084 Cl
ENDROOT
TORSDOF 0
ENDMDL
MODEL 5
REMARK VINA RESULT:      -5.0      4.282      6.941
REMARK  0 active torsions:
REMARK  status: ('A' for Active; 'I' for Inactive)
ROOT
HETATM    1  C1  UNL     1     -33.628  16.237  -3.097  1.00 20.00     0.012 A 
HETATM    2  C2  UNL     1     -33.760  16.941  -1.900  1.00 20.00     0.024 A 
HETATM    3  C3  UNL     1     -36.144  17.142  -2.265  1.00 20.00     0.031 A 
HETATM    4  C4  UNL     1     -34.749  15.973  -3.891  1.00 20.00    -0.021 A 
HETATM    5  C5  UNL     1     -36.030  16.434  -3.469  1.00 20.00    -0.048 A 
HETATM    6  C6  UNL     1     -35.013  17.390  -1.485  1.00 20.00     0.034 A 
HETATM    7  C7  UNL     1     -37.267  16.209  -4.343  1.00 20.00     0.039 C 
HETATM    8  C8  UNL     1     -37.702  14.745  -4.618  1.00 20.00     0.007 C 
HETATM    9  C9  UNL     1     -36.759  13.908  -5.522  1.00 20.00     0.035 C 
HETATM   10  C10 UNL     1     -34.688  15.199  -5.167  1.00 20.00     0.184 A 
HETATM   11  C11 UNL     1     -35.431  13.878  -4.878  1.00 20.00     0.156 A 
HETATM   12  O12 UNL     1     -34.160  13.912  -5.480  1.00 20.00    -0.370 OA
HETATM   13 CL13 UNL     1     -35.165  18.260  -0.007  1.00 20.00    -0.084 Cl
ENDROOT
TORSDOF 0
ENDMDL
MODEL 6
REMARK VINA RESULT:      -4.9      5.154      7.774
REMARK  0 active torsions:
REMARK  status: ('A' for Active; 'I' for Inactive)
ROOT
HETATM    1  C1  UNL     1     -34.307  15.258  -3.481  1.00 20.00     0.012 A 
HETATM    2  C2  UNL     1     -33.917  16.518  -3.026  1.00 20.00     0.024 A 
HETATM    3  C3  UNL     1     -33.712  17.294  -5.309  1.00 20.00     0.031 A 
HETATM    4  C4  UNL     1     -34.408  15.000  -4.853  1.00 20.00    -0.021 A 
HETATM    5  C5  UNL     1     -34.103  16.035  -5.784  1.00 20.00    -0.048 A 
HETATM    6  C6  UNL     1     -33.622  17.531  -3.936  1.00 20.00     0.034 A 
HETATM    7  C7  UNL     1     -34.150  15.767  -7.291  1.00 20.00     0.039 C 
HETATM    8  C8  UNL     1     -35.518  15.382  -7.915  1.00 20.00     0.007 C 
HETATM    9  C9  UNL     1     -36.082  13.990  -7.525  1.00 20.00     0.035 C 
HETATM   10  C10 UNL     1     -34.849  13.687  -5.411  1.00 20.00     0.184 A 
HETATM   11  C11 UNL     1     -36.224  13.960  -6.056  1.00 20.00     0.156 A 
HETATM   12  O12 UNL     1     -36.005  12.886  -5.173  1.00 20.00    -0.370 OA
HETATM   13 CL13 UNL     1     -33.140  19.083  -3.365  1.00 20.00    -0.084 Cl
ENDROOT
TORSDOF 0
ENDMDL
MODEL 7
REMARK VINA RESULT:      -4.8      4.223      6.577
REMARK  0 active torsions:
REMARK  status: ('A' for Active; 'I' for Inactive)
ROOT
HETATM    1  C1  UNL     1     -33.336  18.801  -4.076  1.00 20.00     0.012 A 
HETATM    2  C2  UNL     1     -32.951  19.152  -2.781  1.00 20.00     0.024 A 
HETATM    3  C3  UNL     1     -33.719  17.010  -1.957  1.00 20.00     0.031 A 
HETATM    4  C4  UNL     1     -33.913  17.552  -4.329  1.00 20.00    -0.021 A 
HETATM    5  C5  UNL     1     -34.110  16.640  -3.251  1.00 20.00    -0.048 A 
HETATM    6  C6  UNL     1     -33.141  18.260  -1.728  1.00 20.00     0.034 A 
HETATM    7  C7  UNL     1     -34.789  15.289  -3.487  1.00 20.00     0.039 C 
HETATM    8  C8  UNL     1     -34.083  14.279  -4.430  1.00 20.00     0.007 C 
HETATM    9  C9  UNL     1     -34.040  14.658  -5.933  1.00 20.00     0.035 C 
HETATM   10  C10 UNL     1     -34.320  17.096  -5.692  1.00 20.00     0.184 A 
HETATM   11  C11 UNL     1     -33.344  15.956  -6.048  1.00 20.00     0.156 A 
HETATM   12  O12 UNL     1     -33.610  17.022  -6.927  1.00 20.00    -0.370 OA
HETATM   13 CL13 UNL     1     -32.664  18.703  -0.133  1.00 20.00    -0.084 Cl
ENDROOT
TORSDOF 0
ENDMDL
MODEL 8
REMARK VINA RESULT:      -4.8     10.750     11.382
REMARK  0 active torsions:
REMARK  status: ('A' for Active; 'I' for Inactive)
ROOT
HETATM    1  C1  UNL     1     -32.087   8.979   3.349  1.00 20.00     0.012 A 
HETATM    2  C2  UNL     1     -32.095   9.429   2.029  1.00 20.00     0.024 A 
HETATM    3  C3  UNL     1     -33.145   7.367   1.319  1.00 20.00     0.031 A 
HETATM    4  C4  UNL     1     -32.609   7.722   3.673  1.00 20.00    -0.021 A 
HETATM    5  C5  UNL     1     -33.146   6.900   2.640  1.00 20.00    -0.048 A 
HETATM    6  C6  UNL     1     -32.624   8.627   1.018  1.00 20.00     0.034 A 
HETATM    7  C7  UNL     1     -33.673   5.497   2.954  1.00 20.00     0.039 C 
HETATM    8  C8  UNL     1     -34.891   5.379   3.909  1.00 20.00     0.007 C 
HETATM    9  C9  UNL     1     -34.637   5.750   5.393  1.00 20.00     0.035 C 
HETATM   10  C10 UNL     1     -32.661   7.188   5.067  1.00 20.00     0.184 A 
HETATM   11  C11 UNL     1     -34.159   7.147   5.431  1.00 20.00     0.156 A 
HETATM   12  O12 UNL     1     -33.194   7.724   6.276  1.00 20.00    -0.370 OA
HETATM   13 CL13 UNL     1     -32.629   9.191  -0.609  1.00 20.00    -0.084 Cl
ENDROOT
TORSDOF 0
ENDMDL
MODEL 9
REMARK VINA RESULT:      -4.7      2.026      2.950
REMARK  0 active torsions:
REMARK  status: ('A' for Active; 'I' for Inactive)
ROOT
HETATM    1  C1  UNL     1     -36.222  16.612  -2.810  1.00 20.00     0.012 A 
HETATM    2  C2  UNL     1     -35.460  15.748  -3.597  1.00 20.00     0.024 A 
HETATM    3  C3  UNL     1     -33.428  16.623  -2.616  1.00 20.00     0.031 A 
HETATM    4  C4  UNL     1     -35.600  17.489  -1.914  1.00 20.00    -0.021 A 
HETATM    5  C5  UNL     1     -34.178  17.496  -1.817  1.00 20.00    -0.048 A 
HETATM    6  C6  UNL     1     -34.070  15.753  -3.499  1.00 20.00     0.034 A 
HETATM    7  C7  UNL     1     -33.465  18.483  -0.887  1.00 20.00     0.039 C 
HETATM    8  C8  UNL     1     -33.735  18.365   0.637  1.00 20.00     0.007 C 
HETATM    9  C9  UNL     1     -35.159  18.754   1.113  1.00 20.00     0.035 C 
HETATM   10  C10 UNL     1     -36.351  18.419  -1.019  1.00 20.00     0.184 A 
HETATM   11  C11 UNL     1     -36.121  17.882   0.409  1.00 20.00     0.156 A 
HETATM   12  O12 UNL     1     -37.402  18.200  -0.079  1.00 20.00    -0.370 OA
HETATM   13 CL13 UNL     1     -33.138  14.684  -4.476  1.00 20.00    -0.084 Cl
ENDROOT
TORSDOF 0
ENDMDL
