MODEL 1
REMARK VINA RESULT:      -5.0      0.000      0.000
REMARK  5 active torsions:
REMARK  status: ('A' for Active; 'I' for Inactive)
REMARK    1  A    between atoms: C3_3  and  C5_5 
REMARK    2  A    between atoms: C4_4  and  C6_6 
REMARK    3  A    between atoms: C5_5  and  C7_7 
REMARK    4  A    between atoms: C6_6  and  S9_9 
REMARK    5  A    between atoms: C7_7  and  S9_9 
ROOT
HETATM    1  C1  UNL     1     -34.497   4.822   5.074  1.00 20.00     0.059 C 
HETATM    2  C3  UNL     1     -34.490   6.016   5.928  1.00 20.00     0.124 C 
HETATM    3  N8  UNL     1     -34.503   3.877   4.400  1.00 20.00    -0.197 NA
ENDROOT
BRANCH   2   4
HETATM    4  C5  UNL     1     -33.672   7.142   5.293  1.00 20.00     0.024 C 
BRANCH   4   5
HETATM    5  C7  UNL     1     -34.009   7.294   3.812  1.00 20.00     0.075 C 
BRANCH   5   6
HETATM    6  S9  UNL     1     -32.575   6.874   2.780  1.00 20.00    -0.169 SA
BRANCH   6   7
HETATM    7  C6  UNL     1     -31.915   8.543   2.557  1.00 20.00     0.073 C 
BRANCH   7   8
HETATM    8  C4  UNL     1     -32.012   8.965   1.096  1.00 20.00     0.006 C 
HETATM    9  C2  UNL     1     -32.688  10.321   0.960  1.00 20.00     0.006 C 
ENDBRANCH   7   8
ENDBRANCH   6   7
ENDBRANCH   5   6
ENDBRANCH   4   5
ENDBRANCH   2   4
TORSDOF 5
ENDMDL
MODEL 2
REMARK VINA RESULT:      -4.9      2.694      5.449
REMARK  5 active torsions:
REMARK  status: ('A' for Active; 'I' for Inactive)
REMARK    1  A    between atoms: C3_3  and  C5_5 
REMARK    2  A    between atoms: C4_4  and  C6_6 
REMARK    3  A    between atoms: C5_5  and  C7_7 
REMARK    4  A    between atoms: C6_6  and  S9_9 
REMARK    5  A    between atoms: C7_7  and  S9_9 
ROOT
HETATM    1  C1  UNL     1     -32.949   9.527   0.181  1.00 20.00     0.059 C 
HETATM    2  C3  UNL     1     -32.322   9.648   1.503  1.00 20.00     0.124 C 
HETATM    3  N8  UNL     1     -33.446   9.431  -0.863  1.00 20.00    -0.197 NA
ENDROOT
BRANCH   2   4
HETATM    4  C5  UNL     1     -31.662   8.334   1.923  1.00 20.00     0.024 C 
BRANCH   4   5
HETATM    5  C7  UNL     1     -31.986   8.001   3.377  1.00 20.00     0.075 C 
BRANCH   5   6
HETATM    6  S9  UNL     1     -33.432   6.907   3.479  1.00 20.00    -0.169 SA
BRANCH   6   7
HETATM    7  C6  UNL     1     -33.792   7.113   5.239  1.00 20.00     0.073 C 
BRANCH   7   8
HETATM    8  C4  UNL     1     -34.445   5.856   5.801  1.00 20.00     0.006 C 
HETATM    9  C2  UNL     1     -34.643   4.808   4.715  1.00 20.00     0.006 C 
ENDBRANCH   7   8
ENDBRANCH   6   7
ENDBRANCH   5   6
ENDBRANCH   4   5
ENDBRANCH   2   4
TORSDOF 5
ENDMDL
MODEL 3
REMARK VINA RESULT:      -4.7      2.749      5.336
REMARK  5 active torsions:
REMARK  status: ('A' for Active; 'I' for Inactive)
REMARK    1  A    between atoms: C3_3  and  C5_5 
REMARK    2  A    between atoms: C4_4  and  C6_6 
REMARK    3  A    between atoms: C5_5  and  C7_7 
REMARK    4  A    between atoms: C6_6  and  S9_9 
REMARK    5  A    between atoms: C7_7  and  S9_9 
ROOT
HETATM    1  C1  UNL     1     -32.864   9.441   0.219  1.00 20.00     0.059 C 
HETATM    2  C3  UNL     1     -32.186   9.506   1.520  1.00 20.00     0.124 C 
HETATM    3  N8  UNL     1     -33.400   9.391  -0.809  1.00 20.00    -0.197 NA
ENDROOT
BRANCH   2   4
HETATM    4  C5  UNL     1     -31.977   8.107   2.102  1.00 20.00     0.024 C 
BRANCH   4   5
HETATM    5  C7  UNL     1     -33.178   7.679   2.940  1.00 20.00     0.075 C 
BRANCH   5   6
HETATM    6  S9  UNL     1     -33.367   5.873   2.919  1.00 20.00    -0.169 SA
BRANCH   6   7
HETATM    7  C6  UNL     1     -34.915   5.760   3.846  1.00 20.00     0.073 C 
BRANCH   7   8
HETATM    8  C4  UNL     1     -34.636   5.487   5.320  1.00 20.00     0.006 C 
HETATM    9  C2  UNL     1     -34.134   6.738   6.024  1.00 20.00     0.006 C 
ENDBRANCH   7   8
ENDBRANCH   6   7
ENDBRANCH   5   6
ENDBRANCH   4   5
ENDBRANCH   2   4
TORSDOF 5
ENDMDL
MODEL 4
REMARK VINA RESULT:      -4.7      2.815      5.254
REMARK  5 active torsions:
REMARK  status: ('A' for Active; 'I' for Inactive)
REMARK    1  A    between atoms: C3_3  and  C5_5 
REMARK    2  A    between atoms: C4_4  and  C6_6 
REMARK    3  A    between atoms: C5_5  and  C7_7 
REMARK    4  A    between atoms: C6_6  and  S9_9 
REMARK    5  A    between atoms: C7_7  and  S9_9 
ROOT
HETATM    1  C1  UNL     1     -32.337   9.332   1.462  1.00 20.00     0.059 C 
HETATM    2  C3  UNL     1     -31.810   8.067   1.990  1.00 20.00     0.124 C 
HETATM    3  N8  UNL     1     -32.753  10.331   1.045  1.00 20.00    -0.197 NA
ENDROOT
BRANCH   2   4
HETATM    4  C5  UNL     1     -31.966   7.996   3.509  1.00 20.00     0.024 C 
BRANCH   4   5
HETATM    5  C7  UNL     1     -33.334   7.440   3.893  1.00 20.00     0.075 C 
BRANCH   5   6
HETATM    6  S9  UNL     1     -33.506   7.343   5.698  1.00 20.00    -0.169 SA
BRANCH   6   7
HETATM    7  C6  UNL     1     -34.588   5.897   5.781  1.00 20.00     0.073 C 
BRANCH   7   8
HETATM    8  C4  UNL     1     -34.790   5.300   4.393  1.00 20.00     0.006 C 
HETATM    9  C2  UNL     1     -34.139   3.929   4.286  1.00 20.00     0.006 C 
ENDBRANCH   7   8
ENDBRANCH   6   7
ENDBRANCH   5   6
ENDBRANCH   4   5
ENDBRANCH   2   4
TORSDOF 5
ENDMDL
MODEL 5
REMARK VINA RESULT:      -4.6      1.690      1.999
REMARK  5 active torsions:
REMARK  status: ('A' for Active; 'I' for Inactive)
REMARK    1  A    between atoms: C3_3  and  C5_5 
REMARK    2  A    between atoms: C4_4  and  C6_6 
REMARK    3  A    between atoms: C5_5  and  C7_7 
REMARK    4  A    between atoms: C6_6  and  S9_9 
REMARK    5  A    between atoms: C7_7  and  S9_9 
ROOT
HETATM    1  C1  UNL     1     -34.256   6.292   5.203  1.00 20.00     0.059 C 
HETATM    2  C3  UNL     1     -34.435   5.437   4.023  1.00 20.00     0.124 C 
HETATM    3  N8  UNL     1     -34.114   6.968   6.135  1.00 20.00    -0.197 NA
ENDROOT
BRANCH   2   4
HETATM    4  C5  UNL     1     -33.416   5.779   2.934  1.00 20.00     0.024 C 
BRANCH   4   5
HETATM    5  C7  UNL     1     -33.444   7.270   2.610  1.00 20.00     0.075 C 
BRANCH   5   6
HETATM    6  S9  UNL     1     -31.817   8.022   2.906  1.00 20.00    -0.169 SA
BRANCH   6   7
HETATM    7  C6  UNL     1     -31.528   8.683   1.248  1.00 20.00     0.073 C 
BRANCH   7   8
HETATM    8  C4  UNL     1     -32.583   9.726   0.897  1.00 20.00     0.006 C 
HETATM    9  C2  UNL     1     -33.175   9.465  -0.480  1.00 20.00     0.006 C 
ENDBRANCH   7   8
ENDBRANCH   6   7
ENDBRANCH   5   6
ENDBRANCH   4   5
ENDBRANCH   2   4
TORSDOF 5
ENDMDL
MODEL 6
REMARK VINA RESULT:      -4.6      1.663      1.982
REMARK  5 active torsions:
REMARK  status: ('A' for Active; 'I' for Inactive)
REMARK    1  A    between atoms: C3_3  and  C5_5 
REMARK    2  A    between atoms: C4_4  and  C6_6 
REMARK    3  A    between atoms: C5_5  and  C7_7 
REMARK    4  A    between atoms: C6_6  and  S9_9 
REMARK    5  A    between atoms: C7_7  and  S9_9 
ROOT
HETATM    1  C1  UNL     1     -34.076   6.521   5.942  1.00 20.00     0.059 C 
HETATM    2  C3  UNL     1     -34.699   5.206   5.742  1.00 20.00     0.124 C 
HETATM    3  N8  UNL     1     -33.585   7.560   6.100  1.00 20.00    -0.197 NA
ENDROOT
BRANCH   2   4
HETATM    4  C5  UNL     1     -34.458   4.692   4.322  1.00 20.00     0.024 C 
BRANCH   4   5
HETATM    5  C7  UNL     1     -34.536   5.831   3.309  1.00 20.00     0.075 C 
BRANCH   5   6
HETATM    6  S9  UNL     1     -32.922   6.104   2.523  1.00 20.00    -0.169 SA
BRANCH   6   7
HETATM    7  C6  UNL     1     -32.876   7.907   2.639  1.00 20.00     0.073 C 
BRANCH   7   8
HETATM    8  C4  UNL     1     -31.830   8.478   1.688  1.00 20.00     0.006 C 
HETATM    9  C2  UNL     1     -32.387   9.659   0.907  1.00 20.00     0.006 C 
ENDBRANCH   7   8
ENDBRANCH   6   7
ENDBRANCH   5   6
ENDBRANCH   4   5
ENDBRANCH   2   4
TORSDOF 5
ENDMDL
MODEL 7
REMARK VINA RESULT:      -3.8     11.254     11.927
REMARK  5 active torsions:
REMARK  status: ('A' for Active; 'I' for Inactive)
REMARK    1  A    between atoms: C3_3  and  C5_5 
REMARK    2  A    between atoms: C4_4  and  C6_6 
REMARK    3  A    between atoms: C5_5  and  C7_7 
REMARK    4  A    between atoms: C6_6  and  S9_9 
REMARK    5  A    between atoms: C7_7  and  S9_9 
ROOT
HETATM    1  C1  UNL     1     -35.268  13.666  -4.738  1.00 20.00     0.059 C 
HETATM    2  C3  UNL     1     -34.474  14.620  -3.954  1.00 20.00     0.124 C 
HETATM    3  N8  UNL     1     -35.895  12.911  -5.357  1.00 20.00    -0.197 NA
ENDROOT
BRANCH   2   4
HETATM    4  C5  UNL     1     -33.269  15.121  -4.752  1.00 20.00     0.024 C 
BRANCH   4   5
HETATM    5  C7  UNL     1     -33.474  16.565  -5.203  1.00 20.00     0.075 C 
BRANCH   5   6
HETATM    6  S9  UNL     1     -34.603  17.435  -4.077  1.00 20.00    -0.169 SA
BRANCH   6   7
HETATM    7  C6  UNL     1     -33.375  18.060  -2.907  1.00 20.00     0.073 C 
BRANCH   7   8
HETATM    8  C4  UNL     1     -33.574  17.427  -1.534  1.00 20.00     0.006 C 
HETATM    9  C2  UNL     1     -35.036  17.075  -1.301  1.00 20.00     0.006 C 
ENDBRANCH   7   8
ENDBRANCH   6   7
ENDBRANCH   5   6
ENDBRANCH   4   5
ENDBRANCH   2   4
TORSDOF 5
ENDMDL
MODEL 8
REMARK VINA RESULT:      -3.6     11.466     12.391
REMARK  5 active torsions:
REMARK  status: ('A' for Active; 'I' for Inactive)
REMARK    1  A    between atoms: C3_3  and  C5_5 
REMARK    2  A    between atoms: C4_4  and  C6_6 
REMARK    3  A    between atoms: C5_5  and  C7_7 
REMARK    4  A    between atoms: C6_6  and  S9_9 
REMARK    5  A    between atoms: C7_7  and  S9_9 
ROOT
HETATM    1  C1  UNL     1     -35.249  13.329  -6.205  1.00 20.00     0.059 C 
HETATM    2  C3  UNL     1     -34.400  13.824  -7.295  1.00 20.00     0.124 C 
HETATM    3  N8  UNL     1     -35.921  12.937  -5.343  1.00 20.00    -0.197 NA
ENDROOT
BRANCH   2   4
HETATM    4  C5  UNL     1     -34.020  15.289  -7.077  1.00 20.00     0.024 C 
BRANCH   4   5
HETATM    5  C7  UNL     1     -33.223  15.460  -5.787  1.00 20.00     0.075 C 
BRANCH   5   6
HETATM    6  S9  UNL     1     -33.837  16.879  -4.834  1.00 20.00    -0.169 SA
BRANCH   6   7
HETATM    7  C6  UNL     1     -34.283  16.002  -3.317  1.00 20.00     0.073 C 
BRANCH   7   8
HETATM    8  C4  UNL     1     -34.017  16.876  -2.097  1.00 20.00     0.006 C 
HETATM    9  C2  UNL     1     -35.254  16.977  -1.216  1.00 20.00     0.006 C 
ENDBRANCH   7   8
ENDBRANCH   6   7
ENDBRANCH   5   6
ENDBRANCH   4   5
ENDBRANCH   2   4
TORSDOF 5
ENDMDL
MODEL 9
REMARK VINA RESULT:      -3.6     11.649     12.795
REMARK  5 active torsions:
REMARK  status: ('A' for Active; 'I' for Inactive)
REMARK    1  A    between atoms: C3_3  and  C5_5 
REMARK    2  A    between atoms: C4_4  and  C6_6 
REMARK    3  A    between atoms: C5_5  and  C7_7 
REMARK    4  A    between atoms: C6_6  and  S9_9 
REMARK    5  A    between atoms: C7_7  and  S9_9 
ROOT
HETATM    1  C1  UNL     1     -35.537  13.208  -6.364  1.00 20.00     0.059 C 
HETATM    2  C3  UNL     1     -35.065  13.619  -7.693  1.00 20.00     0.124 C 
HETATM    3  N8  UNL     1     -35.911  12.883  -5.315  1.00 20.00    -0.197 NA
ENDROOT
BRANCH   2   4
HETATM    4  C5  UNL     1     -33.995  14.706  -7.585  1.00 20.00     0.024 C 
BRANCH   4   5
HETATM    5  C7  UNL     1     -34.631  16.091  -7.501  1.00 20.00     0.075 C 
BRANCH   5   6
HETATM    6  S9  UNL     1     -34.035  16.984  -6.036  1.00 20.00    -0.169 SA
BRANCH   6   7
HETATM    7  C6  UNL     1     -33.011  15.673  -5.329  1.00 20.00     0.073 C 
BRANCH   7   8
HETATM    8  C4  UNL     1     -33.478  15.332  -3.919  1.00 20.00     0.006 C 
HETATM    9  C2  UNL     1     -34.870  15.887  -3.654  1.00 20.00     0.006 C 
ENDBRANCH   7   8
ENDBRANCH   6   7
ENDBRANCH   5   6
ENDBRANCH   4   5
ENDBRANCH   2   4
TORSDOF 5
ENDMDL
