MODEL 1
REMARK VINA RESULT:      -5.9      0.000      0.000
REMARK  3 active torsions:
REMARK  status: ('A' for Active; 'I' for Inactive)
REMARK    1  A    between atoms: C5_5  and  C8_8 
REMARK    2  A    between atoms: C7_7  and  N9_9 
REMARK    3  A    between atoms: C8_8  and  N9_9 
ROOT
HETATM    1  C1  UNL     1     -32.519   9.753   1.082  1.00 20.00     0.013 C 
HETATM    2  C2  UNL     1     -32.388   8.788   1.783  1.00 20.00    -0.087 C 
HETATM    3  C7  UNL     1     -32.223   7.608   2.636  1.00 20.00     0.362 C 
ENDROOT
BRANCH   3   4
HETATM    4  N9  UNL     1     -33.379   7.431   3.490  1.00 20.00     0.098 N 
HETATM    5  H22 UNL     1     -33.094   7.341   4.455  1.00 20.00     0.317 HD
BRANCH   4   6
HETATM    6  C8  UNL     1     -34.100   6.191   3.114  1.00 20.00     0.221 C 
HETATM    7  C6  UNL     1     -33.083   5.134   2.706  1.00 20.00     0.043 C 
BRANCH   6   8
HETATM    8  C5  UNL     1     -34.950   5.731   4.290  1.00 20.00     0.018 A 
HETATM    9  C3  UNL     1     -34.549   4.521   5.088  1.00 20.00     0.007 A 
HETATM   10  C4  UNL     1     -34.444   5.892   5.697  1.00 20.00     0.007 A 
ENDBRANCH   6   8
ENDBRANCH   4   6
ENDBRANCH   3   4
TORSDOF 3
ENDMDL
MODEL 2
REMARK VINA RESULT:      -5.9      1.034      1.438
REMARK  3 active torsions:
REMARK  status: ('A' for Active; 'I' for Inactive)
REMARK    1  A    between atoms: C5_5  and  C8_8 
REMARK    2  A    between atoms: C7_7  and  N9_9 
REMARK    3  A    between atoms: C8_8  and  N9_9 
ROOT
HETATM    1  C1  UNL     1     -32.534  10.004   0.809  1.00 20.00     0.013 C 
HETATM    2  C2  UNL     1     -32.361   9.151   1.636  1.00 20.00    -0.087 C 
HETATM    3  C7  UNL     1     -32.144   8.111   2.645  1.00 20.00     0.362 C 
ENDROOT
BRANCH   3   4
HETATM    4  N9  UNL     1     -33.365   7.372   2.887  1.00 20.00     0.098 N 
HETATM    5  H22 UNL     1     -34.161   7.995   2.884  1.00 20.00     0.317 HD
BRANCH   4   6
HETATM    6  C8  UNL     1     -33.306   6.718   4.216  1.00 20.00     0.221 C 
HETATM    7  C6  UNL     1     -33.254   7.793   5.292  1.00 20.00     0.043 C 
BRANCH   6   8
HETATM    8  C5  UNL     1     -34.519   5.813   4.382  1.00 20.00     0.018 A 
HETATM    9  C3  UNL     1     -34.367   4.319   4.304  1.00 20.00     0.007 A 
HETATM   10  C4  UNL     1     -34.674   4.975   5.621  1.00 20.00     0.007 A 
ENDBRANCH   6   8
ENDBRANCH   4   6
ENDBRANCH   3   4
TORSDOF 3
ENDMDL
MODEL 3
REMARK VINA RESULT:      -5.6      1.035      4.812
REMARK  3 active torsions:
REMARK  status: ('A' for Active; 'I' for Inactive)
REMARK    1  A    between atoms: C5_5  and  C8_8 
REMARK    2  A    between atoms: C7_7  and  N9_9 
REMARK    3  A    between atoms: C8_8  and  N9_9 
ROOT
HETATM    1  C1  UNL     1     -35.013   5.382   4.443  1.00 20.00     0.013 C 
HETATM    2  C2  UNL     1     -34.073   5.728   3.780  1.00 20.00    -0.087 C 
HETATM    3  C7  UNL     1     -32.925   6.146   2.973  1.00 20.00     0.362 C 
ENDROOT
BRANCH   3   4
HETATM    4  N9  UNL     1     -33.301   7.202   2.056  1.00 20.00     0.098 N 
HETATM    5  H22 UNL     1     -33.048   6.955   1.110  1.00 20.00     0.317 HD
BRANCH   4   6
HETATM    6  C8  UNL     1     -32.587   8.454   2.405  1.00 20.00     0.221 C 
HETATM    7  C6  UNL     1     -31.480   8.129   3.398  1.00 20.00     0.043 C 
BRANCH   6   8
HETATM    8  C5  UNL     1     -32.037   9.085   1.134  1.00 20.00     0.018 A 
HETATM    9  C3  UNL     1     -32.917   9.249  -0.074  1.00 20.00     0.007 A 
HETATM   10  C4  UNL     1     -32.490  10.456   0.713  1.00 20.00     0.007 A 
ENDBRANCH   6   8
ENDBRANCH   4   6
ENDBRANCH   3   4
TORSDOF 3
ENDMDL
MODEL 4
REMARK VINA RESULT:      -5.2      0.930      4.496
REMARK  3 active torsions:
REMARK  status: ('A' for Active; 'I' for Inactive)
REMARK    1  A    between atoms: C5_5  and  C8_8 
REMARK    2  A    between atoms: C7_7  and  N9_9 
REMARK    3  A    between atoms: C8_8  and  N9_9 
ROOT
HETATM    1  C1  UNL     1     -34.776   5.049   5.818  1.00 20.00     0.013 C 
HETATM    2  C2  UNL     1     -34.222   6.071   5.520  1.00 20.00    -0.087 C 
HETATM    3  C7  UNL     1     -33.543   7.319   5.161  1.00 20.00     0.362 C 
ENDROOT
BRANCH   3   4
HETATM    4  N9  UNL     1     -33.823   7.676   3.787  1.00 20.00     0.098 N 
HETATM    5  H22 UNL     1     -34.677   7.235   3.475  1.00 20.00     0.317 HD
BRANCH   4   6
HETATM    6  C8  UNL     1     -32.724   7.209   2.908  1.00 20.00     0.221 C 
HETATM    7  C6  UNL     1     -32.932   5.733   2.602  1.00 20.00     0.043 C 
BRANCH   6   8
HETATM    8  C5  UNL     1     -32.706   8.050   1.640  1.00 20.00     0.018 A 
HETATM    9  C3  UNL     1     -32.490   9.537   1.720  1.00 20.00     0.007 A 
HETATM   10  C4  UNL     1     -31.417   8.651   1.150  1.00 20.00     0.007 A 
ENDBRANCH   6   8
ENDBRANCH   4   6
ENDBRANCH   3   4
TORSDOF 3
ENDMDL
MODEL 5
REMARK VINA RESULT:      -4.8      1.426      4.420
REMARK  3 active torsions:
REMARK  status: ('A' for Active; 'I' for Inactive)
REMARK    1  A    between atoms: C5_5  and  C8_8 
REMARK    2  A    between atoms: C7_7  and  N9_9 
REMARK    3  A    between atoms: C8_8  and  N9_9 
ROOT
HETATM    1  C1  UNL     1     -33.686   3.297   4.137  1.00 20.00     0.013 C 
HETATM    2  C2  UNL     1     -34.282   4.303   4.409  1.00 20.00    -0.087 C 
HETATM    3  C7  UNL     1     -35.010   5.529   4.746  1.00 20.00     0.362 C 
ENDROOT
BRANCH   3   4
HETATM    4  N9  UNL     1     -34.811   6.537   3.727  1.00 20.00     0.098 N 
HETATM    5  H22 UNL     1     -34.478   6.114   2.872  1.00 20.00     0.317 HD
BRANCH   4   6
HETATM    6  C8  UNL     1     -33.792   7.516   4.176  1.00 20.00     0.221 C 
HETATM    7  C6  UNL     1     -33.559   7.335   5.669  1.00 20.00     0.043 C 
BRANCH   6   8
HETATM    8  C5  UNL     1     -32.513   7.307   3.376  1.00 20.00     0.018 A 
HETATM    9  C3  UNL     1     -32.311   8.023   2.069  1.00 20.00     0.007 A 
HETATM   10  C4  UNL     1     -31.498   8.412   3.272  1.00 20.00     0.007 A 
ENDBRANCH   6   8
ENDBRANCH   4   6
ENDBRANCH   3   4
TORSDOF 3
ENDMDL
MODEL 6
REMARK VINA RESULT:      -4.6      1.205      3.890
REMARK  3 active torsions:
REMARK  status: ('A' for Active; 'I' for Inactive)
REMARK    1  A    between atoms: C5_5  and  C8_8 
REMARK    2  A    between atoms: C7_7  and  N9_9 
REMARK    3  A    between atoms: C8_8  and  N9_9 
ROOT
HETATM    1  C1  UNL     1     -34.749   5.075   5.994  1.00 20.00     0.013 C 
HETATM    2  C2  UNL     1     -34.253   6.147   5.773  1.00 20.00    -0.087 C 
HETATM    3  C7  UNL     1     -33.652   7.455   5.506  1.00 20.00     0.362 C 
ENDROOT
BRANCH   3   4
HETATM    4  N9  UNL     1     -32.536   7.328   4.593  1.00 20.00     0.098 N 
HETATM    5  H22 UNL     1     -31.765   7.908   4.895  1.00 20.00     0.317 HD
BRANCH   4   6
HETATM    6  C8  UNL     1     -32.937   7.778   3.238  1.00 20.00     0.221 C 
HETATM    7  C6  UNL     1     -31.933   8.810   2.744  1.00 20.00     0.043 C 
BRANCH   6   8
HETATM    8  C5  UNL     1     -33.008   6.572   2.312  1.00 20.00     0.018 A 
HETATM    9  C3  UNL     1     -32.928   5.179   2.874  1.00 20.00     0.007 A 
HETATM   10  C4  UNL     1     -34.226   5.689   2.312  1.00 20.00     0.007 A 
ENDBRANCH   6   8
ENDBRANCH   4   6
ENDBRANCH   3   4
TORSDOF 3
ENDMDL
MODEL 7
REMARK VINA RESULT:      -4.6      1.314      2.307
REMARK  3 active torsions:
REMARK  status: ('A' for Active; 'I' for Inactive)
REMARK    1  A    between atoms: C5_5  and  C8_8 
REMARK    2  A    between atoms: C7_7  and  N9_9 
REMARK    3  A    between atoms: C8_8  and  N9_9 
ROOT
HETATM    1  C1  UNL     1     -32.898   9.224  -0.991  1.00 20.00     0.013 C 
HETATM    2  C2  UNL     1     -32.717   9.350   0.189  1.00 20.00    -0.087 C 
HETATM    3  C7  UNL     1     -32.492   9.508   1.628  1.00 20.00     0.362 C 
ENDROOT
BRANCH   3   4
HETATM    4  N9  UNL     1     -33.332   8.599   2.378  1.00 20.00     0.098 N 
HETATM    5  H22 UNL     1     -33.768   9.079   3.153  1.00 20.00     0.317 HD
BRANCH   4   6
HETATM    6  C8  UNL     1     -32.512   7.494   2.934  1.00 20.00     0.221 C 
HETATM    7  C6  UNL     1     -31.364   8.089   3.735  1.00 20.00     0.043 C 
BRANCH   6   8
HETATM    8  C5  UNL     1     -33.395   6.600   3.792  1.00 20.00     0.018 A 
HETATM    9  C3  UNL     1     -34.759   6.192   3.308  1.00 20.00     0.007 A 
HETATM   10  C4  UNL     1     -33.654   5.176   3.384  1.00 20.00     0.007 A 
ENDBRANCH   6   8
ENDBRANCH   4   6
ENDBRANCH   3   4
TORSDOF 3
ENDMDL
MODEL 8
REMARK VINA RESULT:      -4.5     11.132     12.371
REMARK  3 active torsions:
REMARK  status: ('A' for Active; 'I' for Inactive)
REMARK    1  A    between atoms: C5_5  and  C8_8 
REMARK    2  A    between atoms: C7_7  and  N9_9 
REMARK    3  A    between atoms: C8_8  and  N9_9 
ROOT
HETATM    1  C1  UNL     1     -33.948  16.694  -7.815  1.00 20.00     0.013 C 
HETATM    2  C2  UNL     1     -34.079  15.501  -7.841  1.00 20.00    -0.087 C 
HETATM    3  C7  UNL     1     -34.239  14.045  -7.877  1.00 20.00     0.362 C 
ENDROOT
BRANCH   3   4
HETATM    4  N9  UNL     1     -34.058  13.478  -6.558  1.00 20.00     0.098 N 
HETATM    5  H22 UNL     1     -34.319  12.502  -6.554  1.00 20.00     0.317 HD
BRANCH   4   6
HETATM    6  C8  UNL     1     -34.923  14.182  -5.581  1.00 20.00     0.221 C 
HETATM    7  C6  UNL     1     -36.211  13.392  -5.404  1.00 20.00     0.043 C 
BRANCH   6   8
HETATM    8  C5  UNL     1     -34.170  14.335  -4.267  1.00 20.00     0.018 A 
HETATM    9  C3  UNL     1     -32.725  14.748  -4.264  1.00 20.00     0.007 A 
HETATM   10  C4  UNL     1     -33.779  15.701  -3.773  1.00 20.00     0.007 A 
ENDBRANCH   6   8
ENDBRANCH   4   6
ENDBRANCH   3   4
TORSDOF 3
ENDMDL
MODEL 9
REMARK VINA RESULT:      -4.5     11.482     12.241
REMARK  3 active torsions:
REMARK  status: ('A' for Active; 'I' for Inactive)
REMARK    1  A    between atoms: C5_5  and  C8_8 
REMARK    2  A    between atoms: C7_7  and  N9_9 
REMARK    3  A    between atoms: C8_8  and  N9_9 
ROOT
HETATM    1  C1  UNL     1     -34.683  16.147  -3.029  1.00 20.00     0.013 C 
HETATM    2  C2  UNL     1     -33.912  15.641  -3.798  1.00 20.00    -0.087 C 
HETATM    3  C7  UNL     1     -32.968  15.027  -4.736  1.00 20.00     0.362 C 
ENDROOT
BRANCH   3   4
HETATM    4  N9  UNL     1     -33.619  13.992  -5.511  1.00 20.00     0.098 N 
HETATM    5  H22 UNL     1     -32.931  13.392  -5.945  1.00 20.00     0.317 HD
BRANCH   4   6
HETATM    6  C8  UNL     1     -34.432  14.604  -6.589  1.00 20.00     0.221 C 
HETATM    7  C6  UNL     1     -33.717  14.406  -7.918  1.00 20.00     0.043 C 
BRANCH   6   8
HETATM    8  C5  UNL     1     -35.815  13.967  -6.593  1.00 20.00     0.018 A 
HETATM    9  C3  UNL     1     -36.501  13.635  -5.297  1.00 20.00     0.007 A 
HETATM   10  C4  UNL     1     -37.014  14.761  -6.151  1.00 20.00     0.007 A 
ENDBRANCH   6   8
ENDBRANCH   4   6
ENDBRANCH   3   4
TORSDOF 3
ENDMDL
