MODEL 1
REMARK VINA RESULT:      -5.0      0.000      0.000
REMARK  1 active torsions:
REMARK  status: ('A' for Active; 'I' for Inactive)
REMARK    1  A    between atoms: C1_1  and  C8_8 
ROOT
HETATM    1  C1  UNL     1     -33.327   6.730   3.801  1.00 20.00     0.014 C 
HETATM    2  C2  UNL     1     -32.944   6.677   2.355  1.00 20.00     0.057 C 
HETATM    3  C3  UNL     1     -32.268   8.021   2.236  1.00 20.00     0.027 C 
HETATM    4  C4  UNL     1     -31.737   8.254   3.639  1.00 20.00     0.149 C 
HETATM    5  N9  UNL     1     -32.693   7.585   4.545  1.00 20.00    -0.298 NA
ENDROOT
BRANCH   1   6
HETATM    6  C8  UNL     1     -34.362   5.804   4.348  1.00 20.00    -0.011 C 
HETATM    7  C5  UNL     1     -35.704   6.090   3.662  1.00 20.00     0.021 C 
HETATM    8  C6  UNL     1     -34.500   6.023   5.861  1.00 20.00     0.021 C 
HETATM    9  C7  UNL     1     -33.946   4.350   4.081  1.00 20.00     0.021 C 
ENDBRANCH   1   6
TORSDOF 1
ENDMDL
MODEL 2
REMARK VINA RESULT:      -5.0      0.014      1.447
REMARK  1 active torsions:
REMARK  status: ('A' for Active; 'I' for Inactive)
REMARK    1  A    between atoms: C1_1  and  C8_8 
ROOT
HETATM    1  C1  UNL     1     -33.323   6.737   3.795  1.00 20.00     0.014 C 
HETATM    2  C2  UNL     1     -32.946   6.682   2.348  1.00 20.00     0.057 C 
HETATM    3  C3  UNL     1     -32.267   8.025   2.226  1.00 20.00     0.027 C 
HETATM    4  C4  UNL     1     -31.731   8.258   3.628  1.00 20.00     0.149 C 
HETATM    5  N9  UNL     1     -32.685   7.591   4.537  1.00 20.00    -0.298 NA
ENDROOT
BRANCH   1   6
HETATM    6  C8  UNL     1     -34.358   5.814   4.346  1.00 20.00    -0.011 C 
HETATM    7  C5  UNL     1     -34.485   6.046   5.857  1.00 20.00     0.021 C 
HETATM    8  C6  UNL     1     -33.945   4.359   4.081  1.00 20.00     0.021 C 
HETATM    9  C7  UNL     1     -35.708   6.090   3.667  1.00 20.00     0.021 C 
ENDBRANCH   1   6
TORSDOF 1
ENDMDL
MODEL 3
REMARK VINA RESULT:      -5.0      0.017      1.447
REMARK  1 active torsions:
REMARK  status: ('A' for Active; 'I' for Inactive)
REMARK    1  A    between atoms: C1_1  and  C8_8 
ROOT
HETATM    1  C1  UNL     1     -33.319   6.741   3.792  1.00 20.00     0.014 C 
HETATM    2  C2  UNL     1     -32.945   6.691   2.344  1.00 20.00     0.057 C 
HETATM    3  C3  UNL     1     -32.265   8.033   2.226  1.00 20.00     0.027 C 
HETATM    4  C4  UNL     1     -31.727   8.260   3.627  1.00 20.00     0.149 C 
HETATM    5  N9  UNL     1     -32.679   7.591   4.536  1.00 20.00    -0.298 NA
ENDROOT
BRANCH   1   6
HETATM    6  C8  UNL     1     -34.354   5.816   4.342  1.00 20.00    -0.011 C 
HETATM    7  C5  UNL     1     -33.930   4.368   4.069  1.00 20.00     0.021 C 
HETATM    8  C6  UNL     1     -35.704   6.093   3.665  1.00 20.00     0.021 C 
HETATM    9  C7  UNL     1     -34.491   6.037   5.856  1.00 20.00     0.021 C 
ENDBRANCH   1   6
TORSDOF 1
ENDMDL
MODEL 4
REMARK VINA RESULT:      -5.0      0.904      1.340
REMARK  1 active torsions:
REMARK  status: ('A' for Active; 'I' for Inactive)
REMARK    1  A    between atoms: C1_1  and  C8_8 
ROOT
HETATM    1  C1  UNL     1     -33.390   6.808   3.685  1.00 20.00     0.014 C 
HETATM    2  C2  UNL     1     -32.700   7.806   4.561  1.00 20.00     0.057 C 
HETATM    3  C3  UNL     1     -31.591   8.221   3.624  1.00 20.00     0.027 C 
HETATM    4  C4  UNL     1     -32.213   8.009   2.255  1.00 20.00     0.149 C 
HETATM    5  N9  UNL     1     -33.150   6.878   2.411  1.00 20.00    -0.298 NA
ENDROOT
BRANCH   1   6
HETATM    6  C8  UNL     1     -34.339   5.814   4.268  1.00 20.00    -0.011 C 
HETATM    7  C5  UNL     1     -35.731   6.033   3.662  1.00 20.00     0.021 C 
HETATM    8  C6  UNL     1     -34.406   5.997   5.791  1.00 20.00     0.021 C 
HETATM    9  C7  UNL     1     -33.855   4.392   3.949  1.00 20.00     0.021 C 
ENDBRANCH   1   6
TORSDOF 1
ENDMDL
MODEL 5
REMARK VINA RESULT:      -4.1      1.132      3.263
REMARK  1 active torsions:
REMARK  status: ('A' for Active; 'I' for Inactive)
REMARK    1  A    between atoms: C1_1  and  C8_8 
ROOT
HETATM    1  C1  UNL     1     -33.886   6.309   4.078  1.00 20.00     0.014 C 
HETATM    2  C2  UNL     1     -34.900   5.372   4.655  1.00 20.00     0.057 C 
HETATM    3  C3  UNL     1     -34.614   5.583   6.122  1.00 20.00     0.027 C 
HETATM    4  C4  UNL     1     -34.097   7.010   6.160  1.00 20.00     0.149 C 
HETATM    5  N9  UNL     1     -33.413   7.223   4.869  1.00 20.00    -0.298 NA
ENDROOT
BRANCH   1   6
HETATM    6  C8  UNL     1     -33.484   6.204   2.644  1.00 20.00    -0.011 C 
HETATM    7  C5  UNL     1     -32.800   4.851   2.412  1.00 20.00     0.021 C 
HETATM    8  C6  UNL     1     -32.510   7.339   2.298  1.00 20.00     0.021 C 
HETATM    9  C7  UNL     1     -34.728   6.313   1.750  1.00 20.00     0.021 C 
ENDBRANCH   1   6
TORSDOF 1
ENDMDL
MODEL 6
REMARK VINA RESULT:      -4.1      1.130      3.173
REMARK  1 active torsions:
REMARK  status: ('A' for Active; 'I' for Inactive)
REMARK    1  A    between atoms: C1_1  and  C8_8 
ROOT
HETATM    1  C1  UNL     1     -33.872   6.323   4.083  1.00 20.00     0.014 C 
HETATM    2  C2  UNL     1     -34.895   5.401   4.667  1.00 20.00     0.057 C 
HETATM    3  C3  UNL     1     -34.609   5.623   6.133  1.00 20.00     0.027 C 
HETATM    4  C4  UNL     1     -34.080   7.045   6.159  1.00 20.00     0.149 C 
HETATM    5  N9  UNL     1     -33.392   7.241   4.867  1.00 20.00    -0.298 NA
ENDROOT
BRANCH   1   6
HETATM    6  C8  UNL     1     -33.467   6.201   2.651  1.00 20.00    -0.011 C 
HETATM    7  C5  UNL     1     -32.484   7.327   2.309  1.00 20.00     0.021 C 
HETATM    8  C6  UNL     1     -34.709   6.311   1.754  1.00 20.00     0.021 C 
HETATM    9  C7  UNL     1     -32.794   4.840   2.421  1.00 20.00     0.021 C 
ENDBRANCH   1   6
TORSDOF 1
ENDMDL
MODEL 7
REMARK VINA RESULT:      -3.8      0.955      3.449
REMARK  1 active torsions:
REMARK  status: ('A' for Active; 'I' for Inactive)
REMARK    1  A    between atoms: C1_1  and  C8_8 
ROOT
HETATM    1  C1  UNL     1     -33.516   7.014   4.206  1.00 20.00     0.014 C 
HETATM    2  C2  UNL     1     -34.578   5.976   4.019  1.00 20.00     0.057 C 
HETATM    3  C3  UNL     1     -34.691   5.491   5.444  1.00 20.00     0.027 C 
HETATM    4  C4  UNL     1     -34.301   6.718   6.248  1.00 20.00     0.149 C 
HETATM    5  N9  UNL     1     -33.325   7.449   5.414  1.00 20.00    -0.298 NA
ENDROOT
BRANCH   1   6
HETATM    6  C8  UNL     1     -32.754   7.540   3.035  1.00 20.00    -0.011 C 
HETATM    7  C5  UNL     1     -32.470   6.389   2.062  1.00 20.00     0.021 C 
HETATM    8  C6  UNL     1     -31.428   8.148   3.515  1.00 20.00     0.021 C 
HETATM    9  C7  UNL     1     -33.582   8.622   2.326  1.00 20.00     0.021 C 
ENDBRANCH   1   6
TORSDOF 1
ENDMDL
MODEL 8
REMARK VINA RESULT:      -3.8      0.956      3.434
REMARK  1 active torsions:
REMARK  status: ('A' for Active; 'I' for Inactive)
REMARK    1  A    between atoms: C1_1  and  C8_8 
ROOT
HETATM    1  C1  UNL     1     -33.508   7.017   4.202  1.00 20.00     0.014 C 
HETATM    2  C2  UNL     1     -34.576   5.986   4.013  1.00 20.00     0.057 C 
HETATM    3  C3  UNL     1     -34.691   5.498   5.437  1.00 20.00     0.027 C 
HETATM    4  C4  UNL     1     -34.292   6.721   6.244  1.00 20.00     0.149 C 
HETATM    5  N9  UNL     1     -33.313   7.448   5.411  1.00 20.00    -0.298 NA
ENDROOT
BRANCH   1   6
HETATM    6  C8  UNL     1     -32.743   7.542   3.032  1.00 20.00    -0.011 C 
HETATM    7  C5  UNL     1     -31.420   8.142   3.525  1.00 20.00     0.021 C 
HETATM    8  C6  UNL     1     -33.567   8.625   2.322  1.00 20.00     0.021 C 
HETATM    9  C7  UNL     1     -32.456   6.397   2.049  1.00 20.00     0.021 C 
ENDBRANCH   1   6
TORSDOF 1
ENDMDL
MODEL 9
REMARK VINA RESULT:      -3.7      1.902      4.462
REMARK  1 active torsions:
REMARK  status: ('A' for Active; 'I' for Inactive)
REMARK    1  A    between atoms: C1_1  and  C8_8 
ROOT
HETATM    1  C1  UNL     1     -32.622   8.225   2.095  1.00 20.00     0.014 C 
HETATM    2  C2  UNL     1     -31.766   8.284   3.321  1.00 20.00     0.057 C 
HETATM    3  C3  UNL     1     -32.684   7.575   4.287  1.00 20.00     0.027 C 
HETATM    4  C4  UNL     1     -33.470   6.645   3.382  1.00 20.00     0.149 C 
HETATM    5  N9  UNL     1     -33.575   7.343   2.084  1.00 20.00    -0.298 NA
ENDROOT
BRANCH   1   6
HETATM    6  C8  UNL     1     -32.349   9.122   0.933  1.00 20.00    -0.011 C 
HETATM    7  C5  UNL     1     -30.932   8.850   0.412  1.00 20.00     0.021 C 
HETATM    8  C6  UNL     1     -32.462  10.588   1.376  1.00 20.00     0.021 C 
HETATM    9  C7  UNL     1     -33.370   8.848  -0.181  1.00 20.00     0.021 C 
ENDBRANCH   1   6
TORSDOF 1
ENDMDL
