MODEL 1
REMARK VINA RESULT:      -4.2      0.000      0.000
REMARK  3 active torsions:
REMARK  status: ('A' for Active; 'I' for Inactive)
REMARK    1  A    between atoms: C2_2  and  C6_6 
REMARK    2  A    between atoms: C6_6  and  S9_9 
REMARK    3  A    between atoms: C7_7  and  S9_9 
ROOT
HETATM    1  S9  UNL     1     -33.012   5.792   3.004  1.00 20.00    -0.158 SA
ENDROOT
BRANCH   1   2
HETATM    2  C6  UNL     1     -32.553   7.535   3.098  1.00 20.00     0.108 C 
BRANCH   2   3
HETATM    3  C2  UNL     1     -32.694   8.197   1.742  1.00 20.00     0.154 A 
HETATM    4  C1  UNL     1     -32.316   9.637   1.535  1.00 20.00     0.201 A 
HETATM    5  O8  UNL     1     -31.455   8.564   1.126  1.00 20.00    -0.380 OA
ENDBRANCH   2   3
ENDBRANCH   1   2
BRANCH   1   6
HETATM    6  C7  UNL     1     -34.312   5.807   4.300  1.00 20.00    -0.003 C 
HETATM    7  C3  UNL     1     -33.950   6.867   5.344  1.00 20.00     0.026 C 
HETATM    8  C4  UNL     1     -35.650   6.148   3.638  1.00 20.00     0.026 C 
HETATM    9  C5  UNL     1     -34.376   4.421   4.947  1.00 20.00     0.026 C 
ENDBRANCH   1   6
TORSDOF 3
ENDMDL
MODEL 2
REMARK VINA RESULT:      -4.2      0.025      1.445
REMARK  3 active torsions:
REMARK  status: ('A' for Active; 'I' for Inactive)
REMARK    1  A    between atoms: C2_2  and  C6_6 
REMARK    2  A    between atoms: C6_6  and  S9_9 
REMARK    3  A    between atoms: C7_7  and  S9_9 
ROOT
HETATM    1  S9  UNL     1     -33.019   5.807   3.000  1.00 20.00    -0.158 SA
ENDROOT
BRANCH   1   2
HETATM    2  C6  UNL     1     -32.575   7.553   3.099  1.00 20.00     0.108 C 
BRANCH   2   3
HETATM    3  C2  UNL     1     -32.691   8.210   1.738  1.00 20.00     0.154 A 
HETATM    4  C1  UNL     1     -32.319   9.653   1.536  1.00 20.00     0.201 A 
HETATM    5  O8  UNL     1     -31.441   8.585   1.149  1.00 20.00    -0.380 OA
ENDBRANCH   2   3
ENDBRANCH   1   2
BRANCH   1   6
HETATM    6  C7  UNL     1     -34.322   5.808   4.292  1.00 20.00    -0.003 C 
HETATM    7  C3  UNL     1     -35.661   6.164   3.638  1.00 20.00     0.026 C 
HETATM    8  C4  UNL     1     -34.389   4.409   4.912  1.00 20.00     0.026 C 
HETATM    9  C5  UNL     1     -33.956   6.845   5.357  1.00 20.00     0.026 C 
ENDBRANCH   1   6
TORSDOF 3
ENDMDL
MODEL 3
REMARK VINA RESULT:      -4.2      0.004      1.450
REMARK  3 active torsions:
REMARK  status: ('A' for Active; 'I' for Inactive)
REMARK    1  A    between atoms: C2_2  and  C6_6 
REMARK    2  A    between atoms: C6_6  and  S9_9 
REMARK    3  A    between atoms: C7_7  and  S9_9 
ROOT
HETATM    1  S9  UNL     1     -33.009   5.793   3.005  1.00 20.00    -0.158 SA
ENDROOT
BRANCH   1   2
HETATM    2  C6  UNL     1     -32.551   7.536   3.098  1.00 20.00     0.108 C 
BRANCH   2   3
HETATM    3  C2  UNL     1     -32.694   8.197   1.741  1.00 20.00     0.154 A 
HETATM    4  C1  UNL     1     -32.317   9.637   1.533  1.00 20.00     0.201 A 
HETATM    5  O8  UNL     1     -31.455   8.564   1.124  1.00 20.00    -0.380 OA
ENDBRANCH   2   3
ENDBRANCH   1   2
BRANCH   1   6
HETATM    6  C7  UNL     1     -34.312   5.809   4.297  1.00 20.00    -0.003 C 
HETATM    7  C3  UNL     1     -34.374   4.425   4.951  1.00 20.00     0.026 C 
HETATM    8  C4  UNL     1     -33.948   6.872   5.338  1.00 20.00     0.026 C 
HETATM    9  C5  UNL     1     -35.653   6.148   3.639  1.00 20.00     0.026 C 
ENDBRANCH   1   6
TORSDOF 3
ENDMDL
MODEL 4
REMARK VINA RESULT:      -3.6     11.033     11.970
REMARK  3 active torsions:
REMARK  status: ('A' for Active; 'I' for Inactive)
REMARK    1  A    between atoms: C2_2  and  C6_6 
REMARK    2  A    between atoms: C6_6  and  S9_9 
REMARK    3  A    between atoms: C7_7  and  S9_9 
ROOT
HETATM    1  S9  UNL     1     -35.648  15.441  -4.314  1.00 20.00    -0.158 SA
ENDROOT
BRANCH   1   2
HETATM    2  C6  UNL     1     -35.331  13.726  -4.777  1.00 20.00     0.108 C 
BRANCH   2   3
HETATM    3  C2  UNL     1     -35.682  13.493  -6.233  1.00 20.00     0.154 A 
HETATM    4  C1  UNL     1     -34.622  13.489  -7.299  1.00 20.00     0.201 A 
HETATM    5  O8  UNL     1     -35.176  12.270  -6.780  1.00 20.00    -0.380 OA
ENDBRANCH   2   3
ENDBRANCH   1   2
BRANCH   1   6
HETATM    6  C7  UNL     1     -33.902  15.975  -4.129  1.00 20.00    -0.003 C 
HETATM    7  C3  UNL     1     -32.998  14.742  -4.226  1.00 20.00     0.026 C 
HETATM    8  C4  UNL     1     -33.577  16.962  -5.255  1.00 20.00     0.026 C 
HETATM    9  C5  UNL     1     -33.737  16.652  -2.765  1.00 20.00     0.026 C 
ENDBRANCH   1   6
TORSDOF 3
ENDMDL
MODEL 5
REMARK VINA RESULT:      -3.6     11.037     11.970
REMARK  3 active torsions:
REMARK  status: ('A' for Active; 'I' for Inactive)
REMARK    1  A    between atoms: C2_2  and  C6_6 
REMARK    2  A    between atoms: C6_6  and  S9_9 
REMARK    3  A    between atoms: C7_7  and  S9_9 
ROOT
HETATM    1  S9  UNL     1     -35.630  15.439  -4.271  1.00 20.00    -0.158 SA
ENDROOT
BRANCH   1   2
HETATM    2  C6  UNL     1     -35.289  13.734  -4.755  1.00 20.00     0.108 C 
BRANCH   2   3
HETATM    3  C2  UNL     1     -35.664  13.507  -6.206  1.00 20.00     0.154 A 
HETATM    4  C1  UNL     1     -34.621  13.494  -7.287  1.00 20.00     0.201 A 
HETATM    5  O8  UNL     1     -35.179  12.280  -6.761  1.00 20.00    -0.380 OA
ENDBRANCH   2   3
ENDBRANCH   1   2
BRANCH   1   6
HETATM    6  C7  UNL     1     -33.892  16.011  -4.133  1.00 20.00    -0.003 C 
HETATM    7  C3  UNL     1     -33.613  17.009  -5.260  1.00 20.00     0.026 C 
HETATM    8  C4  UNL     1     -33.711  16.684  -2.770  1.00 20.00     0.026 C 
HETATM    9  C5  UNL     1     -32.965  14.798  -4.254  1.00 20.00     0.026 C 
ENDBRANCH   1   6
TORSDOF 3
ENDMDL
MODEL 6
REMARK VINA RESULT:      -3.6     11.071     11.994
REMARK  3 active torsions:
REMARK  status: ('A' for Active; 'I' for Inactive)
REMARK    1  A    between atoms: C2_2  and  C6_6 
REMARK    2  A    between atoms: C6_6  and  S9_9 
REMARK    3  A    between atoms: C7_7  and  S9_9 
ROOT
HETATM    1  S9  UNL     1     -35.679  15.519  -4.407  1.00 20.00    -0.158 SA
ENDROOT
BRANCH   1   2
HETATM    2  C6  UNL     1     -35.384  13.782  -4.797  1.00 20.00     0.108 C 
BRANCH   2   3
HETATM    3  C2  UNL     1     -35.708  13.498  -6.250  1.00 20.00     0.154 A 
HETATM    4  C1  UNL     1     -34.633  13.496  -7.301  1.00 20.00     0.201 A 
HETATM    5  O8  UNL     1     -35.159  12.276  -6.755  1.00 20.00    -0.380 OA
ENDBRANCH   2   3
ENDBRANCH   1   2
BRANCH   1   6
HETATM    6  C7  UNL     1     -33.935  16.008  -4.114  1.00 20.00    -0.003 C 
HETATM    7  C3  UNL     1     -33.829  16.639  -2.723  1.00 20.00     0.026 C 
HETATM    8  C4  UNL     1     -33.061  14.752  -4.196  1.00 20.00     0.026 C 
HETATM    9  C5  UNL     1     -33.520  17.015  -5.190  1.00 20.00     0.026 C 
ENDBRANCH   1   6
TORSDOF 3
ENDMDL
MODEL 7
REMARK VINA RESULT:      -3.4     11.326     11.921
REMARK  3 active torsions:
REMARK  status: ('A' for Active; 'I' for Inactive)
REMARK    1  A    between atoms: C2_2  and  C6_6 
REMARK    2  A    between atoms: C6_6  and  S9_9 
REMARK    3  A    between atoms: C7_7  and  S9_9 
ROOT
HETATM    1  S9  UNL     1     -36.381  16.227  -3.605  1.00 20.00    -0.158 SA
ENDROOT
BRANCH   1   2
HETATM    2  C6  UNL     1     -35.365  14.946  -4.367  1.00 20.00     0.108 C 
BRANCH   2   3
HETATM    3  C2  UNL     1     -36.208  14.058  -5.261  1.00 20.00     0.154 A 
HETATM    4  C1  UNL     1     -35.611  13.361  -6.452  1.00 20.00     0.201 A 
HETATM    5  O8  UNL     1     -35.863  12.670  -5.219  1.00 20.00    -0.380 OA
ENDBRANCH   2   3
ENDBRANCH   1   2
BRANCH   1   6
HETATM    6  C7  UNL     1     -35.045  17.095  -2.694  1.00 20.00    -0.003 C 
HETATM    7  C3  UNL     1     -35.034  18.566  -3.120  1.00 20.00     0.026 C 
HETATM    8  C4  UNL     1     -35.328  16.978  -1.193  1.00 20.00     0.026 C 
HETATM    9  C5  UNL     1     -33.707  16.431  -3.035  1.00 20.00     0.026 C 
ENDBRANCH   1   6
TORSDOF 3
ENDMDL
MODEL 8
REMARK VINA RESULT:      -3.3     11.553     12.469
REMARK  3 active torsions:
REMARK  status: ('A' for Active; 'I' for Inactive)
REMARK    1  A    between atoms: C2_2  and  C6_6 
REMARK    2  A    between atoms: C6_6  and  S9_9 
REMARK    3  A    between atoms: C7_7  and  S9_9 
ROOT
HETATM    1  S9  UNL     1     -35.651  16.661  -4.800  1.00 20.00    -0.158 SA
ENDROOT
BRANCH   1   2
HETATM    2  C6  UNL     1     -35.771  14.949  -4.242  1.00 20.00     0.108 C 
BRANCH   2   3
HETATM    3  C2  UNL     1     -36.370  14.076  -5.325  1.00 20.00     0.154 A 
HETATM    4  C1  UNL     1     -35.507  13.433  -6.375  1.00 20.00     0.201 A 
HETATM    5  O8  UNL     1     -36.004  12.694  -5.248  1.00 20.00    -0.380 OA
ENDBRANCH   2   3
ENDBRANCH   1   2
BRANCH   1   6
HETATM    6  C7  UNL     1     -33.876  16.925  -4.414  1.00 20.00    -0.003 C 
HETATM    7  C3  UNL     1     -33.512  18.375  -4.744  1.00 20.00     0.026 C 
HETATM    8  C4  UNL     1     -33.659  16.648  -2.923  1.00 20.00     0.026 C 
HETATM    9  C5  UNL     1     -33.041  15.959  -5.260  1.00 20.00     0.026 C 
ENDBRANCH   1   6
TORSDOF 3
ENDMDL
MODEL 9
REMARK VINA RESULT:      -3.2     10.928     12.146
REMARK  3 active torsions:
REMARK  status: ('A' for Active; 'I' for Inactive)
REMARK    1  A    between atoms: C2_2  and  C6_6 
REMARK    2  A    between atoms: C6_6  and  S9_9 
REMARK    3  A    between atoms: C7_7  and  S9_9 
ROOT
HETATM    1  S9  UNL     1     -35.178  14.171  -4.769  1.00 20.00    -0.158 SA
ENDROOT
BRANCH   1   2
HETATM    2  C6  UNL     1     -36.327  15.560  -4.828  1.00 20.00     0.108 C 
BRANCH   2   3
HETATM    3  C2  UNL     1     -37.717  15.120  -4.414  1.00 20.00     0.154 A 
HETATM    4  C1  UNL     1     -38.834  15.023  -5.415  1.00 20.00     0.201 A 
HETATM    5  O8  UNL     1     -38.129  13.860  -4.955  1.00 20.00    -0.380 OA
ENDBRANCH   2   3
ENDBRANCH   1   2
BRANCH   1   6
HETATM    6  C7  UNL     1     -33.636  15.134  -4.522  1.00 20.00    -0.003 C 
HETATM    7  C3  UNL     1     -33.847  16.109  -3.360  1.00 20.00     0.026 C 
HETATM    8  C4  UNL     1     -32.502  14.157  -4.195  1.00 20.00     0.026 C 
HETATM    9  C5  UNL     1     -33.322  15.900  -5.810  1.00 20.00     0.026 C 
ENDBRANCH   1   6
TORSDOF 3
ENDMDL
