MODEL 1
REMARK VINA RESULT:      -5.7      0.000      0.000
REMARK  0 active torsions:
REMARK  status: ('A' for Active; 'I' for Inactive)
ROOT
HETATM    1  C1  UNL     1     -34.028   5.908   2.231  1.00 20.00     0.010 A 
HETATM    2  C2  UNL     1     -33.336   6.862   1.477  1.00 20.00     0.019 A 
HETATM    3  C3  UNL     1     -32.807   8.133   3.479  1.00 20.00     0.034 A 
HETATM    4  C4  UNL     1     -33.498   7.173   4.197  1.00 20.00     0.018 A 
HETATM    5  C5  UNL     1     -34.101   6.070   3.606  1.00 20.00    -0.040 A 
HETATM    6  C6  UNL     1     -32.730   7.966   2.098  1.00 20.00     0.011 A 
HETATM    7  C7  UNL     1     -33.734   7.114   5.631  1.00 20.00     0.160 A 
HETATM    8  C8  UNL     1     -34.571   5.899   5.953  1.00 20.00     0.093 A 
HETATM    9  C9  UNL     1     -34.785   5.176   4.603  1.00 20.00     0.023 A 
HETATM   10  C10 UNL     1     -34.206   3.765   4.616  1.00 20.00     0.015 C 
HETATM   11  O11 UNL     1     -33.320   7.934   6.428  1.00 20.00    -0.292 OA
HETATM   12 BR12 UNL     1     -31.804   9.238   1.048  1.00 20.00    -0.051 Br
ENDROOT
TORSDOF 0
ENDMDL
MODEL 2
REMARK VINA RESULT:      -5.4     11.778     12.254
REMARK  0 active torsions:
REMARK  status: ('A' for Active; 'I' for Inactive)
ROOT
HETATM    1  C1  UNL     1     -35.722  17.718  -0.526  1.00 20.00     0.010 A 
HETATM    2  C2  UNL     1     -35.771  16.946  -1.692  1.00 20.00     0.019 A 
HETATM    3  C3  UNL     1     -33.360  17.100  -1.953  1.00 20.00     0.034 A 
HETATM    4  C4  UNL     1     -33.344  17.860  -0.798  1.00 20.00     0.018 A 
HETATM    5  C5  UNL     1     -34.490  18.172  -0.078  1.00 20.00    -0.040 A 
HETATM    6  C6  UNL     1     -34.597  16.640  -2.400  1.00 20.00     0.011 A 
HETATM    7  C7  UNL     1     -32.202  18.464  -0.129  1.00 20.00     0.160 A 
HETATM    8  C8  UNL     1     -32.676  19.234   1.080  1.00 20.00     0.093 A 
HETATM    9  C9  UNL     1     -34.205  19.007   1.140  1.00 20.00     0.023 A 
HETATM   10  C10 UNL     1     -34.627  18.317   2.433  1.00 20.00     0.015 C 
HETATM   11  O11 UNL     1     -31.052  18.361  -0.511  1.00 20.00    -0.292 OA
HETATM   12 BR12 UNL     1     -34.699  15.596  -3.974  1.00 20.00    -0.051 Br
ENDROOT
TORSDOF 0
ENDMDL
MODEL 3
REMARK VINA RESULT:      -4.9     11.757     12.322
REMARK  0 active torsions:
REMARK  status: ('A' for Active; 'I' for Inactive)
ROOT
HETATM    1  C1  UNL     1     -32.510  18.292  -1.041  1.00 20.00     0.010 A 
HETATM    2  C2  UNL     1     -31.689  18.647   0.034  1.00 20.00     0.019 A 
HETATM    3  C3  UNL     1     -33.572  18.555   1.566  1.00 20.00     0.034 A 
HETATM    4  C4  UNL     1     -34.359  18.206   0.483  1.00 20.00     0.018 A 
HETATM    5  C5  UNL     1     -33.858  18.067  -0.806  1.00 20.00    -0.040 A 
HETATM    6  C6  UNL     1     -32.217  18.776   1.329  1.00 20.00     0.011 A 
HETATM    7  C7  UNL     1     -35.786  17.932   0.454  1.00 20.00     0.160 A 
HETATM    8  C8  UNL     1     -36.212  17.629  -0.962  1.00 20.00     0.093 A 
HETATM    9  C9  UNL     1     -34.914  17.678  -1.803  1.00 20.00     0.023 A 
HETATM   10  C10 UNL     1     -34.621  16.341  -2.475  1.00 20.00     0.015 C 
HETATM   11  O11 UNL     1     -36.509  17.961   1.432  1.00 20.00    -0.292 OA
HETATM   12 BR12 UNL     1     -31.079  19.259   2.760  1.00 20.00    -0.051 Br
ENDROOT
TORSDOF 0
ENDMDL
MODEL 4
REMARK VINA RESULT:      -4.8     11.460     12.280
REMARK  0 active torsions:
REMARK  status: ('A' for Active; 'I' for Inactive)
ROOT
HETATM    1  C1  UNL     1     -36.415  16.981  -2.999  1.00 20.00     0.010 A 
HETATM    2  C2  UNL     1     -35.489  17.726  -2.263  1.00 20.00     0.019 A 
HETATM    3  C3  UNL     1     -33.698  16.207  -2.886  1.00 20.00     0.034 A 
HETATM    4  C4  UNL     1     -34.638  15.491  -3.605  1.00 20.00     0.018 A 
HETATM    5  C5  UNL     1     -35.976  15.854  -3.679  1.00 20.00    -0.040 A 
HETATM    6  C6  UNL     1     -34.139  17.342  -2.208  1.00 20.00     0.011 A 
HETATM    7  C7  UNL     1     -34.446  14.279  -4.385  1.00 20.00     0.160 A 
HETATM    8  C8  UNL     1     -35.770  13.838  -4.964  1.00 20.00     0.093 A 
HETATM    9  C9  UNL     1     -36.790  14.915  -4.525  1.00 20.00     0.023 A 
HETATM   10  C10 UNL     1     -37.431  15.611  -5.721  1.00 20.00     0.015 C 
HETATM   11  O11 UNL     1     -33.377  13.717  -4.527  1.00 20.00    -0.292 OA
HETATM   12 BR12 UNL     1     -32.913  18.371  -1.201  1.00 20.00    -0.051 Br
ENDROOT
TORSDOF 0
ENDMDL
MODEL 5
REMARK VINA RESULT:      -4.8     12.043     13.069
REMARK  0 active torsions:
REMARK  status: ('A' for Active; 'I' for Inactive)
ROOT
HETATM    1  C1  UNL     1     -33.761  16.386  -5.744  1.00 20.00     0.010 A 
HETATM    2  C2  UNL     1     -33.574  16.844  -4.436  1.00 20.00     0.019 A 
HETATM    3  C3  UNL     1     -35.549  15.646  -3.681  1.00 20.00     0.034 A 
HETATM    4  C4  UNL     1     -35.708  15.210  -4.984  1.00 20.00     0.018 A 
HETATM    5  C5  UNL     1     -34.840  15.556  -6.012  1.00 20.00    -0.040 A 
HETATM    6  C6  UNL     1     -34.462  16.476  -3.412  1.00 20.00     0.011 A 
HETATM    7  C7  UNL     1     -36.749  14.355  -5.529  1.00 20.00     0.160 A 
HETATM    8  C8  UNL     1     -36.532  14.180  -7.013  1.00 20.00     0.093 A 
HETATM    9  C9  UNL     1     -35.230  14.951  -7.332  1.00 20.00     0.023 A 
HETATM   10  C10 UNL     1     -34.150  14.033  -7.896  1.00 20.00     0.015 C 
HETATM   11  O11 UNL     1     -37.655  13.875  -4.873  1.00 20.00    -0.292 OA
HETATM   12 BR12 UNL     1     -34.179  17.115  -1.654  1.00 20.00    -0.051 Br
ENDROOT
TORSDOF 0
ENDMDL
MODEL 6
REMARK VINA RESULT:      -4.7     11.770     12.375
REMARK  0 active torsions:
REMARK  status: ('A' for Active; 'I' for Inactive)
ROOT
HETATM    1  C1  UNL     1     -33.193  17.050  -2.306  1.00 20.00     0.010 A 
HETATM    2  C2  UNL     1     -33.654  17.587  -1.099  1.00 20.00     0.019 A 
HETATM    3  C3  UNL     1     -35.938  16.954  -1.634  1.00 20.00     0.034 A 
HETATM    4  C4  UNL     1     -35.452  16.432  -2.819  1.00 20.00     0.018 A 
HETATM    5  C5  UNL     1     -34.107  16.464  -3.168  1.00 20.00    -0.040 A 
HETATM    6  C6  UNL     1     -35.018  17.538  -0.766  1.00 20.00     0.011 A 
HETATM    7  C7  UNL     1     -36.190  15.784  -3.891  1.00 20.00     0.160 A 
HETATM    8  C8  UNL     1     -35.240  15.411  -5.003  1.00 20.00     0.093 A 
HETATM    9  C9  UNL     1     -33.837  15.829  -4.504  1.00 20.00     0.023 A 
HETATM   10  C10 UNL     1     -32.890  14.637  -4.404  1.00 20.00     0.015 C 
HETATM   11  O11 UNL     1     -37.391  15.593  -3.877  1.00 20.00    -0.292 OA
HETATM   12 BR12 UNL     1     -35.607  18.276   0.873  1.00 20.00    -0.051 Br
ENDROOT
TORSDOF 0
ENDMDL
MODEL 7
REMARK VINA RESULT:      -4.7     11.848     12.998
REMARK  0 active torsions:
REMARK  status: ('A' for Active; 'I' for Inactive)
ROOT
HETATM    1  C1  UNL     1     -37.407  17.021  -4.296  1.00 20.00     0.010 A 
HETATM    2  C2  UNL     1     -38.725  16.807  -4.713  1.00 20.00     0.019 A 
HETATM    3  C3  UNL     1     -38.224  14.496  -5.272  1.00 20.00     0.034 A 
HETATM    4  C4  UNL     1     -36.928  14.738  -4.853  1.00 20.00     0.018 A 
HETATM    5  C5  UNL     1     -36.505  15.968  -4.366  1.00 20.00    -0.040 A 
HETATM    6  C6  UNL     1     -39.130  15.552  -5.197  1.00 20.00     0.011 A 
HETATM    7  C7  UNL     1     -35.799  13.823  -4.836  1.00 20.00     0.160 A 
HETATM    8  C8  UNL     1     -34.574  14.545  -4.328  1.00 20.00     0.093 A 
HETATM    9  C9  UNL     1     -35.054  15.972  -3.974  1.00 20.00     0.023 A 
HETATM   10  C10 UNL     1     -34.848  16.291  -2.497  1.00 20.00     0.015 C 
HETATM   11  O11 UNL     1     -35.853  12.662  -5.192  1.00 20.00    -0.292 OA
HETATM   12 BR12 UNL     1     -40.919  15.298  -5.754  1.00 20.00    -0.051 Br
ENDROOT
TORSDOF 0
ENDMDL
MODEL 8
REMARK VINA RESULT:      -4.7     11.834     12.434
REMARK  0 active torsions:
REMARK  status: ('A' for Active; 'I' for Inactive)
ROOT
HETATM    1  C1  UNL     1     -33.404  15.100  -3.859  1.00 20.00     0.010 A 
HETATM    2  C2  UNL     1     -33.637  14.441  -5.070  1.00 20.00     0.019 A 
HETATM    3  C3  UNL     1     -35.893  15.338  -5.180  1.00 20.00     0.034 A 
HETATM    4  C4  UNL     1     -35.632  15.977  -3.981  1.00 20.00     0.018 A 
HETATM    5  C5  UNL     1     -34.417  15.878  -3.316  1.00 20.00    -0.040 A 
HETATM    6  C6  UNL     1     -34.873  14.560  -5.726  1.00 20.00     0.011 A 
HETATM    7  C7  UNL     1     -36.515  16.830  -3.202  1.00 20.00     0.160 A 
HETATM    8  C8  UNL     1     -35.807  17.272  -1.944  1.00 20.00     0.093 A 
HETATM    9  C9  UNL     1     -34.386  16.668  -2.038  1.00 20.00     0.023 A 
HETATM   10  C10 UNL     1     -33.309  17.748  -2.043  1.00 20.00     0.015 C 
HETATM   11  O11 UNL     1     -37.651  17.120  -3.528  1.00 20.00    -0.292 OA
HETATM   12 BR12 UNL     1     -35.155  13.654  -7.362  1.00 20.00    -0.051 Br
ENDROOT
TORSDOF 0
ENDMDL
MODEL 9
REMARK VINA RESULT:      -4.6     11.998     12.539
REMARK  0 active torsions:
REMARK  status: ('A' for Active; 'I' for Inactive)
ROOT
HETATM    1  C1  UNL     1     -35.933  17.772   1.020  1.00 20.00     0.010 A 
HETATM    2  C2  UNL     1     -35.550  18.222   2.288  1.00 20.00     0.019 A 
HETATM    3  C3  UNL     1     -33.289  18.648   1.507  1.00 20.00     0.034 A 
HETATM    4  C4  UNL     1     -33.698  18.197   0.265  1.00 20.00     0.018 A 
HETATM    5  C5  UNL     1     -34.992  17.767   0.001  1.00 20.00    -0.040 A 
HETATM    6  C6  UNL     1     -34.237  18.658   2.529  1.00 20.00     0.011 A 
HETATM    7  C7  UNL     1     -32.916  18.078  -0.955  1.00 20.00     0.160 A 
HETATM    8  C8  UNL     1     -33.779  17.502  -2.052  1.00 20.00     0.093 A 
HETATM    9  C9  UNL     1     -35.182  17.330  -1.425  1.00 20.00     0.023 A 
HETATM   10  C10 UNL     1     -36.236  18.158  -2.154  1.00 20.00     0.015 C 
HETATM   11  O11 UNL     1     -31.744  18.389  -1.050  1.00 20.00    -0.292 OA
HETATM   12 BR12 UNL     1     -33.752  19.258   4.255  1.00 20.00    -0.051 Br
ENDROOT
TORSDOF 0
ENDMDL
