MODEL 1
REMARK VINA RESULT:      -5.4      0.000      0.000
REMARK  0 active torsions:
REMARK  status: ('A' for Active; 'I' for Inactive)
ROOT
HETATM    1  C1  UNL     1     -33.337  15.555  -4.575  1.00 20.00     0.010 A 
HETATM    2  C2  UNL     1     -33.578  16.269  -3.397  1.00 20.00     0.019 A 
HETATM    3  C3  UNL     1     -35.888  15.512  -3.353  1.00 20.00     0.034 A 
HETATM    4  C4  UNL     1     -35.618  14.816  -4.518  1.00 20.00     0.018 A 
HETATM    5  C5  UNL     1     -34.374  14.826  -5.138  1.00 20.00    -0.040 A 
HETATM    6  C6  UNL     1     -34.846  16.249  -2.791  1.00 20.00     0.011 A 
HETATM    7  C7  UNL     1     -36.512  13.974  -5.294  1.00 20.00     0.160 A 
HETATM    8  C8  UNL     1     -35.764  13.391  -6.468  1.00 20.00     0.093 A 
HETATM    9  C9  UNL     1     -34.341  13.994  -6.390  1.00 20.00     0.023 A 
HETATM   10  C10 UNL     1     -34.004  14.815  -7.629  1.00 20.00     0.015 C 
HETATM   11  O11 UNL     1     -37.681  13.774  -5.014  1.00 20.00    -0.292 OA
HETATM   12 BR12 UNL     1     -35.137  17.225  -1.197  1.00 20.00    -0.051 Br
ENDROOT
TORSDOF 0
ENDMDL
MODEL 2
REMARK VINA RESULT:      -5.3      5.450      7.298
REMARK  0 active torsions:
REMARK  status: ('A' for Active; 'I' for Inactive)
ROOT
HETATM    1  C1  UNL     1     -35.240  18.537   1.559  1.00 20.00     0.010 A 
HETATM    2  C2  UNL     1     -34.835  18.710   2.887  1.00 20.00     0.019 A 
HETATM    3  C3  UNL     1     -32.494  18.638   2.233  1.00 20.00     0.034 A 
HETATM    4  C4  UNL     1     -32.927  18.469   0.930  1.00 20.00     0.018 A 
HETATM    5  C5  UNL     1     -34.270  18.412   0.575  1.00 20.00    -0.040 A 
HETATM    6  C6  UNL     1     -33.471  18.758   3.221  1.00 20.00     0.011 A 
HETATM    7  C7  UNL     1     -32.127  18.330  -0.276  1.00 20.00     0.160 A 
HETATM    8  C8  UNL     1     -33.038  18.207  -1.474  1.00 20.00     0.093 A 
HETATM    9  C9  UNL     1     -34.475  18.220  -0.901  1.00 20.00     0.023 A 
HETATM   10  C10 UNL     1     -35.226  16.934  -1.224  1.00 20.00     0.015 C 
HETATM   11  O11 UNL     1     -30.910  18.326  -0.294  1.00 20.00    -0.292 OA
HETATM   12 BR12 UNL     1     -32.958  18.993   5.027  1.00 20.00    -0.051 Br
ENDROOT
TORSDOF 0
ENDMDL
MODEL 3
REMARK VINA RESULT:      -5.2      4.295      6.618
REMARK  0 active torsions:
REMARK  status: ('A' for Active; 'I' for Inactive)
ROOT
HETATM    1  C1  UNL     1     -32.724  18.133  -1.247  1.00 20.00     0.010 A 
HETATM    2  C2  UNL     1     -33.240  17.344  -2.280  1.00 20.00     0.019 A 
HETATM    3  C3  UNL     1     -35.318  17.018  -1.059  1.00 20.00     0.034 A 
HETATM    4  C4  UNL     1     -34.779  17.803  -0.055  1.00 20.00     0.018 A 
HETATM    5  C5  UNL     1     -33.506  18.358  -0.124  1.00 20.00    -0.040 A 
HETATM    6  C6  UNL     1     -34.528  16.789  -2.185  1.00 20.00     0.011 A 
HETATM    7  C7  UNL     1     -35.386  18.200   1.204  1.00 20.00     0.160 A 
HETATM    8  C8  UNL     1     -34.434  19.092   1.964  1.00 20.00     0.093 A 
HETATM    9  C9  UNL     1     -33.156  19.165   1.095  1.00 20.00     0.023 A 
HETATM   10  C10 UNL     1     -31.938  18.617   1.829  1.00 20.00     0.015 C 
HETATM   11  O11 UNL     1     -36.498  17.861   1.565  1.00 20.00    -0.292 OA
HETATM   12 BR12 UNL     1     -35.196  15.727  -3.601  1.00 20.00    -0.051 Br
ENDROOT
TORSDOF 0
ENDMDL
MODEL 4
REMARK VINA RESULT:      -5.1      3.281      5.004
REMARK  0 active torsions:
REMARK  status: ('A' for Active; 'I' for Inactive)
ROOT
HETATM    1  C1  UNL     1     -34.269  14.855  -3.754  1.00 20.00     0.010 A 
HETATM    2  C2  UNL     1     -34.312  14.394  -5.075  1.00 20.00     0.019 A 
HETATM    3  C3  UNL     1     -33.632  16.575  -5.909  1.00 20.00     0.034 A 
HETATM    4  C4  UNL     1     -33.598  16.999  -4.592  1.00 20.00     0.018 A 
HETATM    5  C5  UNL     1     -33.911  16.174  -3.518  1.00 20.00    -0.040 A 
HETATM    6  C6  UNL     1     -33.998  15.250  -6.144  1.00 20.00     0.011 A 
HETATM    7  C7  UNL     1     -33.245  18.311  -4.076  1.00 20.00     0.160 A 
HETATM    8  C8  UNL     1     -33.314  18.295  -2.568  1.00 20.00     0.093 A 
HETATM    9  C9  UNL     1     -33.800  16.875  -2.193  1.00 20.00     0.023 A 
HETATM   10  C10 UNL     1     -35.124  16.909  -1.439  1.00 20.00     0.015 C 
HETATM   11  O11 UNL     1     -32.935  19.261  -4.772  1.00 20.00    -0.292 OA
HETATM   12 BR12 UNL     1     -34.066  14.595  -7.918  1.00 20.00    -0.051 Br
ENDROOT
TORSDOF 0
ENDMDL
MODEL 5
REMARK VINA RESULT:      -5.0      1.137      1.302
REMARK  0 active torsions:
REMARK  status: ('A' for Active; 'I' for Inactive)
ROOT
HETATM    1  C1  UNL     1     -33.508  17.092  -4.898  1.00 20.00     0.010 A 
HETATM    2  C2  UNL     1     -33.892  17.433  -3.597  1.00 20.00     0.019 A 
HETATM    3  C3  UNL     1     -35.151  15.364  -3.375  1.00 20.00     0.034 A 
HETATM    4  C4  UNL     1     -34.753  15.056  -4.664  1.00 20.00     0.018 A 
HETATM    5  C5  UNL     1     -33.950  15.891  -5.433  1.00 20.00    -0.040 A 
HETATM    6  C6  UNL     1     -34.710  16.575  -2.842  1.00 20.00     0.011 A 
HETATM    7  C7  UNL     1     -35.061  13.869  -5.444  1.00 20.00     0.160 A 
HETATM    8  C8  UNL     1     -34.375  13.956  -6.786  1.00 20.00     0.093 A 
HETATM    9  C9  UNL     1     -33.664  15.330  -6.797  1.00 20.00     0.023 A 
HETATM   10  C10 UNL     1     -34.178  16.226  -7.917  1.00 20.00     0.015 C 
HETATM   11  O11 UNL     1     -35.759  12.953  -5.050  1.00 20.00    -0.292 OA
HETATM   12 BR12 UNL     1     -35.211  17.066  -1.085  1.00 20.00    -0.051 Br
ENDROOT
TORSDOF 0
ENDMDL
MODEL 6
REMARK VINA RESULT:      -5.0      3.477      5.646
REMARK  0 active torsions:
REMARK  status: ('A' for Active; 'I' for Inactive)
ROOT
HETATM    1  C1  UNL     1     -35.885  16.136  -2.698  1.00 20.00     0.010 A 
HETATM    2  C2  UNL     1     -35.390  15.825  -3.970  1.00 20.00     0.019 A 
HETATM    3  C3  UNL     1     -33.306  16.985  -3.495  1.00 20.00     0.034 A 
HETATM    4  C4  UNL     1     -33.824  17.276  -2.246  1.00 20.00     0.018 A 
HETATM    5  C5  UNL     1     -35.089  16.874  -1.834  1.00 20.00    -0.040 A 
HETATM    6  C6  UNL     1     -34.110  16.248  -4.365  1.00 20.00     0.011 A 
HETATM    7  C7  UNL     1     -33.199  18.011  -1.159  1.00 20.00     0.160 A 
HETATM    8  C8  UNL     1     -34.130  18.044   0.029  1.00 20.00     0.093 A 
HETATM    9  C9  UNL     1     -35.415  17.318  -0.436  1.00 20.00     0.023 A 
HETATM   10  C10 UNL     1     -36.634  18.232  -0.383  1.00 20.00     0.015 C 
HETATM   11  O11 UNL     1     -32.088  18.506  -1.217  1.00 20.00    -0.292 OA
HETATM   12 BR12 UNL     1     -33.471  15.809  -6.091  1.00 20.00    -0.051 Br
ENDROOT
TORSDOF 0
ENDMDL
MODEL 7
REMARK VINA RESULT:      -4.9      2.554      3.564
REMARK  0 active torsions:
REMARK  status: ('A' for Active; 'I' for Inactive)
ROOT
HETATM    1  C1  UNL     1     -36.768  16.932  -3.533  1.00 20.00     0.010 A 
HETATM    2  C2  UNL     1     -38.121  16.963  -3.890  1.00 20.00     0.019 A 
HETATM    3  C3  UNL     1     -37.950  14.767  -4.919  1.00 20.00     0.034 A 
HETATM    4  C4  UNL     1     -36.617  14.766  -4.552  1.00 20.00     0.018 A 
HETATM    5  C5  UNL     1     -36.013  15.819  -3.875  1.00 20.00    -0.040 A 
HETATM    6  C6  UNL     1     -38.706  15.889  -4.580  1.00 20.00     0.011 A 
HETATM    7  C7  UNL     1     -35.621  13.731  -4.773  1.00 20.00     0.160 A 
HETATM    8  C8  UNL     1     -34.307  14.156  -4.162  1.00 20.00     0.093 A 
HETATM    9  C9  UNL     1     -34.556  15.574  -3.596  1.00 20.00     0.023 A 
HETATM   10  C10 UNL     1     -33.654  16.614  -4.251  1.00 20.00     0.015 C 
HETATM   11  O11 UNL     1     -35.838  12.684  -5.355  1.00 20.00    -0.292 OA
HETATM   12 BR12 UNL     1     -40.538  15.964  -5.046  1.00 20.00    -0.051 Br
ENDROOT
TORSDOF 0
ENDMDL
MODEL 8
REMARK VINA RESULT:      -4.5      1.933      2.886
REMARK  0 active torsions:
REMARK  status: ('A' for Active; 'I' for Inactive)
ROOT
HETATM    1  C1  UNL     1     -36.421  16.275  -3.381  1.00 20.00     0.010 A 
HETATM    2  C2  UNL     1     -35.962  16.957  -2.249  1.00 20.00     0.019 A 
HETATM    3  C3  UNL     1     -33.649  16.526  -2.867  1.00 20.00     0.034 A 
HETATM    4  C4  UNL     1     -34.135  15.859  -3.977  1.00 20.00     0.018 A 
HETATM    5  C5  UNL     1     -35.491  15.720  -4.248  1.00 20.00    -0.040 A 
HETATM    6  C6  UNL     1     -34.586  17.079  -1.993  1.00 20.00     0.011 A 
HETATM    7  C7  UNL     1     -33.385  15.207  -5.038  1.00 20.00     0.160 A 
HETATM    8  C8  UNL     1     -34.342  14.646  -6.061  1.00 20.00     0.093 A 
HETATM    9  C9  UNL     1     -35.757  14.952  -5.513  1.00 20.00     0.023 A 
HETATM   10  C10 UNL     1     -36.557  13.679  -5.266  1.00 20.00     0.015 C 
HETATM   11  O11 UNL     1     -32.170  15.145  -5.079  1.00 20.00    -0.292 OA
HETATM   12 BR12 UNL     1     -33.999  18.007  -0.452  1.00 20.00    -0.051 Br
ENDROOT
TORSDOF 0
ENDMDL
MODEL 9
REMARK VINA RESULT:      -4.4      1.828      2.787
REMARK  0 active torsions:
REMARK  status: ('A' for Active; 'I' for Inactive)
ROOT
HETATM    1  C1  UNL     1     -36.637  17.039  -3.564  1.00 20.00     0.010 A 
HETATM    2  C2  UNL     1     -35.981  17.673  -2.502  1.00 20.00     0.019 A 
HETATM    3  C3  UNL     1     -34.103  16.139  -2.683  1.00 20.00     0.034 A 
HETATM    4  C4  UNL     1     -34.776  15.535  -3.729  1.00 20.00     0.018 A 
HETATM    5  C5  UNL     1     -36.023  15.956  -4.176  1.00 20.00    -0.040 A 
HETATM    6  C6  UNL     1     -34.724  17.224  -2.064  1.00 20.00     0.011 A 
HETATM    7  C7  UNL     1     -34.355  14.405  -4.542  1.00 20.00     0.160 A 
HETATM    8  C8  UNL     1     -35.401  14.121  -5.592  1.00 20.00     0.093 A 
HETATM    9  C9  UNL     1     -36.540  15.132  -5.322  1.00 20.00     0.023 A 
HETATM   10  C10 UNL     1     -37.854  14.434  -4.993  1.00 20.00     0.015 C 
HETATM   11  O11 UNL     1     -33.308  13.803  -4.387  1.00 20.00    -0.292 OA
HETATM   12 BR12 UNL     1     -33.864  18.104  -0.627  1.00 20.00    -0.051 Br
ENDROOT
TORSDOF 0
ENDMDL
