MODEL 1
REMARK VINA RESULT:      -4.8      0.000      0.000
REMARK  0 active torsions:
REMARK  status: ('A' for Active; 'I' for Inactive)
ROOT
HETATM    1  C1  UNL     1     -33.312   7.848   4.023  1.00 20.00     0.033 A 
HETATM    2  C2  UNL     1     -32.695   6.516   2.084  1.00 20.00     0.033 A 
HETATM    3  C3  UNL     1     -33.783   6.691   4.615  1.00 20.00    -0.028 A 
HETATM    4  C4  UNL     1     -33.167   5.353   2.700  1.00 20.00    -0.033 A 
HETATM    5  C5  UNL     1     -33.729   5.457   3.959  1.00 20.00     0.040 A 
HETATM    6  C6  UNL     1     -32.770   7.755   2.739  1.00 20.00     0.035 A 
HETATM    7  C7  UNL     1     -34.350   6.498   5.983  1.00 20.00     0.060 C 
HETATM    8  C8  UNL     1     -34.861   5.043   5.901  1.00 20.00     0.124 C 
HETATM    9  C9  UNL     1     -33.060   4.043   1.997  1.00 20.00     0.050 C 
HETATM   10  N10 UNL     1     -34.202   4.420   4.761  1.00 20.00    -0.389 N 
HETATM   11 CL11 UNL     1     -32.174   9.170   1.960  1.00 20.00    -0.084 Cl
HETATM   12  H21 UNL     1     -34.490   3.531   4.375  1.00 20.00     0.159 HD
ENDROOT
TORSDOF 0
ENDMDL
MODEL 2
REMARK VINA RESULT:      -4.6     12.250     12.753
REMARK  0 active torsions:
REMARK  status: ('A' for Active; 'I' for Inactive)
ROOT
HETATM    1  C1  UNL     1     -33.267  17.371  -1.911  1.00 20.00     0.033 A 
HETATM    2  C2  UNL     1     -35.553  17.053  -1.146  1.00 20.00     0.033 A 
HETATM    3  C3  UNL     1     -32.995  17.993  -0.706  1.00 20.00    -0.028 A 
HETATM    4  C4  UNL     1     -35.261  17.676   0.070  1.00 20.00    -0.033 A 
HETATM    5  C5  UNL     1     -33.981  18.162   0.270  1.00 20.00     0.040 A 
HETATM    6  C6  UNL     1     -34.564  16.904  -2.131  1.00 20.00     0.035 A 
HETATM    7  C7  UNL     1     -31.697  18.526  -0.194  1.00 20.00     0.060 C 
HETATM    8  C8  UNL     1     -32.151  19.263   1.084  1.00 20.00     0.124 C 
HETATM    9  C9  UNL     1     -36.318  17.807   1.113  1.00 20.00     0.050 C 
HETATM   10  N10 UNL     1     -33.475  18.759   1.424  1.00 20.00    -0.389 N 
HETATM   11 CL11 UNL     1     -34.951  16.126  -3.618  1.00 20.00    -0.084 Cl
HETATM   12  H21 UNL     1     -34.074  19.199   2.108  1.00 20.00     0.159 HD
ENDROOT
TORSDOF 0
ENDMDL
MODEL 3
REMARK VINA RESULT:      -4.5     12.248     12.594
REMARK  0 active torsions:
REMARK  status: ('A' for Active; 'I' for Inactive)
ROOT
HETATM    1  C1  UNL     1     -35.506  16.983  -1.170  1.00 20.00     0.033 A 
HETATM    2  C2  UNL     1     -33.157  17.493  -1.540  1.00 20.00     0.033 A 
HETATM    3  C3  UNL     1     -35.431  17.697   0.012  1.00 20.00    -0.028 A 
HETATM    4  C4  UNL     1     -33.100  18.219  -0.348  1.00 20.00    -0.033 A 
HETATM    5  C5  UNL     1     -34.240  18.296   0.432  1.00 20.00     0.040 A 
HETATM    6  C6  UNL     1     -34.351  16.877  -1.947  1.00 20.00     0.035 A 
HETATM    7  C7  UNL     1     -36.514  18.013   0.991  1.00 20.00     0.060 C 
HETATM    8  C8  UNL     1     -35.708  18.633   2.152  1.00 20.00     0.124 C 
HETATM    9  C9  UNL     1     -31.830  18.885   0.058  1.00 20.00     0.050 C 
HETATM   10  N10 UNL     1     -34.406  19.012   1.616  1.00 20.00    -0.389 N 
HETATM   11 CL11 UNL     1     -34.395  15.995  -3.426  1.00 20.00    -0.084 Cl
HETATM   12  H21 UNL     1     -33.624  19.273   2.201  1.00 20.00     0.159 HD
ENDROOT
TORSDOF 0
ENDMDL
MODEL 4
REMARK VINA RESULT:      -4.4      1.038      2.633
REMARK  0 active torsions:
REMARK  status: ('A' for Active; 'I' for Inactive)
ROOT
HETATM    1  C1  UNL     1     -32.906   6.322   2.398  1.00 20.00     0.033 A 
HETATM    2  C2  UNL     1     -32.725   8.145   3.997  1.00 20.00     0.033 A 
HETATM    3  C3  UNL     1     -33.537   5.580   3.381  1.00 20.00    -0.028 A 
HETATM    4  C4  UNL     1     -33.372   7.386   4.976  1.00 20.00    -0.033 A 
HETATM    5  C5  UNL     1     -33.755   6.095   4.662  1.00 20.00     0.040 A 
HETATM    6  C6  UNL     1     -32.491   7.615   2.718  1.00 20.00     0.035 A 
HETATM    7  C7  UNL     1     -34.127   4.211   3.292  1.00 20.00     0.060 C 
HETATM    8  C8  UNL     1     -34.457   3.922   4.773  1.00 20.00     0.124 C 
HETATM    9  C9  UNL     1     -33.630   7.972   6.322  1.00 20.00     0.050 C 
HETATM   10  N10 UNL     1     -34.457   5.202   5.470  1.00 20.00    -0.389 N 
HETATM   11 CL11 UNL     1     -31.698   8.576   1.529  1.00 20.00    -0.084 Cl
HETATM   12  H21 UNL     1     -34.465   5.282   6.477  1.00 20.00     0.159 HD
ENDROOT
TORSDOF 0
ENDMDL
MODEL 5
REMARK VINA RESULT:      -4.4     12.075     12.601
REMARK  0 active torsions:
REMARK  status: ('A' for Active; 'I' for Inactive)
ROOT
HETATM    1  C1  UNL     1     -36.391  15.501  -3.967  1.00 20.00     0.033 A 
HETATM    2  C2  UNL     1     -37.100  14.126  -5.844  1.00 20.00     0.033 A 
HETATM    3  C3  UNL     1     -35.086  15.147  -4.256  1.00 20.00    -0.028 A 
HETATM    4  C4  UNL     1     -35.775  13.786  -6.129  1.00 20.00    -0.033 A 
HETATM    5  C5  UNL     1     -34.776  14.286  -5.313  1.00 20.00     0.040 A 
HETATM    6  C6  UNL     1     -37.406  14.976  -4.769  1.00 20.00     0.035 A 
HETATM    7  C7  UNL     1     -33.821  15.604  -3.606  1.00 20.00     0.060 C 
HETATM    8  C8  UNL     1     -32.783  14.669  -4.263  1.00 20.00     0.124 C 
HETATM    9  C9  UNL     1     -35.467  12.900  -7.287  1.00 20.00     0.050 C 
HETATM   10  N10 UNL     1     -33.401  14.114  -5.460  1.00 20.00    -0.389 N 
HETATM   11 CL11 UNL     1     -39.048  15.385  -4.445  1.00 20.00    -0.084 Cl
HETATM   12  H21 UNL     1     -33.009  13.338  -5.974  1.00 20.00     0.159 HD
ENDROOT
TORSDOF 0
ENDMDL
MODEL 6
REMARK VINA RESULT:      -4.4     11.693     12.724
REMARK  0 active torsions:
REMARK  status: ('A' for Active; 'I' for Inactive)
ROOT
HETATM    1  C1  UNL     1     -36.348  15.605  -4.717  1.00 20.00     0.033 A 
HETATM    2  C2  UNL     1     -34.263  15.515  -3.469  1.00 20.00     0.033 A 
HETATM    3  C3  UNL     1     -35.782  14.747  -5.642  1.00 20.00    -0.028 A 
HETATM    4  C4  UNL     1     -33.708  14.641  -4.408  1.00 20.00    -0.033 A 
HETATM    5  C5  UNL     1     -34.472  14.281  -5.504  1.00 20.00     0.040 A 
HETATM    6  C6  UNL     1     -35.572  15.996  -3.624  1.00 20.00     0.035 A 
HETATM    7  C7  UNL     1     -36.399  14.133  -6.856  1.00 20.00     0.060 C 
HETATM    8  C8  UNL     1     -35.171  13.481  -7.528  1.00 20.00     0.124 C 
HETATM    9  C9  UNL     1     -32.323  14.124  -4.217  1.00 20.00     0.050 C 
HETATM   10  N10 UNL     1     -34.128  13.385  -6.515  1.00 20.00    -0.389 N 
HETATM   11 CL11 UNL     1     -36.233  17.066  -2.447  1.00 20.00    -0.084 Cl
HETATM   12  H21 UNL     1     -33.166  13.163  -6.732  1.00 20.00     0.159 HD
ENDROOT
TORSDOF 0
ENDMDL
MODEL 7
REMARK VINA RESULT:      -4.4     11.891     12.649
REMARK  0 active torsions:
REMARK  status: ('A' for Active; 'I' for Inactive)
ROOT
HETATM    1  C1  UNL     1     -35.224  14.207  -4.862  1.00 20.00     0.033 A 
HETATM    2  C2  UNL     1     -34.442  15.799  -3.198  1.00 20.00     0.033 A 
HETATM    3  C3  UNL     1     -36.495  14.728  -4.700  1.00 20.00    -0.028 A 
HETATM    4  C4  UNL     1     -35.730  16.320  -3.052  1.00 20.00    -0.033 A 
HETATM    5  C5  UNL     1     -36.754  15.761  -3.795  1.00 20.00     0.040 A 
HETATM    6  C6  UNL     1     -34.191  14.748  -4.094  1.00 20.00     0.035 A 
HETATM    7  C7  UNL     1     -37.754  14.381  -5.426  1.00 20.00     0.060 C 
HETATM    8  C8  UNL     1     -38.805  15.165  -4.611  1.00 20.00     0.124 C 
HETATM    9  C9  UNL     1     -35.974  17.450  -2.112  1.00 20.00     0.050 C 
HETATM   10  N10 UNL     1     -38.086  16.169  -3.838  1.00 20.00    -0.389 N 
HETATM   11 CL11 UNL     1     -32.592  14.129  -4.258  1.00 20.00    -0.084 Cl
HETATM   12  H21 UNL     1     -38.511  16.695  -3.087  1.00 20.00     0.159 HD
ENDROOT
TORSDOF 0
ENDMDL
MODEL 8
REMARK VINA RESULT:      -4.3     12.321     12.867
REMARK  0 active torsions:
REMARK  status: ('A' for Active; 'I' for Inactive)
ROOT
HETATM    1  C1  UNL     1     -35.961  17.725   0.401  1.00 20.00     0.033 A 
HETATM    2  C2  UNL     1     -34.056  18.792   1.473  1.00 20.00     0.033 A 
HETATM    3  C3  UNL     1     -35.138  17.433  -0.673  1.00 20.00    -0.028 A 
HETATM    4  C4  UNL     1     -33.236  18.481   0.385  1.00 20.00    -0.033 A 
HETATM    5  C5  UNL     1     -33.795  17.819  -0.693  1.00 20.00     0.040 A 
HETATM    6  C6  UNL     1     -35.410  18.419   1.480  1.00 20.00     0.035 A 
HETATM    7  C7  UNL     1     -35.449  16.662  -1.913  1.00 20.00     0.060 C 
HETATM    8  C8  UNL     1     -34.178  16.907  -2.754  1.00 20.00     0.124 C 
HETATM    9  C9  UNL     1     -31.797  18.866   0.404  1.00 20.00     0.050 C 
HETATM   10  N10 UNL     1     -33.142  17.372  -1.840  1.00 20.00    -0.389 N 
HETATM   11 CL11 UNL     1     -36.396  18.808   2.837  1.00 20.00    -0.084 Cl
HETATM   12  H21 UNL     1     -32.270  17.776  -2.154  1.00 20.00     0.159 HD
ENDROOT
TORSDOF 0
ENDMDL
MODEL 9
REMARK VINA RESULT:      -4.3     12.477     12.843
REMARK  0 active torsions:
REMARK  status: ('A' for Active; 'I' for Inactive)
ROOT
HETATM    1  C1  UNL     1     -33.373  17.023  -2.246  1.00 20.00     0.033 A 
HETATM    2  C2  UNL     1     -34.566  18.225  -0.500  1.00 20.00     0.033 A 
HETATM    3  C3  UNL     1     -34.599  16.631  -2.753  1.00 20.00    -0.028 A 
HETATM    4  C4  UNL     1     -35.796  17.829  -1.030  1.00 20.00    -0.033 A 
HETATM    5  C5  UNL     1     -35.799  17.012  -2.147  1.00 20.00     0.040 A 
HETATM    6  C6  UNL     1     -33.363  17.823  -1.101  1.00 20.00     0.035 A 
HETATM    7  C7  UNL     1     -34.897  15.835  -3.981  1.00 20.00     0.060 C 
HETATM    8  C8  UNL     1     -36.413  15.589  -3.827  1.00 20.00     0.124 C 
HETATM    9  C9  UNL     1     -37.064  18.282  -0.391  1.00 20.00     0.050 C 
HETATM   10  N10 UNL     1     -36.909  16.557  -2.856  1.00 20.00    -0.389 N 
HETATM   11 CL11 UNL     1     -31.861  18.333  -0.431  1.00 20.00    -0.084 Cl
HETATM   12  H21 UNL     1     -37.827  16.498  -2.439  1.00 20.00     0.159 HD
ENDROOT
TORSDOF 0
ENDMDL
