MODEL 1
REMARK VINA RESULT:      -5.4      0.000      0.000
REMARK  2 active torsions:
REMARK  status: ('A' for Active; 'I' for Inactive)
REMARK    1  A    between atoms: C2_2  and  C8_8 
REMARK    2  A    between atoms: C8_8  and  N9_9 
ROOT
HETATM    1  C3  UNL     1     -34.367   5.951   5.128  1.00 20.00     0.003 C 
HETATM    2  C4  UNL     1     -33.784   7.318   5.467  1.00 20.00     0.030 C 
HETATM    3  C5  UNL     1     -34.811   5.909   3.671  1.00 20.00     0.030 C 
HETATM    4  C6  UNL     1     -32.694   7.721   4.471  1.00 20.00     0.273 C 
HETATM    5  C7  UNL     1     -33.690   6.356   2.733  1.00 20.00     0.273 C 
HETATM    6  N9  UNL     1     -33.199   7.694   3.092  1.00 20.00     0.093 N 
ENDROOT
BRANCH   6   7
HETATM    7  C8  UNL     1     -32.160   8.126   2.158  1.00 20.00     0.317 C 
BRANCH   7   8
HETATM    8  C2  UNL     1     -32.581   9.309   1.331  1.00 20.00     0.007 C 
HETATM    9  C1  UNL     1     -32.660  10.554   1.820  1.00 20.00     0.029 C 
HETATM   10 BR10 UNL     1     -32.924   8.952  -0.477  1.00 20.00    -0.055 Br
ENDBRANCH   7   8
ENDBRANCH   6   7
TORSDOF 2
ENDMDL
MODEL 2
REMARK VINA RESULT:      -5.4      1.399      2.211
REMARK  2 active torsions:
REMARK  status: ('A' for Active; 'I' for Inactive)
REMARK    1  A    between atoms: C2_2  and  C8_8 
REMARK    2  A    between atoms: C8_8  and  N9_9 
ROOT
HETATM    1  C3  UNL     1     -34.783   5.005   5.595  1.00 20.00     0.003 C 
HETATM    2  C4  UNL     1     -34.040   4.252   4.497  1.00 20.00     0.030 C 
HETATM    3  C5  UNL     1     -34.172   6.387   5.799  1.00 20.00     0.030 C 
HETATM    4  C6  UNL     1     -33.944   5.086   3.218  1.00 20.00     0.273 C 
HETATM    5  C7  UNL     1     -34.072   7.152   4.480  1.00 20.00     0.273 C 
HETATM    6  N9  UNL     1     -33.315   6.388   3.479  1.00 20.00     0.093 N 
ENDROOT
BRANCH   6   7
HETATM    7  C8  UNL     1     -33.188   7.153   2.239  1.00 20.00     0.317 C 
BRANCH   7   8
HETATM    8  C2  UNL     1     -32.237   8.310   2.367  1.00 20.00     0.007 C 
HETATM    9  C1  UNL     1     -31.275   8.369   3.299  1.00 20.00     0.029 C 
HETATM   10 BR10 UNL     1     -32.426   9.660   1.081  1.00 20.00    -0.055 Br
ENDBRANCH   7   8
ENDBRANCH   6   7
TORSDOF 2
ENDMDL
MODEL 3
REMARK VINA RESULT:      -3.8     10.110     10.837
REMARK  2 active torsions:
REMARK  status: ('A' for Active; 'I' for Inactive)
REMARK    1  A    between atoms: C2_2  and  C8_8 
REMARK    2  A    between atoms: C8_8  and  N9_9 
ROOT
HETATM    1  C3  UNL     1     -34.155  18.250  -0.389  1.00 20.00     0.003 C 
HETATM    2  C4  UNL     1     -35.216  17.160  -0.485  1.00 20.00     0.030 C 
HETATM    3  C5  UNL     1     -32.962  17.912  -1.277  1.00 20.00     0.030 C 
HETATM    4  C6  UNL     1     -35.585  16.870  -1.942  1.00 20.00     0.273 C 
HETATM    5  C7  UNL     1     -33.402  17.599  -2.707  1.00 20.00     0.273 C 
HETATM    6  N9  UNL     1     -34.397  16.517  -2.731  1.00 20.00     0.093 N 
ENDROOT
BRANCH   6   7
HETATM    7  C8  UNL     1     -34.773  16.197  -4.107  1.00 20.00     0.317 C 
BRANCH   7   8
HETATM    8  C2  UNL     1     -34.401  14.794  -4.498  1.00 20.00     0.007 C 
HETATM    9  C1  UNL     1     -33.160  14.303  -4.373  1.00 20.00     0.029 C 
HETATM   10 BR10 UNL     1     -35.812  13.724  -5.113  1.00 20.00    -0.055 Br
ENDBRANCH   7   8
ENDBRANCH   6   7
TORSDOF 2
ENDMDL
MODEL 4
REMARK VINA RESULT:      -3.8      2.363      4.786
REMARK  2 active torsions:
REMARK  status: ('A' for Active; 'I' for Inactive)
REMARK    1  A    between atoms: C2_2  and  C8_8 
REMARK    2  A    between atoms: C8_8  and  N9_9 
ROOT
HETATM    1  C3  UNL     1     -32.351  10.418   0.190  1.00 20.00     0.003 C 
HETATM    2  C4  UNL     1     -32.874   9.031  -0.170  1.00 20.00     0.030 C 
HETATM    3  C5  UNL     1     -32.709  10.764   1.631  1.00 20.00     0.030 C 
HETATM    4  C6  UNL     1     -32.426   7.985   0.853  1.00 20.00     0.273 C 
HETATM    5  C7  UNL     1     -32.267   9.664   2.596  1.00 20.00     0.273 C 
HETATM    6  N9  UNL     1     -32.834   8.363   2.213  1.00 20.00     0.093 N 
ENDROOT
BRANCH   6   7
HETATM    7  C8  UNL     1     -32.440   7.330   3.171  1.00 20.00     0.317 C 
BRANCH   7   8
HETATM    8  C2  UNL     1     -33.611   6.759   3.921  1.00 20.00     0.007 C 
HETATM    9  C1  UNL     1     -34.496   5.918   3.367  1.00 20.00     0.029 C 
HETATM   10 BR10 UNL     1     -33.727   7.238   5.729  1.00 20.00    -0.055 Br
ENDBRANCH   7   8
ENDBRANCH   6   7
TORSDOF 2
ENDMDL
MODEL 5
REMARK VINA RESULT:      -3.7     10.294     11.237
REMARK  2 active torsions:
REMARK  status: ('A' for Active; 'I' for Inactive)
REMARK    1  A    between atoms: C2_2  and  C8_8 
REMARK    2  A    between atoms: C8_8  and  N9_9 
ROOT
HETATM    1  C3  UNL     1     -36.040  14.330  -6.218  1.00 20.00     0.003 C 
HETATM    2  C4  UNL     1     -35.695  13.603  -4.924  1.00 20.00     0.030 C 
HETATM    3  C5  UNL     1     -36.230  15.820  -5.958  1.00 20.00     0.030 C 
HETATM    4  C6  UNL     1     -34.515  14.267  -4.211  1.00 20.00     0.273 C 
HETATM    5  C7  UNL     1     -35.035  16.413  -5.212  1.00 20.00     0.273 C 
HETATM    6  N9  UNL     1     -34.779  15.690  -3.958  1.00 20.00     0.093 N 
ENDROOT
BRANCH   6   7
HETATM    7  C8  UNL     1     -33.663  16.297  -3.235  1.00 20.00     0.317 C 
BRANCH   7   8
HETATM    8  C2  UNL     1     -34.102  17.019  -1.991  1.00 20.00     0.007 C 
HETATM    9  C1  UNL     1     -35.304  16.838  -1.426  1.00 20.00     0.029 C 
HETATM   10 BR10 UNL     1     -32.825  18.151  -1.218  1.00 20.00    -0.055 Br
ENDBRANCH   7   8
ENDBRANCH   6   7
TORSDOF 2
ENDMDL
MODEL 6
REMARK VINA RESULT:      -3.6     10.480     11.429
REMARK  2 active torsions:
REMARK  status: ('A' for Active; 'I' for Inactive)
REMARK    1  A    between atoms: C2_2  and  C8_8 
REMARK    2  A    between atoms: C8_8  and  N9_9 
ROOT
HETATM    1  C3  UNL     1     -34.573  13.656  -7.064  1.00 20.00     0.003 C 
HETATM    2  C4  UNL     1     -35.652  13.492  -6.000  1.00 20.00     0.030 C 
HETATM    3  C5  UNL     1     -34.034  15.082  -7.062  1.00 20.00     0.030 C 
HETATM    4  C6  UNL     1     -35.162  13.971  -4.633  1.00 20.00     0.273 C 
HETATM    5  C7  UNL     1     -33.596  15.510  -5.661  1.00 20.00     0.273 C 
HETATM    6  N9  UNL     1     -34.692  15.362  -4.693  1.00 20.00     0.093 N 
ENDROOT
BRANCH   6   7
HETATM    7  C8  UNL     1     -34.272  15.818  -3.369  1.00 20.00     0.317 C 
BRANCH   7   8
HETATM    8  C2  UNL     1     -35.346  16.590  -2.655  1.00 20.00     0.007 C 
HETATM    9  C1  UNL     1     -35.298  16.872  -1.345  1.00 20.00     0.029 C 
HETATM   10 BR10 UNL     1     -36.748  17.213  -3.732  1.00 20.00    -0.055 Br
ENDBRANCH   7   8
ENDBRANCH   6   7
TORSDOF 2
ENDMDL
MODEL 7
REMARK VINA RESULT:      -3.5     10.502     11.187
REMARK  2 active torsions:
REMARK  status: ('A' for Active; 'I' for Inactive)
REMARK    1  A    between atoms: C2_2  and  C8_8 
REMARK    2  A    between atoms: C8_8  and  N9_9 
ROOT
HETATM    1  C3  UNL     1     -34.148  17.722  -1.184  1.00 20.00     0.003 C 
HETATM    2  C4  UNL     1     -35.458  16.942  -1.167  1.00 20.00     0.030 C 
HETATM    3  C5  UNL     1     -33.190  17.132  -2.213  1.00 20.00     0.030 C 
HETATM    4  C6  UNL     1     -36.050  16.820  -2.573  1.00 20.00     0.273 C 
HETATM    5  C7  UNL     1     -33.854  17.004  -3.584  1.00 20.00     0.273 C 
HETATM    6  N9  UNL     1     -35.090  16.212  -3.504  1.00 20.00     0.093 N 
ENDROOT
BRANCH   6   7
HETATM    7  C8  UNL     1     -35.688  16.060  -4.829  1.00 20.00     0.317 C 
BRANCH   7   8
HETATM    8  C2  UNL     1     -35.311  14.762  -5.489  1.00 20.00     0.007 C 
HETATM    9  C1  UNL     1     -35.816  13.577  -5.116  1.00 20.00     0.029 C 
HETATM   10 BR10 UNL     1     -34.131  14.903  -6.938  1.00 20.00    -0.055 Br
ENDBRANCH   7   8
ENDBRANCH   6   7
TORSDOF 2
ENDMDL
MODEL 8
REMARK VINA RESULT:      -3.5     10.813     11.470
REMARK  2 active torsions:
REMARK  status: ('A' for Active; 'I' for Inactive)
REMARK    1  A    between atoms: C2_2  and  C8_8 
REMARK    2  A    between atoms: C8_8  and  N9_9 
ROOT
HETATM    1  C3  UNL     1     -34.951  16.776  -1.941  1.00 20.00     0.003 C 
HETATM    2  C4  UNL     1     -33.685  16.638  -2.779  1.00 20.00     0.030 C 
HETATM    3  C5  UNL     1     -36.177  16.879  -2.841  1.00 20.00     0.030 C 
HETATM    4  C6  UNL     1     -33.811  15.499  -3.793  1.00 20.00     0.273 C 
HETATM    5  C7  UNL     1     -36.224  15.734  -3.852  1.00 20.00     0.273 C 
HETATM    6  N9  UNL     1     -34.991  15.680  -4.651  1.00 20.00     0.093 N 
ENDROOT
BRANCH   6   7
HETATM    7  C8  UNL     1     -35.070  14.609  -5.644  1.00 20.00     0.317 C 
BRANCH   7   8
HETATM    8  C2  UNL     1     -34.434  14.986  -6.953  1.00 20.00     0.007 C 
HETATM    9  C1  UNL     1     -34.042  14.084  -7.864  1.00 20.00     0.029 C 
HETATM   10 BR10 UNL     1     -34.283  16.826  -7.280  1.00 20.00    -0.055 Br
ENDBRANCH   7   8
ENDBRANCH   6   7
TORSDOF 2
ENDMDL
MODEL 9
REMARK VINA RESULT:      -3.5     10.151     11.011
REMARK  2 active torsions:
REMARK  status: ('A' for Active; 'I' for Inactive)
REMARK    1  A    between atoms: C2_2  and  C8_8 
REMARK    2  A    between atoms: C8_8  and  N9_9 
ROOT
HETATM    1  C3  UNL     1     -36.018  14.307  -4.934  1.00 20.00     0.003 C 
HETATM    2  C4  UNL     1     -34.713  14.010  -4.203  1.00 20.00     0.030 C 
HETATM    3  C5  UNL     1     -36.792  15.407  -4.215  1.00 20.00     0.030 C 
HETATM    4  C6  UNL     1     -33.906  15.288  -3.967  1.00 20.00     0.273 C 
HETATM    5  C7  UNL     1     -35.919  16.639  -3.978  1.00 20.00     0.273 C 
HETATM    6  N9  UNL     1     -34.697  16.289  -3.239  1.00 20.00     0.093 N 
ENDROOT
BRANCH   6   7
HETATM    7  C8  UNL     1     -33.895  17.485  -2.980  1.00 20.00     0.317 C 
BRANCH   7   8
HETATM    8  C2  UNL     1     -33.698  17.742  -1.512  1.00 20.00     0.007 C 
HETATM    9  C1  UNL     1     -32.548  18.199  -0.997  1.00 20.00     0.029 C 
HETATM   10 BR10 UNL     1     -35.200  17.453  -0.429  1.00 20.00    -0.055 Br
ENDBRANCH   7   8
ENDBRANCH   6   7
TORSDOF 2
ENDMDL
