MODEL 1
REMARK VINA RESULT:      -5.4      0.000      0.000
REMARK  1 active torsions:
REMARK  status: ('A' for Active; 'I' for Inactive)
REMARK    1  A    between atoms: C1_1  and  C6_6 
ROOT
HETATM    1  C2  UNL     1     -34.519   4.643   5.387  1.00 20.00     0.005 C 
HETATM    2  C3  UNL     1     -34.269   6.078   5.877  1.00 20.00     0.006 C 
HETATM    3  C4  UNL     1     -33.263   5.119   3.268  1.00 20.00     0.018 C 
HETATM    4  C5  UNL     1     -35.340   6.173   3.761  1.00 20.00     0.010 C 
HETATM    5  C6  UNL     1     -32.966   6.533   3.796  1.00 20.00     0.076 C 
HETATM    6  C7  UNL     1     -34.651   4.814   3.862  1.00 20.00    -0.013 C 
HETATM    7  C8  UNL     1     -34.254   6.889   4.570  1.00 20.00    -0.002 C 
ENDROOT
BRANCH   5   8
HETATM    8  C1  UNL     1     -32.706   7.496   2.678  1.00 20.00     0.223 C 
HETATM    9  O9  UNL     1     -33.351   7.464   1.635  1.00 20.00    -0.279 OA
HETATM   10 CL10 UNL     1     -31.422   8.604   3.057  1.00 20.00    -0.043 Cl
ENDBRANCH   5   8
TORSDOF 1
ENDMDL
MODEL 2
REMARK VINA RESULT:      -4.8      1.518      2.214
REMARK  1 active torsions:
REMARK  status: ('A' for Active; 'I' for Inactive)
REMARK    1  A    between atoms: C1_1  and  C6_6 
ROOT
HETATM    1  C2  UNL     1     -35.258   5.686   4.287  1.00 20.00     0.005 C 
HETATM    2  C3  UNL     1     -35.210   6.127   2.814  1.00 20.00     0.006 C 
HETATM    3  C4  UNL     1     -33.316   7.179   4.826  1.00 20.00     0.018 C 
HETATM    4  C5  UNL     1     -33.082   5.270   3.423  1.00 20.00     0.010 C 
HETATM    5  C6  UNL     1     -33.316   7.659   3.364  1.00 20.00     0.076 C 
HETATM    6  C7  UNL     1     -33.778   5.715   4.708  1.00 20.00    -0.013 C 
HETATM    7  C8  UNL     1     -33.711   6.387   2.584  1.00 20.00    -0.002 C 
ENDROOT
BRANCH   5   8
HETATM    8  C1  UNL     1     -31.969   8.168   2.951  1.00 20.00     0.223 C 
HETATM    9  O9  UNL     1     -31.025   8.204   3.733  1.00 20.00    -0.279 OA
HETATM   10 CL10 UNL     1     -31.944   8.674   1.288  1.00 20.00    -0.043 Cl
ENDBRANCH   5   8
TORSDOF 1
ENDMDL
MODEL 3
REMARK VINA RESULT:      -4.8     11.802     12.750
REMARK  1 active torsions:
REMARK  status: ('A' for Active; 'I' for Inactive)
REMARK    1  A    between atoms: C1_1  and  C6_6 
ROOT
HETATM    1  C2  UNL     1     -33.667  17.039  -4.034  1.00 20.00     0.005 C 
HETATM    2  C3  UNL     1     -34.504  16.089  -3.163  1.00 20.00     0.006 C 
HETATM    3  C4  UNL     1     -34.360  15.799  -6.101  1.00 20.00     0.018 C 
HETATM    4  C5  UNL     1     -32.975  14.801  -4.442  1.00 20.00     0.010 C 
HETATM    5  C6  UNL     1     -35.242  14.892  -5.226  1.00 20.00     0.076 C 
HETATM    6  C7  UNL     1     -33.176  16.127  -5.172  1.00 20.00    -0.013 C 
HETATM    7  C8  UNL     1     -34.418  14.757  -3.928  1.00 20.00    -0.002 C 
ENDROOT
BRANCH   5   8
HETATM    8  C1  UNL     1     -35.480  13.562  -5.874  1.00 20.00     0.223 C 
HETATM    9  O9  UNL     1     -35.992  12.629  -5.264  1.00 20.00    -0.279 OA
HETATM   10 CL10 UNL     1     -34.951  13.539  -7.530  1.00 20.00    -0.043 Cl
ENDBRANCH   5   8
TORSDOF 1
ENDMDL
MODEL 4
REMARK VINA RESULT:      -4.5      2.425      3.601
REMARK  1 active torsions:
REMARK  status: ('A' for Active; 'I' for Inactive)
REMARK    1  A    between atoms: C1_1  and  C6_6 
ROOT
HETATM    1  C2  UNL     1     -32.805   8.178   2.014  1.00 20.00     0.005 C 
HETATM    2  C3  UNL     1     -34.065   8.449   2.852  1.00 20.00     0.006 C 
HETATM    3  C4  UNL     1     -32.901   5.743   2.608  1.00 20.00     0.018 C 
HETATM    4  C5  UNL     1     -32.438   7.415   4.237  1.00 20.00     0.010 C 
HETATM    5  C6  UNL     1     -34.196   6.015   3.393  1.00 20.00     0.076 C 
HETATM    6  C7  UNL     1     -32.106   7.049   2.792  1.00 20.00    -0.013 C 
HETATM    7  C8  UNL     1     -33.950   7.418   3.988  1.00 20.00    -0.002 C 
ENDROOT
BRANCH   5   8
HETATM    8  C1  UNL     1     -34.418   4.989   4.462  1.00 20.00     0.223 C 
HETATM    9  O9  UNL     1     -34.381   3.787   4.220  1.00 20.00    -0.279 OA
HETATM   10 CL10 UNL     1     -34.722   5.716   6.012  1.00 20.00    -0.043 Cl
ENDBRANCH   5   8
TORSDOF 1
ENDMDL
MODEL 5
REMARK VINA RESULT:      -4.4     11.742     12.836
REMARK  1 active torsions:
REMARK  status: ('A' for Active; 'I' for Inactive)
REMARK    1  A    between atoms: C1_1  and  C6_6 
ROOT
HETATM    1  C2  UNL     1     -33.620  16.806  -3.854  1.00 20.00     0.005 C 
HETATM    2  C3  UNL     1     -34.238  17.098  -5.232  1.00 20.00     0.006 C 
HETATM    3  C4  UNL     1     -34.081  14.356  -4.136  1.00 20.00     0.018 C 
HETATM    4  C5  UNL     1     -35.837  15.947  -3.907  1.00 20.00     0.010 C 
HETATM    5  C6  UNL     1     -34.641  14.653  -5.538  1.00 20.00     0.076 C 
HETATM    6  C7  UNL     1     -34.457  15.621  -3.341  1.00 20.00    -0.013 C 
HETATM    7  C8  UNL     1     -35.331  16.022  -5.351  1.00 20.00    -0.002 C 
ENDROOT
BRANCH   5   8
HETATM    8  C1  UNL     1     -35.610  13.599  -5.979  1.00 20.00     0.223 C 
HETATM    9  O9  UNL     1     -35.907  12.652  -5.257  1.00 20.00    -0.279 OA
HETATM   10 CL10 UNL     1     -36.218  13.898  -7.579  1.00 20.00    -0.043 Cl
ENDBRANCH   5   8
TORSDOF 1
ENDMDL
MODEL 6
REMARK VINA RESULT:      -4.3      2.539      3.588
REMARK  1 active torsions:
REMARK  status: ('A' for Active; 'I' for Inactive)
REMARK    1  A    between atoms: C1_1  and  C6_6 
ROOT
HETATM    1  C2  UNL     1     -33.676   7.005   1.359  1.00 20.00     0.005 C 
HETATM    2  C3  UNL     1     -32.859   7.970   2.235  1.00 20.00     0.006 C 
HETATM    3  C4  UNL     1     -34.897   6.161   3.381  1.00 20.00     0.018 C 
HETATM    4  C5  UNL     1     -32.572   5.764   3.062  1.00 20.00     0.010 C 
HETATM    5  C6  UNL     1     -34.119   7.174   4.238  1.00 20.00     0.076 C 
HETATM    6  C7  UNL     1     -33.885   5.790   2.281  1.00 20.00    -0.013 C 
HETATM    7  C8  UNL     1     -32.731   7.203   3.562  1.00 20.00    -0.002 C 
ENDROOT
BRANCH   5   8
HETATM    8  C1  UNL     1     -34.031   6.733   5.668  1.00 20.00     0.223 C 
HETATM    9  O9  UNL     1     -33.574   7.464   6.541  1.00 20.00    -0.279 OA
HETATM   10 CL10 UNL     1     -34.640   5.121   5.893  1.00 20.00    -0.043 Cl
ENDBRANCH   5   8
TORSDOF 1
ENDMDL
MODEL 7
REMARK VINA RESULT:      -4.2     11.811     12.851
REMARK  1 active torsions:
REMARK  status: ('A' for Active; 'I' for Inactive)
REMARK    1  A    between atoms: C1_1  and  C6_6 
ROOT
HETATM    1  C2  UNL     1     -34.779  14.148  -5.783  1.00 20.00     0.005 C 
HETATM    2  C3  UNL     1     -33.935  15.261  -6.427  1.00 20.00     0.006 C 
HETATM    3  C4  UNL     1     -35.077  15.533  -3.713  1.00 20.00     0.018 C 
HETATM    4  C5  UNL     1     -32.954  14.666  -4.348  1.00 20.00     0.010 C 
HETATM    5  C6  UNL     1     -34.284  16.664  -4.391  1.00 20.00     0.076 C 
HETATM    6  C7  UNL     1     -34.426  14.262  -4.289  1.00 20.00    -0.013 C 
HETATM    7  C8  UNL     1     -33.229  15.898  -5.217  1.00 20.00    -0.002 C 
ENDROOT
BRANCH   5   8
HETATM    8  C1  UNL     1     -33.648  17.572  -3.383  1.00 20.00     0.223 C 
HETATM    9  O9  UNL     1     -33.056  18.593  -3.717  1.00 20.00    -0.279 OA
HETATM   10 CL10 UNL     1     -33.862  16.995  -1.757  1.00 20.00    -0.043 Cl
ENDBRANCH   5   8
TORSDOF 1
ENDMDL
MODEL 8
REMARK VINA RESULT:      -4.2     11.972     12.778
REMARK  1 active torsions:
REMARK  status: ('A' for Active; 'I' for Inactive)
REMARK    1  A    between atoms: C1_1  and  C6_6 
ROOT
HETATM    1  C2  UNL     1     -34.787  16.017  -3.038  1.00 20.00     0.005 C 
HETATM    2  C3  UNL     1     -33.555  16.259  -3.926  1.00 20.00     0.006 C 
HETATM    3  C4  UNL     1     -35.490  14.096  -4.490  1.00 20.00     0.018 C 
HETATM    4  C5  UNL     1     -35.500  16.340  -5.284  1.00 20.00     0.010 C 
HETATM    5  C6  UNL     1     -34.222  14.308  -5.335  1.00 20.00     0.076 C 
HETATM    6  C7  UNL     1     -35.847  15.525  -4.040  1.00 20.00    -0.013 C 
HETATM    7  C8  UNL     1     -34.052  15.843  -5.321  1.00 20.00    -0.002 C 
ENDROOT
BRANCH   5   8
HETATM    8  C1  UNL     1     -34.392  13.781  -6.727  1.00 20.00     0.223 C 
HETATM    9  O9  UNL     1     -34.960  12.716  -6.949  1.00 20.00    -0.279 OA
HETATM   10 CL10 UNL     1     -33.703  14.843  -7.917  1.00 20.00    -0.043 Cl
ENDBRANCH   5   8
TORSDOF 1
ENDMDL
MODEL 9
REMARK VINA RESULT:      -4.2     11.759     12.875
REMARK  1 active torsions:
REMARK  status: ('A' for Active; 'I' for Inactive)
REMARK    1  A    between atoms: C1_1  and  C6_6 
ROOT
HETATM    1  C2  UNL     1     -33.810  16.222  -3.253  1.00 20.00     0.005 C 
HETATM    2  C3  UNL     1     -35.332  16.048  -3.381  1.00 20.00     0.006 C 
HETATM    3  C4  UNL     1     -33.514  15.664  -5.680  1.00 20.00     0.018 C 
HETATM    4  C5  UNL     1     -34.273  14.050  -4.104  1.00 20.00     0.010 C 
HETATM    5  C6  UNL     1     -35.043  15.552  -5.811  1.00 20.00     0.076 C 
HETATM    6  C7  UNL     1     -33.256  15.180  -4.241  1.00 20.00    -0.013 C 
HETATM    7  C8  UNL     1     -35.462  14.951  -4.453  1.00 20.00    -0.002 C 
ENDROOT
BRANCH   5   8
HETATM    8  C1  UNL     1     -35.435  14.668  -6.955  1.00 20.00     0.223 C 
HETATM    9  O9  UNL     1     -36.607  14.372  -7.169  1.00 20.00    -0.279 OA
HETATM   10 CL10 UNL     1     -34.060  14.150  -7.883  1.00 20.00    -0.043 Cl
ENDBRANCH   5   8
TORSDOF 1
ENDMDL
