MODEL 1
REMARK VINA RESULT:      -5.3      0.000      0.000
REMARK  3 active torsions:
REMARK  status: ('A' for Active; 'I' for Inactive)
REMARK    1  A    between atoms: C5_5  and  N9_9 
REMARK    2  A    between atoms: C6_6  and  C7_7 
REMARK    3  A    between atoms: C7_7  and  N9_9 
ROOT
HETATM    1  C1  UNL     1     -32.351   9.356   1.438  1.00 20.00     0.089 C 
HETATM    2  C5  UNL     1     -32.126   8.227   2.340  1.00 20.00     0.393 C 
HETATM    3  N8  UNL     1     -32.527  10.252   0.722  1.00 20.00    -0.195 NA
ENDROOT
BRANCH   2   4
HETATM    4  N9  UNL     1     -33.361   7.480   2.557  1.00 20.00     0.100 N 
HETATM    5  H23 UNL     1     -33.677   7.097   1.663  1.00 20.00     0.317 HD
BRANCH   4   6
HETATM    6  C7  UNL     1     -33.164   6.404   3.505  1.00 20.00     0.221 C 
HETATM    7  C4  UNL     1     -33.166   5.073   2.756  1.00 20.00     0.043 C 
BRANCH   6   8
HETATM    8  C6  UNL     1     -34.216   6.462   4.636  1.00 20.00     0.010 C 
HETATM    9  C2  UNL     1     -34.679   5.087   5.126  1.00 20.00     0.011 C 
HETATM   10  C3  UNL     1     -33.710   7.291   5.823  1.00 20.00     0.011 C 
ENDBRANCH   6   8
ENDBRANCH   4   6
ENDBRANCH   2   4
TORSDOF 3
ENDMDL
MODEL 2
REMARK VINA RESULT:      -5.1      0.816      1.726
REMARK  3 active torsions:
REMARK  status: ('A' for Active; 'I' for Inactive)
REMARK    1  A    between atoms: C5_5  and  N9_9 
REMARK    2  A    between atoms: C6_6  and  C7_7 
REMARK    3  A    between atoms: C7_7  and  N9_9 
ROOT
HETATM    1  C1  UNL     1     -32.205   8.996   1.800  1.00 20.00     0.089 C 
HETATM    2  C5  UNL     1     -31.871   8.276   3.029  1.00 20.00     0.393 C 
HETATM    3  N8  UNL     1     -32.469   9.569   0.827  1.00 20.00    -0.195 NA
ENDROOT
BRANCH   2   4
HETATM    4  N9  UNL     1     -32.582   7.003   3.096  1.00 20.00     0.100 N 
HETATM    5  H23 UNL     1     -31.940   6.283   3.431  1.00 20.00     0.317 HD
BRANCH   4   6
HETATM    6  C7  UNL     1     -33.725   7.087   3.982  1.00 20.00     0.221 C 
HETATM    7  C4  UNL     1     -33.267   7.627   5.335  1.00 20.00     0.043 C 
BRANCH   6   8
HETATM    8  C6  UNL     1     -34.445   5.723   4.088  1.00 20.00     0.010 C 
HETATM    9  C2  UNL     1     -33.769   4.600   3.294  1.00 20.00     0.011 C 
HETATM   10  C3  UNL     1     -34.611   5.294   5.551  1.00 20.00     0.011 C 
ENDBRANCH   6   8
ENDBRANCH   4   6
ENDBRANCH   2   4
TORSDOF 3
ENDMDL
MODEL 3
REMARK VINA RESULT:      -4.5      1.072      1.831
REMARK  3 active torsions:
REMARK  status: ('A' for Active; 'I' for Inactive)
REMARK    1  A    between atoms: C5_5  and  N9_9 
REMARK    2  A    between atoms: C6_6  and  C7_7 
REMARK    3  A    between atoms: C7_7  and  N9_9 
ROOT
HETATM    1  C1  UNL     1     -32.098   8.825   1.642  1.00 20.00     0.089 C 
HETATM    2  C5  UNL     1     -31.802   8.215   2.938  1.00 20.00     0.393 C 
HETATM    3  N8  UNL     1     -32.331   9.311   0.614  1.00 20.00    -0.195 NA
ENDROOT
BRANCH   2   4
HETATM    4  N9  UNL     1     -32.542   6.969   3.108  1.00 20.00     0.100 N 
HETATM    5  H23 UNL     1     -31.896   6.241   3.421  1.00 20.00     0.317 HD
BRANCH   4   6
HETATM    6  C7  UNL     1     -33.610   7.120   4.074  1.00 20.00     0.221 C 
HETATM    7  C4  UNL     1     -33.039   7.719   5.358  1.00 20.00     0.043 C 
BRANCH   6   8
HETATM    8  C6  UNL     1     -34.342   5.778   4.306  1.00 20.00     0.010 C 
HETATM    9  C2  UNL     1     -34.492   5.399   5.783  1.00 20.00     0.011 C 
HETATM   10  C3  UNL     1     -35.717   5.770   3.628  1.00 20.00     0.011 C 
ENDBRANCH   6   8
ENDBRANCH   4   6
ENDBRANCH   2   4
TORSDOF 3
ENDMDL
MODEL 4
REMARK VINA RESULT:      -4.4      1.661      4.649
REMARK  3 active torsions:
REMARK  status: ('A' for Active; 'I' for Inactive)
REMARK    1  A    between atoms: C5_5  and  N9_9 
REMARK    2  A    between atoms: C6_6  and  C7_7 
REMARK    3  A    between atoms: C7_7  and  N9_9 
ROOT
HETATM    1  C1  UNL     1     -34.292   6.057   3.529  1.00 20.00     0.089 C 
HETATM    2  C5  UNL     1     -33.024   6.433   2.905  1.00 20.00     0.393 C 
HETATM    3  N8  UNL     1     -35.298   5.757   4.024  1.00 20.00    -0.195 NA
ENDROOT
BRANCH   2   4
HETATM    4  N9  UNL     1     -33.204   7.564   2.001  1.00 20.00     0.100 N 
HETATM    5  H23 UNL     1     -33.902   8.197   2.397  1.00 20.00     0.317 HD
BRANCH   4   6
HETATM    6  C7  UNL     1     -31.959   8.277   1.798  1.00 20.00     0.221 C 
HETATM    7  C4  UNL     1     -31.388   8.676   3.157  1.00 20.00     0.043 C 
BRANCH   6   8
HETATM    8  C6  UNL     1     -32.158   9.480   0.848  1.00 20.00     0.010 C 
HETATM    9  C2  UNL     1     -32.996   9.160  -0.393  1.00 20.00     0.011 C 
HETATM   10  C3  UNL     1     -32.767  10.677   1.588  1.00 20.00     0.011 C 
ENDBRANCH   6   8
ENDBRANCH   4   6
ENDBRANCH   2   4
TORSDOF 3
ENDMDL
MODEL 5
REMARK VINA RESULT:      -4.0     10.865     11.475
REMARK  3 active torsions:
REMARK  status: ('A' for Active; 'I' for Inactive)
REMARK    1  A    between atoms: C5_5  and  N9_9 
REMARK    2  A    between atoms: C6_6  and  C7_7 
REMARK    3  A    between atoms: C7_7  and  N9_9 
ROOT
HETATM    1  C1  UNL     1     -37.083  13.872  -5.232  1.00 20.00     0.089 C 
HETATM    2  C5  UNL     1     -35.699  13.513  -5.537  1.00 20.00     0.393 C 
HETATM    3  N8  UNL     1     -38.182  14.158  -4.992  1.00 20.00    -0.195 NA
ENDROOT
BRANCH   2   4
HETATM    4  N9  UNL     1     -34.818  13.840  -4.421  1.00 20.00     0.100 N 
HETATM    5  H23 UNL     1     -33.971  13.272  -4.490  1.00 20.00     0.317 HD
BRANCH   4   6
HETATM    6  C7  UNL     1     -34.463  15.244  -4.425  1.00 20.00     0.221 C 
HETATM    7  C4  UNL     1     -33.030  15.394  -4.930  1.00 20.00     0.043 C 
BRANCH   6   8
HETATM    8  C6  UNL     1     -34.683  15.876  -3.031  1.00 20.00     0.010 C 
HETATM    9  C2  UNL     1     -33.574  16.841  -2.604  1.00 20.00     0.011 C 
HETATM   10  C3  UNL     1     -36.043  16.581  -2.949  1.00 20.00     0.011 C 
ENDBRANCH   6   8
ENDBRANCH   4   6
ENDBRANCH   2   4
TORSDOF 3
ENDMDL
MODEL 6
REMARK VINA RESULT:      -3.9     10.716     11.472
REMARK  3 active torsions:
REMARK  status: ('A' for Active; 'I' for Inactive)
REMARK    1  A    between atoms: C5_5  and  N9_9 
REMARK    2  A    between atoms: C6_6  and  C7_7 
REMARK    3  A    between atoms: C7_7  and  N9_9 
ROOT
HETATM    1  C1  UNL     1     -35.322  13.737  -4.781  1.00 20.00     0.089 C 
HETATM    2  C5  UNL     1     -34.580  14.812  -4.125  1.00 20.00     0.393 C 
HETATM    3  N8  UNL     1     -35.909  12.883  -5.303  1.00 20.00    -0.195 NA
ENDROOT
BRANCH   2   4
HETATM    4  N9  UNL     1     -35.489  15.793  -3.542  1.00 20.00     0.100 N 
HETATM    5  H23 UNL     1     -35.924  15.388  -2.710  1.00 20.00     0.317 HD
BRANCH   4   6
HETATM    6  C7  UNL     1     -34.790  17.010  -3.183  1.00 20.00     0.221 C 
HETATM    7  C4  UNL     1     -33.685  17.269  -4.205  1.00 20.00     0.043 C 
BRANCH   6   8
HETATM    8  C6  UNL     1     -34.266  16.939  -1.730  1.00 20.00     0.010 C 
HETATM    9  C2  UNL     1     -33.061  17.844  -1.459  1.00 20.00     0.011 C 
HETATM   10  C3  UNL     1     -35.380  17.246  -0.722  1.00 20.00     0.011 C 
ENDBRANCH   6   8
ENDBRANCH   4   6
ENDBRANCH   2   4
TORSDOF 3
ENDMDL
MODEL 7
REMARK VINA RESULT:      -3.9      1.881      4.471
REMARK  3 active torsions:
REMARK  status: ('A' for Active; 'I' for Inactive)
REMARK    1  A    between atoms: C5_5  and  N9_9 
REMARK    2  A    between atoms: C6_6  and  C7_7 
REMARK    3  A    between atoms: C7_7  and  N9_9 
ROOT
HETATM    1  C1  UNL     1     -34.422   5.805   5.640  1.00 20.00     0.089 C 
HETATM    2  C5  UNL     1     -34.084   7.201   5.361  1.00 20.00     0.393 C 
HETATM    3  N8  UNL     1     -34.690   4.699   5.863  1.00 20.00    -0.195 NA
ENDROOT
BRANCH   2   4
HETATM    4  N9  UNL     1     -32.920   7.290   4.487  1.00 20.00     0.100 N 
HETATM    5  H23 UNL     1     -32.341   6.458   4.621  1.00 20.00     0.317 HD
BRANCH   4   6
HETATM    6  C7  UNL     1     -33.314   7.389   3.096  1.00 20.00     0.221 C 
HETATM    7  C4  UNL     1     -33.679   5.999   2.582  1.00 20.00     0.043 C 
BRANCH   6   8
HETATM    8  C6  UNL     1     -32.212   8.076   2.256  1.00 20.00     0.010 C 
HETATM    9  C2  UNL     1     -32.715   9.255   1.417  1.00 20.00     0.011 C 
HETATM   10  C3  UNL     1     -31.043   8.530   3.138  1.00 20.00     0.011 C 
ENDBRANCH   6   8
ENDBRANCH   4   6
ENDBRANCH   2   4
TORSDOF 3
ENDMDL
MODEL 8
REMARK VINA RESULT:      -3.9     10.714     11.706
REMARK  3 active torsions:
REMARK  status: ('A' for Active; 'I' for Inactive)
REMARK    1  A    between atoms: C5_5  and  N9_9 
REMARK    2  A    between atoms: C6_6  and  C7_7 
REMARK    3  A    between atoms: C7_7  and  N9_9 
ROOT
HETATM    1  C1  UNL     1     -36.380  13.848  -4.995  1.00 20.00     0.089 C 
HETATM    2  C5  UNL     1     -36.943  15.112  -4.520  1.00 20.00     0.393 C 
HETATM    3  N8  UNL     1     -35.935  12.845  -5.371  1.00 20.00    -0.195 NA
ENDROOT
BRANCH   2   4
HETATM    4  N9  UNL     1     -35.905  16.128  -4.390  1.00 20.00     0.100 N 
HETATM    5  H23 UNL     1     -36.334  17.001  -4.075  1.00 20.00     0.317 HD
BRANCH   4   6
HETATM    6  C7  UNL     1     -34.885  15.719  -3.446  1.00 20.00     0.221 C 
HETATM    7  C4  UNL     1     -35.008  16.567  -2.182  1.00 20.00     0.043 C 
BRANCH   6   8
HETATM    8  C6  UNL     1     -33.479  15.787  -4.086  1.00 20.00     0.010 C 
HETATM    9  C2  UNL     1     -32.822  14.418  -4.289  1.00 20.00     0.011 C 
HETATM   10  C3  UNL     1     -33.510  16.548  -5.416  1.00 20.00     0.011 C 
ENDBRANCH   6   8
ENDBRANCH   4   6
ENDBRANCH   2   4
TORSDOF 3
ENDMDL
MODEL 9
REMARK VINA RESULT:      -3.8     10.985     11.817
REMARK  3 active torsions:
REMARK  status: ('A' for Active; 'I' for Inactive)
REMARK    1  A    between atoms: C5_5  and  N9_9 
REMARK    2  A    between atoms: C6_6  and  C7_7 
REMARK    3  A    between atoms: C7_7  and  N9_9 
ROOT
HETATM    1  C1  UNL     1     -36.384  13.902  -5.180  1.00 20.00     0.089 C 
HETATM    2  C5  UNL     1     -36.995  15.228  -5.108  1.00 20.00     0.393 C 
HETATM    3  N8  UNL     1     -35.899  12.849  -5.240  1.00 20.00    -0.195 NA
ENDROOT
BRANCH   2   4
HETATM    4  N9  UNL     1     -37.237  15.616  -3.723  1.00 20.00     0.100 N 
HETATM    5  H23 UNL     1     -37.028  14.820  -3.116  1.00 20.00     0.317 HD
BRANCH   4   6
HETATM    6  C7  UNL     1     -36.415  16.746  -3.343  1.00 20.00     0.221 C 
HETATM    7  C4  UNL     1     -35.995  17.502  -4.602  1.00 20.00     0.043 C 
BRANCH   6   8
HETATM    8  C6  UNL     1     -35.215  16.293  -2.480  1.00 20.00     0.010 C 
HETATM    9  C2  UNL     1     -33.865  16.374  -3.201  1.00 20.00     0.011 C 
HETATM   10  C3  UNL     1     -35.147  17.080  -1.166  1.00 20.00     0.011 C 
ENDBRANCH   6   8
ENDBRANCH   4   6
ENDBRANCH   2   4
TORSDOF 3
ENDMDL
