MODEL 1
REMARK VINA RESULT:      -5.1      0.000      0.000
REMARK  1 active torsions:
REMARK  status: ('A' for Active; 'I' for Inactive)
REMARK    1  A    between atoms: C1_1  and  C6_6 
ROOT
HETATM    1  C2  UNL     1     -34.820   5.025   4.321  1.00 20.00     0.027 C 
HETATM    2  C3  UNL     1     -33.818   5.703   3.393  1.00 20.00     0.015 C 
HETATM    3  C4  UNL     1     -34.464   5.283   5.779  1.00 20.00     0.167 C 
HETATM    4  C5  UNL     1     -33.354   7.312   5.261  1.00 20.00     0.179 C 
HETATM    5  C6  UNL     1     -33.651   7.169   3.776  1.00 20.00     0.071 C 
HETATM    6  O8  UNL     1     -34.375   6.684   6.039  1.00 20.00    -0.390 OA
ENDROOT
BRANCH   5   7
HETATM    7  C1  UNL     1     -32.478   7.734   3.002  1.00 20.00     0.237 C 
HETATM    8  O7  UNL     1     -31.482   8.209   3.536  1.00 20.00    -0.306 OA
ENDBRANCH   5   7
TORSDOF 1
ENDMDL
MODEL 2
REMARK VINA RESULT:      -4.8      1.346      1.942
REMARK  1 active torsions:
REMARK  status: ('A' for Active; 'I' for Inactive)
REMARK    1  A    between atoms: C1_1  and  C6_6 
ROOT
HETATM    1  C2  UNL     1     -34.161   6.258   5.622  1.00 20.00     0.027 C 
HETATM    2  C3  UNL     1     -33.733   7.388   4.691  1.00 20.00     0.015 C 
HETATM    3  C4  UNL     1     -34.840   5.143   4.837  1.00 20.00     0.167 C 
HETATM    4  C5  UNL     1     -33.678   5.691   2.845  1.00 20.00     0.179 C 
HETATM    5  C6  UNL     1     -32.933   6.833   3.519  1.00 20.00     0.071 C 
HETATM    6  O8  UNL     1     -33.989   4.668   3.793  1.00 20.00    -0.390 OA
ENDROOT
BRANCH   5   7
HETATM    7  C1  UNL     1     -32.745   7.940   2.503  1.00 20.00     0.237 C 
HETATM    8  O7  UNL     1     -31.646   8.330   2.122  1.00 20.00    -0.306 OA
ENDBRANCH   5   7
TORSDOF 1
ENDMDL
MODEL 3
REMARK VINA RESULT:      -4.6      1.619      3.608
REMARK  1 active torsions:
REMARK  status: ('A' for Active; 'I' for Inactive)
REMARK    1  A    between atoms: C1_1  and  C6_6 
ROOT
HETATM    1  C2  UNL     1     -32.983   8.065   4.843  1.00 20.00     0.027 C 
HETATM    2  C3  UNL     1     -33.651   6.795   5.362  1.00 20.00     0.015 C 
HETATM    3  C4  UNL     1     -32.187   7.776   3.576  1.00 20.00     0.167 C 
HETATM    4  C5  UNL     1     -33.555   5.925   3.011  1.00 20.00     0.179 C 
HETATM    5  C6  UNL     1     -34.427   6.112   4.243  1.00 20.00     0.071 C 
HETATM    6  O8  UNL     1     -33.018   7.178   2.581  1.00 20.00    -0.390 OA
ENDROOT
BRANCH   5   7
HETATM    7  C1  UNL     1     -34.860   4.744   4.728  1.00 20.00     0.237 C 
HETATM    8  O7  UNL     1     -34.364   3.696   4.329  1.00 20.00    -0.306 OA
ENDBRANCH   5   7
TORSDOF 1
ENDMDL
MODEL 4
REMARK VINA RESULT:      -4.0      1.598      2.546
REMARK  1 active torsions:
REMARK  status: ('A' for Active; 'I' for Inactive)
REMARK    1  A    between atoms: C1_1  and  C6_6 
ROOT
HETATM    1  C2  UNL     1     -33.657   5.413   2.712  1.00 20.00     0.027 C 
HETATM    2  C3  UNL     1     -33.422   6.510   3.746  1.00 20.00     0.015 C 
HETATM    3  C4  UNL     1     -33.704   4.045   3.380  1.00 20.00     0.167 C 
HETATM    4  C5  UNL     1     -34.421   4.959   5.446  1.00 20.00     0.179 C 
HETATM    5  C6  UNL     1     -34.417   6.376   4.893  1.00 20.00     0.071 C 
HETATM    6  O8  UNL     1     -34.695   4.017   4.407  1.00 20.00    -0.390 OA
ENDROOT
BRANCH   5   7
HETATM    7  C1  UNL     1     -33.994   7.316   6.003  1.00 20.00     0.237 C 
HETATM    8  O7  UNL     1     -32.894   7.856   6.051  1.00 20.00    -0.306 OA
ENDBRANCH   5   7
TORSDOF 1
ENDMDL
MODEL 5
REMARK VINA RESULT:      -4.0      1.725      2.211
REMARK  1 active torsions:
REMARK  status: ('A' for Active; 'I' for Inactive)
REMARK    1  A    between atoms: C1_1  and  C6_6 
ROOT
HETATM    1  C2  UNL     1     -34.799   5.750   5.846  1.00 20.00     0.027 C 
HETATM    2  C3  UNL     1     -34.358   5.041   4.569  1.00 20.00     0.015 C 
HETATM    3  C4  UNL     1     -33.880   6.924   6.155  1.00 20.00     0.167 C 
HETATM    4  C5  UNL     1     -33.295   7.204   3.876  1.00 20.00     0.179 C 
HETATM    5  C6  UNL     1     -34.183   6.049   3.440  1.00 20.00     0.071 C 
HETATM    6  O8  UNL     1     -33.821   7.826   5.049  1.00 20.00    -0.390 OA
ENDROOT
BRANCH   5   7
HETATM    7  C1  UNL     1     -33.512   5.349   2.276  1.00 20.00     0.237 C 
HETATM    8  O7  UNL     1     -32.762   4.388   2.406  1.00 20.00    -0.306 OA
ENDBRANCH   5   7
TORSDOF 1
ENDMDL
MODEL 6
REMARK VINA RESULT:      -3.6     11.806     13.084
REMARK  1 active torsions:
REMARK  status: ('A' for Active; 'I' for Inactive)
REMARK    1  A    between atoms: C1_1  and  C6_6 
ROOT
HETATM    1  C2  UNL     1     -33.434  15.690  -3.801  1.00 20.00     0.027 C 
HETATM    2  C3  UNL     1     -34.303  14.478  -4.120  1.00 20.00     0.015 C 
HETATM    3  C4  UNL     1     -33.389  16.647  -4.985  1.00 20.00     0.167 C 
HETATM    4  C5  UNL     1     -35.497  15.921  -5.789  1.00 20.00     0.179 C 
HETATM    5  C6  UNL     1     -35.660  14.927  -4.650  1.00 20.00     0.071 C 
HETATM    6  O8  UNL     1     -34.707  17.037  -5.372  1.00 20.00    -0.390 OA
ENDROOT
BRANCH   5   7
HETATM    7  C1  UNL     1     -36.389  13.711  -5.183  1.00 20.00     0.237 C 
HETATM    8  O7  UNL     1     -35.875  12.603  -5.282  1.00 20.00    -0.306 OA
ENDBRANCH   5   7
TORSDOF 1
ENDMDL
MODEL 7
REMARK VINA RESULT:      -3.6     11.926     12.681
REMARK  1 active torsions:
REMARK  status: ('A' for Active; 'I' for Inactive)
REMARK    1  A    between atoms: C1_1  and  C6_6 
ROOT
HETATM    1  C2  UNL     1     -33.854  15.712  -3.842  1.00 20.00     0.027 C 
HETATM    2  C3  UNL     1     -35.366  15.716  -3.641  1.00 20.00     0.015 C 
HETATM    3  C4  UNL     1     -33.373  14.332  -4.274  1.00 20.00     0.167 C 
HETATM    4  C5  UNL     1     -35.467  13.785  -5.239  1.00 20.00     0.179 C 
HETATM    5  C6  UNL     1     -36.063  15.133  -4.864  1.00 20.00     0.071 C 
HETATM    6  O8  UNL     1     -34.058  13.901  -5.449  1.00 20.00    -0.390 OA
ENDROOT
BRANCH   5   7
HETATM    7  C1  UNL     1     -37.525  14.927  -4.527  1.00 20.00     0.237 C 
HETATM    8  O7  UNL     1     -38.184  13.973  -4.927  1.00 20.00    -0.306 OA
ENDBRANCH   5   7
TORSDOF 1
ENDMDL
MODEL 8
REMARK VINA RESULT:      -3.5      1.351      3.388
REMARK  1 active torsions:
REMARK  status: ('A' for Active; 'I' for Inactive)
REMARK    1  A    between atoms: C1_1  and  C6_6 
ROOT
HETATM    1  C2  UNL     1     -32.481   7.237   2.133  1.00 20.00     0.027 C 
HETATM    2  C3  UNL     1     -33.654   6.350   2.537  1.00 20.00     0.015 C 
HETATM    3  C4  UNL     1     -32.360   8.430   3.072  1.00 20.00     0.167 C 
HETATM    4  C5  UNL     1     -33.396   7.266   4.857  1.00 20.00     0.179 C 
HETATM    5  C6  UNL     1     -33.572   6.009   4.020  1.00 20.00     0.071 C 
HETATM    6  O8  UNL     1     -32.247   7.998   4.428  1.00 20.00    -0.390 OA
ENDROOT
BRANCH   5   7
HETATM    7  C1  UNL     1     -34.870   5.344   4.429  1.00 20.00     0.237 C 
HETATM    8  O7  UNL     1     -34.966   4.150   4.688  1.00 20.00    -0.306 OA
ENDBRANCH   5   7
TORSDOF 1
ENDMDL
MODEL 9
REMARK VINA RESULT:      -3.5     12.168     13.047
REMARK  1 active torsions:
REMARK  status: ('A' for Active; 'I' for Inactive)
REMARK    1  A    between atoms: C1_1  and  C6_6 
ROOT
HETATM    1  C2  UNL     1     -34.758  15.317  -3.584  1.00 20.00     0.027 C 
HETATM    2  C3  UNL     1     -34.911  14.177  -4.586  1.00 20.00     0.015 C 
HETATM    3  C4  UNL     1     -33.474  16.094  -3.844  1.00 20.00     0.167 C 
HETATM    4  C5  UNL     1     -33.454  15.504  -6.138  1.00 20.00     0.179 C 
HETATM    5  C6  UNL     1     -34.737  14.697  -6.007  1.00 20.00     0.071 C 
HETATM    6  O8  UNL     1     -33.433  16.571  -5.189  1.00 20.00    -0.390 OA
ENDROOT
BRANCH   5   7
HETATM    7  C1  UNL     1     -34.647  13.509  -6.943  1.00 20.00     0.237 C 
HETATM    8  O7  UNL     1     -35.049  12.388  -6.652  1.00 20.00    -0.306 OA
ENDBRANCH   5   7
TORSDOF 1
ENDMDL
