MODEL 1
REMARK VINA RESULT:      -3.0      0.000      0.000
REMARK  1 active torsions:
REMARK  status: ('A' for Active; 'I' for Inactive)
REMARK    1  A    between atoms: C4_4  and  S6_6 
ROOT
HETATM    1  C1  UNL     1     -35.209   5.563   4.294  1.00 20.00     0.026 C 
HETATM    2  C2  UNL     1     -34.251   4.386   4.177  1.00 20.00     0.075 C 
HETATM    3  C3  UNL     1     -33.485   6.660   2.958  1.00 20.00     0.088 C 
HETATM    4  C4  UNL     1     -34.408   6.856   4.156  1.00 20.00     0.054 C 
HETATM    5  S5  UNL     1     -32.995   4.908   2.977  1.00 20.00    -0.168 SA
ENDROOT
BRANCH   4   6
HETATM    6  S6  UNL     1     -33.474   7.259   5.679  1.00 20.00    -0.177 SA
HETATM    7  H14 UNL     1     -32.270   7.256   5.093  1.00 20.00     0.102 HD
ENDBRANCH   4   6
TORSDOF 1
ENDMDL
MODEL 2
REMARK VINA RESULT:      -2.7      1.063      2.879
REMARK  1 active torsions:
REMARK  status: ('A' for Active; 'I' for Inactive)
REMARK    1  A    between atoms: C4_4  and  S6_6 
ROOT
HETATM    1  C1  UNL     1     -33.690   7.406   3.571  1.00 20.00     0.026 C 
HETATM    2  C2  UNL     1     -33.237   7.256   5.017  1.00 20.00     0.075 C 
HETATM    3  C3  UNL     1     -35.196   5.593   4.212  1.00 20.00     0.088 C 
HETATM    4  C4  UNL     1     -34.265   6.071   3.102  1.00 20.00     0.054 C 
HETATM    5  S5  UNL     1     -34.429   6.119   5.776  1.00 20.00    -0.168 SA
ENDROOT
BRANCH   4   6
HETATM    6  S6  UNL     1     -32.957   4.842   2.733  1.00 20.00    -0.177 SA
HETATM    7  H14 UNL     1     -33.160   4.835   1.410  1.00 20.00     0.102 HD
ENDBRANCH   4   6
TORSDOF 1
ENDMDL
MODEL 3
REMARK VINA RESULT:      -2.7      1.174      2.851
REMARK  1 active torsions:
REMARK  status: ('A' for Active; 'I' for Inactive)
REMARK    1  A    between atoms: C4_4  and  S6_6 
ROOT
HETATM    1  C1  UNL     1     -34.830   6.347   3.438  1.00 20.00     0.026 C 
HETATM    2  C2  UNL     1     -33.571   7.159   3.711  1.00 20.00     0.075 C 
HETATM    3  C3  UNL     1     -34.716   5.997   5.852  1.00 20.00     0.088 C 
HETATM    4  C4  UNL     1     -34.968   5.285   4.527  1.00 20.00     0.054 C 
HETATM    5  S5  UNL     1     -33.446   7.255   5.518  1.00 20.00    -0.168 SA
ENDROOT
BRANCH   4   6
HETATM    6  S6  UNL     1     -33.817   3.882   4.277  1.00 20.00    -0.177 SA
HETATM    7  H14 UNL     1     -34.771   2.982   4.009  1.00 20.00     0.102 HD
ENDBRANCH   4   6
TORSDOF 1
ENDMDL
MODEL 4
REMARK VINA RESULT:      -2.4     12.378     12.998
REMARK  1 active torsions:
REMARK  status: ('A' for Active; 'I' for Inactive)
REMARK    1  A    between atoms: C4_4  and  S6_6 
ROOT
HETATM    1  C1  UNL     1     -34.849  14.074  -4.405  1.00 20.00     0.026 C 
HETATM    2  C2  UNL     1     -34.247  15.255  -5.154  1.00 20.00     0.075 C 
HETATM    3  C3  UNL     1     -35.377  13.343  -6.675  1.00 20.00     0.088 C 
HETATM    4  C4  UNL     1     -35.953  13.465  -5.268  1.00 20.00     0.054 C 
HETATM    5  S5  UNL     1     -34.293  14.785  -6.905  1.00 20.00    -0.168 SA
ENDROOT
BRANCH   4   6
HETATM    6  S6  UNL     1     -37.486  14.468  -5.244  1.00 20.00    -0.177 SA
HETATM    7  H14 UNL     1     -37.950  13.962  -4.095  1.00 20.00     0.102 HD
ENDBRANCH   4   6
TORSDOF 1
ENDMDL
MODEL 5
REMARK VINA RESULT:      -2.4     12.050     12.953
REMARK  1 active torsions:
REMARK  status: ('A' for Active; 'I' for Inactive)
REMARK    1  A    between atoms: C4_4  and  S6_6 
ROOT
HETATM    1  C1  UNL     1     -35.233  15.698  -3.670  1.00 20.00     0.026 C 
HETATM    2  C2  UNL     1     -34.915  16.693  -4.777  1.00 20.00     0.075 C 
HETATM    3  C3  UNL     1     -33.366  14.493  -4.681  1.00 20.00     0.088 C 
HETATM    4  C4  UNL     1     -34.770  14.312  -4.114  1.00 20.00     0.054 C 
HETATM    5  S5  UNL     1     -33.358  16.114  -5.506  1.00 20.00    -0.168 SA
ENDROOT
BRANCH   4   6
HETATM    6  S6  UNL     1     -35.907  13.559  -5.336  1.00 20.00    -0.177 SA
HETATM    7  H14 UNL     1     -35.728  14.500  -6.272  1.00 20.00     0.102 HD
ENDBRANCH   4   6
TORSDOF 1
ENDMDL
MODEL 6
REMARK VINA RESULT:      -2.4     12.361     13.277
REMARK  1 active torsions:
REMARK  status: ('A' for Active; 'I' for Inactive)
REMARK    1  A    between atoms: C4_4  and  S6_6 
ROOT
HETATM    1  C1  UNL     1     -33.213  14.466  -4.560  1.00 20.00     0.026 C 
HETATM    2  C2  UNL     1     -34.641  14.345  -4.047  1.00 20.00     0.075 C 
HETATM    3  C3  UNL     1     -33.677  16.847  -4.283  1.00 20.00     0.088 C 
HETATM    4  C4  UNL     1     -33.052  15.829  -5.231  1.00 20.00     0.054 C 
HETATM    5  S5  UNL     1     -35.102  16.016  -3.515  1.00 20.00    -0.168 SA
ENDROOT
BRANCH   4   6
HETATM    6  S6  UNL     1     -33.822  15.880  -6.892  1.00 20.00    -0.177 SA
HETATM    7  H14 UNL     1     -33.244  14.757  -7.334  1.00 20.00     0.102 HD
ENDBRANCH   4   6
TORSDOF 1
ENDMDL
MODEL 7
REMARK VINA RESULT:      -2.4     12.232     12.941
REMARK  1 active torsions:
REMARK  status: ('A' for Active; 'I' for Inactive)
REMARK    1  A    between atoms: C4_4  and  S6_6 
ROOT
HETATM    1  C1  UNL     1     -33.135  14.879  -4.394  1.00 20.00     0.026 C 
HETATM    2  C2  UNL     1     -33.107  15.624  -5.721  1.00 20.00     0.075 C 
HETATM    3  C3  UNL     1     -35.242  14.039  -5.301  1.00 20.00     0.088 C 
HETATM    4  C4  UNL     1     -34.590  14.584  -4.035  1.00 20.00     0.054 C 
HETATM    5  S5  UNL     1     -34.476  14.932  -6.689  1.00 20.00    -0.168 SA
ENDROOT
BRANCH   4   6
HETATM    6  S6  UNL     1     -35.463  16.066  -3.403  1.00 20.00    -0.177 SA
HETATM    7  H14 UNL     1     -35.160  16.846  -4.449  1.00 20.00     0.102 HD
ENDBRANCH   4   6
TORSDOF 1
ENDMDL
MODEL 8
REMARK VINA RESULT:      -2.4     12.161     12.742
REMARK  1 active torsions:
REMARK  status: ('A' for Active; 'I' for Inactive)
REMARK    1  A    between atoms: C4_4  and  S6_6 
ROOT
HETATM    1  C1  UNL     1     -34.520  14.061  -4.118  1.00 20.00     0.026 C 
HETATM    2  C2  UNL     1     -35.769  13.991  -4.985  1.00 20.00     0.075 C 
HETATM    3  C3  UNL     1     -35.572  16.131  -3.363  1.00 20.00     0.088 C 
HETATM    4  C4  UNL     1     -34.239  15.526  -3.789  1.00 20.00     0.054 C 
HETATM    5  S5  UNL     1     -36.843  15.323  -4.384  1.00 20.00    -0.168 SA
ENDROOT
BRANCH   4   6
HETATM    6  S6  UNL     1     -33.502  16.426  -5.203  1.00 20.00    -0.177 SA
HETATM    7  H14 UNL     1     -34.587  16.348  -5.983  1.00 20.00     0.102 HD
ENDBRANCH   4   6
TORSDOF 1
ENDMDL
MODEL 9
REMARK VINA RESULT:      -2.3      9.030      9.689
REMARK  1 active torsions:
REMARK  status: ('A' for Active; 'I' for Inactive)
REMARK    1  A    between atoms: C4_4  and  S6_6 
ROOT
HETATM    1  C1  UNL     1     -42.984   6.320   1.035  1.00 20.00     0.026 C 
HETATM    2  C2  UNL     1     -43.027   7.623   0.248  1.00 20.00     0.075 C 
HETATM    3  C3  UNL     1     -40.980   5.969  -0.315  1.00 20.00     0.088 C 
HETATM    4  C4  UNL     1     -42.236   5.278   0.206  1.00 20.00     0.054 C 
HETATM    5  S5  UNL     1     -41.452   7.694  -0.647  1.00 20.00    -0.168 SA
ENDROOT
BRANCH   4   6
HETATM    6  S6  UNL     1     -43.261   4.608  -1.156  1.00 20.00    -0.177 SA
HETATM    7  H14 UNL     1     -44.333   5.365  -0.892  1.00 20.00     0.102 HD
ENDBRANCH   4   6
TORSDOF 1
ENDMDL
