MODEL 1
REMARK VINA RESULT:      -4.6      0.000      0.000
REMARK  4 active torsions:
REMARK  status: ('A' for Active; 'I' for Inactive)
REMARK    1  A    between atoms: C2_2  and  C5_5 
REMARK    2  A    between atoms: C5_5  and  S9_9 
REMARK    3  A    between atoms: C6_6  and  C7_7 
REMARK    4  A    between atoms: C6_6  and  S9_9 
ROOT
HETATM    1  S9  UNL     1     -32.317   7.306   3.068  1.00 20.00    -0.166 SA
ENDROOT
BRANCH   1   2
HETATM    2  C5  UNL     1     -33.128   8.656   2.182  1.00 20.00     0.108 C 
BRANCH   2   3
HETATM    3  C2  UNL     1     -32.294   9.087   0.990  1.00 20.00     0.154 A 
HETATM    4  C1  UNL     1     -32.939   9.495  -0.304  1.00 20.00     0.201 A 
HETATM    5  O8  UNL     1     -32.439  10.464   0.629  1.00 20.00    -0.380 OA
ENDBRANCH   2   3
ENDBRANCH   1   2
BRANCH   1   6
HETATM    6  C6  UNL     1     -33.773   6.242   3.313  1.00 20.00     0.077 C 
BRANCH   6   7
HETATM    7  C7  UNL     1     -34.421   6.323   4.706  1.00 20.00    -0.013 C 
HETATM    8  C3  UNL     1     -34.596   4.951   5.359  1.00 20.00     0.010 C 
HETATM    9  C4  UNL     1     -33.681   7.277   5.648  1.00 20.00     0.010 C 
ENDBRANCH   6   7
ENDBRANCH   1   6
TORSDOF 4
ENDMDL
MODEL 2
REMARK VINA RESULT:      -4.5      2.248      5.105
REMARK  4 active torsions:
REMARK  status: ('A' for Active; 'I' for Inactive)
REMARK    1  A    between atoms: C2_2  and  C5_5 
REMARK    2  A    between atoms: C5_5  and  S9_9 
REMARK    3  A    between atoms: C6_6  and  C7_7 
REMARK    4  A    between atoms: C6_6  and  S9_9 
ROOT
HETATM    1  S9  UNL     1     -31.802   8.358   3.036  1.00 20.00    -0.166 SA
ENDROOT
BRANCH   1   2
HETATM    2  C5  UNL     1     -32.844   6.893   3.208  1.00 20.00     0.108 C 
BRANCH   2   3
HETATM    3  C2  UNL     1     -33.971   7.153   4.192  1.00 20.00     0.154 A 
HETATM    4  C1  UNL     1     -34.328   6.147   5.249  1.00 20.00     0.201 A 
HETATM    5  O8  UNL     1     -33.549   7.314   5.549  1.00 20.00    -0.380 OA
ENDBRANCH   2   3
ENDBRANCH   1   2
BRANCH   1   6
HETATM    6  C6  UNL     1     -31.696   8.391   1.219  1.00 20.00     0.077 C 
BRANCH   6   7
HETATM    7  C7  UNL     1     -32.209   9.679   0.553  1.00 20.00    -0.013 C 
HETATM    8  C3  UNL     1     -33.200   9.406  -0.580  1.00 20.00     0.010 C 
HETATM    9  C4  UNL     1     -32.799  10.670   1.558  1.00 20.00     0.010 C 
ENDBRANCH   6   7
ENDBRANCH   1   6
TORSDOF 4
ENDMDL
MODEL 3
REMARK VINA RESULT:      -4.4      2.448      5.269
REMARK  4 active torsions:
REMARK  status: ('A' for Active; 'I' for Inactive)
REMARK    1  A    between atoms: C2_2  and  C5_5 
REMARK    2  A    between atoms: C5_5  and  S9_9 
REMARK    3  A    between atoms: C6_6  and  C7_7 
REMARK    4  A    between atoms: C6_6  and  S9_9 
ROOT
HETATM    1  S9  UNL     1     -32.547   7.699   3.371  1.00 20.00    -0.166 SA
ENDROOT
BRANCH   1   2
HETATM    2  C5  UNL     1     -33.364   6.196   2.789  1.00 20.00     0.108 C 
BRANCH   2   3
HETATM    3  C2  UNL     1     -34.597   5.904   3.623  1.00 20.00     0.154 A 
HETATM    4  C1  UNL     1     -34.624   4.761   4.598  1.00 20.00     0.201 A 
HETATM    5  O8  UNL     1     -34.429   6.117   5.028  1.00 20.00    -0.380 OA
ENDBRANCH   2   3
ENDBRANCH   1   2
BRANCH   1   6
HETATM    6  C6  UNL     1     -31.978   8.327   1.760  1.00 20.00     0.077 C 
BRANCH   6   7
HETATM    7  C7  UNL     1     -32.900   9.365   1.096  1.00 20.00    -0.013 C 
HETATM    8  C3  UNL     1     -32.540  10.804   1.473  1.00 20.00     0.010 C 
HETATM    9  C4  UNL     1     -32.970   9.208  -0.424  1.00 20.00     0.010 C 
ENDBRANCH   6   7
ENDBRANCH   1   6
TORSDOF 4
ENDMDL
MODEL 4
REMARK VINA RESULT:      -4.3      0.413      1.254
REMARK  4 active torsions:
REMARK  status: ('A' for Active; 'I' for Inactive)
REMARK    1  A    between atoms: C2_2  and  C5_5 
REMARK    2  A    between atoms: C5_5  and  S9_9 
REMARK    3  A    between atoms: C6_6  and  C7_7 
REMARK    4  A    between atoms: C6_6  and  S9_9 
ROOT
HETATM    1  S9  UNL     1     -32.523   6.887   2.636  1.00 20.00    -0.166 SA
ENDROOT
BRANCH   1   2
HETATM    2  C5  UNL     1     -32.827   8.639   2.319  1.00 20.00     0.108 C 
BRANCH   2   3
HETATM    3  C2  UNL     1     -32.142   9.074   1.036  1.00 20.00     0.154 A 
HETATM    4  C1  UNL     1     -32.939   9.459  -0.179  1.00 20.00     0.201 A 
HETATM    5  O8  UNL     1     -32.354  10.445   0.685  1.00 20.00    -0.380 OA
ENDBRANCH   2   3
ENDBRANCH   1   2
BRANCH   1   6
HETATM    6  C6  UNL     1     -34.036   6.526   3.581  1.00 20.00     0.077 C 
BRANCH   6   7
HETATM    7  C7  UNL     1     -33.816   6.134   5.052  1.00 20.00    -0.013 C 
HETATM    8  C3  UNL     1     -33.881   7.333   6.000  1.00 20.00     0.010 C 
HETATM    9  C4  UNL     1     -34.763   5.027   5.517  1.00 20.00     0.010 C 
ENDBRANCH   6   7
ENDBRANCH   1   6
TORSDOF 4
ENDMDL
MODEL 5
REMARK VINA RESULT:      -3.9     10.463     10.919
REMARK  4 active torsions:
REMARK  status: ('A' for Active; 'I' for Inactive)
REMARK    1  A    between atoms: C2_2  and  C5_5 
REMARK    2  A    between atoms: C5_5  and  S9_9 
REMARK    3  A    between atoms: C6_6  and  C7_7 
REMARK    4  A    between atoms: C6_6  and  S9_9 
ROOT
HETATM    1  S9  UNL     1     -33.537  16.036  -4.698  1.00 20.00    -0.166 SA
ENDROOT
BRANCH   1   2
HETATM    2  C5  UNL     1     -34.086  14.466  -5.403  1.00 20.00     0.108 C 
BRANCH   2   3
HETATM    3  C2  UNL     1     -35.358  13.993  -4.723  1.00 20.00     0.154 A 
HETATM    4  C1  UNL     1     -36.651  13.884  -5.481  1.00 20.00     0.201 A 
HETATM    5  O8  UNL     1     -35.847  12.732  -5.188  1.00 20.00    -0.380 OA
ENDBRANCH   2   3
ENDBRANCH   1   2
BRANCH   1   6
HETATM    6  C6  UNL     1     -34.774  16.173  -3.370  1.00 20.00     0.077 C 
BRANCH   6   7
HETATM    7  C7  UNL     1     -34.241  16.695  -2.025  1.00 20.00    -0.013 C 
HETATM    8  C3  UNL     1     -33.242  17.842  -2.189  1.00 20.00     0.010 C 
HETATM    9  C4  UNL     1     -35.359  17.090  -1.058  1.00 20.00     0.010 C 
ENDBRANCH   6   7
ENDBRANCH   1   6
TORSDOF 4
ENDMDL
MODEL 6
REMARK VINA RESULT:      -3.9     10.557     10.936
REMARK  4 active torsions:
REMARK  status: ('A' for Active; 'I' for Inactive)
REMARK    1  A    between atoms: C2_2  and  C5_5 
REMARK    2  A    between atoms: C5_5  and  S9_9 
REMARK    3  A    between atoms: C6_6  and  C7_7 
REMARK    4  A    between atoms: C6_6  and  S9_9 
ROOT
HETATM    1  S9  UNL     1     -33.392  15.966  -5.197  1.00 20.00    -0.166 SA
ENDROOT
BRANCH   1   2
HETATM    2  C5  UNL     1     -34.181  14.464  -5.814  1.00 20.00     0.108 C 
BRANCH   2   3
HETATM    3  C2  UNL     1     -35.246  13.984  -4.844  1.00 20.00     0.154 A 
HETATM    4  C1  UNL     1     -36.695  13.942  -5.238  1.00 20.00     0.201 A 
HETATM    5  O8  UNL     1     -35.882  12.759  -5.218  1.00 20.00    -0.380 OA
ENDBRANCH   2   3
ENDBRANCH   1   2
BRANCH   1   6
HETATM    6  C6  UNL     1     -33.724  15.726  -3.423  1.00 20.00     0.077 C 
BRANCH   6   7
HETATM    7  C7  UNL     1     -34.202  16.977  -2.668  1.00 20.00    -0.013 C 
HETATM    8  C3  UNL     1     -35.462  16.723  -1.839  1.00 20.00     0.010 C 
HETATM    9  C4  UNL     1     -33.105  17.601  -1.802  1.00 20.00     0.010 C 
ENDBRANCH   6   7
ENDBRANCH   1   6
TORSDOF 4
ENDMDL
MODEL 7
REMARK VINA RESULT:      -3.7      3.126      5.002
REMARK  4 active torsions:
REMARK  status: ('A' for Active; 'I' for Inactive)
REMARK    1  A    between atoms: C2_2  and  C5_5 
REMARK    2  A    between atoms: C5_5  and  S9_9 
REMARK    3  A    between atoms: C6_6  and  C7_7 
REMARK    4  A    between atoms: C6_6  and  S9_9 
ROOT
HETATM    1  S9  UNL     1     -33.496   7.496   5.407  1.00 20.00    -0.166 SA
ENDROOT
BRANCH   1   2
HETATM    2  C5  UNL     1     -34.349   5.933   5.713  1.00 20.00     0.108 C 
BRANCH   2   3
HETATM    3  C2  UNL     1     -34.702   5.253   4.403  1.00 20.00     0.154 A 
HETATM    4  C1  UNL     1     -33.779   4.249   3.773  1.00 20.00     0.201 A 
HETATM    5  O8  UNL     1     -34.944   3.847   4.509  1.00 20.00    -0.380 OA
ENDBRANCH   2   3
ENDBRANCH   1   2
BRANCH   1   6
HETATM    6  C6  UNL     1     -33.679   7.542   3.596  1.00 20.00     0.077 C 
BRANCH   6   7
HETATM    7  C7  UNL     1     -32.380   7.789   2.810  1.00 20.00    -0.013 C 
HETATM    8  C3  UNL     1     -32.576   8.737   1.625  1.00 20.00     0.010 C 
HETATM    9  C4  UNL     1     -31.232   8.271   3.700  1.00 20.00     0.010 C 
ENDBRANCH   6   7
ENDBRANCH   1   6
TORSDOF 4
ENDMDL
MODEL 8
REMARK VINA RESULT:      -3.6      2.627      5.239
REMARK  4 active torsions:
REMARK  status: ('A' for Active; 'I' for Inactive)
REMARK    1  A    between atoms: C2_2  and  C5_5 
REMARK    2  A    between atoms: C5_5  and  S9_9 
REMARK    3  A    between atoms: C6_6  and  C7_7 
REMARK    4  A    between atoms: C6_6  and  S9_9 
ROOT
HETATM    1  S9  UNL     1     -33.168   6.405   2.391  1.00 20.00    -0.166 SA
ENDROOT
BRANCH   1   2
HETATM    2  C5  UNL     1     -34.421   6.363   3.692  1.00 20.00     0.108 C 
BRANCH   2   3
HETATM    3  C2  UNL     1     -33.768   6.221   5.055  1.00 20.00     0.154 A 
HETATM    4  C1  UNL     1     -33.728   7.370   6.022  1.00 20.00     0.201 A 
HETATM    5  O8  UNL     1     -34.675   6.300   6.159  1.00 20.00    -0.380 OA
ENDBRANCH   2   3
ENDBRANCH   1   2
BRANCH   1   6
HETATM    6  C6  UNL     1     -32.690   8.154   2.545  1.00 20.00     0.077 C 
BRANCH   6   7
HETATM    7  C7  UNL     1     -32.556   8.919   1.216  1.00 20.00    -0.013 C 
HETATM    8  C3  UNL     1     -32.870  10.410   1.357  1.00 20.00     0.010 C 
HETATM    9  C4  UNL     1     -31.193   8.716   0.552  1.00 20.00     0.010 C 
ENDBRANCH   6   7
ENDBRANCH   1   6
TORSDOF 4
ENDMDL
MODEL 9
REMARK VINA RESULT:      -3.2     10.871     11.371
REMARK  4 active torsions:
REMARK  status: ('A' for Active; 'I' for Inactive)
REMARK    1  A    between atoms: C2_2  and  C5_5 
REMARK    2  A    between atoms: C5_5  and  S9_9 
REMARK    3  A    between atoms: C6_6  and  C7_7 
REMARK    4  A    between atoms: C6_6  and  S9_9 
ROOT
HETATM    1  S9  UNL     1     -37.074  16.524  -5.292  1.00 20.00    -0.166 SA
ENDROOT
BRANCH   1   2
HETATM    2  C5  UNL     1     -37.100  14.845  -4.627  1.00 20.00     0.108 C 
BRANCH   2   3
HETATM    3  C2  UNL     1     -36.725  13.841  -5.702  1.00 20.00     0.154 A 
HETATM    4  C1  UNL     1     -35.301  13.677  -6.150  1.00 20.00     0.201 A 
HETATM    5  O8  UNL     1     -35.919  12.752  -5.243  1.00 20.00    -0.380 OA
ENDBRANCH   2   3
ENDBRANCH   1   2
BRANCH   1   6
HETATM    6  C6  UNL     1     -35.646  17.154  -4.356  1.00 20.00     0.077 C 
BRANCH   6   7
HETATM    7  C7  UNL     1     -35.129  16.227  -3.243  1.00 20.00    -0.013 C 
HETATM    8  C3  UNL     1     -33.634  15.928  -3.368  1.00 20.00     0.010 C 
HETATM    9  C4  UNL     1     -35.458  16.745  -1.841  1.00 20.00     0.010 C 
ENDBRANCH   6   7
ENDBRANCH   1   6
TORSDOF 4
ENDMDL
