MODEL 1
REMARK VINA RESULT:      -4.4      0.000      0.000
REMARK  1 active torsions:
REMARK  status: ('A' for Active; 'I' for Inactive)
REMARK    1  A    between atoms: C1_1  and  C5_5 
ROOT
HETATM    1  C2  UNL     1     -34.549   5.513   5.568  1.00 20.00     0.193 C 
HETATM    2  C3  UNL     1     -34.046   6.914   5.877  1.00 20.00     0.195 C 
HETATM    3  C4  UNL     1     -34.087   5.848   3.286  1.00 20.00     0.206 C 
HETATM    4  C5  UNL     1     -33.580   7.248   3.600  1.00 20.00     0.206 C 
HETATM    5  O7  UNL     1     -35.082   5.474   4.242  1.00 20.00    -0.386 OA
HETATM    6  O8  UNL     1     -33.049   7.290   4.924  1.00 20.00    -0.375 OA
ENDROOT
BRANCH   4   7
HETATM    7  C1  UNL     1     -32.440   7.620   2.714  1.00 20.00     0.265 C 
HETATM    8  O6  UNL     1     -31.504   8.326   3.076  1.00 20.00    -0.304 OA
ENDBRANCH   4   7
TORSDOF 1
ENDMDL
MODEL 2
REMARK VINA RESULT:      -3.8      1.160      1.803
REMARK  1 active torsions:
REMARK  status: ('A' for Active; 'I' for Inactive)
REMARK    1  A    between atoms: C1_1  and  C5_5 
ROOT
HETATM    1  C2  UNL     1     -34.849   5.206   5.227  1.00 20.00     0.193 C 
HETATM    2  C3  UNL     1     -34.148   4.615   4.014  1.00 20.00     0.195 C 
HETATM    3  C4  UNL     1     -33.743   7.252   4.871  1.00 20.00     0.206 C 
HETATM    4  C5  UNL     1     -33.047   6.658   3.656  1.00 20.00     0.206 C 
HETATM    5  O7  UNL     1     -34.025   6.216   5.815  1.00 20.00    -0.386 OA
HETATM    6  O8  UNL     1     -33.866   5.649   3.068  1.00 20.00    -0.375 OA
ENDROOT
BRANCH   4   7
HETATM    7  C1  UNL     1     -32.864   7.681   2.586  1.00 20.00     0.265 C 
HETATM    8  O6  UNL     1     -31.808   8.273   2.391  1.00 20.00    -0.304 OA
ENDBRANCH   4   7
TORSDOF 1
ENDMDL
MODEL 3
REMARK VINA RESULT:      -3.7      1.326      3.488
REMARK  1 active torsions:
REMARK  status: ('A' for Active; 'I' for Inactive)
REMARK    1  A    between atoms: C1_1  and  C5_5 
ROOT
HETATM    1  C2  UNL     1     -32.074   7.784   3.755  1.00 20.00     0.193 C 
HETATM    2  C3  UNL     1     -32.930   7.246   2.618  1.00 20.00     0.195 C 
HETATM    3  C4  UNL     1     -33.531   6.803   5.319  1.00 20.00     0.206 C 
HETATM    4  C5  UNL     1     -34.382   6.263   4.179  1.00 20.00     0.206 C 
HETATM    5  O7  UNL     1     -32.890   8.012   4.906  1.00 20.00    -0.386 OA
HETATM    6  O8  UNL     1     -33.571   6.036   3.028  1.00 20.00    -0.375 OA
ENDROOT
BRANCH   4   7
HETATM    7  C1  UNL     1     -34.955   4.929   4.519  1.00 20.00     0.265 C 
HETATM    8  O6  UNL     1     -34.340   3.876   4.388  1.00 20.00    -0.304 OA
ENDBRANCH   4   7
TORSDOF 1
ENDMDL
MODEL 4
REMARK VINA RESULT:      -3.4     11.692     12.553
REMARK  1 active torsions:
REMARK  status: ('A' for Active; 'I' for Inactive)
REMARK    1  A    between atoms: C1_1  and  C5_5 
ROOT
HETATM    1  C2  UNL     1     -33.345  16.962  -4.473  1.00 20.00     0.193 C 
HETATM    2  C3  UNL     1     -33.998  16.327  -3.256  1.00 20.00     0.195 C 
HETATM    3  C4  UNL     1     -33.986  15.116  -5.782  1.00 20.00     0.206 C 
HETATM    4  C5  UNL     1     -34.642  14.486  -4.563  1.00 20.00     0.206 C 
HETATM    5  O7  UNL     1     -32.895  15.940  -5.366  1.00 20.00    -0.386 OA
HETATM    6  O8  UNL     1     -35.091  15.503  -3.669  1.00 20.00    -0.375 OA
ENDROOT
BRANCH   4   7
HETATM    7  C1  UNL     1     -35.872  13.731  -4.941  1.00 20.00     0.265 C 
HETATM    8  O6  UNL     1     -35.861  12.560  -5.302  1.00 20.00    -0.304 OA
ENDBRANCH   4   7
TORSDOF 1
ENDMDL
MODEL 5
REMARK VINA RESULT:      -3.4     11.593     12.594
REMARK  1 active torsions:
REMARK  status: ('A' for Active; 'I' for Inactive)
REMARK    1  A    between atoms: C1_1  and  C5_5 
ROOT
HETATM    1  C2  UNL     1     -35.787  13.238  -6.683  1.00 20.00     0.193 C 
HETATM    2  C3  UNL     1     -34.422  13.638  -7.219  1.00 20.00     0.195 C 
HETATM    3  C4  UNL     1     -35.167  13.985  -4.541  1.00 20.00     0.206 C 
HETATM    4  C5  UNL     1     -33.804  14.388  -5.082  1.00 20.00     0.206 C 
HETATM    5  O7  UNL     1     -35.679  12.888  -5.302  1.00 20.00    -0.386 OA
HETATM    6  O8  UNL     1     -33.909  14.736  -6.461  1.00 20.00    -0.375 OA
ENDROOT
BRANCH   4   7
HETATM    7  C1  UNL     1     -33.299  15.619  -4.408  1.00 20.00     0.265 C 
HETATM    8  O6  UNL     1     -33.292  16.725  -4.939  1.00 20.00    -0.304 OA
ENDBRANCH   4   7
TORSDOF 1
ENDMDL
MODEL 6
REMARK VINA RESULT:      -3.3     11.940     13.142
REMARK  1 active torsions:
REMARK  status: ('A' for Active; 'I' for Inactive)
REMARK    1  A    between atoms: C1_1  and  C5_5 
ROOT
HETATM    1  C2  UNL     1     -33.460  16.235  -4.655  1.00 20.00     0.193 C 
HETATM    2  C3  UNL     1     -33.046  14.781  -4.486  1.00 20.00     0.195 C 
HETATM    3  C4  UNL     1     -34.437  15.717  -6.730  1.00 20.00     0.206 C 
HETATM    4  C5  UNL     1     -34.025  14.263  -6.556  1.00 20.00     0.206 C 
HETATM    5  O7  UNL     1     -33.511  16.562  -6.045  1.00 20.00    -0.386 OA
HETATM    6  O8  UNL     1     -33.972  13.933  -5.169  1.00 20.00    -0.375 OA
ENDROOT
BRANCH   4   7
HETATM    7  C1  UNL     1     -35.044  13.340  -7.134  1.00 20.00     0.265 C 
HETATM    8  O6  UNL     1     -35.157  12.165  -6.803  1.00 20.00    -0.304 OA
ENDBRANCH   4   7
TORSDOF 1
ENDMDL
MODEL 7
REMARK VINA RESULT:      -3.3     11.525     12.776
REMARK  1 active torsions:
REMARK  status: ('A' for Active; 'I' for Inactive)
REMARK    1  A    between atoms: C1_1  and  C5_5 
ROOT
HETATM    1  C2  UNL     1     -33.432  16.644  -4.757  1.00 20.00     0.193 C 
HETATM    2  C3  UNL     1     -34.817  17.043  -5.244  1.00 20.00     0.195 C 
HETATM    3  C4  UNL     1     -34.257  14.532  -4.133  1.00 20.00     0.206 C 
HETATM    4  C5  UNL     1     -35.640  14.932  -4.626  1.00 20.00     0.206 C 
HETATM    5  O7  UNL     1     -33.550  15.694  -3.695  1.00 20.00    -0.386 OA
HETATM    6  O8  UNL     1     -35.526  15.882  -5.684  1.00 20.00    -0.375 OA
ENDROOT
BRANCH   4   7
HETATM    7  C1  UNL     1     -36.357  13.769  -5.224  1.00 20.00     0.265 C 
HETATM    8  O6  UNL     1     -35.892  12.635  -5.261  1.00 20.00    -0.304 OA
ENDBRANCH   4   7
TORSDOF 1
ENDMDL
MODEL 8
REMARK VINA RESULT:      -3.2     12.216     13.321
REMARK  1 active torsions:
REMARK  status: ('A' for Active; 'I' for Inactive)
REMARK    1  A    between atoms: C1_1  and  C5_5 
ROOT
HETATM    1  C2  UNL     1     -33.696  16.813  -5.230  1.00 20.00     0.193 C 
HETATM    2  C3  UNL     1     -32.970  15.478  -5.221  1.00 20.00     0.195 C 
HETATM    3  C4  UNL     1     -35.494  15.830  -6.385  1.00 20.00     0.206 C 
HETATM    4  C5  UNL     1     -34.766  14.494  -6.370  1.00 20.00     0.206 C 
HETATM    5  O7  UNL     1     -34.541  16.895  -6.381  1.00 20.00    -0.386 OA
HETATM    6  O8  UNL     1     -33.922  14.411  -5.224  1.00 20.00    -0.375 OA
ENDROOT
BRANCH   4   7
HETATM    7  C1  UNL     1     -35.724  13.360  -6.229  1.00 20.00     0.265 C 
HETATM    8  O6  UNL     1     -35.877  12.730  -5.188  1.00 20.00    -0.304 OA
ENDBRANCH   4   7
TORSDOF 1
ENDMDL
MODEL 9
REMARK VINA RESULT:      -3.2     11.358     12.363
REMARK  1 active torsions:
REMARK  status: ('A' for Active; 'I' for Inactive)
REMARK    1  A    between atoms: C1_1  and  C5_5 
ROOT
HETATM    1  C2  UNL     1     -33.339  14.957  -4.492  1.00 20.00     0.193 C 
HETATM    2  C3  UNL     1     -34.181  16.122  -3.997  1.00 20.00     0.195 C 
HETATM    3  C4  UNL     1     -35.287  13.672  -4.787  1.00 20.00     0.206 C 
HETATM    4  C5  UNL     1     -36.126  14.842  -4.296  1.00 20.00     0.206 C 
HETATM    5  O7  UNL     1     -33.993  13.724  -4.182  1.00 20.00    -0.386 OA
HETATM    6  O8  UNL     1     -35.475  16.073  -4.602  1.00 20.00    -0.375 OA
ENDROOT
BRANCH   4   7
HETATM    7  C1  UNL     1     -37.434  14.906  -5.011  1.00 20.00     0.265 C 
HETATM    8  O6  UNL     1     -38.297  14.040  -4.918  1.00 20.00    -0.304 OA
ENDBRANCH   4   7
TORSDOF 1
ENDMDL
