MODEL 1
REMARK VINA RESULT:      -4.3      0.000      0.000
REMARK  3 active torsions:
REMARK  status: ('A' for Active; 'I' for Inactive)
REMARK    1  A    between atoms: C5_5  and  C6_6 
REMARK    2  A    between atoms: C5_5  and  C7_7 
REMARK    3  A    between atoms: C7_7  and  O8_8 
ROOT
HETATM    1  C2  UNL     1     -35.494   5.883   3.740  1.00 20.00     0.045 C 
HETATM    2  C3  UNL     1     -33.263   5.060   2.948  1.00 20.00     0.045 C 
HETATM    3  C7  UNL     1     -33.979   6.129   3.775  1.00 20.00     0.054 C 
ENDROOT
BRANCH   3   4
HETATM    4  C5  UNL     1     -33.687   7.565   3.276  1.00 20.00     0.057 C 
BRANCH   4   5
HETATM    5  C6  UNL     1     -32.372   7.795   2.507  1.00 20.00     0.081 C 
HETATM    6  C1  UNL     1     -31.288   8.323   3.442  1.00 20.00     0.026 C 
HETATM    7 CL9  UNL     1     -32.574   8.956   1.164  1.00 20.00    -0.125 Cl
ENDBRANCH   4   5
ENDBRANCH   3   4
BRANCH   3   8
HETATM    8  O8  UNL     1     -33.564   6.007   5.134  1.00 20.00    -0.386 OA
HETATM    9  C4  UNL     1     -33.860   7.182   5.872  1.00 20.00     0.202 C 
ENDBRANCH   3   8
TORSDOF 3
ENDMDL
MODEL 2
REMARK VINA RESULT:      -3.9      1.556      2.106
REMARK  3 active torsions:
REMARK  status: ('A' for Active; 'I' for Inactive)
REMARK    1  A    between atoms: C5_5  and  C6_6 
REMARK    2  A    between atoms: C5_5  and  C7_7 
REMARK    3  A    between atoms: C7_7  and  O8_8 
ROOT
HETATM    1  C2  UNL     1     -33.883   6.959   5.133  1.00 20.00     0.045 C 
HETATM    2  C3  UNL     1     -35.549   6.272   3.390  1.00 20.00     0.045 C 
HETATM    3  C7  UNL     1     -34.097   6.138   3.854  1.00 20.00     0.054 C 
ENDROOT
BRANCH   3   4
HETATM    4  C5  UNL     1     -33.082   6.598   2.780  1.00 20.00     0.057 C 
BRANCH   4   5
HETATM    5  C6  UNL     1     -32.668   8.083   2.784  1.00 20.00     0.081 C 
HETATM    6  C1  UNL     1     -32.459   8.587   1.359  1.00 20.00     0.026 C 
HETATM    7 CL9  UNL     1     -31.163   8.358   3.707  1.00 20.00    -0.125 Cl
ENDBRANCH   4   5
ENDBRANCH   3   4
BRANCH   3   8
HETATM    8  O8  UNL     1     -33.850   4.772   4.184  1.00 20.00    -0.386 OA
HETATM    9  C4  UNL     1     -34.524   4.399   5.375  1.00 20.00     0.202 C 
ENDBRANCH   3   8
TORSDOF 3
ENDMDL
MODEL 3
REMARK VINA RESULT:      -3.9      1.766      2.873
REMARK  3 active torsions:
REMARK  status: ('A' for Active; 'I' for Inactive)
REMARK    1  A    between atoms: C5_5  and  C6_6 
REMARK    2  A    between atoms: C5_5  and  C7_7 
REMARK    3  A    between atoms: C7_7  and  O8_8 
ROOT
HETATM    1  C2  UNL     1     -31.400   8.191   3.531  1.00 20.00     0.045 C 
HETATM    2  C3  UNL     1     -33.600   7.365   4.404  1.00 20.00     0.045 C 
HETATM    3  C7  UNL     1     -32.735   7.535   3.153  1.00 20.00     0.054 C 
ENDROOT
BRANCH   3   4
HETATM    4  C5  UNL     1     -33.427   8.384   2.060  1.00 20.00     0.057 C 
BRANCH   4   5
HETATM    5  C6  UNL     1     -32.522   9.212   1.127  1.00 20.00     0.081 C 
HETATM    6  C1  UNL     1     -32.612  10.697   1.470  1.00 20.00     0.026 C 
HETATM    7 CL9  UNL     1     -32.961   9.003  -0.593  1.00 20.00    -0.125 Cl
ENDBRANCH   4   5
ENDBRANCH   3   4
BRANCH   3   8
HETATM    8  O8  UNL     1     -32.436   6.242   2.629  1.00 20.00    -0.386 OA
HETATM    9  C4  UNL     1     -33.478   5.319   2.904  1.00 20.00     0.202 C 
ENDBRANCH   3   8
TORSDOF 3
ENDMDL
MODEL 4
REMARK VINA RESULT:      -3.8      1.664      2.388
REMARK  3 active torsions:
REMARK  status: ('A' for Active; 'I' for Inactive)
REMARK    1  A    between atoms: C5_5  and  C6_6 
REMARK    2  A    between atoms: C5_5  and  C7_7 
REMARK    3  A    between atoms: C7_7  and  O8_8 
ROOT
HETATM    1  C2  UNL     1     -32.810   6.045   2.667  1.00 20.00     0.045 C 
HETATM    2  C3  UNL     1     -31.498   8.009   3.510  1.00 20.00     0.045 C 
HETATM    3  C7  UNL     1     -32.887   7.518   3.094  1.00 20.00     0.054 C 
ENDROOT
BRANCH   3   4
HETATM    4  C5  UNL     1     -33.493   8.350   1.939  1.00 20.00     0.057 C 
BRANCH   4   5
HETATM    5  C6  UNL     1     -32.526   9.200   1.092  1.00 20.00     0.081 C 
HETATM    6  C1  UNL     1     -32.654  10.678   1.450  1.00 20.00     0.026 C 
HETATM    7 CL9  UNL     1     -32.827   9.015  -0.659  1.00 20.00    -0.125 Cl
ENDBRANCH   4   5
ENDBRANCH   3   4
BRANCH   3   8
HETATM    8  O8  UNL     1     -33.750   7.583   4.228  1.00 20.00    -0.386 OA
HETATM    9  C4  UNL     1     -34.275   6.305   4.553  1.00 20.00     0.202 C 
ENDBRANCH   3   8
TORSDOF 3
ENDMDL
MODEL 5
REMARK VINA RESULT:      -3.7      2.615      4.147
REMARK  3 active torsions:
REMARK  status: ('A' for Active; 'I' for Inactive)
REMARK    1  A    between atoms: C5_5  and  C6_6 
REMARK    2  A    between atoms: C5_5  and  C7_7 
REMARK    3  A    between atoms: C7_7  and  O8_8 
ROOT
HETATM    1  C2  UNL     1     -31.438   8.409   3.334  1.00 20.00     0.045 C 
HETATM    2  C3  UNL     1     -31.398   8.435   0.828  1.00 20.00     0.045 C 
HETATM    3  C7  UNL     1     -32.299   8.431   2.064  1.00 20.00     0.054 C 
ENDROOT
BRANCH   3   4
HETATM    4  C5  UNL     1     -33.272   7.228   2.089  1.00 20.00     0.057 C 
BRANCH   4   5
HETATM    5  C6  UNL     1     -33.129   6.225   3.251  1.00 20.00     0.081 C 
HETATM    6  C1  UNL     1     -33.088   4.793   2.723  1.00 20.00     0.026 C 
HETATM    7 CL9  UNL     1     -34.473   6.357   4.421  1.00 20.00    -0.125 Cl
ENDBRANCH   4   5
ENDBRANCH   3   4
BRANCH   3   8
HETATM    8  O8  UNL     1     -33.048   9.645   2.084  1.00 20.00    -0.386 OA
HETATM    9  C4  UNL     1     -32.682  10.496   1.008  1.00 20.00     0.202 C 
ENDBRANCH   3   8
TORSDOF 3
ENDMDL
MODEL 6
REMARK VINA RESULT:      -3.5      2.576      3.921
REMARK  3 active torsions:
REMARK  status: ('A' for Active; 'I' for Inactive)
REMARK    1  A    between atoms: C5_5  and  C6_6 
REMARK    2  A    between atoms: C5_5  and  C7_7 
REMARK    3  A    between atoms: C7_7  and  O8_8 
ROOT
HETATM    1  C2  UNL     1     -31.590   8.009   3.441  1.00 20.00     0.045 C 
HETATM    2  C3  UNL     1     -32.495   5.965   2.306  1.00 20.00     0.045 C 
HETATM    3  C7  UNL     1     -32.829   7.376   2.794  1.00 20.00     0.054 C 
ENDROOT
BRANCH   3   4
HETATM    4  C5  UNL     1     -33.998   7.396   3.809  1.00 20.00     0.057 C 
BRANCH   4   5
HETATM    5  C6  UNL     1     -33.842   6.548   5.087  1.00 20.00     0.081 C 
HETATM    6  C1  UNL     1     -34.882   5.431   5.120  1.00 20.00     0.026 C 
HETATM    7 CL9  UNL     1     -34.018   7.528   6.570  1.00 20.00    -0.125 Cl
ENDBRANCH   4   5
ENDBRANCH   3   4
BRANCH   3   8
HETATM    8  O8  UNL     1     -33.171   8.178   1.665  1.00 20.00    -0.386 OA
HETATM    9  C4  UNL     1     -32.083   8.997   1.265  1.00 20.00     0.202 C 
ENDBRANCH   3   8
TORSDOF 3
ENDMDL
MODEL 7
REMARK VINA RESULT:      -3.5     11.120     11.665
REMARK  3 active torsions:
REMARK  status: ('A' for Active; 'I' for Inactive)
REMARK    1  A    between atoms: C5_5  and  C6_6 
REMARK    2  A    between atoms: C5_5  and  C7_7 
REMARK    3  A    between atoms: C7_7  and  O8_8 
ROOT
HETATM    1  C2  UNL     1     -34.368  15.248  -6.013  1.00 20.00     0.045 C 
HETATM    2  C3  UNL     1     -32.805  14.377  -4.257  1.00 20.00     0.045 C 
HETATM    3  C7  UNL     1     -34.270  14.653  -4.602  1.00 20.00     0.054 C 
ENDROOT
BRANCH   3   4
HETATM    4  C5  UNL     1     -34.949  15.616  -3.597  1.00 20.00     0.057 C 
BRANCH   4   5
HETATM    5  C6  UNL     1     -34.031  16.506  -2.737  1.00 20.00     0.081 C 
HETATM    6  C1  UNL     1     -34.764  16.983  -1.486  1.00 20.00     0.026 C 
HETATM    7 CL9  UNL     1     -33.454  17.940  -3.634  1.00 20.00    -0.125 Cl
ENDBRANCH   4   5
ENDBRANCH   3   4
BRANCH   3   8
HETATM    8  O8  UNL     1     -34.975  13.412  -4.617  1.00 20.00    -0.386 OA
HETATM    9  C4  UNL     1     -36.196  13.521  -5.332  1.00 20.00     0.202 C 
ENDBRANCH   3   8
TORSDOF 3
ENDMDL
MODEL 8
REMARK VINA RESULT:      -3.4      2.782      4.367
REMARK  3 active torsions:
REMARK  status: ('A' for Active; 'I' for Inactive)
REMARK    1  A    between atoms: C5_5  and  C6_6 
REMARK    2  A    between atoms: C5_5  and  C7_7 
REMARK    3  A    between atoms: C7_7  and  O8_8 
ROOT
HETATM    1  C2  UNL     1     -32.450  10.345   1.861  1.00 20.00     0.045 C 
HETATM    2  C3  UNL     1     -30.887   8.765   0.700  1.00 20.00     0.045 C 
HETATM    3  C7  UNL     1     -32.184   8.875   1.505  1.00 20.00     0.054 C 
ENDROOT
BRANCH   3   4
HETATM    4  C5  UNL     1     -32.153   8.036   2.805  1.00 20.00     0.057 C 
BRANCH   4   5
HETATM    5  C6  UNL     1     -33.419   7.231   3.160  1.00 20.00     0.081 C 
HETATM    6  C1  UNL     1     -33.668   7.259   4.666  1.00 20.00     0.026 C 
HETATM    7 CL9  UNL     1     -33.300   5.527   2.639  1.00 20.00    -0.125 Cl
ENDBRANCH   4   5
ENDBRANCH   3   4
BRANCH   3   8
HETATM    8  O8  UNL     1     -33.266   8.438   0.685  1.00 20.00    -0.386 OA
HETATM    9  C4  UNL     1     -33.293   9.135  -0.550  1.00 20.00     0.202 C 
ENDBRANCH   3   8
TORSDOF 3
ENDMDL
MODEL 9
REMARK VINA RESULT:      -3.4     11.157     11.881
REMARK  3 active torsions:
REMARK  status: ('A' for Active; 'I' for Inactive)
REMARK    1  A    between atoms: C5_5  and  C6_6 
REMARK    2  A    between atoms: C5_5  and  C7_7 
REMARK    3  A    between atoms: C7_7  and  O8_8 
ROOT
HETATM    1  C2  UNL     1     -37.513  14.261  -5.144  1.00 20.00     0.045 C 
HETATM    2  C3  UNL     1     -35.679  15.206  -6.567  1.00 20.00     0.045 C 
HETATM    3  C7  UNL     1     -36.002  14.256  -5.413  1.00 20.00     0.054 C 
ENDROOT
BRANCH   3   4
HETATM    4  C5  UNL     1     -35.253  14.623  -4.109  1.00 20.00     0.057 C 
BRANCH   4   5
HETATM    5  C6  UNL     1     -33.946  15.428  -4.244  1.00 20.00     0.081 C 
HETATM    6  C1  UNL     1     -32.749  14.490  -4.374  1.00 20.00     0.026 C 
HETATM    7 CL9  UNL     1     -33.671  16.504  -2.845  1.00 20.00    -0.125 Cl
ENDBRANCH   4   5
ENDBRANCH   3   4
BRANCH   3   8
HETATM    8  O8  UNL     1     -35.648  12.930  -5.803  1.00 20.00    -0.386 OA
HETATM    9  C4  UNL     1     -35.107  12.905  -7.115  1.00 20.00     0.202 C 
ENDBRANCH   3   8
TORSDOF 3
ENDMDL
