MODEL 1
REMARK VINA RESULT:      -3.9      0.000      0.000
REMARK  4 active torsions:
REMARK  status: ('A' for Active; 'I' for Inactive)
REMARK    1  A    between atoms: C5_5  and  C6_6 
REMARK    2  A    between atoms: C5_5  and  C7_7 
REMARK    3  A    between atoms: C6_6  and  S9_9 
REMARK    4  A    between atoms: C7_7  and  O8_8 
ROOT
HETATM    1  C5  UNL     1     -33.665   7.619   3.266  1.00 20.00     0.051 C 
ENDROOT
BRANCH   1   2
HETATM    2  C6  UNL     1     -32.283   7.828   2.612  1.00 20.00     0.043 C 
HETATM    3  C1  UNL     1     -31.198   8.315   3.566  1.00 20.00     0.021 C 
BRANCH   2   4
HETATM    4  S9  UNL     1     -32.464   9.064   1.268  1.00 20.00    -0.178 SA
HETATM    5  H25 UNL     1     -33.719   9.405   1.583  1.00 20.00     0.102 HD
ENDBRANCH   2   4
ENDBRANCH   1   2
BRANCH   1   6
HETATM    6  C7  UNL     1     -33.992   6.194   3.771  1.00 20.00     0.054 C 
HETATM    7  C2  UNL     1     -35.490   5.884   3.735  1.00 20.00     0.045 C 
HETATM    8  C3  UNL     1     -33.228   5.168   2.923  1.00 20.00     0.045 C 
BRANCH   6   9
HETATM    9  O8  UNL     1     -33.528   6.059   5.115  1.00 20.00    -0.386 OA
HETATM   10  C4  UNL     1     -33.850   7.203   5.889  1.00 20.00     0.202 C 
ENDBRANCH   6   9
ENDBRANCH   1   6
TORSDOF 4
ENDMDL
MODEL 2
REMARK VINA RESULT:      -3.6      0.844      1.810
REMARK  4 active torsions:
REMARK  status: ('A' for Active; 'I' for Inactive)
REMARK    1  A    between atoms: C5_5  and  C6_6 
REMARK    2  A    between atoms: C5_5  and  C7_7 
REMARK    3  A    between atoms: C6_6  and  S9_9 
REMARK    4  A    between atoms: C7_7  and  O8_8 
ROOT
HETATM    1  C5  UNL     1     -33.806   7.626   3.167  1.00 20.00     0.051 C 
ENDROOT
BRANCH   1   2
HETATM    2  C6  UNL     1     -32.341   7.714   2.692  1.00 20.00     0.043 C 
HETATM    3  C1  UNL     1     -31.362   8.216   3.748  1.00 20.00     0.021 C 
BRANCH   2   4
HETATM    4  S9  UNL     1     -32.269   8.852   1.255  1.00 20.00    -0.178 SA
HETATM    5  H25 UNL     1     -33.387   9.518   1.570  1.00 20.00     0.102 HD
ENDBRANCH   2   4
ENDBRANCH   1   2
BRANCH   1   6
HETATM    6  C7  UNL     1     -34.181   6.418   4.059  1.00 20.00     0.054 C 
HETATM    7  C2  UNL     1     -34.002   6.707   5.550  1.00 20.00     0.045 C 
HETATM    8  C3  UNL     1     -35.634   6.012   3.778  1.00 20.00     0.045 C 
BRANCH   6   9
HETATM    9  O8  UNL     1     -33.357   5.306   3.705  1.00 20.00    -0.386 OA
HETATM   10  C4  UNL     1     -33.968   4.077   4.062  1.00 20.00     0.202 C 
ENDBRANCH   6   9
ENDBRANCH   1   6
TORSDOF 4
ENDMDL
MODEL 3
REMARK VINA RESULT:      -3.4     11.075     11.670
REMARK  4 active torsions:
REMARK  status: ('A' for Active; 'I' for Inactive)
REMARK    1  A    between atoms: C5_5  and  C6_6 
REMARK    2  A    between atoms: C5_5  and  C7_7 
REMARK    3  A    between atoms: C6_6  and  S9_9 
REMARK    4  A    between atoms: C7_7  and  O8_8 
ROOT
HETATM    1  C5  UNL     1     -34.756  15.696  -3.716  1.00 20.00     0.051 C 
ENDROOT
BRANCH   1   2
HETATM    2  C6  UNL     1     -33.737  16.667  -3.083  1.00 20.00     0.043 C 
HETATM    3  C1  UNL     1     -34.045  17.057  -1.642  1.00 20.00     0.021 C 
BRANCH   2   4
HETATM    4  S9  UNL     1     -33.691  18.195  -4.097  1.00 20.00    -0.178 SA
HETATM    5  H25 UNL     1     -33.967  19.023  -3.082  1.00 20.00     0.102 HD
ENDBRANCH   2   4
ENDBRANCH   1   2
BRANCH   1   6
HETATM    6  C7  UNL     1     -34.190  14.587  -4.634  1.00 20.00     0.054 C 
HETATM    7  C2  UNL     1     -34.218  14.973  -6.114  1.00 20.00     0.045 C 
HETATM    8  C3  UNL     1     -32.753  14.261  -4.208  1.00 20.00     0.045 C 
BRANCH   6   9
HETATM    9  O8  UNL     1     -34.961  13.398  -4.456  1.00 20.00    -0.386 OA
HETATM   10  C4  UNL     1     -36.079  13.373  -5.329  1.00 20.00     0.202 C 
ENDBRANCH   6   9
ENDBRANCH   1   6
TORSDOF 4
ENDMDL
MODEL 4
REMARK VINA RESULT:      -3.4      2.654      4.137
REMARK  4 active torsions:
REMARK  status: ('A' for Active; 'I' for Inactive)
REMARK    1  A    between atoms: C5_5  and  C6_6 
REMARK    2  A    between atoms: C5_5  and  C7_7 
REMARK    3  A    between atoms: C6_6  and  S9_9 
REMARK    4  A    between atoms: C7_7  and  O8_8 
ROOT
HETATM    1  C5  UNL     1     -33.336   7.263   2.083  1.00 20.00     0.051 C 
ENDROOT
BRANCH   1   2
HETATM    2  C6  UNL     1     -33.188   6.136   3.127  1.00 20.00     0.043 C 
HETATM    3  C1  UNL     1     -32.924   4.756   2.534  1.00 20.00     0.021 C 
BRANCH   2   4
HETATM    4  S9  UNL     1     -34.735   6.054   4.109  1.00 20.00    -0.178 SA
HETATM    5  H25 UNL     1     -34.873   4.727   4.010  1.00 20.00     0.102 HD
ENDBRANCH   2   4
ENDBRANCH   1   2
BRANCH   1   6
HETATM    6  C7  UNL     1     -32.292   8.404   2.133  1.00 20.00     0.054 C 
HETATM    7  C2  UNL     1     -31.429   8.359   3.395  1.00 20.00     0.045 C 
HETATM    8  C3  UNL     1     -31.398   8.329   0.889  1.00 20.00     0.045 C 
BRANCH   6   9
HETATM    9  O8  UNL     1     -32.973   9.658   2.087  1.00 20.00    -0.386 OA
HETATM   10  C4  UNL     1     -32.676  10.363   0.893  1.00 20.00     0.202 C 
ENDBRANCH   6   9
ENDBRANCH   1   6
TORSDOF 4
ENDMDL
MODEL 5
REMARK VINA RESULT:      -3.4      1.784      2.877
REMARK  4 active torsions:
REMARK  status: ('A' for Active; 'I' for Inactive)
REMARK    1  A    between atoms: C5_5  and  C6_6 
REMARK    2  A    between atoms: C5_5  and  C7_7 
REMARK    3  A    between atoms: C6_6  and  S9_9 
REMARK    4  A    between atoms: C7_7  and  O8_8 
ROOT
HETATM    1  C5  UNL     1     -33.378   8.365   2.081  1.00 20.00     0.051 C 
ENDROOT
BRANCH   1   2
HETATM    2  C6  UNL     1     -32.476   9.280   1.227  1.00 20.00     0.043 C 
HETATM    3  C1  UNL     1     -32.622  10.768   1.524  1.00 20.00     0.021 C 
BRANCH   2   4
HETATM    4  S9  UNL     1     -32.884   9.003  -0.540  1.00 20.00    -0.178 SA
HETATM    5  H25 UNL     1     -32.530  10.230  -0.941  1.00 20.00     0.102 HD
ENDBRANCH   2   4
ENDBRANCH   1   2
BRANCH   1   6
HETATM    6  C7  UNL     1     -32.681   7.516   3.172  1.00 20.00     0.054 C 
HETATM    7  C2  UNL     1     -31.378   8.145   3.666  1.00 20.00     0.045 C 
HETATM    8  C3  UNL     1     -33.643   7.316   4.350  1.00 20.00     0.045 C 
BRANCH   6   9
HETATM    9  O8  UNL     1     -32.393   6.223   2.639  1.00 20.00    -0.386 OA
HETATM   10  C4  UNL     1     -33.442   5.307   2.912  1.00 20.00     0.202 C 
ENDBRANCH   6   9
ENDBRANCH   1   6
TORSDOF 4
ENDMDL
MODEL 6
REMARK VINA RESULT:      -3.2      1.666      2.369
REMARK  4 active torsions:
REMARK  status: ('A' for Active; 'I' for Inactive)
REMARK    1  A    between atoms: C5_5  and  C6_6 
REMARK    2  A    between atoms: C5_5  and  C7_7 
REMARK    3  A    between atoms: C6_6  and  S9_9 
REMARK    4  A    between atoms: C7_7  and  O8_8 
ROOT
HETATM    1  C5  UNL     1     -33.510   8.425   2.069  1.00 20.00     0.051 C 
ENDROOT
BRANCH   1   2
HETATM    2  C6  UNL     1     -32.523   9.290   1.257  1.00 20.00     0.043 C 
HETATM    3  C1  UNL     1     -32.625  10.787   1.525  1.00 20.00     0.021 C 
BRANCH   2   4
HETATM    4  S9  UNL     1     -32.840   9.002  -0.527  1.00 20.00    -0.178 SA
HETATM    5  H25 UNL     1     -33.335   7.768  -0.366  1.00 20.00     0.102 HD
ENDBRANCH   2   4
ENDBRANCH   1   2
BRANCH   1   6
HETATM    6  C7  UNL     1     -32.901   7.490   3.142  1.00 20.00     0.054 C 
HETATM    7  C2  UNL     1     -32.797   6.039   2.670  1.00 20.00     0.045 C 
HETATM    8  C3  UNL     1     -31.513   8.009   3.539  1.00 20.00     0.045 C 
BRANCH   6   9
HETATM    9  O8  UNL     1     -33.718   7.534   4.313  1.00 20.00    -0.386 OA
HETATM   10  C4  UNL     1     -34.297   6.268   4.585  1.00 20.00     0.202 C 
ENDBRANCH   6   9
ENDBRANCH   1   6
TORSDOF 4
ENDMDL
MODEL 7
REMARK VINA RESULT:      -3.1     11.211     11.923
REMARK  4 active torsions:
REMARK  status: ('A' for Active; 'I' for Inactive)
REMARK    1  A    between atoms: C5_5  and  C6_6 
REMARK    2  A    between atoms: C5_5  and  C7_7 
REMARK    3  A    between atoms: C6_6  and  S9_9 
REMARK    4  A    between atoms: C7_7  and  O8_8 
ROOT
HETATM    1  C5  UNL     1     -35.388  14.703  -4.162  1.00 20.00     0.051 C 
ENDROOT
BRANCH   1   2
HETATM    2  C6  UNL     1     -34.043  15.432  -4.363  1.00 20.00     0.043 C 
HETATM    3  C1  UNL     1     -32.824  14.517  -4.384  1.00 20.00     0.021 C 
BRANCH   2   4
HETATM    4  S9  UNL     1     -33.833  16.639  -2.997  1.00 20.00    -0.178 SA
HETATM    5  H25 UNL     1     -33.097  15.827  -2.229  1.00 20.00     0.102 HD
ENDBRANCH   2   4
ENDBRANCH   1   2
BRANCH   1   6
HETATM    6  C7  UNL     1     -36.128  14.237  -5.438  1.00 20.00     0.054 C 
HETATM    7  C2  UNL     1     -37.647  14.189  -5.256  1.00 20.00     0.045 C 
HETATM    8  C3  UNL     1     -35.774  15.172  -6.601  1.00 20.00     0.045 C 
BRANCH   6   9
HETATM    9  O8  UNL     1     -35.667  12.932  -5.792  1.00 20.00    -0.386 OA
HETATM   10  C4  UNL     1     -35.134  12.912  -7.106  1.00 20.00     0.202 C 
ENDBRANCH   6   9
ENDBRANCH   1   6
TORSDOF 4
ENDMDL
MODEL 8
REMARK VINA RESULT:      -3.1     11.444     12.090
REMARK  4 active torsions:
REMARK  status: ('A' for Active; 'I' for Inactive)
REMARK    1  A    between atoms: C5_5  and  C6_6 
REMARK    2  A    between atoms: C5_5  and  C7_7 
REMARK    3  A    between atoms: C6_6  and  S9_9 
REMARK    4  A    between atoms: C7_7  and  O8_8 
ROOT
HETATM    1  C5  UNL     1     -35.361  15.896  -3.632  1.00 20.00     0.051 C 
ENDROOT
BRANCH   1   2
HETATM    2  C6  UNL     1     -34.388  16.557  -2.634  1.00 20.00     0.043 C 
HETATM    3  C1  UNL     1     -35.008  16.914  -1.288  1.00 20.00     0.021 C 
BRANCH   2   4
HETATM    4  S9  UNL     1     -33.739  18.095  -3.396  1.00 20.00    -0.178 SA
HETATM    5  H25 UNL     1     -34.622  18.116  -4.401  1.00 20.00     0.102 HD
ENDBRANCH   2   4
ENDBRANCH   1   2
BRANCH   1   6
HETATM    6  C7  UNL     1     -34.744  14.947  -4.688  1.00 20.00     0.054 C 
HETATM    7  C2  UNL     1     -33.338  14.478  -4.309  1.00 20.00     0.045 C 
HETATM    8  C3  UNL     1     -35.664  13.734  -4.878  1.00 20.00     0.045 C 
BRANCH   6   9
HETATM    9  O8  UNL     1     -34.679  15.627  -5.942  1.00 20.00    -0.386 OA
HETATM   10  C4  UNL     1     -33.339  15.757  -6.388  1.00 20.00     0.202 C 
ENDBRANCH   6   9
ENDBRANCH   1   6
TORSDOF 4
ENDMDL
MODEL 9
REMARK VINA RESULT:      -3.1      2.558      3.993
REMARK  4 active torsions:
REMARK  status: ('A' for Active; 'I' for Inactive)
REMARK    1  A    between atoms: C5_5  and  C6_6 
REMARK    2  A    between atoms: C5_5  and  C7_7 
REMARK    3  A    between atoms: C6_6  and  S9_9 
REMARK    4  A    between atoms: C7_7  and  O8_8 
ROOT
HETATM    1  C5  UNL     1     -32.945   6.980   2.806  1.00 20.00     0.051 C 
ENDROOT
BRANCH   1   2
HETATM    2  C6  UNL     1     -33.997   7.124   3.925  1.00 20.00     0.043 C 
HETATM    3  C1  UNL     1     -33.414   7.356   5.315  1.00 20.00     0.021 C 
BRANCH   2   4
HETATM    4  S9  UNL     1     -35.001   5.590   3.972  1.00 20.00    -0.178 SA
HETATM    5  H25 UNL     1     -35.277   5.585   2.662  1.00 20.00     0.102 HD
ENDBRANCH   2   4
ENDBRANCH   1   2
BRANCH   1   6
HETATM    6  C7  UNL     1     -32.207   8.268   2.369  1.00 20.00     0.054 C 
HETATM    7  C2  UNL     1     -31.112   8.684   3.354  1.00 20.00     0.045 C 
HETATM    8  C3  UNL     1     -31.601   8.058   0.976  1.00 20.00     0.045 C 
BRANCH   6   9
HETATM    9  O8  UNL     1     -33.154   9.332   2.261  1.00 20.00    -0.386 OA
HETATM   10  C4  UNL     1     -32.824  10.210   1.196  1.00 20.00     0.202 C 
ENDBRANCH   6   9
ENDBRANCH   1   6
TORSDOF 4
ENDMDL
