MODEL 1
REMARK VINA RESULT:      -4.7      0.000      0.000
REMARK  3 active torsions:
REMARK  status: ('A' for Active; 'I' for Inactive)
REMARK    1  A    between atoms: C5_5  and  O9_9 
REMARK    2  A    between atoms: C6_6  and  C7_7 
REMARK    3  A    between atoms: C7_7  and  O9_9 
ROOT
HETATM    1  C1  UNL     1     -32.512   7.842   2.372  1.00 20.00     0.085 C 
HETATM    2  C5  UNL     1     -33.396   6.689   2.535  1.00 20.00     0.292 C 
HETATM    3  N8  UNL     1     -31.810   8.758   2.243  1.00 20.00    -0.195 NA
ENDROOT
BRANCH   2   4
HETATM    4  O9  UNL     1     -33.106   6.008   3.745  1.00 20.00    -0.367 OA
BRANCH   4   5
HETATM    5  C7  UNL     1     -34.303   5.575   4.396  1.00 20.00     0.054 C 
HETATM    6  C3  UNL     1     -35.484   6.061   3.553  1.00 20.00     0.045 C 
HETATM    7  C4  UNL     1     -34.290   4.043   4.432  1.00 20.00     0.045 C 
BRANCH   5   8
HETATM    8  C6  UNL     1     -34.337   6.134   5.832  1.00 20.00     0.033 C 
HETATM    9  C2  UNL     1     -33.614   7.464   6.011  1.00 20.00     0.008 C 
ENDBRANCH   5   8
ENDBRANCH   4   5
ENDBRANCH   2   4
TORSDOF 3
ENDMDL
MODEL 2
REMARK VINA RESULT:      -4.5      1.092      1.119
REMARK  3 active torsions:
REMARK  status: ('A' for Active; 'I' for Inactive)
REMARK    1  A    between atoms: C5_5  and  O9_9 
REMARK    2  A    between atoms: C6_6  and  C7_7 
REMARK    3  A    between atoms: C7_7  and  O9_9 
ROOT
HETATM    1  C1  UNL     1     -32.385   8.569   1.834  1.00 20.00     0.085 C 
HETATM    2  C5  UNL     1     -32.566   7.367   2.646  1.00 20.00     0.292 C 
HETATM    3  N8  UNL     1     -32.242   9.525   1.190  1.00 20.00    -0.195 NA
ENDROOT
BRANCH   2   4
HETATM    4  O9  UNL     1     -33.727   7.481   3.452  1.00 20.00    -0.367 OA
BRANCH   4   5
HETATM    5  C7  UNL     1     -34.194   6.198   3.875  1.00 20.00     0.054 C 
HETATM    6  C3  UNL     1     -35.664   6.089   3.466  1.00 20.00     0.045 C 
HETATM    7  C4  UNL     1     -33.373   5.134   3.141  1.00 20.00     0.045 C 
BRANCH   5   8
HETATM    8  C6  UNL     1     -33.996   6.057   5.397  1.00 20.00     0.033 C 
HETATM    9  C2  UNL     1     -33.706   7.367   6.122  1.00 20.00     0.008 C 
ENDBRANCH   5   8
ENDBRANCH   4   5
ENDBRANCH   2   4
TORSDOF 3
ENDMDL
MODEL 3
REMARK VINA RESULT:      -4.1      1.141      2.064
REMARK  3 active torsions:
REMARK  status: ('A' for Active; 'I' for Inactive)
REMARK    1  A    between atoms: C5_5  and  O9_9 
REMARK    2  A    between atoms: C6_6  and  C7_7 
REMARK    3  A    between atoms: C7_7  and  O9_9 
ROOT
HETATM    1  C1  UNL     1     -32.143   8.478   1.884  1.00 20.00     0.085 C 
HETATM    2  C5  UNL     1     -32.187   7.658   3.094  1.00 20.00     0.292 C 
HETATM    3  N8  UNL     1     -32.108   9.129   0.923  1.00 20.00    -0.195 NA
ENDROOT
BRANCH   2   4
HETATM    4  O9  UNL     1     -32.776   6.398   2.819  1.00 20.00    -0.367 OA
BRANCH   4   5
HETATM    5  C7  UNL     1     -33.908   6.160   3.659  1.00 20.00     0.054 C 
HETATM    6  C3  UNL     1     -33.797   7.109   4.854  1.00 20.00     0.045 C 
HETATM    7  C4  UNL     1     -35.169   6.490   2.853  1.00 20.00     0.045 C 
BRANCH   5   8
HETATM    8  C6  UNL     1     -33.928   4.679   4.085  1.00 20.00     0.033 C 
HETATM    9  C2  UNL     1     -34.571   4.420   5.443  1.00 20.00     0.008 C 
ENDBRANCH   5   8
ENDBRANCH   4   5
ENDBRANCH   2   4
TORSDOF 3
ENDMDL
MODEL 4
REMARK VINA RESULT:      -4.1      1.965      2.971
REMARK  3 active torsions:
REMARK  status: ('A' for Active; 'I' for Inactive)
REMARK    1  A    between atoms: C5_5  and  O9_9 
REMARK    2  A    between atoms: C6_6  and  C7_7 
REMARK    3  A    between atoms: C7_7  and  O9_9 
ROOT
HETATM    1  C1  UNL     1     -32.932   9.250   0.315  1.00 20.00     0.085 C 
HETATM    2  C5  UNL     1     -32.440   9.021   1.673  1.00 20.00     0.292 C 
HETATM    3  N8  UNL     1     -33.323   9.431  -0.763  1.00 20.00    -0.195 NA
ENDROOT
BRANCH   2   4
HETATM    4  O9  UNL     1     -33.408   8.328   2.442  1.00 20.00    -0.367 OA
BRANCH   4   5
HETATM    5  C7  UNL     1     -32.790   7.450   3.385  1.00 20.00     0.054 C 
HETATM    6  C3  UNL     1     -32.691   6.071   2.730  1.00 20.00     0.045 C 
HETATM    7  C4  UNL     1     -31.384   7.986   3.675  1.00 20.00     0.045 C 
BRANCH   5   8
HETATM    8  C6  UNL     1     -33.620   7.425   4.684  1.00 20.00     0.033 C 
HETATM    9  C2  UNL     1     -34.431   6.151   4.892  1.00 20.00     0.008 C 
ENDBRANCH   5   8
ENDBRANCH   4   5
ENDBRANCH   2   4
TORSDOF 3
ENDMDL
MODEL 5
REMARK VINA RESULT:      -3.9      2.449      4.093
REMARK  3 active torsions:
REMARK  status: ('A' for Active; 'I' for Inactive)
REMARK    1  A    between atoms: C5_5  and  O9_9 
REMARK    2  A    between atoms: C6_6  and  C7_7 
REMARK    3  A    between atoms: C7_7  and  O9_9 
ROOT
HETATM    1  C1  UNL     1     -34.253   6.017   5.573  1.00 20.00     0.085 C 
HETATM    2  C5  UNL     1     -33.629   7.281   5.185  1.00 20.00     0.292 C 
HETATM    3  N8  UNL     1     -34.749   5.013   5.881  1.00 20.00    -0.195 NA
ENDROOT
BRANCH   2   4
HETATM    4  O9  UNL     1     -33.994   7.630   3.860  1.00 20.00    -0.367 OA
BRANCH   4   5
HETATM    5  C7  UNL     1     -32.876   7.541   2.974  1.00 20.00     0.054 C 
HETATM    6  C3  UNL     1     -31.650   8.054   3.732  1.00 20.00     0.045 C 
HETATM    7  C4  UNL     1     -32.679   6.066   2.611  1.00 20.00     0.045 C 
BRANCH   5   8
HETATM    8  C6  UNL     1     -33.165   8.362   1.701  1.00 20.00     0.033 C 
HETATM    9  C2  UNL     1     -32.135   9.444   1.399  1.00 20.00     0.008 C 
ENDBRANCH   5   8
ENDBRANCH   4   5
ENDBRANCH   2   4
TORSDOF 3
ENDMDL
MODEL 6
REMARK VINA RESULT:      -3.7      2.323      3.547
REMARK  3 active torsions:
REMARK  status: ('A' for Active; 'I' for Inactive)
REMARK    1  A    between atoms: C5_5  and  O9_9 
REMARK    2  A    between atoms: C6_6  and  C7_7 
REMARK    3  A    between atoms: C7_7  and  O9_9 
ROOT
HETATM    1  C1  UNL     1     -33.994   4.566   3.661  1.00 20.00     0.085 C 
HETATM    2  C5  UNL     1     -33.589   5.502   2.613  1.00 20.00     0.292 C 
HETATM    3  N8  UNL     1     -34.314   3.823   4.494  1.00 20.00    -0.195 NA
ENDROOT
BRANCH   2   4
HETATM    4  O9  UNL     1     -32.404   6.185   2.987  1.00 20.00    -0.367 OA
BRANCH   4   5
HETATM    5  C7  UNL     1     -32.661   7.568   3.243  1.00 20.00     0.054 C 
HETATM    6  C3  UNL     1     -31.377   8.174   3.812  1.00 20.00     0.045 C 
HETATM    7  C4  UNL     1     -33.002   8.238   1.908  1.00 20.00     0.045 C 
BRANCH   5   8
HETATM    8  C6  UNL     1     -33.851   7.697   4.214  1.00 20.00     0.033 C 
HETATM    9  C2  UNL     1     -33.498   7.477   5.680  1.00 20.00     0.008 C 
ENDBRANCH   5   8
ENDBRANCH   4   5
ENDBRANCH   2   4
TORSDOF 3
ENDMDL
MODEL 7
REMARK VINA RESULT:      -3.7     11.615     12.330
REMARK  3 active torsions:
REMARK  status: ('A' for Active; 'I' for Inactive)
REMARK    1  A    between atoms: C5_5  and  O9_9 
REMARK    2  A    between atoms: C6_6  and  C7_7 
REMARK    3  A    between atoms: C7_7  and  O9_9 
ROOT
HETATM    1  C1  UNL     1     -37.144  13.957  -5.339  1.00 20.00     0.085 C 
HETATM    2  C5  UNL     1     -35.769  13.775  -5.800  1.00 20.00     0.292 C 
HETATM    3  N8  UNL     1     -38.237  14.102  -4.973  1.00 20.00    -0.195 NA
ENDROOT
BRANCH   2   4
HETATM    4  O9  UNL     1     -34.897  13.586  -4.698  1.00 20.00    -0.367 OA
BRANCH   4   5
HETATM    5  C7  UNL     1     -34.036  14.712  -4.519  1.00 20.00     0.054 C 
HETATM    6  C3  UNL     1     -32.655  14.176  -4.134  1.00 20.00     0.045 C 
HETATM    7  C4  UNL     1     -33.947  15.454  -5.856  1.00 20.00     0.045 C 
BRANCH   5   8
HETATM    8  C6  UNL     1     -34.625  15.642  -3.440  1.00 20.00     0.033 C 
HETATM    9  C2  UNL     1     -33.627  16.623  -2.835  1.00 20.00     0.008 C 
ENDBRANCH   5   8
ENDBRANCH   4   5
ENDBRANCH   2   4
TORSDOF 3
ENDMDL
MODEL 8
REMARK VINA RESULT:      -3.6     11.621     12.278
REMARK  3 active torsions:
REMARK  status: ('A' for Active; 'I' for Inactive)
REMARK    1  A    between atoms: C5_5  and  O9_9 
REMARK    2  A    between atoms: C6_6  and  C7_7 
REMARK    3  A    between atoms: C7_7  and  O9_9 
ROOT
HETATM    1  C1  UNL     1     -35.381  13.759  -4.753  1.00 20.00     0.085 C 
HETATM    2  C5  UNL     1     -34.714  14.857  -4.055  1.00 20.00     0.292 C 
HETATM    3  N8  UNL     1     -35.911  12.888  -5.308  1.00 20.00    -0.195 NA
ENDROOT
BRANCH   2   4
HETATM    4  O9  UNL     1     -35.645  15.591  -3.278  1.00 20.00    -0.367 OA
BRANCH   4   5
HETATM    5  C7  UNL     1     -35.062  16.790  -2.764  1.00 20.00     0.054 C 
HETATM    6  C3  UNL     1     -33.547  16.679  -2.953  1.00 20.00     0.045 C 
HETATM    7  C4  UNL     1     -35.600  17.965  -3.586  1.00 20.00     0.045 C 
BRANCH   5   8
HETATM    8  C6  UNL     1     -35.457  16.959  -1.284  1.00 20.00     0.033 C 
HETATM    9  C2  UNL     1     -34.433  17.703  -0.436  1.00 20.00     0.008 C 
ENDBRANCH   5   8
ENDBRANCH   4   5
ENDBRANCH   2   4
TORSDOF 3
ENDMDL
MODEL 9
REMARK VINA RESULT:      -3.6      2.426      4.029
REMARK  3 active torsions:
REMARK  status: ('A' for Active; 'I' for Inactive)
REMARK    1  A    between atoms: C5_5  and  O9_9 
REMARK    2  A    between atoms: C6_6  and  C7_7 
REMARK    3  A    between atoms: C7_7  and  O9_9 
ROOT
HETATM    1  C1  UNL     1     -34.115   4.666   3.742  1.00 20.00     0.085 C 
HETATM    2  C5  UNL     1     -33.837   5.676   2.723  1.00 20.00     0.292 C 
HETATM    3  N8  UNL     1     -34.336   3.864   4.552  1.00 20.00    -0.195 NA
ENDROOT
BRANCH   2   4
HETATM    4  O9  UNL     1     -32.554   6.245   2.925  1.00 20.00    -0.367 OA
BRANCH   4   5
HETATM    5  C7  UNL     1     -32.644   7.648   3.184  1.00 20.00     0.054 C 
HETATM    6  C3  UNL     1     -33.630   7.837   4.338  1.00 20.00     0.045 C 
HETATM    7  C4  UNL     1     -31.255   8.138   3.606  1.00 20.00     0.045 C 
BRANCH   5   8
HETATM    8  C6  UNL     1     -33.093   8.379   1.903  1.00 20.00     0.033 C 
HETATM    9  C2  UNL     1     -31.958   9.006   1.102  1.00 20.00     0.008 C 
ENDBRANCH   5   8
ENDBRANCH   4   5
ENDBRANCH   2   4
TORSDOF 3
ENDMDL
