MODEL 1
REMARK VINA RESULT:      -4.3      0.000      0.000
REMARK  1 active torsions:
REMARK  status: ('A' for Active; 'I' for Inactive)
REMARK    1  A    between atoms: C9_9  and  O10_10 
ROOT
HETATM    1  C1  UNL     1     -34.913  15.841  -6.505  1.00 20.00     0.001 C 
HETATM    2  C2  UNL     1     -33.610  16.362  -5.905  1.00 20.00     0.005 C 
HETATM    3  C3  UNL     1     -36.097  15.785  -5.546  1.00 20.00     0.007 C 
HETATM    4  C4  UNL     1     -33.679  16.370  -3.367  1.00 20.00     0.005 C 
HETATM    5  C5  UNL     1     -35.194  16.252  -3.218  1.00 20.00     0.007 C 
HETATM    6  C6  UNL     1     -33.504  14.173  -4.576  1.00 20.00     0.036 C 
HETATM    7  C7  UNL     1     -33.138  15.664  -4.614  1.00 20.00    -0.012 C 
HETATM    8  C8  UNL     1     -35.821  15.201  -4.146  1.00 20.00     0.014 C 
HETATM    9  C9  UNL     1     -34.963  13.926  -4.157  1.00 20.00     0.122 C 
ENDROOT
BRANCH   9  10
HETATM   10  O10 UNL     1     -35.557  12.949  -5.006  1.00 20.00    -0.395 OA
HETATM   11  H26 UNL     1     -35.635  12.136  -4.483  1.00 20.00     0.210 HD
ENDBRANCH   9  10
TORSDOF 1
ENDMDL
MODEL 2
REMARK VINA RESULT:      -4.3      1.455      2.071
REMARK  1 active torsions:
REMARK  status: ('A' for Active; 'I' for Inactive)
REMARK    1  A    between atoms: C9_9  and  O10_10 
ROOT
HETATM    1  C1  UNL     1     -35.252  13.880  -6.373  1.00 20.00     0.001 C 
HETATM    2  C2  UNL     1     -35.310  15.324  -6.865  1.00 20.00     0.005 C 
HETATM    3  C3  UNL     1     -35.454  13.692  -4.874  1.00 20.00     0.007 C 
HETATM    4  C4  UNL     1     -35.095  16.979  -4.952  1.00 20.00     0.005 C 
HETATM    5  C5  UNL     1     -35.413  16.003  -3.821  1.00 20.00     0.007 C 
HETATM    6  C6  UNL     1     -33.069  15.677  -5.671  1.00 20.00     0.036 C 
HETATM    7  C7  UNL     1     -34.385  16.319  -6.137  1.00 20.00    -0.012 C 
HETATM    8  C8  UNL     1     -34.685  14.657  -3.950  1.00 20.00     0.014 C 
HETATM    9  C9  UNL     1     -33.221  14.885  -4.361  1.00 20.00     0.122 C 
ENDROOT
BRANCH   9  10
HETATM   10  O10 UNL     1     -32.547  13.635  -4.464  1.00 20.00    -0.395 OA
HETATM   11  H26 UNL     1     -33.075  13.081  -5.060  1.00 20.00     0.210 HD
ENDBRANCH   9  10
TORSDOF 1
ENDMDL
MODEL 3
REMARK VINA RESULT:      -4.3      1.543      2.331
REMARK  1 active torsions:
REMARK  status: ('A' for Active; 'I' for Inactive)
REMARK    1  A    between atoms: C9_9  and  O10_10 
ROOT
HETATM    1  C1  UNL     1     -34.368  13.904  -7.650  1.00 20.00     0.001 C 
HETATM    2  C2  UNL     1     -33.784  15.235  -7.184  1.00 20.00     0.005 C 
HETATM    3  C3  UNL     1     -35.891  13.835  -7.685  1.00 20.00     0.007 C 
HETATM    4  C4  UNL     1     -35.527  16.673  -6.027  1.00 20.00     0.005 C 
HETATM    5  C5  UNL     1     -36.758  15.932  -6.544  1.00 20.00     0.007 C 
HETATM    6  C6  UNL     1     -34.646  14.638  -4.845  1.00 20.00     0.036 C 
HETATM    7  C7  UNL     1     -34.310  15.763  -5.835  1.00 20.00    -0.012 C 
HETATM    8  C8  UNL     1     -36.633  14.403  -6.459  1.00 20.00     0.014 C 
HETATM    9  C9  UNL     1     -36.018  13.997  -5.111  1.00 20.00     0.122 C 
ENDROOT
BRANCH   9  10
HETATM   10  O10 UNL     1     -35.919  12.578  -5.031  1.00 20.00    -0.395 OA
HETATM   11  H26 UNL     1     -35.124  12.383  -4.511  1.00 20.00     0.210 HD
ENDBRANCH   9  10
TORSDOF 1
ENDMDL
MODEL 4
REMARK VINA RESULT:      -4.3      1.114      2.898
REMARK  1 active torsions:
REMARK  status: ('A' for Active; 'I' for Inactive)
REMARK    1  A    between atoms: C9_9  and  O10_10 
ROOT
HETATM    1  C1  UNL     1     -34.518  15.349  -3.656  1.00 20.00     0.001 C 
HETATM    2  C2  UNL     1     -35.145  16.562  -4.339  1.00 20.00     0.005 C 
HETATM    3  C3  UNL     1     -33.649  14.472  -4.550  1.00 20.00     0.007 C 
HETATM    4  C4  UNL     1     -35.047  16.372  -6.869  1.00 20.00     0.005 C 
HETATM    5  C5  UNL     1     -33.983  15.279  -6.936  1.00 20.00     0.007 C 
HETATM    6  C6  UNL     1     -36.646  14.908  -5.597  1.00 20.00     0.036 C 
HETATM    7  C7  UNL     1     -35.939  16.272  -5.628  1.00 20.00    -0.012 C 
HETATM    8  C8  UNL     1     -34.219  14.132  -5.942  1.00 20.00     0.014 C 
HETATM    9  C9  UNL     1     -35.705  13.739  -5.932  1.00 20.00     0.122 C 
ENDROOT
BRANCH   9  10
HETATM   10  O10 UNL     1     -35.916  12.664  -5.021  1.00 20.00    -0.395 OA
HETATM   11  H26 UNL     1     -35.165  12.668  -4.408  1.00 20.00     0.210 HD
ENDBRANCH   9  10
TORSDOF 1
ENDMDL
MODEL 5
REMARK VINA RESULT:      -4.2      0.947      1.651
REMARK  1 active torsions:
REMARK  status: ('A' for Active; 'I' for Inactive)
REMARK    1  A    between atoms: C9_9  and  O10_10 
ROOT
HETATM    1  C1  UNL     1     -36.534  16.016  -5.600  1.00 20.00     0.001 C 
HETATM    2  C2  UNL     1     -35.348  16.519  -6.418  1.00 20.00     0.005 C 
HETATM    3  C3  UNL     1     -36.212  15.599  -4.169  1.00 20.00     0.007 C 
HETATM    4  C4  UNL     1     -33.133  15.907  -5.338  1.00 20.00     0.005 C 
HETATM    5  C5  UNL     1     -33.681  15.590  -3.949  1.00 20.00     0.007 C 
HETATM    6  C6  UNL     1     -34.500  14.100  -6.425  1.00 20.00     0.036 C 
HETATM    7  C7  UNL     1     -34.121  15.588  -6.465  1.00 20.00    -0.012 C 
HETATM    8  C8  UNL     1     -34.954  14.730  -3.974  1.00 20.00     0.014 C 
HETATM    9  C9  UNL     1     -34.807  13.598  -5.004  1.00 20.00     0.122 C 
ENDROOT
BRANCH   9  10
HETATM   10  O10 UNL     1     -35.983  12.795  -5.012  1.00 20.00    -0.395 OA
HETATM   11  H26 UNL     1     -36.728  13.393  -5.177  1.00 20.00     0.210 HD
ENDBRANCH   9  10
TORSDOF 1
ENDMDL
MODEL 6
REMARK VINA RESULT:      -4.2      1.147      2.743
REMARK  1 active torsions:
REMARK  status: ('A' for Active; 'I' for Inactive)
REMARK    1  A    between atoms: C9_9  and  O10_10 
ROOT
HETATM    1  C1  UNL     1     -33.288  15.282  -4.227  1.00 20.00     0.001 C 
HETATM    2  C2  UNL     1     -34.593  15.560  -3.486  1.00 20.00     0.005 C 
HETATM    3  C3  UNL     1     -33.223  15.810  -5.657  1.00 20.00     0.007 C 
HETATM    4  C4  UNL     1     -36.449  16.249  -5.076  1.00 20.00     0.005 C 
HETATM    5  C5  UNL     1     -35.559  16.600  -6.266  1.00 20.00     0.007 C 
HETATM    6  C6  UNL     1     -35.688  13.854  -5.056  1.00 20.00     0.036 C 
HETATM    7  C7  UNL     1     -35.882  15.120  -4.209  1.00 20.00    -0.012 C 
HETATM    8  C8  UNL     1     -34.462  15.559  -6.538  1.00 20.00     0.014 C 
HETATM    9  C9  UNL     1     -35.039  14.140  -6.420  1.00 20.00     0.122 C 
ENDROOT
BRANCH   9  10
HETATM   10  O10 UNL     1     -34.022  13.179  -6.690  1.00 20.00    -0.395 OA
HETATM   11  H26 UNL     1     -33.469  13.129  -5.894  1.00 20.00     0.210 HD
ENDBRANCH   9  10
TORSDOF 1
ENDMDL
MODEL 7
REMARK VINA RESULT:      -4.2      1.157      2.955
REMARK  1 active torsions:
REMARK  status: ('A' for Active; 'I' for Inactive)
REMARK    1  A    between atoms: C9_9  and  O10_10 
ROOT
HETATM    1  C1  UNL     1     -34.276  16.310  -2.909  1.00 20.00     0.001 C 
HETATM    2  C2  UNL     1     -35.765  16.122  -3.187  1.00 20.00     0.005 C 
HETATM    3  C3  UNL     1     -33.435  16.731  -4.109  1.00 20.00     0.007 C 
HETATM    4  C4  UNL     1     -36.244  15.959  -5.674  1.00 20.00     0.005 C 
HETATM    5  C5  UNL     1     -34.920  16.543  -6.161  1.00 20.00     0.007 C 
HETATM    6  C6  UNL     1     -35.113  14.033  -4.522  1.00 20.00     0.036 C 
HETATM    7  C7  UNL     1     -36.116  15.185  -4.359  1.00 20.00    -0.012 C 
HETATM    8  C8  UNL     1     -33.694  15.977  -5.428  1.00 20.00     0.014 C 
HETATM    9  C9  UNL     1     -33.833  14.455  -5.263  1.00 20.00     0.122 C 
ENDROOT
BRANCH   9  10
HETATM   10  O10 UNL     1     -32.687  13.933  -4.598  1.00 20.00    -0.395 OA
HETATM   11  H26 UNL     1     -32.811  14.108  -3.652  1.00 20.00     0.210 HD
ENDBRANCH   9  10
TORSDOF 1
ENDMDL
MODEL 8
REMARK VINA RESULT:      -4.1     11.536     13.060
REMARK  1 active torsions:
REMARK  status: ('A' for Active; 'I' for Inactive)
REMARK    1  A    between atoms: C9_9  and  O10_10 
ROOT
HETATM    1  C1  UNL     1     -43.322   6.123   1.566  1.00 20.00     0.001 C 
HETATM    2  C2  UNL     1     -43.416   7.492   0.897  1.00 20.00     0.005 C 
HETATM    3  C3  UNL     1     -41.988   5.403   1.398  1.00 20.00     0.007 C 
HETATM    4  C4  UNL     1     -41.554   7.842  -0.794  1.00 20.00     0.005 C 
HETATM    5  C5  UNL     1     -40.639   6.723  -0.303  1.00 20.00     0.007 C 
HETATM    6  C6  UNL     1     -43.416   6.245  -1.343  1.00 20.00     0.036 C 
HETATM    7  C7  UNL     1     -43.043   7.536  -0.598  1.00 20.00    -0.012 C 
HETATM    8  C8  UNL     1     -41.379   5.407  -0.018  1.00 20.00     0.014 C 
HETATM    9  C9  UNL     1     -42.392   5.117  -1.137  1.00 20.00     0.122 C 
ENDROOT
BRANCH   9  10
HETATM   10  O10 UNL     1     -43.063   3.888  -0.876  1.00 20.00    -0.395 OA
HETATM   11  H26 UNL     1     -43.854   4.107  -0.359  1.00 20.00     0.210 HD
ENDBRANCH   9  10
TORSDOF 1
ENDMDL
MODEL 9
REMARK VINA RESULT:      -4.0      1.477      2.819
REMARK  1 active torsions:
REMARK  status: ('A' for Active; 'I' for Inactive)
REMARK    1  A    between atoms: C9_9  and  O10_10 
ROOT
HETATM    1  C1  UNL     1     -35.513  14.000  -4.797  1.00 20.00     0.001 C 
HETATM    2  C2  UNL     1     -36.517  15.116  -4.519  1.00 20.00     0.005 C 
HETATM    3  C3  UNL     1     -34.207  14.087  -4.014  1.00 20.00     0.007 C 
HETATM    4  C4  UNL     1     -35.436  17.079  -3.327  1.00 20.00     0.005 C 
HETATM    5  C5  UNL     1     -34.180  16.348  -2.858  1.00 20.00     0.007 C 
HETATM    6  C6  UNL     1     -34.908  16.685  -5.752  1.00 20.00     0.036 C 
HETATM    7  C7  UNL     1     -35.980  16.553  -4.659  1.00 20.00    -0.012 C 
HETATM    8  C8  UNL     1     -33.538  15.474  -3.945  1.00 20.00     0.014 C 
HETATM    9  C9  UNL     1     -33.517  16.227  -5.285  1.00 20.00     0.122 C 
ENDROOT
BRANCH   9  10
HETATM   10  O10 UNL     1     -32.906  15.418  -6.286  1.00 20.00    -0.395 OA
HETATM   11  H26 UNL     1     -31.948  15.476  -6.144  1.00 20.00     0.210 HD
ENDBRANCH   9  10
TORSDOF 1
ENDMDL
