MODEL 1
REMARK VINA RESULT:      -6.4      0.000      0.000
REMARK  3 active torsions:
REMARK  status: ('A' for Active; 'I' for Inactive)
REMARK    1  A    between atoms: C1_1  and  C7_7 
REMARK    2  A    between atoms: C1_1  and  C9_9 
REMARK    3  A    between atoms: C8_8  and  C9_9 
ROOT
HETATM    1  C1  UNL     1     -32.274   7.968   2.649  1.00 20.00     0.131 C 
HETATM    2  O10 UNL     1     -31.394   8.456   3.355  1.00 20.00    -0.298 OA
ENDROOT
BRANCH   1   3
HETATM    3  C7  UNL     1     -32.815   8.713   1.456  1.00 20.00     0.055 A 
HETATM    4  C3  UNL     1     -32.567  10.176   1.374  1.00 20.00     0.013 A 
HETATM    5  C4  UNL     1     -31.843   9.234   0.460  1.00 20.00     0.013 A 
ENDBRANCH   1   3
BRANCH   1   6
HETATM    6  C9  UNL     1     -32.877   6.600   2.917  1.00 20.00     0.083 C 
BRANCH   6   7
HETATM    7  C8  UNL     1     -34.012   6.645   3.917  1.00 20.00    -0.008 C 
HETATM    8  C5  UNL     1     -33.642   7.036   5.371  1.00 20.00     0.005 C 
HETATM    9  C2  UNL     1     -34.699   6.014   5.837  1.00 20.00     0.001 C 
HETATM   10  C6  UNL     1     -34.483   5.285   4.495  1.00 20.00     0.005 C 
ENDBRANCH   6   7
ENDBRANCH   1   6
TORSDOF 3
ENDMDL
MODEL 2
REMARK VINA RESULT:      -6.3      0.708      1.330
REMARK  3 active torsions:
REMARK  status: ('A' for Active; 'I' for Inactive)
REMARK    1  A    between atoms: C1_1  and  C7_7 
REMARK    2  A    between atoms: C1_1  and  C9_9 
REMARK    3  A    between atoms: C8_8  and  C9_9 
ROOT
HETATM    1  C1  UNL     1     -32.061   8.304   2.469  1.00 20.00     0.131 C 
HETATM    2  O10 UNL     1     -31.201   8.256   3.347  1.00 20.00    -0.298 OA
ENDROOT
BRANCH   1   3
HETATM    3  C7  UNL     1     -31.846   9.109   1.215  1.00 20.00     0.055 A 
HETATM    4  C3  UNL     1     -32.958   9.181   0.231  1.00 20.00     0.013 A 
HETATM    5  C4  UNL     1     -32.606  10.377   1.062  1.00 20.00     0.013 A 
ENDBRANCH   1   3
BRANCH   1   6
HETATM    6  C9  UNL     1     -33.386   7.569   2.578  1.00 20.00     0.083 C 
BRANCH   6   7
HETATM    7  C8  UNL     1     -33.418   6.583   3.727  1.00 20.00    -0.008 C 
HETATM    8  C5  UNL     1     -34.677   5.684   3.837  1.00 20.00     0.005 C 
HETATM    9  C2  UNL     1     -34.550   5.822   5.369  1.00 20.00     0.001 C 
HETATM   10  C6  UNL     1     -33.807   7.151   5.117  1.00 20.00     0.005 C 
ENDBRANCH   6   7
ENDBRANCH   1   6
TORSDOF 3
ENDMDL
MODEL 3
REMARK VINA RESULT:      -6.2      1.199      4.794
REMARK  3 active torsions:
REMARK  status: ('A' for Active; 'I' for Inactive)
REMARK    1  A    between atoms: C1_1  and  C7_7 
REMARK    2  A    between atoms: C1_1  and  C9_9 
REMARK    3  A    between atoms: C8_8  and  C9_9 
ROOT
HETATM    1  C1  UNL     1     -33.128   6.721   3.314  1.00 20.00     0.131 C 
HETATM    2  O10 UNL     1     -33.056   5.608   2.795  1.00 20.00    -0.298 OA
ENDROOT
BRANCH   1   3
HETATM    3  C7  UNL     1     -34.142   7.012   4.390  1.00 20.00     0.055 A 
HETATM    4  C3  UNL     1     -34.343   5.995   5.455  1.00 20.00     0.013 A 
HETATM    5  C4  UNL     1     -33.643   7.284   5.763  1.00 20.00     0.013 A 
ENDBRANCH   1   3
BRANCH   1   6
HETATM    6  C9  UNL     1     -32.218   7.871   2.919  1.00 20.00     0.083 C 
BRANCH   6   7
HETATM    7  C8  UNL     1     -32.658   8.555   1.642  1.00 20.00    -0.008 C 
HETATM    8  C5  UNL     1     -31.550   8.862   0.601  1.00 20.00     0.005 C 
HETATM    9  C2  UNL     1     -32.306  10.172   0.294  1.00 20.00     0.001 C 
HETATM   10  C6  UNL     1     -32.890  10.087   1.719  1.00 20.00     0.005 C 
ENDBRANCH   6   7
ENDBRANCH   1   6
TORSDOF 3
ENDMDL
MODEL 4
REMARK VINA RESULT:      -6.0      1.285      4.621
REMARK  3 active torsions:
REMARK  status: ('A' for Active; 'I' for Inactive)
REMARK    1  A    between atoms: C1_1  and  C7_7 
REMARK    2  A    between atoms: C1_1  and  C9_9 
REMARK    3  A    between atoms: C8_8  and  C9_9 
ROOT
HETATM    1  C1  UNL     1     -32.958   7.370   3.950  1.00 20.00     0.131 C 
HETATM    2  O10 UNL     1     -33.033   7.545   5.165  1.00 20.00    -0.298 OA
ENDROOT
BRANCH   1   3
HETATM    3  C7  UNL     1     -33.883   6.412   3.245  1.00 20.00     0.055 A 
HETATM    4  C3  UNL     1     -33.354   5.074   2.873  1.00 20.00     0.013 A 
HETATM    5  C4  UNL     1     -34.345   5.212   3.990  1.00 20.00     0.013 A 
ENDBRANCH   1   3
BRANCH   1   6
HETATM    6  C9  UNL     1     -31.944   8.090   3.078  1.00 20.00     0.083 C 
BRANCH   6   7
HETATM    7  C8  UNL     1     -32.538   8.583   1.774  1.00 20.00    -0.008 C 
HETATM    8  C5  UNL     1     -31.550   8.797   0.598  1.00 20.00     0.005 C 
HETATM    9  C2  UNL     1     -32.400  10.023   0.205  1.00 20.00     0.001 C 
HETATM   10  C6  UNL     1     -32.843  10.100   1.680  1.00 20.00     0.005 C 
ENDBRANCH   6   7
ENDBRANCH   1   6
TORSDOF 3
ENDMDL
MODEL 5
REMARK VINA RESULT:      -5.9      1.086      4.774
REMARK  3 active torsions:
REMARK  status: ('A' for Active; 'I' for Inactive)
REMARK    1  A    between atoms: C1_1  and  C7_7 
REMARK    2  A    between atoms: C1_1  and  C9_9 
REMARK    3  A    between atoms: C8_8  and  C9_9 
ROOT
HETATM    1  C1  UNL     1     -33.400   6.987   4.006  1.00 20.00     0.131 C 
HETATM    2  O10 UNL     1     -32.905   7.623   4.936  1.00 20.00    -0.298 OA
ENDROOT
BRANCH   1   3
HETATM    3  C7  UNL     1     -34.579   6.076   4.229  1.00 20.00     0.055 A 
HETATM    4  C3  UNL     1     -34.331   4.611   4.271  1.00 20.00     0.013 A 
HETATM    5  C4  UNL     1     -34.669   5.357   5.526  1.00 20.00     0.013 A 
ENDBRANCH   1   3
BRANCH   1   6
HETATM    6  C9  UNL     1     -32.873   7.069   2.584  1.00 20.00     0.083 C 
BRANCH   6   7
HETATM    7  C8  UNL     1     -32.319   8.436   2.241  1.00 20.00    -0.008 C 
HETATM    8  C5  UNL     1     -33.312   9.452   1.620  1.00 20.00     0.005 C 
HETATM    9  C2  UNL     1     -32.143   9.944   0.741  1.00 20.00     0.001 C 
HETATM   10  C6  UNL     1     -31.514   8.547   0.920  1.00 20.00     0.005 C 
ENDBRANCH   6   7
ENDBRANCH   1   6
TORSDOF 3
ENDMDL
MODEL 6
REMARK VINA RESULT:      -5.8      1.483      1.877
REMARK  3 active torsions:
REMARK  status: ('A' for Active; 'I' for Inactive)
REMARK    1  A    between atoms: C1_1  and  C7_7 
REMARK    2  A    between atoms: C1_1  and  C9_9 
REMARK    3  A    between atoms: C8_8  and  C9_9 
ROOT
HETATM    1  C1  UNL     1     -33.274   6.513   2.730  1.00 20.00     0.131 C 
HETATM    2  O10 UNL     1     -32.439   5.617   2.613  1.00 20.00    -0.298 OA
ENDROOT
BRANCH   1   3
HETATM    3  C7  UNL     1     -32.860   7.961   2.761  1.00 20.00     0.055 A 
HETATM    4  C3  UNL     1     -31.509   8.291   3.284  1.00 20.00     0.013 A 
HETATM    5  C4  UNL     1     -31.800   8.403   1.818  1.00 20.00     0.013 A 
ENDBRANCH   1   3
BRANCH   1   6
HETATM    6  C9  UNL     1     -34.762   6.236   2.852  1.00 20.00     0.083 C 
BRANCH   6   7
HETATM    7  C8  UNL     1     -35.153   5.717   4.220  1.00 20.00    -0.008 C 
HETATM    8  C5  UNL     1     -34.391   6.313   5.432  1.00 20.00     0.005 C 
HETATM    9  C2  UNL     1     -34.452   4.908   6.066  1.00 20.00     0.001 C 
HETATM   10  C6  UNL     1     -34.563   4.344   4.635  1.00 20.00     0.005 C 
ENDBRANCH   6   7
ENDBRANCH   1   6
TORSDOF 3
ENDMDL
MODEL 7
REMARK VINA RESULT:      -5.5      1.498      4.882
REMARK  3 active torsions:
REMARK  status: ('A' for Active; 'I' for Inactive)
REMARK    1  A    between atoms: C1_1  and  C7_7 
REMARK    2  A    between atoms: C1_1  and  C9_9 
REMARK    3  A    between atoms: C8_8  and  C9_9 
ROOT
HETATM    1  C1  UNL     1     -33.818   6.005   3.380  1.00 20.00     0.131 C 
HETATM    2  O10 UNL     1     -33.406   5.136   2.613  1.00 20.00    -0.298 OA
ENDROOT
BRANCH   1   3
HETATM    3  C7  UNL     1     -34.858   5.691   4.424  1.00 20.00     0.055 A 
HETATM    4  C3  UNL     1     -34.581   4.585   5.377  1.00 20.00     0.013 A 
HETATM    5  C4  UNL     1     -34.543   6.010   5.840  1.00 20.00     0.013 A 
ENDBRANCH   1   3
BRANCH   1   6
HETATM    6  C9  UNL     1     -33.320   7.440   3.337  1.00 20.00     0.083 C 
BRANCH   6   7
HETATM    7  C8  UNL     1     -32.539   7.752   2.078  1.00 20.00    -0.008 C 
HETATM    8  C5  UNL     1     -31.370   8.761   2.218  1.00 20.00     0.005 C 
HETATM    9  C2  UNL     1     -31.758   9.291   0.822  1.00 20.00     0.001 C 
HETATM   10  C6  UNL     1     -33.182   8.767   1.096  1.00 20.00     0.005 C 
ENDBRANCH   6   7
ENDBRANCH   1   6
TORSDOF 3
ENDMDL
MODEL 8
REMARK VINA RESULT:      -4.6     10.771     11.542
REMARK  3 active torsions:
REMARK  status: ('A' for Active; 'I' for Inactive)
REMARK    1  A    between atoms: C1_1  and  C7_7 
REMARK    2  A    between atoms: C1_1  and  C9_9 
REMARK    3  A    between atoms: C8_8  and  C9_9 
ROOT
HETATM    1  C1  UNL     1     -32.133  18.656  -0.207  1.00 20.00     0.131 C 
HETATM    2  O10 UNL     1     -30.983  18.222  -0.249  1.00 20.00    -0.298 OA
ENDROOT
BRANCH   1   3
HETATM    3  C7  UNL     1     -32.690  19.263   1.054  1.00 20.00     0.055 A 
HETATM    4  C3  UNL     1     -33.805  18.556   1.737  1.00 20.00     0.013 A 
HETATM    5  C4  UNL     1     -32.432  18.560   2.338  1.00 20.00     0.013 A 
ENDBRANCH   1   3
BRANCH   1   6
HETATM    6  C9  UNL     1     -33.069  18.617  -1.403  1.00 20.00     0.083 C 
BRANCH   6   7
HETATM    7  C8  UNL     1     -33.530  17.214  -1.741  1.00 20.00    -0.008 C 
HETATM    8  C5  UNL     1     -33.698  16.882  -3.246  1.00 20.00     0.005 C 
HETATM    9  C2  UNL     1     -34.922  16.032  -2.845  1.00 20.00     0.001 C 
HETATM   10  C6  UNL     1     -35.047  16.929  -1.597  1.00 20.00     0.005 C 
ENDBRANCH   6   7
ENDBRANCH   1   6
TORSDOF 3
ENDMDL
MODEL 9
REMARK VINA RESULT:      -4.5     10.717     11.454
REMARK  3 active torsions:
REMARK  status: ('A' for Active; 'I' for Inactive)
REMARK    1  A    between atoms: C1_1  and  C7_7 
REMARK    2  A    between atoms: C1_1  and  C9_9 
REMARK    3  A    between atoms: C8_8  and  C9_9 
ROOT
HETATM    1  C1  UNL     1     -35.340  13.901  -5.325  1.00 20.00     0.131 C 
HETATM    2  O10 UNL     1     -35.945  12.844  -5.155  1.00 20.00    -0.298 OA
ENDROOT
BRANCH   1   3
HETATM    3  C7  UNL     1     -34.209  13.999  -6.315  1.00 20.00     0.055 A 
HETATM    4  C3  UNL     1     -34.528  13.841  -7.759  1.00 20.00     0.013 A 
HETATM    5  C4  UNL     1     -34.164  15.187  -7.207  1.00 20.00     0.013 A 
ENDBRANCH   1   3
BRANCH   1   6
HETATM    6  C9  UNL     1     -35.678  15.171  -4.563  1.00 20.00     0.083 C 
BRANCH   6   7
HETATM    7  C8  UNL     1     -34.701  15.461  -3.443  1.00 20.00    -0.008 C 
HETATM    8  C5  UNL     1     -35.190  16.418  -2.325  1.00 20.00     0.005 C 
HETATM    9  C2  UNL     1     -33.752  16.975  -2.276  1.00 20.00     0.001 C 
HETATM   10  C6  UNL     1     -33.597  16.509  -3.739  1.00 20.00     0.005 C 
ENDBRANCH   6   7
ENDBRANCH   1   6
TORSDOF 3
ENDMDL
