MODEL 1
REMARK VINA RESULT:      -4.1      0.000      0.000
REMARK  2 active torsions:
REMARK  status: ('A' for Active; 'I' for Inactive)
REMARK    1  A    between atoms: C1_1  and  C2_2 
REMARK    2  A    between atoms: C2_2  and  O3_3 
ROOT
HETATM    1  C2  UNL     1     -34.310   5.751   4.014  1.00 20.00     0.226 C 
HETATM    2 CL5  UNL     1     -33.336   4.811   2.855  1.00 20.00    -0.070 Cl
HETATM    3 CL6  UNL     1     -34.488   4.802   5.518  1.00 20.00    -0.070 Cl
ENDROOT
BRANCH   1   4
HETATM    4  C1  UNL     1     -33.668   7.097   4.344  1.00 20.00     0.187 C 
HETATM    5 CL4  UNL     1     -33.658   7.441   6.098  1.00 20.00    -0.125 Cl
ENDBRANCH   1   4
BRANCH   1   6
HETATM    6  O3  UNL     1     -35.607   5.953   3.472  1.00 20.00    -0.361 OA
HETATM    7  H9  UNL     1     -36.120   6.420   4.153  1.00 20.00     0.213 HD
ENDBRANCH   1   6
TORSDOF 2
ENDMDL
MODEL 2
REMARK VINA RESULT:      -4.1      1.245      1.282
REMARK  2 active torsions:
REMARK  status: ('A' for Active; 'I' for Inactive)
REMARK    1  A    between atoms: C1_1  and  C2_2 
REMARK    2  A    between atoms: C2_2  and  O3_3 
ROOT
HETATM    1  C2  UNL     1     -34.499   5.574   4.325  1.00 20.00     0.226 C 
HETATM    2 CL5  UNL     1     -33.361   6.462   3.279  1.00 20.00    -0.070 Cl
HETATM    3 CL6  UNL     1     -34.129   3.829   4.225  1.00 20.00    -0.070 Cl
ENDROOT
BRANCH   1   4
HETATM    4  C1  UNL     1     -34.410   6.023   5.782  1.00 20.00     0.187 C 
HETATM    5 CL4  UNL     1     -33.481   7.537   5.978  1.00 20.00    -0.125 Cl
ENDBRANCH   1   4
BRANCH   1   6
HETATM    6  O3  UNL     1     -35.820   5.766   3.839  1.00 20.00    -0.361 OA
HETATM    7  H9  UNL     1     -36.058   6.686   4.046  1.00 20.00     0.213 HD
ENDBRANCH   1   6
TORSDOF 2
ENDMDL
MODEL 3
REMARK VINA RESULT:      -4.1      1.460      1.821
REMARK  2 active torsions:
REMARK  status: ('A' for Active; 'I' for Inactive)
REMARK    1  A    between atoms: C1_1  and  C2_2 
REMARK    2  A    between atoms: C2_2  and  O3_3 
ROOT
HETATM    1  C2  UNL     1     -34.426   5.689   4.157  1.00 20.00     0.226 C 
HETATM    2 CL5  UNL     1     -34.160   3.985   4.606  1.00 20.00    -0.070 Cl
HETATM    3 CL6  UNL     1     -34.074   6.718   5.576  1.00 20.00    -0.070 Cl
ENDROOT
BRANCH   1   4
HETATM    4  C1  UNL     1     -33.540   6.122   2.992  1.00 20.00     0.187 C 
HETATM    5 CL4  UNL     1     -32.469   7.488   3.415  1.00 20.00    -0.125 Cl
ENDBRANCH   1   4
BRANCH   1   6
HETATM    6  O3  UNL     1     -35.794   5.869   3.819  1.00 20.00    -0.361 OA
HETATM    7  H9  UNL     1     -36.123   5.000   3.534  1.00 20.00     0.213 HD
ENDBRANCH   1   6
TORSDOF 2
ENDMDL
MODEL 4
REMARK VINA RESULT:      -3.6      1.300      2.980
REMARK  2 active torsions:
REMARK  status: ('A' for Active; 'I' for Inactive)
REMARK    1  A    between atoms: C1_1  and  C2_2 
REMARK    2  A    between atoms: C2_2  and  O3_3 
ROOT
HETATM    1  C2  UNL     1     -34.523   5.797   4.258  1.00 20.00     0.226 C 
HETATM    2 CL5  UNL     1     -34.429   6.099   6.012  1.00 20.00    -0.070 Cl
HETATM    3 CL6  UNL     1     -33.619   7.080   3.404  1.00 20.00    -0.070 Cl
ENDROOT
BRANCH   1   4
HETATM    4  C1  UNL     1     -33.943   4.437   3.878  1.00 20.00     0.187 C 
HETATM    5 CL4  UNL     1     -32.851   4.527   2.466  1.00 20.00    -0.125 Cl
ENDBRANCH   1   4
BRANCH   1   6
HETATM    6  O3  UNL     1     -35.881   5.876   3.848  1.00 20.00    -0.361 OA
HETATM    7  H9  UNL     1     -35.870   6.104   2.903  1.00 20.00     0.213 HD
ENDBRANCH   1   6
TORSDOF 2
ENDMDL
MODEL 5
REMARK VINA RESULT:      -3.6      1.909      2.590
REMARK  2 active torsions:
REMARK  status: ('A' for Active; 'I' for Inactive)
REMARK    1  A    between atoms: C1_1  and  C2_2 
REMARK    2  A    between atoms: C2_2  and  O3_3 
ROOT
HETATM    1  C2  UNL     1     -34.520   5.453   4.253  1.00 20.00     0.226 C 
HETATM    2 CL5  UNL     1     -34.082   6.431   5.677  1.00 20.00    -0.070 Cl
HETATM    3 CL6  UNL     1     -35.965   6.172   3.484  1.00 20.00    -0.070 Cl
ENDROOT
BRANCH   1   4
HETATM    4  C1  UNL     1     -33.389   5.389   3.230  1.00 20.00     0.187 C 
HETATM    5 CL4  UNL     1     -32.623   6.979   2.953  1.00 20.00    -0.125 Cl
ENDBRANCH   1   4
BRANCH   1   6
HETATM    6  O3  UNL     1     -34.863   4.142   4.680  1.00 20.00    -0.361 OA
HETATM    7  H9  UNL     1     -35.092   3.643   3.878  1.00 20.00     0.213 HD
ENDBRANCH   1   6
TORSDOF 2
ENDMDL
MODEL 6
REMARK VINA RESULT:      -3.6      1.774      2.113
REMARK  2 active torsions:
REMARK  status: ('A' for Active; 'I' for Inactive)
REMARK    1  A    between atoms: C1_1  and  C2_2 
REMARK    2  A    between atoms: C2_2  and  O3_3 
ROOT
HETATM    1  C2  UNL     1     -34.470   5.387   4.314  1.00 20.00     0.226 C 
HETATM    2 CL5  UNL     1     -35.950   6.002   3.535  1.00 20.00    -0.070 Cl
HETATM    3 CL6  UNL     1     -33.054   5.937   3.372  1.00 20.00    -0.070 Cl
ENDROOT
BRANCH   1   4
HETATM    4  C1  UNL     1     -34.334   5.874   5.754  1.00 20.00     0.187 C 
HETATM    5 CL4  UNL     1     -33.477   7.438   5.873  1.00 20.00    -0.125 Cl
ENDBRANCH   1   4
BRANCH   1   6
HETATM    6  O3  UNL     1     -34.487   3.967   4.282  1.00 20.00    -0.361 OA
HETATM    7  H9  UNL     1     -34.388   3.712   3.349  1.00 20.00     0.213 HD
ENDBRANCH   1   6
TORSDOF 2
ENDMDL
MODEL 7
REMARK VINA RESULT:      -3.5      1.517      1.914
REMARK  2 active torsions:
REMARK  status: ('A' for Active; 'I' for Inactive)
REMARK    1  A    between atoms: C1_1  and  C2_2 
REMARK    2  A    between atoms: C2_2  and  O3_3 
ROOT
HETATM    1  C2  UNL     1     -34.242   5.707   4.101  1.00 20.00     0.226 C 
HETATM    2 CL5  UNL     1     -34.445   4.732   5.580  1.00 20.00    -0.070 Cl
HETATM    3 CL6  UNL     1     -35.857   6.092   3.440  1.00 20.00    -0.070 Cl
ENDROOT
BRANCH   1   4
HETATM    4  C1  UNL     1     -33.488   7.007   4.371  1.00 20.00     0.187 C 
HETATM    5 CL4  UNL     1     -33.579   7.512   6.083  1.00 20.00    -0.125 Cl
ENDBRANCH   1   4
BRANCH   1   6
HETATM    6  O3  UNL     1     -33.547   4.937   3.131  1.00 20.00    -0.361 OA
HETATM    7  H9  UNL     1     -34.226   4.529   2.567  1.00 20.00     0.213 HD
ENDBRANCH   1   6
TORSDOF 2
ENDMDL
MODEL 8
REMARK VINA RESULT:      -3.4      1.786      1.832
REMARK  2 active torsions:
REMARK  status: ('A' for Active; 'I' for Inactive)
REMARK    1  A    between atoms: C1_1  and  C2_2 
REMARK    2  A    between atoms: C2_2  and  O3_3 
ROOT
HETATM    1  C2  UNL     1     -34.356   5.624   4.328  1.00 20.00     0.226 C 
HETATM    2 CL5  UNL     1     -34.133   3.859   4.215  1.00 20.00    -0.070 Cl
HETATM    3 CL6  UNL     1     -35.889   6.063   3.520  1.00 20.00    -0.070 Cl
ENDROOT
BRANCH   1   4
HETATM    4  C1  UNL     1     -34.397   6.106   5.776  1.00 20.00     0.187 C 
HETATM    5 CL4  UNL     1     -33.436   7.592   6.032  1.00 20.00    -0.125 Cl
ENDBRANCH   1   4
BRANCH   1   6
HETATM    6  O3  UNL     1     -33.299   6.269   3.632  1.00 20.00    -0.361 OA
HETATM    7  H9  UNL     1     -32.928   6.928   4.244  1.00 20.00     0.213 HD
ENDBRANCH   1   6
TORSDOF 2
ENDMDL
MODEL 9
REMARK VINA RESULT:      -3.3      2.097      2.246
REMARK  2 active torsions:
REMARK  status: ('A' for Active; 'I' for Inactive)
REMARK    1  A    between atoms: C1_1  and  C2_2 
REMARK    2  A    between atoms: C2_2  and  O3_3 
ROOT
HETATM    1  C2  UNL     1     -34.231   5.752   4.053  1.00 20.00     0.226 C 
HETATM    2 CL5  UNL     1     -35.894   6.125   3.528  1.00 20.00    -0.070 Cl
HETATM    3 CL6  UNL     1     -34.158   4.037   4.552  1.00 20.00    -0.070 Cl
ENDROOT
BRANCH   1   4
HETATM    4  C1  UNL     1     -33.211   5.996   2.945  1.00 20.00     0.187 C 
HETATM    5 CL4  UNL     1     -32.287   7.508   3.182  1.00 20.00    -0.125 Cl
ENDBRANCH   1   4
BRANCH   1   6
HETATM    6  O3  UNL     1     -33.916   6.548   5.187  1.00 20.00    -0.361 OA
HETATM    7  H9  UNL     1     -34.565   6.319   5.873  1.00 20.00     0.213 HD
ENDBRANCH   1   6
TORSDOF 2
ENDMDL
