MODEL 1
REMARK VINA RESULT:      -5.4      0.000      0.000
REMARK  5 active torsions:
REMARK  status: ('A' for Active; 'I' for Inactive)
REMARK    1  A    between atoms: C3_3  and  C8_8 
REMARK    2  A    between atoms: C6_6  and  C7_7 
REMARK    3  A    between atoms: C7_7  and  C9_9 
REMARK    4  A    between atoms: C8_8  and  C9_9 
REMARK    5  A    between atoms: C8_8  and  O10_10 
ROOT
HETATM    1  C8  UNL     1     -32.329   8.273   3.395  1.00 20.00     0.126 C 
ENDROOT
BRANCH   1   2
HETATM    2  C3  UNL     1     -32.577   8.284   1.913  1.00 20.00     0.015 A 
HETATM    3  C1  UNL     1     -32.681   9.589   1.173  1.00 20.00     0.007 A 
HETATM    4  C2  UNL     1     -31.486   8.701   0.967  1.00 20.00     0.007 A 
ENDBRANCH   1   2
BRANCH   1   5
HETATM    5  C9  UNL     1     -33.017   7.116   4.158  1.00 20.00     0.011 C 
HETATM    6  C5  UNL     1     -33.512   7.535   5.549  1.00 20.00     0.012 C 
BRANCH   5   7
HETATM    7  C7  UNL     1     -34.142   6.487   3.309  1.00 20.00     0.006 C 
BRANCH   7   8
HETATM    8  C6  UNL     1     -35.073   5.576   4.115  1.00 20.00    -0.004 C 
HETATM    9  C4  UNL     1     -34.399   4.255   4.454  1.00 20.00     0.005 C 
ENDBRANCH   7   8
ENDBRANCH   5   7
ENDBRANCH   1   5
BRANCH   1  10
HETATM   10  O10 UNL     1     -30.922   8.203   3.633  1.00 20.00    -0.395 OA
HETATM   11  H28 UNL     1     -30.556   9.055   3.353  1.00 20.00     0.210 HD
ENDBRANCH   1  10
TORSDOF 5
ENDMDL
MODEL 2
REMARK VINA RESULT:      -5.3      0.939      1.511
REMARK  5 active torsions:
REMARK  status: ('A' for Active; 'I' for Inactive)
REMARK    1  A    between atoms: C3_3  and  C8_8 
REMARK    2  A    between atoms: C6_6  and  C7_7 
REMARK    3  A    between atoms: C7_7  and  C9_9 
REMARK    4  A    between atoms: C8_8  and  C9_9 
REMARK    5  A    between atoms: C8_8  and  O10_10 
ROOT
HETATM    1  C8  UNL     1     -32.610   8.401   2.924  1.00 20.00     0.126 C 
ENDROOT
BRANCH   1   2
HETATM    2  C3  UNL     1     -32.585   8.458   1.424  1.00 20.00     0.015 A 
HETATM    3  C1  UNL     1     -32.630   9.783   0.715  1.00 20.00     0.007 A 
HETATM    4  C2  UNL     1     -31.366   8.969   0.706  1.00 20.00     0.007 A 
ENDBRANCH   1   2
BRANCH   1   5
HETATM    5  C9  UNL     1     -33.510   7.291   3.515  1.00 20.00     0.011 C 
HETATM    6  C5  UNL     1     -33.425   5.977   2.727  1.00 20.00     0.012 C 
BRANCH   5   7
HETATM    7  C7  UNL     1     -33.218   7.084   5.017  1.00 20.00     0.006 C 
BRANCH   7   8
HETATM    8  C6  UNL     1     -34.424   6.561   5.803  1.00 20.00    -0.004 C 
HETATM    9  C4  UNL     1     -34.534   5.046   5.705  1.00 20.00     0.005 C 
ENDBRANCH   7   8
ENDBRANCH   5   7
ENDBRANCH   1   5
BRANCH   1  10
HETATM   10  O10 UNL     1     -31.278   8.214   3.407  1.00 20.00    -0.395 OA
HETATM   11  H28 UNL     1     -31.254   7.329   3.801  1.00 20.00     0.210 HD
ENDBRANCH   1  10
TORSDOF 5
ENDMDL
MODEL 3
REMARK VINA RESULT:      -5.2      1.020      1.813
REMARK  5 active torsions:
REMARK  status: ('A' for Active; 'I' for Inactive)
REMARK    1  A    between atoms: C3_3  and  C8_8 
REMARK    2  A    between atoms: C6_6  and  C7_7 
REMARK    3  A    between atoms: C7_7  and  C9_9 
REMARK    4  A    between atoms: C8_8  and  C9_9 
REMARK    5  A    between atoms: C8_8  and  O10_10 
ROOT
HETATM    1  C8  UNL     1     -33.059   7.660   2.708  1.00 20.00     0.126 C 
ENDROOT
BRANCH   1   2
HETATM    2  C3  UNL     1     -32.830   8.282   1.361  1.00 20.00     0.015 A 
HETATM    3  C1  UNL     1     -32.639   9.768   1.234  1.00 20.00     0.007 A 
HETATM    4  C2  UNL     1     -31.480   8.839   1.005  1.00 20.00     0.007 A 
ENDBRANCH   1   2
BRANCH   1   5
HETATM    5  C9  UNL     1     -33.828   6.317   2.680  1.00 20.00     0.011 C 
HETATM    6  C5  UNL     1     -32.898   5.100   2.776  1.00 20.00     0.012 C 
BRANCH   5   7
HETATM    7  C7  UNL     1     -34.931   6.289   3.758  1.00 20.00     0.006 C 
BRANCH   7   8
HETATM    8  C6  UNL     1     -34.436   5.795   5.121  1.00 20.00    -0.004 C 
HETATM    9  C4  UNL     1     -33.994   6.954   6.003  1.00 20.00     0.005 C 
ENDBRANCH   7   8
ENDBRANCH   5   7
ENDBRANCH   1   5
BRANCH   1  10
HETATM   10  O10 UNL     1     -31.799   7.449   3.347  1.00 20.00    -0.395 OA
HETATM   11  H28 UNL     1     -31.872   7.842   4.229  1.00 20.00     0.210 HD
ENDBRANCH   1  10
TORSDOF 5
ENDMDL
MODEL 4
REMARK VINA RESULT:      -5.2      1.365      4.435
REMARK  5 active torsions:
REMARK  status: ('A' for Active; 'I' for Inactive)
REMARK    1  A    between atoms: C3_3  and  C8_8 
REMARK    2  A    between atoms: C6_6  and  C7_7 
REMARK    3  A    between atoms: C7_7  and  C9_9 
REMARK    4  A    between atoms: C8_8  and  C9_9 
REMARK    5  A    between atoms: C8_8  and  O10_10 
ROOT
HETATM    1  C8  UNL     1     -33.322   6.774   2.770  1.00 20.00     0.126 C 
ENDROOT
BRANCH   1   2
HETATM    2  C3  UNL     1     -34.179   6.560   3.985  1.00 20.00     0.015 A 
HETATM    3  C1  UNL     1     -35.534   5.920   3.853  1.00 20.00     0.007 A 
HETATM    4  C2  UNL     1     -34.409   5.171   4.513  1.00 20.00     0.007 A 
ENDBRANCH   1   2
BRANCH   1   5
HETATM    5  C9  UNL     1     -32.530   8.103   2.762  1.00 20.00     0.011 C 
HETATM    6  C5  UNL     1     -31.483   8.176   3.882  1.00 20.00     0.012 C 
BRANCH   5   7
HETATM    7  C7  UNL     1     -31.911   8.369   1.373  1.00 20.00     0.006 C 
BRANCH   7   8
HETATM    8  C6  UNL     1     -32.372   9.688   0.746  1.00 20.00    -0.004 C 
HETATM    9  C4  UNL     1     -33.180   9.446  -0.521  1.00 20.00     0.005 C 
ENDBRANCH   7   8
ENDBRANCH   5   7
ENDBRANCH   1   5
BRANCH   1  10
HETATM   10  O10 UNL     1     -32.397   5.691   2.654  1.00 20.00    -0.395 OA
HETATM   11  H28 UNL     1     -31.879   5.861   1.853  1.00 20.00     0.210 HD
ENDBRANCH   1  10
TORSDOF 5
ENDMDL
MODEL 5
REMARK VINA RESULT:      -4.9      1.206      4.428
REMARK  5 active torsions:
REMARK  status: ('A' for Active; 'I' for Inactive)
REMARK    1  A    between atoms: C3_3  and  C8_8 
REMARK    2  A    between atoms: C6_6  and  C7_7 
REMARK    3  A    between atoms: C7_7  and  C9_9 
REMARK    4  A    between atoms: C8_8  and  C9_9 
REMARK    5  A    between atoms: C8_8  and  O10_10 
ROOT
HETATM    1  C8  UNL     1     -32.495   7.256   4.075  1.00 20.00     0.126 C 
ENDROOT
BRANCH   1   2
HETATM    2  C3  UNL     1     -33.851   7.204   4.718  1.00 20.00     0.015 A 
HETATM    3  C1  UNL     1     -34.312   5.954   5.415  1.00 20.00     0.007 A 
HETATM    4  C2  UNL     1     -33.978   7.182   6.216  1.00 20.00     0.007 A 
ENDBRANCH   1   2
BRANCH   1   5
HETATM    5  C9  UNL     1     -32.512   7.319   2.529  1.00 20.00     0.011 C 
HETATM    6  C5  UNL     1     -33.616   6.449   1.913  1.00 20.00     0.012 C 
BRANCH   5   7
HETATM    7  C7  UNL     1     -32.585   8.780   2.037  1.00 20.00     0.006 C 
BRANCH   7   8
HETATM    8  C6  UNL     1     -31.956   8.988   0.656  1.00 20.00    -0.004 C 
HETATM    9  C4  UNL     1     -32.985   9.471  -0.354  1.00 20.00     0.005 C 
ENDBRANCH   7   8
ENDBRANCH   5   7
ENDBRANCH   1   5
BRANCH   1  10
HETATM   10  O10 UNL     1     -31.786   8.394   4.570  1.00 20.00    -0.395 OA
HETATM   11  H28 UNL     1     -32.323   8.756   5.289  1.00 20.00     0.210 HD
ENDBRANCH   1  10
TORSDOF 5
ENDMDL
MODEL 6
REMARK VINA RESULT:      -4.9      1.286      4.368
REMARK  5 active torsions:
REMARK  status: ('A' for Active; 'I' for Inactive)
REMARK    1  A    between atoms: C3_3  and  C8_8 
REMARK    2  A    between atoms: C6_6  and  C7_7 
REMARK    3  A    between atoms: C7_7  and  C9_9 
REMARK    4  A    between atoms: C8_8  and  C9_9 
REMARK    5  A    between atoms: C8_8  and  O10_10 
ROOT
HETATM    1  C8  UNL     1     -33.167   6.997   4.354  1.00 20.00     0.126 C 
ENDROOT
BRANCH   1   2
HETATM    2  C3  UNL     1     -34.159   6.124   3.640  1.00 20.00     0.015 A 
HETATM    3  C1  UNL     1     -33.996   4.629   3.647  1.00 20.00     0.007 A 
HETATM    4  C2  UNL     1     -35.114   5.267   4.423  1.00 20.00     0.007 A 
ENDBRANCH   1   2
BRANCH   1   5
HETATM    5  C9  UNL     1     -32.576   8.141   3.496  1.00 20.00     0.011 C 
HETATM    6  C5  UNL     1     -31.092   8.399   3.793  1.00 20.00     0.012 C 
BRANCH   5   7
HETATM    7  C7  UNL     1     -32.830   7.893   1.994  1.00 20.00     0.006 C 
BRANCH   7   8
HETATM    8  C6  UNL     1     -32.064   8.856   1.082  1.00 20.00    -0.004 C 
HETATM    9  C4  UNL     1     -32.735  10.221   1.029  1.00 20.00     0.005 C 
ENDBRANCH   7   8
ENDBRANCH   5   7
ENDBRANCH   1   5
BRANCH   1  10
HETATM   10  O10 UNL     1     -33.790   7.567   5.506  1.00 20.00    -0.395 OA
HETATM   11  H28 UNL     1     -33.968   8.494   5.289  1.00 20.00     0.210 HD
ENDBRANCH   1  10
TORSDOF 5
ENDMDL
MODEL 7
REMARK VINA RESULT:      -4.4      1.501      2.336
REMARK  5 active torsions:
REMARK  status: ('A' for Active; 'I' for Inactive)
REMARK    1  A    between atoms: C3_3  and  C8_8 
REMARK    2  A    between atoms: C6_6  and  C7_7 
REMARK    3  A    between atoms: C7_7  and  C9_9 
REMARK    4  A    between atoms: C8_8  and  C9_9 
REMARK    5  A    between atoms: C8_8  and  O10_10 
ROOT
HETATM    1  C8  UNL     1     -33.661   7.437   4.678  1.00 20.00     0.126 C 
ENDROOT
BRANCH   1   2
HETATM    2  C3  UNL     1     -32.668   7.244   3.568  1.00 20.00     0.015 A 
HETATM    3  C1  UNL     1     -32.689   8.149   2.367  1.00 20.00     0.007 A 
HETATM    4  C2  UNL     1     -31.563   8.242   3.359  1.00 20.00     0.007 A 
ENDBRANCH   1   2
BRANCH   1   5
HETATM    5  C9  UNL     1     -34.695   6.295   4.829  1.00 20.00     0.011 C 
HETATM    6  C5  UNL     1     -35.594   6.143   3.594  1.00 20.00     0.012 C 
BRANCH   5   7
HETATM    7  C7  UNL     1     -34.002   4.969   5.206  1.00 20.00     0.006 C 
BRANCH   7   8
HETATM    8  C6  UNL     1     -34.123   3.892   4.124  1.00 20.00    -0.004 C 
HETATM    9  C4  UNL     1     -33.102   4.102   3.016  1.00 20.00     0.005 C 
ENDBRANCH   7   8
ENDBRANCH   5   7
ENDBRANCH   1   5
BRANCH   1  10
HETATM   10  O10 UNL     1     -32.959   7.582   5.914  1.00 20.00    -0.395 OA
HETATM   11  H28 UNL     1     -32.018   7.620   5.689  1.00 20.00     0.210 HD
ENDBRANCH   1  10
TORSDOF 5
ENDMDL
MODEL 8
REMARK VINA RESULT:      -4.3     10.550     11.647
REMARK  5 active torsions:
REMARK  status: ('A' for Active; 'I' for Inactive)
REMARK    1  A    between atoms: C3_3  and  C8_8 
REMARK    2  A    between atoms: C6_6  and  C7_7 
REMARK    3  A    between atoms: C7_7  and  C9_9 
REMARK    4  A    between atoms: C8_8  and  C9_9 
REMARK    5  A    between atoms: C8_8  and  O10_10 
ROOT
HETATM    1  C8  UNL     1     -35.713  14.166  -4.947  1.00 20.00     0.126 C 
ENDROOT
BRANCH   1   2
HETATM    2  C3  UNL     1     -37.010  14.874  -4.677  1.00 20.00     0.015 A 
HETATM    3  C1  UNL     1     -37.643  15.728  -5.740  1.00 20.00     0.007 A 
HETATM    4  C2  UNL     1     -38.275  14.420  -5.352  1.00 20.00     0.007 A 
ENDBRANCH   1   2
BRANCH   1   5
HETATM    5  C9  UNL     1     -34.580  14.485  -3.943  1.00 20.00     0.011 C 
HETATM    6  C5  UNL     1     -33.195  14.521  -4.604  1.00 20.00     0.012 C 
BRANCH   5   7
HETATM    7  C7  UNL     1     -34.882  15.781  -3.162  1.00 20.00     0.006 C 
BRANCH   7   8
HETATM    8  C6  UNL     1     -33.647  16.658  -2.939  1.00 20.00    -0.004 C 
HETATM    9  C4  UNL     1     -33.692  17.345  -1.583  1.00 20.00     0.005 C 
ENDBRANCH   7   8
ENDBRANCH   5   7
ENDBRANCH   1   5
BRANCH   1  10
HETATM   10  O10 UNL     1     -35.941  12.756  -4.945  1.00 20.00    -0.395 OA
HETATM   11  H28 UNL     1     -35.398  12.391  -5.659  1.00 20.00     0.210 HD
ENDBRANCH   1  10
TORSDOF 5
ENDMDL
MODEL 9
REMARK VINA RESULT:      -4.3      2.172      4.580
REMARK  5 active torsions:
REMARK  status: ('A' for Active; 'I' for Inactive)
REMARK    1  A    between atoms: C3_3  and  C8_8 
REMARK    2  A    between atoms: C6_6  and  C7_7 
REMARK    3  A    between atoms: C7_7  and  C9_9 
REMARK    4  A    between atoms: C8_8  and  C9_9 
REMARK    5  A    between atoms: C8_8  and  O10_10 
ROOT
HETATM    1  C8  UNL     1     -34.544   5.545   3.756  1.00 20.00     0.126 C 
ENDROOT
BRANCH   1   2
HETATM    2  C3  UNL     1     -34.778   6.519   4.875  1.00 20.00     0.015 A 
HETATM    3  C1  UNL     1     -34.394   6.161   6.284  1.00 20.00     0.007 A 
HETATM    4  C2  UNL     1     -33.616   7.207   5.535  1.00 20.00     0.007 A 
ENDBRANCH   1   2
BRANCH   1   5
HETATM    5  C9  UNL     1     -33.197   5.722   3.015  1.00 20.00     0.011 C 
HETATM    6  C5  UNL     1     -32.759   4.453   2.271  1.00 20.00     0.012 C 
BRANCH   5   7
HETATM    7  C7  UNL     1     -33.236   6.953   2.086  1.00 20.00     0.006 C 
BRANCH   7   8
HETATM    8  C6  UNL     1     -32.127   7.968   2.376  1.00 20.00    -0.004 C 
HETATM    9  C4  UNL     1     -32.155   9.119   1.381  1.00 20.00     0.005 C 
ENDBRANCH   7   8
ENDBRANCH   5   7
ENDBRANCH   1   5
BRANCH   1  10
HETATM   10  O10 UNL     1     -34.608   4.214   4.274  1.00 20.00    -0.395 OA
HETATM   11  H28 UNL     1     -33.792   3.774   3.993  1.00 20.00     0.210 HD
ENDBRANCH   1  10
TORSDOF 5
ENDMDL
