MODEL 1
REMARK VINA RESULT:      -5.8      0.000      0.000
REMARK  3 active torsions:
REMARK  status: ('A' for Active; 'I' for Inactive)
REMARK    1  A    between atoms: C2_2  and  C5_5 
REMARK    2  A    between atoms: C2_2  and  C8_8 
REMARK    3  A    between atoms: C7_7  and  C8_8 
ROOT
HETATM    1  C1  UNL     1     -33.300   5.723   3.020  1.00 20.00     0.071 C 
HETATM    2  C8  UNL     1     -33.492   7.120   3.450  1.00 20.00     0.162 C 
HETATM    3  N9  UNL     1     -33.152   4.624   2.679  1.00 20.00    -0.196 NA
ENDROOT
BRANCH   2   4
HETATM    4  C2  UNL     1     -32.432   8.033   2.853  1.00 20.00     0.148 C 
HETATM    5  O10 UNL     1     -31.385   8.335   3.412  1.00 20.00    -0.296 OA
BRANCH   4   6
HETATM    6  C5  UNL     1     -32.729   8.581   1.495  1.00 20.00     0.057 A 
HETATM    7  C3  UNL     1     -32.550  10.045   1.265  1.00 20.00     0.013 A 
HETATM    8  C4  UNL     1     -31.591   9.064   0.660  1.00 20.00     0.013 A 
ENDBRANCH   4   6
ENDBRANCH   2   4
BRANCH   2   9
HETATM    9  C7  UNL     1     -33.538   7.241   4.981  1.00 20.00     0.022 C 
HETATM   10  C6  UNL     1     -34.352   6.156   5.681  1.00 20.00     0.007 C 
ENDBRANCH   2   9
TORSDOF 3
ENDMDL
MODEL 2
REMARK VINA RESULT:      -5.3      1.619      1.958
REMARK  3 active torsions:
REMARK  status: ('A' for Active; 'I' for Inactive)
REMARK    1  A    between atoms: C2_2  and  C5_5 
REMARK    2  A    between atoms: C2_2  and  C8_8 
REMARK    3  A    between atoms: C7_7  and  C8_8 
ROOT
HETATM    1  C1  UNL     1     -33.329   7.213   5.006  1.00 20.00     0.071 C 
HETATM    2  C8  UNL     1     -32.898   6.836   3.647  1.00 20.00     0.162 C 
HETATM    3  N9  UNL     1     -33.665   7.507   6.077  1.00 20.00    -0.196 NA
ENDROOT
BRANCH   2   4
HETATM    4  C2  UNL     1     -32.136   7.967   2.976  1.00 20.00     0.148 C 
HETATM    5  O10 UNL     1     -31.155   8.521   3.458  1.00 20.00    -0.296 OA
BRANCH   4   6
HETATM    6  C5  UNL     1     -32.651   8.407   1.645  1.00 20.00     0.057 A 
HETATM    7  C3  UNL     1     -32.626   9.863   1.318  1.00 20.00     0.013 A 
HETATM    8  C4  UNL     1     -31.676   8.921   0.639  1.00 20.00     0.013 A 
ENDBRANCH   4   6
ENDBRANCH   2   4
BRANCH   2   9
HETATM    9  C7  UNL     1     -34.082   6.368   2.787  1.00 20.00     0.022 C 
HETATM   10  C6  UNL     1     -35.262   5.810   3.577  1.00 20.00     0.007 C 
ENDBRANCH   2   9
TORSDOF 3
ENDMDL
MODEL 3
REMARK VINA RESULT:      -4.9      1.277      1.678
REMARK  3 active torsions:
REMARK  status: ('A' for Active; 'I' for Inactive)
REMARK    1  A    between atoms: C2_2  and  C5_5 
REMARK    2  A    between atoms: C2_2  and  C8_8 
REMARK    3  A    between atoms: C7_7  and  C8_8 
ROOT
HETATM    1  C1  UNL     1     -33.355   5.062   2.770  1.00 20.00     0.071 C 
HETATM    2  C8  UNL     1     -34.042   6.217   3.377  1.00 20.00     0.162 C 
HETATM    3  N9  UNL     1     -32.816   4.155   2.289  1.00 20.00    -0.196 NA
ENDROOT
BRANCH   2   4
HETATM    4  C2  UNL     1     -33.046   7.235   3.909  1.00 20.00     0.148 C 
HETATM    5  O10 UNL     1     -33.062   7.689   5.047  1.00 20.00    -0.296 OA
BRANCH   4   6
HETATM    6  C5  UNL     1     -31.999   7.692   2.947  1.00 20.00     0.057 A 
HETATM    7  C3  UNL     1     -32.429   8.443   1.731  1.00 20.00     0.013 A 
HETATM    8  C4  UNL     1     -31.718   9.154   2.844  1.00 20.00     0.013 A 
ENDBRANCH   4   6
ENDBRANCH   2   4
BRANCH   2   9
HETATM    9  C7  UNL     1     -35.033   5.779   4.467  1.00 20.00     0.022 C 
HETATM   10  C6  UNL     1     -34.526   4.663   5.376  1.00 20.00     0.007 C 
ENDBRANCH   2   9
TORSDOF 3
ENDMDL
MODEL 4
REMARK VINA RESULT:      -4.7      2.056      4.461
REMARK  3 active torsions:
REMARK  status: ('A' for Active; 'I' for Inactive)
REMARK    1  A    between atoms: C2_2  and  C5_5 
REMARK    2  A    between atoms: C2_2  and  C8_8 
REMARK    3  A    between atoms: C7_7  and  C8_8 
ROOT
HETATM    1  C1  UNL     1     -31.941   8.091   3.493  1.00 20.00     0.071 C 
HETATM    2  C8  UNL     1     -33.115   7.646   2.720  1.00 20.00     0.162 C 
HETATM    3  N9  UNL     1     -31.020   8.444   4.103  1.00 20.00    -0.196 NA
ENDROOT
BRANCH   2   4
HETATM    4  C2  UNL     1     -33.449   6.191   3.012  1.00 20.00     0.148 C 
HETATM    5  O10 UNL     1     -32.824   5.235   2.566  1.00 20.00    -0.296 OA
BRANCH   4   6
HETATM    6  C5  UNL     1     -34.626   5.954   3.899  1.00 20.00     0.057 A 
HETATM    7  C3  UNL     1     -34.660   4.707   4.718  1.00 20.00     0.013 A 
HETATM    8  C4  UNL     1     -34.431   6.034   5.376  1.00 20.00     0.013 A 
ENDBRANCH   4   6
ENDBRANCH   2   4
BRANCH   2   9
HETATM    9  C7  UNL     1     -32.928   7.888   1.214  1.00 20.00     0.022 C 
HETATM   10  C6  UNL     1     -32.451   9.291   0.849  1.00 20.00     0.007 C 
ENDBRANCH   2   9
TORSDOF 3
ENDMDL
MODEL 5
REMARK VINA RESULT:      -4.5      2.209      4.439
REMARK  3 active torsions:
REMARK  status: ('A' for Active; 'I' for Inactive)
REMARK    1  A    between atoms: C2_2  and  C5_5 
REMARK    2  A    between atoms: C2_2  and  C8_8 
REMARK    3  A    between atoms: C7_7  and  C8_8 
ROOT
HETATM    1  C1  UNL     1     -32.372   7.846   3.090  1.00 20.00     0.071 C 
HETATM    2  C8  UNL     1     -33.693   7.223   3.294  1.00 20.00     0.162 C 
HETATM    3  N9  UNL     1     -31.335   8.340   2.928  1.00 20.00    -0.196 NA
ENDROOT
BRANCH   2   4
HETATM    4  C2  UNL     1     -33.899   6.831   4.748  1.00 20.00     0.148 C 
HETATM    5  O10 UNL     1     -33.309   7.343   5.693  1.00 20.00    -0.296 OA
BRANCH   4   6
HETATM    6  C5  UNL     1     -34.890   5.743   5.000  1.00 20.00     0.057 A 
HETATM    7  C3  UNL     1     -34.404   4.332   5.036  1.00 20.00     0.013 A 
HETATM    8  C4  UNL     1     -34.831   5.014   6.301  1.00 20.00     0.013 A 
ENDBRANCH   4   6
ENDBRANCH   2   4
BRANCH   2   9
HETATM    9  C7  UNL     1     -33.907   6.026   2.354  1.00 20.00     0.022 C 
HETATM   10  C6  UNL     1     -32.784   4.993   2.374  1.00 20.00     0.007 C 
ENDBRANCH   2   9
TORSDOF 3
ENDMDL
MODEL 6
REMARK VINA RESULT:      -4.4     10.402     11.179
REMARK  3 active torsions:
REMARK  status: ('A' for Active; 'I' for Inactive)
REMARK    1  A    between atoms: C2_2  and  C5_5 
REMARK    2  A    between atoms: C2_2  and  C8_8 
REMARK    3  A    between atoms: C7_7  and  C8_8 
ROOT
HETATM    1  C1  UNL     1     -35.211  13.681  -4.714  1.00 20.00     0.071 C 
HETATM    2  C8  UNL     1     -34.331  14.580  -3.945  1.00 20.00     0.162 C 
HETATM    3  N9  UNL     1     -35.903  12.971  -5.316  1.00 20.00    -0.196 NA
ENDROOT
BRANCH   2   4
HETATM    4  C2  UNL     1     -35.104  15.762  -3.383  1.00 20.00     0.148 C 
HETATM    5  O10 UNL     1     -36.240  16.071  -3.725  1.00 20.00    -0.296 OA
BRANCH   4   6
HETATM    6  C5  UNL     1     -34.396  16.580  -2.353  1.00 20.00     0.057 A 
HETATM    7  C3  UNL     1     -34.742  18.027  -2.232  1.00 20.00     0.013 A 
HETATM    8  C4  UNL     1     -35.169  17.057  -1.170  1.00 20.00     0.013 A 
ENDBRANCH   4   6
ENDBRANCH   2   4
BRANCH   2   9
HETATM    9  C7  UNL     1     -33.125  15.042  -4.777  1.00 20.00     0.022 C 
HETATM   10  C6  UNL     1     -33.476  15.937  -5.963  1.00 20.00     0.007 C 
ENDBRANCH   2   9
TORSDOF 3
ENDMDL
MODEL 7
REMARK VINA RESULT:      -4.3     10.596     11.459
REMARK  3 active torsions:
REMARK  status: ('A' for Active; 'I' for Inactive)
REMARK    1  A    between atoms: C2_2  and  C5_5 
REMARK    2  A    between atoms: C2_2  and  C8_8 
REMARK    3  A    between atoms: C7_7  and  C8_8 
ROOT
HETATM    1  C1  UNL     1     -37.141  14.041  -5.252  1.00 20.00     0.071 C 
HETATM    2  C8  UNL     1     -35.738  13.854  -5.666  1.00 20.00     0.162 C 
HETATM    3  N9  UNL     1     -38.245  14.185  -4.926  1.00 20.00    -0.196 NA
ENDROOT
BRANCH   2   4
HETATM    4  C2  UNL     1     -34.777  14.293  -4.573  1.00 20.00     0.148 C 
HETATM    5  O10 UNL     1     -34.000  13.543  -3.993  1.00 20.00    -0.296 OA
BRANCH   4   6
HETATM    6  C5  UNL     1     -34.816  15.740  -4.207  1.00 20.00     0.057 A 
HETATM    7  C3  UNL     1     -35.089  16.107  -2.786  1.00 20.00     0.013 A 
HETATM    8  C4  UNL     1     -33.716  16.290  -3.361  1.00 20.00     0.013 A 
ENDBRANCH   4   6
ENDBRANCH   2   4
BRANCH   2   9
HETATM    9  C7  UNL     1     -35.439  14.563  -6.995  1.00 20.00     0.022 C 
HETATM   10  C6  UNL     1     -34.234  14.012  -7.753  1.00 20.00     0.007 C 
ENDBRANCH   2   9
TORSDOF 3
ENDMDL
MODEL 8
REMARK VINA RESULT:      -4.2      1.953      2.344
REMARK  3 active torsions:
REMARK  status: ('A' for Active; 'I' for Inactive)
REMARK    1  A    between atoms: C2_2  and  C5_5 
REMARK    2  A    between atoms: C2_2  and  C8_8 
REMARK    3  A    between atoms: C7_7  and  C8_8 
ROOT
HETATM    1  C1  UNL     1     -33.446   7.028   4.833  1.00 20.00     0.071 C 
HETATM    2  C8  UNL     1     -32.996   6.365   3.596  1.00 20.00     0.162 C 
HETATM    3  N9  UNL     1     -33.797   7.550   5.808  1.00 20.00    -0.196 NA
ENDROOT
BRANCH   2   4
HETATM    4  C2  UNL     1     -33.094   7.300   2.401  1.00 20.00     0.148 C 
HETATM    5  O10 UNL     1     -33.945   7.214   1.523  1.00 20.00    -0.296 OA
BRANCH   4   6
HETATM    6  C5  UNL     1     -32.063   8.378   2.325  1.00 20.00     0.057 A 
HETATM    7  C3  UNL     1     -31.430   8.665   1.004  1.00 20.00     0.013 A 
HETATM    8  C4  UNL     1     -32.404   9.638   1.601  1.00 20.00     0.013 A 
ENDBRANCH   4   6
ENDBRANCH   2   4
BRANCH   2   9
HETATM    9  C7  UNL     1     -33.757   5.053   3.346  1.00 20.00     0.022 C 
HETATM   10  C6  UNL     1     -34.499   4.507   4.562  1.00 20.00     0.007 C 
ENDBRANCH   2   9
TORSDOF 3
ENDMDL
MODEL 9
REMARK VINA RESULT:      -4.2     10.674     11.244
REMARK  3 active torsions:
REMARK  status: ('A' for Active; 'I' for Inactive)
REMARK    1  A    between atoms: C2_2  and  C5_5 
REMARK    2  A    between atoms: C2_2  and  C8_8 
REMARK    3  A    between atoms: C7_7  and  C8_8 
ROOT
HETATM    1  C1  UNL     1     -36.914  14.748  -4.612  1.00 20.00     0.071 C 
HETATM    2  C8  UNL     1     -35.689  15.500  -4.284  1.00 20.00     0.162 C 
HETATM    3  N9  UNL     1     -37.878  14.159  -4.873  1.00 20.00    -0.196 NA
ENDROOT
BRANCH   2   4
HETATM    4  C2  UNL     1     -34.445  14.656  -4.515  1.00 20.00     0.148 C 
HETATM    5  O10 UNL     1     -34.255  13.553  -4.016  1.00 20.00    -0.296 OA
BRANCH   4   6
HETATM    6  C5  UNL     1     -33.406  15.250  -5.409  1.00 20.00     0.057 A 
HETATM    7  C3  UNL     1     -33.707  15.370  -6.866  1.00 20.00     0.013 A 
HETATM    8  C4  UNL     1     -33.664  16.595  -6.002  1.00 20.00     0.013 A 
ENDBRANCH   4   6
ENDBRANCH   2   4
BRANCH   2   9
HETATM    9  C7  UNL     1     -35.731  16.058  -2.853  1.00 20.00     0.022 C 
HETATM   10  C6  UNL     1     -34.424  16.685  -2.376  1.00 20.00     0.007 C 
ENDBRANCH   2   9
TORSDOF 3
ENDMDL
