MODEL 1
REMARK VINA RESULT:      -4.9      0.000      0.000
REMARK  2 active torsions:
REMARK  status: ('A' for Active; 'I' for Inactive)
REMARK    1  A    between atoms: C1_1  and  C3_3 
REMARK    2  A    between atoms: C2_2  and  C7_7 
ROOT
HETATM    1  C1  UNL     1     -32.961   7.650   3.190  1.00 20.00     0.038 C 
HETATM    2  C2  UNL     1     -33.251   6.349   3.316  1.00 20.00    -0.015 C 
ENDROOT
BRANCH   2   3
HETATM    3  C7  UNL     1     -34.302   5.729   4.227  1.00 20.00    -0.034 C 
HETATM    4  C4  UNL     1     -35.691   6.047   3.647  1.00 20.00     0.018 C 
HETATM    5  C5  UNL     1     -34.177   4.202   4.387  1.00 20.00     0.018 C 
HETATM    6  C6  UNL     1     -34.177   6.376   5.618  1.00 20.00     0.018 C 
ENDBRANCH   2   3
BRANCH   1   7
HETATM    7  C3  UNL     1     -31.901   8.061   2.247  1.00 20.00     0.258 C 
HETATM    8  O8  UNL     1     -32.104   8.882   1.361  1.00 20.00    -0.302 OA
ENDBRANCH   1   7
TORSDOF 2
ENDMDL
MODEL 2
REMARK VINA RESULT:      -4.8      0.123      1.527
REMARK  2 active torsions:
REMARK  status: ('A' for Active; 'I' for Inactive)
REMARK    1  A    between atoms: C1_1  and  C3_3 
REMARK    2  A    between atoms: C2_2  and  C7_7 
ROOT
HETATM    1  C1  UNL     1     -32.773   7.628   3.308  1.00 20.00     0.038 C 
HETATM    2  C2  UNL     1     -33.313   6.404   3.234  1.00 20.00    -0.015 C 
ENDROOT
BRANCH   2   3
HETATM    3  C7  UNL     1     -34.307   5.782   4.206  1.00 20.00    -0.034 C 
HETATM    4  C4  UNL     1     -34.058   4.264   4.242  1.00 20.00     0.018 C 
HETATM    5  C5  UNL     1     -34.210   6.328   5.643  1.00 20.00     0.018 C 
HETATM    6  C6  UNL     1     -35.728   6.047   3.678  1.00 20.00     0.018 C 
ENDBRANCH   2   3
BRANCH   1   7
HETATM    7  C3  UNL     1     -31.821   8.056   2.264  1.00 20.00     0.258 C 
HETATM    8  O8  UNL     1     -32.133   8.855   1.389  1.00 20.00    -0.302 OA
ENDBRANCH   1   7
TORSDOF 2
ENDMDL
MODEL 3
REMARK VINA RESULT:      -4.7      0.106      1.540
REMARK  2 active torsions:
REMARK  status: ('A' for Active; 'I' for Inactive)
REMARK    1  A    between atoms: C1_1  and  C3_3 
REMARK    2  A    between atoms: C2_2  and  C7_7 
ROOT
HETATM    1  C1  UNL     1     -32.974   7.692   3.085  1.00 20.00     0.038 C 
HETATM    2  C2  UNL     1     -33.186   6.393   3.334  1.00 20.00    -0.015 C 
ENDROOT
BRANCH   2   3
HETATM    3  C7  UNL     1     -34.299   5.793   4.183  1.00 20.00    -0.034 C 
HETATM    4  C4  UNL     1     -34.191   6.377   5.602  1.00 20.00     0.018 C 
HETATM    5  C5  UNL     1     -35.718   6.068   3.648  1.00 20.00     0.018 C 
HETATM    6  C6  UNL     1     -34.090   4.270   4.248  1.00 20.00     0.018 C 
ENDBRANCH   2   3
BRANCH   1   7
HETATM    7  C3  UNL     1     -31.833   8.081   2.233  1.00 20.00     0.258 C 
HETATM    8  O8  UNL     1     -31.960   8.854   1.291  1.00 20.00    -0.302 OA
ENDBRANCH   1   7
TORSDOF 2
ENDMDL
MODEL 4
REMARK VINA RESULT:      -4.3      2.424      4.815
REMARK  2 active torsions:
REMARK  status: ('A' for Active; 'I' for Inactive)
REMARK    1  A    between atoms: C1_1  and  C3_3 
REMARK    2  A    between atoms: C2_2  and  C7_7 
ROOT
HETATM    1  C1  UNL     1     -32.562   7.679   2.844  1.00 20.00     0.038 C 
HETATM    2  C2  UNL     1     -33.180   8.411   1.909  1.00 20.00    -0.015 C 
ENDROOT
BRANCH   2   3
HETATM    3  C7  UNL     1     -32.525   9.286   0.849  1.00 20.00    -0.034 C 
HETATM    4  C4  UNL     1     -31.088   8.781   0.630  1.00 20.00     0.018 C 
HETATM    5  C5  UNL     1     -33.255   9.289  -0.507  1.00 20.00     0.018 C 
HETATM    6  C6  UNL     1     -32.475  10.731   1.379  1.00 20.00     0.018 C 
ENDBRANCH   2   3
BRANCH   1   7
HETATM    7  C3  UNL     1     -33.375   6.891   3.791  1.00 20.00     0.258 C 
HETATM    8  O8  UNL     1     -33.626   7.293   4.921  1.00 20.00    -0.302 OA
ENDBRANCH   1   7
TORSDOF 2
ENDMDL
MODEL 5
REMARK VINA RESULT:      -4.2      2.429      4.825
REMARK  2 active torsions:
REMARK  status: ('A' for Active; 'I' for Inactive)
REMARK    1  A    between atoms: C1_1  and  C3_3 
REMARK    2  A    between atoms: C2_2  and  C7_7 
ROOT
HETATM    1  C1  UNL     1     -32.568   7.757   2.924  1.00 20.00     0.038 C 
HETATM    2  C2  UNL     1     -33.150   8.356   1.877  1.00 20.00    -0.015 C 
ENDROOT
BRANCH   2   3
HETATM    3  C7  UNL     1     -32.491   9.297   0.878  1.00 20.00    -0.034 C 
HETATM    4  C4  UNL     1     -33.295   9.248  -0.433  1.00 20.00     0.018 C 
HETATM    5  C5  UNL     1     -32.412  10.762   1.348  1.00 20.00     0.018 C 
HETATM    6  C6  UNL     1     -31.061   8.793   0.610  1.00 20.00     0.018 C 
ENDBRANCH   2   3
BRANCH   1   7
HETATM    7  C3  UNL     1     -33.378   6.873   3.786  1.00 20.00     0.258 C 
HETATM    8  O8  UNL     1     -33.703   7.195   4.923  1.00 20.00    -0.302 OA
ENDBRANCH   1   7
TORSDOF 2
ENDMDL
MODEL 6
REMARK VINA RESULT:      -4.0      1.936      3.092
REMARK  2 active torsions:
REMARK  status: ('A' for Active; 'I' for Inactive)
REMARK    1  A    between atoms: C1_1  and  C3_3 
REMARK    2  A    between atoms: C2_2  and  C7_7 
ROOT
HETATM    1  C1  UNL     1     -32.310   8.986   1.213  1.00 20.00     0.038 C 
HETATM    2  C2  UNL     1     -33.162   8.303   1.990  1.00 20.00    -0.015 C 
ENDROOT
BRANCH   2   3
HETATM    3  C7  UNL     1     -32.814   7.457   3.207  1.00 20.00    -0.034 C 
HETATM    4  C4  UNL     1     -31.464   7.945   3.762  1.00 20.00     0.018 C 
HETATM    5  C5  UNL     1     -33.858   7.519   4.338  1.00 20.00     0.018 C 
HETATM    6  C6  UNL     1     -32.672   5.993   2.753  1.00 20.00     0.018 C 
ENDBRANCH   2   3
BRANCH   1   7
HETATM    7  C3  UNL     1     -32.841   9.753   0.069  1.00 20.00     0.258 C 
HETATM    8  O8  UNL     1     -33.536   9.232  -0.795  1.00 20.00    -0.302 OA
ENDBRANCH   1   7
TORSDOF 2
ENDMDL
MODEL 7
REMARK VINA RESULT:      -3.7     11.175     12.100
REMARK  2 active torsions:
REMARK  status: ('A' for Active; 'I' for Inactive)
REMARK    1  A    between atoms: C1_1  and  C3_3 
REMARK    2  A    between atoms: C2_2  and  C7_7 
ROOT
HETATM    1  C1  UNL     1     -34.685  15.535  -3.486  1.00 20.00     0.038 C 
HETATM    2  C2  UNL     1     -33.768  16.312  -2.894  1.00 20.00    -0.015 C 
ENDROOT
BRANCH   2   3
HETATM    3  C7  UNL     1     -34.029  17.532  -2.020  1.00 20.00    -0.034 C 
HETATM    4  C4  UNL     1     -35.085  17.154  -0.967  1.00 20.00     0.018 C 
HETATM    5  C5  UNL     1     -32.781  18.065  -1.291  1.00 20.00     0.018 C 
HETATM    6  C6  UNL     1     -34.589  18.654  -2.913  1.00 20.00     0.018 C 
ENDBRANCH   2   3
BRANCH   1   7
HETATM    7  C3  UNL     1     -34.234  14.390  -4.301  1.00 20.00     0.258 C 
HETATM    8  O8  UNL     1     -34.912  13.377  -4.427  1.00 20.00    -0.302 OA
ENDBRANCH   1   7
TORSDOF 2
ENDMDL
MODEL 8
REMARK VINA RESULT:      -3.7     11.705     12.385
REMARK  2 active torsions:
REMARK  status: ('A' for Active; 'I' for Inactive)
REMARK    1  A    between atoms: C1_1  and  C3_3 
REMARK    2  A    between atoms: C2_2  and  C7_7 
ROOT
HETATM    1  C1  UNL     1     -33.221  18.342  -0.569  1.00 20.00     0.038 C 
HETATM    2  C2  UNL     1     -33.139  17.629  -1.700  1.00 20.00    -0.015 C 
ENDROOT
BRANCH   2   3
HETATM    3  C7  UNL     1     -34.297  17.124  -2.550  1.00 20.00    -0.034 C 
HETATM    4  C4  UNL     1     -34.725  18.255  -3.501  1.00 20.00     0.018 C 
HETATM    5  C5  UNL     1     -33.965  15.877  -3.392  1.00 20.00     0.018 C 
HETATM    6  C6  UNL     1     -35.470  16.782  -1.615  1.00 20.00     0.018 C 
ENDBRANCH   2   3
BRANCH   1   7
HETATM    7  C3  UNL     1     -31.977  18.742   0.118  1.00 20.00     0.258 C 
HETATM    8  O8  UNL     1     -30.891  18.254  -0.171  1.00 20.00    -0.302 OA
ENDBRANCH   1   7
TORSDOF 2
ENDMDL
MODEL 9
REMARK VINA RESULT:      -3.6      2.286      4.464
REMARK  2 active torsions:
REMARK  status: ('A' for Active; 'I' for Inactive)
REMARK    1  A    between atoms: C1_1  and  C3_3 
REMARK    2  A    between atoms: C2_2  and  C7_7 
ROOT
HETATM    1  C1  UNL     1     -33.380   6.869   3.263  1.00 20.00     0.038 C 
HETATM    2  C2  UNL     1     -33.211   7.582   2.142  1.00 20.00    -0.015 C 
ENDROOT
BRANCH   2   3
HETATM    3  C7  UNL     1     -32.202   8.699   1.910  1.00 20.00    -0.034 C 
HETATM    4  C4  UNL     1     -31.391   8.360   0.647  1.00 20.00     0.018 C 
HETATM    5  C5  UNL     1     -32.832  10.092   1.727  1.00 20.00     0.018 C 
HETATM    6  C6  UNL     1     -31.252   8.749   3.120  1.00 20.00     0.018 C 
ENDBRANCH   2   3
BRANCH   1   7
HETATM    7  C3  UNL     1     -34.420   5.821   3.296  1.00 20.00     0.258 C 
HETATM    8  O8  UNL     1     -35.224   5.735   4.215  1.00 20.00    -0.302 OA
ENDBRANCH   1   7
TORSDOF 2
ENDMDL
