MODEL 1
REMARK VINA RESULT:      -5.5      0.000      0.000
REMARK  3 active torsions:
REMARK  status: ('A' for Active; 'I' for Inactive)
REMARK    1  A    between atoms: C5_5  and  C9_9 
REMARK    2  A    between atoms: C8_8  and  N10_10 
REMARK    3  A    between atoms: C9_9  and  N10_10 
ROOT
HETATM    1  C1  UNL     1     -32.216   9.539   0.788  1.00 20.00     0.013 C 
HETATM    2  C2  UNL     1     -32.182   8.856   1.774  1.00 20.00    -0.087 C 
HETATM    3  C8  UNL     1     -32.134   8.024   2.979  1.00 20.00     0.364 C 
ENDROOT
BRANCH   3   4
HETATM    4  N10 UNL     1     -33.407   7.350   3.189  1.00 20.00     0.099 N 
HETATM    5  C7  UNL     1     -33.690   6.410   2.114  1.00 20.00     0.311 C 
BRANCH   4   6
HETATM    6  C9  UNL     1     -33.386   6.634   4.488  1.00 20.00     0.223 C 
HETATM    7  C6  UNL     1     -33.456   7.655   5.614  1.00 20.00     0.043 C 
BRANCH   6   8
HETATM    8  C5  UNL     1     -34.553   5.658   4.537  1.00 20.00     0.018 A 
HETATM    9  C3  UNL     1     -34.304   4.176   4.471  1.00 20.00     0.007 A 
HETATM   10  C4  UNL     1     -34.774   4.804   5.755  1.00 20.00     0.007 A 
ENDBRANCH   6   8
ENDBRANCH   4   6
ENDBRANCH   3   4
TORSDOF 3
ENDMDL
MODEL 2
REMARK VINA RESULT:      -5.1      1.129      2.201
REMARK  3 active torsions:
REMARK  status: ('A' for Active; 'I' for Inactive)
REMARK    1  A    between atoms: C5_5  and  C9_9 
REMARK    2  A    between atoms: C8_8  and  N10_10 
REMARK    3  A    between atoms: C9_9  and  N10_10 
ROOT
HETATM    1  C1  UNL     1     -32.795  10.553   1.448  1.00 20.00     0.013 C 
HETATM    2  C2  UNL     1     -32.578   9.373   1.467  1.00 20.00    -0.087 C 
HETATM    3  C8  UNL     1     -32.314   7.932   1.484  1.00 20.00     0.364 C 
ENDROOT
BRANCH   3   4
HETATM    4  N10 UNL     1     -32.146   7.457   2.850  1.00 20.00     0.099 N 
HETATM    5  C7  UNL     1     -31.440   8.434   3.666  1.00 20.00     0.311 C 
BRANCH   4   6
HETATM    6  C9  UNL     1     -33.474   7.172   3.447  1.00 20.00     0.223 C 
HETATM    7  C6  UNL     1     -34.187   6.137   2.591  1.00 20.00     0.043 C 
BRANCH   6   8
HETATM    8  C5  UNL     1     -33.284   6.687   4.877  1.00 20.00     0.018 A 
HETATM    9  C3  UNL     1     -33.972   7.391   6.014  1.00 20.00     0.007 A 
HETATM   10  C4  UNL     1     -34.414   6.013   5.605  1.00 20.00     0.007 A 
ENDBRANCH   6   8
ENDBRANCH   4   6
ENDBRANCH   3   4
TORSDOF 3
ENDMDL
MODEL 3
REMARK VINA RESULT:      -5.0      0.846      4.671
REMARK  3 active torsions:
REMARK  status: ('A' for Active; 'I' for Inactive)
REMARK    1  A    between atoms: C5_5  and  C9_9 
REMARK    2  A    between atoms: C8_8  and  N10_10 
REMARK    3  A    between atoms: C9_9  and  N10_10 
ROOT
HETATM    1  C1  UNL     1     -34.405   4.218   4.428  1.00 20.00     0.013 C 
HETATM    2  C2  UNL     1     -33.962   5.103   3.750  1.00 20.00    -0.087 C 
HETATM    3  C8  UNL     1     -33.420   6.180   2.917  1.00 20.00     0.364 C 
ENDROOT
BRANCH   3   4
HETATM    4  N10 UNL     1     -33.653   7.476   3.538  1.00 20.00     0.099 N 
HETATM    5  C7  UNL     1     -33.558   7.393   4.988  1.00 20.00     0.311 C 
BRANCH   4   6
HETATM    6  C9  UNL     1     -32.668   8.460   3.027  1.00 20.00     0.223 C 
HETATM    7  C6  UNL     1     -31.286   8.086   3.543  1.00 20.00     0.043 C 
BRANCH   6   8
HETATM    8  C5  UNL     1     -32.719   8.473   1.506  1.00 20.00     0.018 A 
HETATM    9  C3  UNL     1     -32.751   9.778   0.760  1.00 20.00     0.007 A 
HETATM   10  C4  UNL     1     -31.520   8.915   0.713  1.00 20.00     0.007 A 
ENDBRANCH   6   8
ENDBRANCH   4   6
ENDBRANCH   3   4
TORSDOF 3
ENDMDL
MODEL 4
REMARK VINA RESULT:      -4.9      0.812      4.684
REMARK  3 active torsions:
REMARK  status: ('A' for Active; 'I' for Inactive)
REMARK    1  A    between atoms: C5_5  and  C9_9 
REMARK    2  A    between atoms: C8_8  and  N10_10 
REMARK    3  A    between atoms: C9_9  and  N10_10 
ROOT
HETATM    1  C1  UNL     1     -34.675   4.893   5.793  1.00 20.00     0.013 C 
HETATM    2  C2  UNL     1     -34.335   5.928   5.290  1.00 20.00    -0.087 C 
HETATM    3  C8  UNL     1     -33.922   7.196   4.682  1.00 20.00     0.364 C 
ENDROOT
BRANCH   3   4
HETATM    4  N10 UNL     1     -33.040   6.958   3.549  1.00 20.00     0.099 N 
HETATM    5  C7  UNL     1     -33.747   6.303   2.457  1.00 20.00     0.311 C 
BRANCH   4   6
HETATM    6  C9  UNL     1     -32.474   8.245   3.077  1.00 20.00     0.223 C 
HETATM    7  C6  UNL     1     -31.031   8.351   3.548  1.00 20.00     0.043 C 
BRANCH   6   8
HETATM    8  C5  UNL     1     -32.578   8.310   1.560  1.00 20.00     0.018 A 
HETATM    9  C3  UNL     1     -32.773   9.632   0.870  1.00 20.00     0.007 A 
HETATM   10  C4  UNL     1     -31.461   8.906   0.749  1.00 20.00     0.007 A 
ENDBRANCH   6   8
ENDBRANCH   4   6
ENDBRANCH   3   4
TORSDOF 3
ENDMDL
MODEL 5
REMARK VINA RESULT:      -4.8      0.929      1.369
REMARK  3 active torsions:
REMARK  status: ('A' for Active; 'I' for Inactive)
REMARK    1  A    between atoms: C5_5  and  C9_9 
REMARK    2  A    between atoms: C8_8  and  N10_10 
REMARK    3  A    between atoms: C9_9  and  N10_10 
ROOT
HETATM    1  C1  UNL     1     -32.156   9.758   0.633  1.00 20.00     0.013 C 
HETATM    2  C2  UNL     1     -32.660   8.951   1.364  1.00 20.00    -0.087 C 
HETATM    3  C8  UNL     1     -33.282   7.967   2.254  1.00 20.00     0.364 C 
ENDROOT
BRANCH   3   4
HETATM    4  N10 UNL     1     -32.284   7.355   3.120  1.00 20.00     0.099 N 
HETATM    5  C7  UNL     1     -31.376   8.353   3.666  1.00 20.00     0.311 C 
BRANCH   4   6
HETATM    6  C9  UNL     1     -32.957   6.632   4.226  1.00 20.00     0.223 C 
HETATM    7  C6  UNL     1     -33.503   7.648   5.218  1.00 20.00     0.043 C 
BRANCH   6   8
HETATM    8  C5  UNL     1     -34.061   5.757   3.650  1.00 20.00     0.018 A 
HETATM    9  C3  UNL     1     -34.170   4.312   4.053  1.00 20.00     0.007 A 
HETATM   10  C4  UNL     1     -35.200   5.303   4.521  1.00 20.00     0.007 A 
ENDBRANCH   6   8
ENDBRANCH   4   6
ENDBRANCH   3   4
TORSDOF 3
ENDMDL
MODEL 6
REMARK VINA RESULT:      -4.4      0.945      4.775
REMARK  3 active torsions:
REMARK  status: ('A' for Active; 'I' for Inactive)
REMARK    1  A    between atoms: C5_5  and  C9_9 
REMARK    2  A    between atoms: C8_8  and  N10_10 
REMARK    3  A    between atoms: C9_9  and  N10_10 
ROOT
HETATM    1  C1  UNL     1     -34.661   4.646   5.975  1.00 20.00     0.013 C 
HETATM    2  C2  UNL     1     -34.718   5.335   4.995  1.00 20.00    -0.087 C 
HETATM    3  C8  UNL     1     -34.793   6.174   3.796  1.00 20.00     0.364 C 
ENDROOT
BRANCH   3   4
HETATM    4  N10 UNL     1     -33.905   7.321   3.915  1.00 20.00     0.099 N 
HETATM    5  C7  UNL     1     -33.423   7.476   5.280  1.00 20.00     0.311 C 
BRANCH   4   6
HETATM    6  C9  UNL     1     -32.754   7.162   2.993  1.00 20.00     0.223 C 
HETATM    7  C6  UNL     1     -32.784   5.758   2.406  1.00 20.00     0.043 C 
BRANCH   6   8
HETATM    8  C5  UNL     1     -32.831   8.228   1.910  1.00 20.00     0.018 A 
HETATM    9  C3  UNL     1     -32.074   9.519   2.063  1.00 20.00     0.007 A 
HETATM   10  C4  UNL     1     -31.639   8.508   1.038  1.00 20.00     0.007 A 
ENDBRANCH   6   8
ENDBRANCH   4   6
ENDBRANCH   3   4
TORSDOF 3
ENDMDL
MODEL 7
REMARK VINA RESULT:      -4.2      1.457      4.164
REMARK  3 active torsions:
REMARK  status: ('A' for Active; 'I' for Inactive)
REMARK    1  A    between atoms: C5_5  and  C9_9 
REMARK    2  A    between atoms: C8_8  and  N10_10 
REMARK    3  A    between atoms: C9_9  and  N10_10 
ROOT
HETATM    1  C1  UNL     1     -33.792   7.598   6.364  1.00 20.00     0.013 C 
HETATM    2  C2  UNL     1     -34.117   6.527   5.931  1.00 20.00    -0.087 C 
HETATM    3  C8  UNL     1     -34.515   5.217   5.409  1.00 20.00     0.364 C 
ENDROOT
BRANCH   3   4
HETATM    4  N10 UNL     1     -34.580   5.241   3.955  1.00 20.00     0.099 N 
HETATM    5  C7  UNL     1     -35.573   6.197   3.487  1.00 20.00     0.311 C 
BRANCH   4   6
HETATM    6  C9  UNL     1     -33.249   5.591   3.401  1.00 20.00     0.223 C 
HETATM    7  C6  UNL     1     -32.920   4.630   2.268  1.00 20.00     0.043 C 
BRANCH   6   8
HETATM    8  C5  UNL     1     -33.271   7.037   2.927  1.00 20.00     0.018 A 
HETATM    9  C3  UNL     1     -32.101   7.942   3.200  1.00 20.00     0.007 A 
HETATM   10  C4  UNL     1     -32.381   7.476   1.797  1.00 20.00     0.007 A 
ENDBRANCH   6   8
ENDBRANCH   4   6
ENDBRANCH   3   4
TORSDOF 3
ENDMDL
MODEL 8
REMARK VINA RESULT:      -4.0     11.319     12.063
REMARK  3 active torsions:
REMARK  status: ('A' for Active; 'I' for Inactive)
REMARK    1  A    between atoms: C5_5  and  C9_9 
REMARK    2  A    between atoms: C8_8  and  N10_10 
REMARK    3  A    between atoms: C9_9  and  N10_10 
ROOT
HETATM    1  C1  UNL     1     -35.595  13.541  -7.864  1.00 20.00     0.013 C 
HETATM    2  C2  UNL     1     -35.678  13.583  -6.667  1.00 20.00    -0.087 C 
HETATM    3  C8  UNL     1     -35.779  13.627  -5.206  1.00 20.00     0.364 C 
ENDROOT
BRANCH   3   4
HETATM    4  N10 UNL     1     -35.745  15.002  -4.730  1.00 20.00     0.099 N 
HETATM    5  C7  UNL     1     -37.042  15.417  -4.219  1.00 20.00     0.311 C 
BRANCH   4   6
HETATM    6  C9  UNL     1     -34.721  15.138  -3.666  1.00 20.00     0.223 C 
HETATM    7  C6  UNL     1     -33.351  14.841  -4.259  1.00 20.00     0.043 C 
BRANCH   6   8
HETATM    8  C5  UNL     1     -34.791  16.542  -3.083  1.00 20.00     0.018 A 
HETATM    9  C3  UNL     1     -35.035  16.741  -1.612  1.00 20.00     0.007 A 
HETATM   10  C4  UNL     1     -33.685  17.051  -2.199  1.00 20.00     0.007 A 
ENDBRANCH   6   8
ENDBRANCH   4   6
ENDBRANCH   3   4
TORSDOF 3
ENDMDL
MODEL 9
REMARK VINA RESULT:      -3.9     11.353     12.124
REMARK  3 active torsions:
REMARK  status: ('A' for Active; 'I' for Inactive)
REMARK    1  A    between atoms: C5_5  and  C9_9 
REMARK    2  A    between atoms: C8_8  and  N10_10 
REMARK    3  A    between atoms: C9_9  and  N10_10 
ROOT
HETATM    1  C1  UNL     1     -35.365  17.074  -0.971  1.00 20.00     0.013 C 
HETATM    2  C2  UNL     1     -34.592  16.859  -1.864  1.00 20.00    -0.087 C 
HETATM    3  C8  UNL     1     -33.643  16.597  -2.949  1.00 20.00     0.364 C 
ENDROOT
BRANCH   3   4
HETATM    4  N10 UNL     1     -34.311  16.661  -4.241  1.00 20.00     0.099 N 
HETATM    5  C7  UNL     1     -33.672  17.631  -5.118  1.00 20.00     0.311 C 
BRANCH   4   6
HETATM    6  C9  UNL     1     -34.295  15.323  -4.880  1.00 20.00     0.223 C 
HETATM    7  C6  UNL     1     -33.054  14.572  -4.420  1.00 20.00     0.043 C 
BRANCH   6   8
HETATM    8  C5  UNL     1     -35.572  14.580  -4.512  1.00 20.00     0.018 A 
HETATM    9  C3  UNL     1     -36.769  14.634  -5.421  1.00 20.00     0.007 A 
HETATM   10  C4  UNL     1     -35.985  13.357  -5.283  1.00 20.00     0.007 A 
ENDBRANCH   6   8
ENDBRANCH   4   6
ENDBRANCH   3   4
TORSDOF 3
ENDMDL
