MODEL 1
REMARK VINA RESULT:      -5.0      0.000      0.000
REMARK  3 active torsions:
REMARK  status: ('A' for Active; 'I' for Inactive)
REMARK    1  A    between atoms: C4_4  and  C8_8 
REMARK    2  A    between atoms: C7_7  and  N10_10 
REMARK    3  A    between atoms: C8_8  and  N10_10 
ROOT
HETATM    1  C1  UNL     1     -32.541   9.326   1.147  1.00 20.00     0.089 C 
HETATM    2  C7  UNL     1     -32.588   7.959   1.664  1.00 20.00     0.395 C 
HETATM    3  N9  UNL     1     -32.503  10.409   0.733  1.00 20.00    -0.195 NA
ENDROOT
BRANCH   2   4
HETATM    4  N10 UNL     1     -32.654   7.957   3.118  1.00 20.00     0.101 N 
HETATM    5  C6  UNL     1     -31.368   8.303   3.705  1.00 20.00     0.311 C 
BRANCH   4   6
HETATM    6  C8  UNL     1     -33.079   6.619   3.598  1.00 20.00     0.223 C 
HETATM    7  C5  UNL     1     -33.475   5.771   2.398  1.00 20.00     0.043 C 
BRANCH   6   8
HETATM    8  C4  UNL     1     -34.231   6.783   4.578  1.00 20.00     0.018 A 
HETATM    9  C2  UNL     1     -34.568   5.680   5.542  1.00 20.00     0.007 A 
HETATM   10  C3  UNL     1     -33.956   6.957   6.046  1.00 20.00     0.007 A 
ENDBRANCH   6   8
ENDBRANCH   4   6
ENDBRANCH   2   4
TORSDOF 3
ENDMDL
MODEL 2
REMARK VINA RESULT:      -4.9      1.562      4.700
REMARK  3 active torsions:
REMARK  status: ('A' for Active; 'I' for Inactive)
REMARK    1  A    between atoms: C4_4  and  C8_8 
REMARK    2  A    between atoms: C7_7  and  N10_10 
REMARK    3  A    between atoms: C8_8  and  N10_10 
ROOT
HETATM    1  C1  UNL     1     -34.216   6.232   5.070  1.00 20.00     0.089 C 
HETATM    2  C7  UNL     1     -33.508   7.289   4.350  1.00 20.00     0.395 C 
HETATM    3  N9  UNL     1     -34.777   5.395   5.645  1.00 20.00    -0.195 NA
ENDROOT
BRANCH   2   4
HETATM    4  N10 UNL     1     -33.417   6.979   2.932  1.00 20.00     0.101 N 
HETATM    5  C6  UNL     1     -33.077   5.580   2.718  1.00 20.00     0.311 C 
BRANCH   4   6
HETATM    6  C8  UNL     1     -32.393   7.843   2.295  1.00 20.00     0.223 C 
HETATM    7  C5  UNL     1     -31.468   8.385   3.375  1.00 20.00     0.043 C 
BRANCH   6   8
HETATM    8  C4  UNL     1     -33.089   8.963   1.534  1.00 20.00     0.018 A 
HETATM    9  C2  UNL     1     -32.352  10.235   1.219  1.00 20.00     0.007 A 
HETATM   10  C3  UNL     1     -32.694   9.273   0.117  1.00 20.00     0.007 A 
ENDBRANCH   6   8
ENDBRANCH   4   6
ENDBRANCH   2   4
TORSDOF 3
ENDMDL
MODEL 3
REMARK VINA RESULT:      -4.3      1.075      2.101
REMARK  3 active torsions:
REMARK  status: ('A' for Active; 'I' for Inactive)
REMARK    1  A    between atoms: C4_4  and  C8_8 
REMARK    2  A    between atoms: C7_7  and  N10_10 
REMARK    3  A    between atoms: C8_8  and  N10_10 
ROOT
HETATM    1  C1  UNL     1     -32.150   8.588   2.168  1.00 20.00     0.089 C 
HETATM    2  C7  UNL     1     -32.001   7.797   3.389  1.00 20.00     0.395 C 
HETATM    3  N9  UNL     1     -32.265   9.219   1.201  1.00 20.00    -0.195 NA
ENDROOT
BRANCH   2   4
HETATM    4  N10 UNL     1     -32.928   6.675   3.395  1.00 20.00     0.101 N 
HETATM    5  C6  UNL     1     -33.449   6.413   2.062  1.00 20.00     0.311 C 
BRANCH   4   6
HETATM    6  C8  UNL     1     -34.051   6.960   4.322  1.00 20.00     0.223 C 
HETATM    7  C5  UNL     1     -33.483   7.453   5.645  1.00 20.00     0.043 C 
BRANCH   6   8
HETATM    8  C4  UNL     1     -34.883   5.698   4.501  1.00 20.00     0.018 A 
HETATM    9  C2  UNL     1     -34.242   4.344   4.377  1.00 20.00     0.007 A 
HETATM   10  C3  UNL     1     -34.700   4.838   5.720  1.00 20.00     0.007 A 
ENDBRANCH   6   8
ENDBRANCH   4   6
ENDBRANCH   2   4
TORSDOF 3
ENDMDL
MODEL 4
REMARK VINA RESULT:      -4.3     10.564     11.584
REMARK  3 active torsions:
REMARK  status: ('A' for Active; 'I' for Inactive)
REMARK    1  A    between atoms: C4_4  and  C8_8 
REMARK    2  A    between atoms: C7_7  and  N10_10 
REMARK    3  A    between atoms: C8_8  and  N10_10 
ROOT
HETATM    1  C1  UNL     1     -35.300  13.678  -4.749  1.00 20.00     0.089 C 
HETATM    2  C7  UNL     1     -34.467  14.684  -4.091  1.00 20.00     0.395 C 
HETATM    3  N9  UNL     1     -35.960  12.877  -5.267  1.00 20.00    -0.195 NA
ENDROOT
BRANCH   2   4
HETATM    4  N10 UNL     1     -34.466  15.929  -4.844  1.00 20.00     0.101 N 
HETATM    5  C6  UNL     1     -33.303  16.019  -5.714  1.00 20.00     0.311 C 
BRANCH   4   6
HETATM    6  C8  UNL     1     -34.481  17.080  -3.909  1.00 20.00     0.223 C 
HETATM    7  C5  UNL     1     -33.510  18.137  -4.416  1.00 20.00     0.043 C 
BRANCH   6   8
HETATM    8  C4  UNL     1     -34.108  16.595  -2.515  1.00 20.00     0.018 A 
HETATM    9  C2  UNL     1     -33.496  17.544  -1.522  1.00 20.00     0.007 A 
HETATM   10  C3  UNL     1     -34.901  17.048  -1.320  1.00 20.00     0.007 A 
ENDBRANCH   6   8
ENDBRANCH   4   6
ENDBRANCH   2   4
TORSDOF 3
ENDMDL
MODEL 5
REMARK VINA RESULT:      -3.9      0.952      1.703
REMARK  3 active torsions:
REMARK  status: ('A' for Active; 'I' for Inactive)
REMARK    1  A    between atoms: C4_4  and  C8_8 
REMARK    2  A    between atoms: C7_7  and  N10_10 
REMARK    3  A    between atoms: C8_8  and  N10_10 
ROOT
HETATM    1  C1  UNL     1     -32.573   8.967   1.121  1.00 20.00     0.089 C 
HETATM    2  C7  UNL     1     -32.910   7.879   2.038  1.00 20.00     0.395 C 
HETATM    3  N9  UNL     1     -32.308   9.827   0.389  1.00 20.00    -0.195 NA
ENDROOT
BRANCH   2   4
HETATM    4  N10 UNL     1     -32.759   8.304   3.422  1.00 20.00     0.101 N 
HETATM    5  C6  UNL     1     -31.417   8.031   3.915  1.00 20.00     0.311 C 
BRANCH   4   6
HETATM    6  C8  UNL     1     -33.755   7.606   4.271  1.00 20.00     0.223 C 
HETATM    7  C5  UNL     1     -33.212   7.516   5.691  1.00 20.00     0.043 C 
BRANCH   6   8
HETATM    8  C4  UNL     1     -34.033   6.229   3.686  1.00 20.00     0.018 A 
HETATM    9  C2  UNL     1     -34.421   5.088   4.584  1.00 20.00     0.007 A 
HETATM   10  C3  UNL     1     -35.436   5.690   3.654  1.00 20.00     0.007 A 
ENDBRANCH   6   8
ENDBRANCH   4   6
ENDBRANCH   2   4
TORSDOF 3
ENDMDL
MODEL 6
REMARK VINA RESULT:      -3.8      1.763      4.417
REMARK  3 active torsions:
REMARK  status: ('A' for Active; 'I' for Inactive)
REMARK    1  A    between atoms: C4_4  and  C8_8 
REMARK    2  A    between atoms: C7_7  and  N10_10 
REMARK    3  A    between atoms: C8_8  and  N10_10 
ROOT
HETATM    1  C1  UNL     1     -34.391   5.827   5.350  1.00 20.00     0.089 C 
HETATM    2  C7  UNL     1     -34.127   7.229   5.029  1.00 20.00     0.395 C 
HETATM    3  N9  UNL     1     -34.605   4.716   5.606  1.00 20.00    -0.195 NA
ENDROOT
BRANCH   2   4
HETATM    4  N10 UNL     1     -32.842   7.374   4.360  1.00 20.00     0.101 N 
HETATM    5  C6  UNL     1     -32.103   8.516   4.878  1.00 20.00     0.311 C 
BRANCH   4   6
HETATM    6  C8  UNL     1     -33.053   7.536   2.901  1.00 20.00     0.223 C 
HETATM    7  C5  UNL     1     -32.972   6.168   2.238  1.00 20.00     0.043 C 
BRANCH   6   8
HETATM    8  C4  UNL     1     -32.005   8.493   2.349  1.00 20.00     0.018 A 
HETATM    9  C2  UNL     1     -31.660   8.475   0.886  1.00 20.00     0.007 A 
HETATM   10  C3  UNL     1     -32.418   9.636   1.464  1.00 20.00     0.007 A 
ENDBRANCH   6   8
ENDBRANCH   4   6
ENDBRANCH   2   4
TORSDOF 3
ENDMDL
MODEL 7
REMARK VINA RESULT:      -3.7      1.432      2.459
REMARK  3 active torsions:
REMARK  status: ('A' for Active; 'I' for Inactive)
REMARK    1  A    between atoms: C4_4  and  C8_8 
REMARK    2  A    between atoms: C7_7  and  N10_10 
REMARK    3  A    between atoms: C8_8  and  N10_10 
ROOT
HETATM    1  C1  UNL     1     -32.178   8.430   2.197  1.00 20.00     0.089 C 
HETATM    2  C7  UNL     1     -32.172   7.785   3.510  1.00 20.00     0.395 C 
HETATM    3  N9  UNL     1     -32.178   8.941   1.156  1.00 20.00    -0.195 NA
ENDROOT
BRANCH   2   4
HETATM    4  N10 UNL     1     -33.530   7.540   3.972  1.00 20.00     0.101 N 
HETATM    5  C6  UNL     1     -33.567   7.320   5.410  1.00 20.00     0.311 C 
BRANCH   4   6
HETATM    6  C8  UNL     1     -34.092   6.359   3.272  1.00 20.00     0.223 C 
HETATM    7  C5  UNL     1     -35.490   6.089   3.808  1.00 20.00     0.043 C 
BRANCH   6   8
HETATM    8  C4  UNL     1     -33.168   5.168   3.483  1.00 20.00     0.018 A 
HETATM    9  C2  UNL     1     -33.740   3.795   3.700  1.00 20.00     0.007 A 
HETATM   10  C3  UNL     1     -33.032   4.118   2.415  1.00 20.00     0.007 A 
ENDBRANCH   6   8
ENDBRANCH   4   6
ENDBRANCH   2   4
TORSDOF 3
ENDMDL
MODEL 8
REMARK VINA RESULT:      -3.7     10.601     12.374
REMARK  3 active torsions:
REMARK  status: ('A' for Active; 'I' for Inactive)
REMARK    1  A    between atoms: C4_4  and  C8_8 
REMARK    2  A    between atoms: C7_7  and  N10_10 
REMARK    3  A    between atoms: C8_8  and  N10_10 
ROOT
HETATM    1  C1  UNL     1     -37.479  14.390  -5.993  1.00 20.00     0.089 C 
HETATM    2  C7  UNL     1     -36.977  14.889  -7.272  1.00 20.00     0.395 C 
HETATM    3  N9  UNL     1     -37.880  13.995  -4.978  1.00 20.00    -0.195 NA
ENDROOT
BRANCH   2   4
HETATM    4  N10 UNL     1     -35.552  14.627  -7.408  1.00 20.00     0.101 N 
HETATM    5  C6  UNL     1     -35.263  13.205  -7.291  1.00 20.00     0.311 C 
BRANCH   4   6
HETATM    6  C8  UNL     1     -34.805  15.376  -6.368  1.00 20.00     0.223 C 
HETATM    7  C5  UNL     1     -33.886  16.379  -7.050  1.00 20.00     0.043 C 
BRANCH   6   8
HETATM    8  C4  UNL     1     -34.025  14.392  -5.508  1.00 20.00     0.018 A 
HETATM    9  C2  UNL     1     -33.005  14.891  -4.522  1.00 20.00     0.007 A 
HETATM   10  C3  UNL     1     -34.297  14.297  -4.032  1.00 20.00     0.007 A 
ENDBRANCH   6   8
ENDBRANCH   4   6
ENDBRANCH   2   4
TORSDOF 3
ENDMDL
MODEL 9
REMARK VINA RESULT:      -3.6     10.527     11.399
REMARK  3 active torsions:
REMARK  status: ('A' for Active; 'I' for Inactive)
REMARK    1  A    between atoms: C4_4  and  C8_8 
REMARK    2  A    between atoms: C7_7  and  N10_10 
REMARK    3  A    between atoms: C8_8  and  N10_10 
ROOT
HETATM    1  C1  UNL     1     -35.361  13.707  -4.671  1.00 20.00     0.089 C 
HETATM    2  C7  UNL     1     -34.635  14.692  -3.872  1.00 20.00     0.395 C 
HETATM    3  N9  UNL     1     -35.937  12.922  -5.303  1.00 20.00    -0.195 NA
ENDROOT
BRANCH   2   4
HETATM    4  N10 UNL     1     -34.804  16.030  -4.420  1.00 20.00     0.101 N 
HETATM    5  C6  UNL     1     -33.813  16.307  -5.449  1.00 20.00     0.311 C 
BRANCH   4   6
HETATM    6  C8  UNL     1     -34.690  17.034  -3.334  1.00 20.00     0.223 C 
HETATM    7  C5  UNL     1     -33.290  16.960  -2.741  1.00 20.00     0.043 C 
BRANCH   6   8
HETATM    8  C4  UNL     1     -35.761  16.760  -2.287  1.00 20.00     0.018 A 
HETATM    9  C2  UNL     1     -35.581  17.244  -0.876  1.00 20.00     0.007 A 
HETATM   10  C3  UNL     1     -36.611  17.884  -1.764  1.00 20.00     0.007 A 
ENDBRANCH   6   8
ENDBRANCH   4   6
ENDBRANCH   2   4
TORSDOF 3
ENDMDL
