MODEL 1
REMARK VINA RESULT:      -5.1      0.000      0.000
REMARK  3 active torsions:
REMARK  status: ('A' for Active; 'I' for Inactive)
REMARK    1  A    between atoms: C4_4  and  C6_6 
REMARK    2  A    between atoms: C5_5  and  C7_7 
REMARK    3  A    between atoms: C6_6  and  C7_7 
ROOT
HETATM    1  C1  UNL     1     -33.779   7.225   5.174  1.00 20.00     0.064 C 
HETATM    2  C7  UNL     1     -34.145   6.825   3.800  1.00 20.00     0.092 C 
HETATM    3  N8  UNL     1     -33.492   7.542   6.253  1.00 20.00    -0.197 NA
ENDROOT
BRANCH   2   4
HETATM    4  C5  UNL     1     -35.025   5.559   3.823  1.00 20.00     0.014 C 
HETATM    5  C3  UNL     1     -34.465   4.395   4.632  1.00 20.00     0.006 C 
ENDBRANCH   2   4
BRANCH   2   6
HETATM    6  C6  UNL     1     -32.896   6.652   2.917  1.00 20.00     0.019 C 
BRANCH   6   7
HETATM    7  C4  UNL     1     -31.970   7.873   2.954  1.00 20.00    -0.003 C 
HETATM    8  C2  UNL     1     -32.094   8.701   1.683  1.00 20.00     0.005 C 
ENDBRANCH   6   7
ENDBRANCH   2   6
TORSDOF 3
ENDMDL
MODEL 2
REMARK VINA RESULT:      -5.0      0.802      1.296
REMARK  3 active torsions:
REMARK  status: ('A' for Active; 'I' for Inactive)
REMARK    1  A    between atoms: C4_4  and  C6_6 
REMARK    2  A    between atoms: C5_5  and  C7_7 
REMARK    3  A    between atoms: C6_6  and  C7_7 
ROOT
HETATM    1  C1  UNL     1     -33.539   7.306   4.849  1.00 20.00     0.064 C 
HETATM    2  C7  UNL     1     -33.278   7.301   3.395  1.00 20.00     0.092 C 
HETATM    3  N8  UNL     1     -33.746   7.313   5.991  1.00 20.00    -0.197 NA
ENDROOT
BRANCH   2   4
HETATM    4  C5  UNL     1     -33.275   5.858   2.852  1.00 20.00     0.014 C 
HETATM    5  C3  UNL     1     -34.072   4.853   3.676  1.00 20.00     0.006 C 
ENDBRANCH   2   4
BRANCH   2   6
HETATM    6  C6  UNL     1     -31.976   8.052   3.059  1.00 20.00     0.019 C 
BRANCH   6   7
HETATM    7  C4  UNL     1     -31.880   8.437   1.578  1.00 20.00    -0.003 C 
HETATM    8  C2  UNL     1     -32.502   9.802   1.318  1.00 20.00     0.005 C 
ENDBRANCH   6   7
ENDBRANCH   2   6
TORSDOF 3
ENDMDL
MODEL 3
REMARK VINA RESULT:      -4.7      2.106      3.441
REMARK  3 active torsions:
REMARK  status: ('A' for Active; 'I' for Inactive)
REMARK    1  A    between atoms: C4_4  and  C6_6 
REMARK    2  A    between atoms: C5_5  and  C7_7 
REMARK    3  A    between atoms: C6_6  and  C7_7 
ROOT
HETATM    1  C1  UNL     1     -32.405   8.026   2.425  1.00 20.00     0.064 C 
HETATM    2  C7  UNL     1     -32.962   6.996   3.326  1.00 20.00     0.092 C 
HETATM    3  N8  UNL     1     -31.965   8.835   1.719  1.00 20.00    -0.197 NA
ENDROOT
BRANCH   2   4
HETATM    4  C5  UNL     1     -33.655   5.884   2.512  1.00 20.00     0.014 C 
HETATM    5  C3  UNL     1     -32.992   4.514   2.591  1.00 20.00     0.006 C 
ENDBRANCH   2   4
BRANCH   2   6
HETATM    6  C6  UNL     1     -33.899   7.620   4.376  1.00 20.00     0.019 C 
BRANCH   6   7
HETATM    7  C4  UNL     1     -33.782   6.949   5.749  1.00 20.00    -0.003 C 
HETATM    8  C2  UNL     1     -34.562   5.643   5.796  1.00 20.00     0.005 C 
ENDBRANCH   6   7
ENDBRANCH   2   6
TORSDOF 3
ENDMDL
MODEL 4
REMARK VINA RESULT:      -4.7      1.913      4.182
REMARK  3 active torsions:
REMARK  status: ('A' for Active; 'I' for Inactive)
REMARK    1  A    between atoms: C4_4  and  C6_6 
REMARK    2  A    between atoms: C5_5  and  C7_7 
REMARK    3  A    between atoms: C6_6  and  C7_7 
ROOT
HETATM    1  C1  UNL     1     -33.046   5.643   2.729  1.00 20.00     0.064 C 
HETATM    2  C7  UNL     1     -33.301   7.024   3.186  1.00 20.00     0.092 C 
HETATM    3  N8  UNL     1     -32.849   4.558   2.369  1.00 20.00    -0.197 NA
ENDROOT
BRANCH   2   4
HETATM    4  C5  UNL     1     -32.027   7.882   3.049  1.00 20.00     0.014 C 
HETATM    5  C3  UNL     1     -31.877   8.611   1.719  1.00 20.00     0.006 C 
ENDBRANCH   2   4
BRANCH   2   6
HETATM    6  C6  UNL     1     -33.864   7.044   4.619  1.00 20.00     0.019 C 
BRANCH   6   7
HETATM    7  C4  UNL     1     -34.953   5.987   4.842  1.00 20.00    -0.003 C 
HETATM    8  C2  UNL     1     -34.511   4.941   5.854  1.00 20.00     0.005 C 
ENDBRANCH   6   7
ENDBRANCH   2   6
TORSDOF 3
ENDMDL
MODEL 5
REMARK VINA RESULT:      -4.6      1.990      3.717
REMARK  3 active torsions:
REMARK  status: ('A' for Active; 'I' for Inactive)
REMARK    1  A    between atoms: C4_4  and  C6_6 
REMARK    2  A    between atoms: C5_5  and  C7_7 
REMARK    3  A    between atoms: C6_6  and  C7_7 
ROOT
HETATM    1  C1  UNL     1     -32.529   8.144   2.295  1.00 20.00     0.064 C 
HETATM    2  C7  UNL     1     -33.347   7.484   3.332  1.00 20.00     0.092 C 
HETATM    3  N8  UNL     1     -31.889   8.664   1.478  1.00 20.00    -0.197 NA
ENDROOT
BRANCH   2   4
HETATM    4  C5  UNL     1     -32.711   7.675   4.724  1.00 20.00     0.014 C 
HETATM    5  C3  UNL     1     -33.661   7.492   5.902  1.00 20.00     0.006 C 
ENDBRANCH   2   4
BRANCH   2   6
HETATM    6  C6  UNL     1     -33.581   5.999   2.999  1.00 20.00     0.019 C 
BRANCH   6   7
HETATM    7  C4  UNL     1     -34.801   5.414   3.721  1.00 20.00    -0.003 C 
HETATM    8  C2  UNL     1     -34.416   4.217   4.578  1.00 20.00     0.005 C 
ENDBRANCH   6   7
ENDBRANCH   2   6
TORSDOF 3
ENDMDL
MODEL 6
REMARK VINA RESULT:      -4.5      0.753      3.534
REMARK  3 active torsions:
REMARK  status: ('A' for Active; 'I' for Inactive)
REMARK    1  A    between atoms: C4_4  and  C6_6 
REMARK    2  A    between atoms: C5_5  and  C7_7 
REMARK    3  A    between atoms: C6_6  and  C7_7 
ROOT
HETATM    1  C1  UNL     1     -33.150   7.380   4.786  1.00 20.00     0.064 C 
HETATM    2  C7  UNL     1     -32.808   7.068   3.383  1.00 20.00     0.092 C 
HETATM    3  N8  UNL     1     -33.416   7.624   5.889  1.00 20.00    -0.197 NA
ENDROOT
BRANCH   2   4
HETATM    4  C5  UNL     1     -32.849   8.346   2.520  1.00 20.00     0.014 C 
HETATM    5  C3  UNL     1     -31.719   8.479   1.506  1.00 20.00     0.006 C 
ENDBRANCH   2   4
BRANCH   2   6
HETATM    6  C6  UNL     1     -33.714   5.957   2.822  1.00 20.00     0.019 C 
BRANCH   6   7
HETATM    7  C4  UNL     1     -34.793   5.513   3.817  1.00 20.00    -0.003 C 
HETATM    8  C2  UNL     1     -34.420   4.200   4.490  1.00 20.00     0.005 C 
ENDBRANCH   6   7
ENDBRANCH   2   6
TORSDOF 3
ENDMDL
MODEL 7
REMARK VINA RESULT:      -4.5      1.987      2.405
REMARK  3 active torsions:
REMARK  status: ('A' for Active; 'I' for Inactive)
REMARK    1  A    between atoms: C4_4  and  C6_6 
REMARK    2  A    between atoms: C5_5  and  C7_7 
REMARK    3  A    between atoms: C6_6  and  C7_7 
ROOT
HETATM    1  C1  UNL     1     -33.005   5.719   3.002  1.00 20.00     0.064 C 
HETATM    2  C7  UNL     1     -32.846   7.073   3.568  1.00 20.00     0.092 C 
HETATM    3  N8  UNL     1     -33.127   4.654   2.557  1.00 20.00    -0.197 NA
ENDROOT
BRANCH   2   4
HETATM    4  C5  UNL     1     -33.738   7.246   4.814  1.00 20.00     0.014 C 
HETATM    5  C3  UNL     1     -34.423   5.975   5.302  1.00 20.00     0.006 C 
ENDBRANCH   2   4
BRANCH   2   6
HETATM    6  C6  UNL     1     -33.112   8.157   2.507  1.00 20.00     0.019 C 
BRANCH   6   7
HETATM    7  C4  UNL     1     -31.853   8.533   1.716  1.00 20.00    -0.003 C 
HETATM    8  C2  UNL     1     -32.163   9.556   0.633  1.00 20.00     0.005 C 
ENDBRANCH   6   7
ENDBRANCH   2   6
TORSDOF 3
ENDMDL
MODEL 8
REMARK VINA RESULT:      -4.5      1.647      2.350
REMARK  3 active torsions:
REMARK  status: ('A' for Active; 'I' for Inactive)
REMARK    1  A    between atoms: C4_4  and  C6_6 
REMARK    2  A    between atoms: C5_5  and  C7_7 
REMARK    3  A    between atoms: C6_6  and  C7_7 
ROOT
HETATM    1  C1  UNL     1     -34.457   6.148   3.668  1.00 20.00     0.064 C 
HETATM    2  C7  UNL     1     -33.114   6.752   3.553  1.00 20.00     0.092 C 
HETATM    3  N8  UNL     1     -35.511   5.671   3.759  1.00 20.00    -0.197 NA
ENDROOT
BRANCH   2   4
HETATM    4  C5  UNL     1     -32.867   7.743   4.707  1.00 20.00     0.014 C 
HETATM    5  C3  UNL     1     -33.597   7.422   6.006  1.00 20.00     0.006 C 
ENDBRANCH   2   4
BRANCH   2   6
HETATM    6  C6  UNL     1     -32.912   7.403   2.172  1.00 20.00     0.019 C 
BRANCH   6   7
HETATM    7  C4  UNL     1     -31.987   8.625   2.223  1.00 20.00    -0.003 C 
HETATM    8  C2  UNL     1     -32.208   9.538   1.026  1.00 20.00     0.005 C 
ENDBRANCH   6   7
ENDBRANCH   2   6
TORSDOF 3
ENDMDL
MODEL 9
REMARK VINA RESULT:      -4.5      1.758      2.588
REMARK  3 active torsions:
REMARK  status: ('A' for Active; 'I' for Inactive)
REMARK    1  A    between atoms: C4_4  and  C6_6 
REMARK    2  A    between atoms: C5_5  and  C7_7 
REMARK    3  A    between atoms: C6_6  and  C7_7 
ROOT
HETATM    1  C1  UNL     1     -32.635   7.760   3.929  1.00 20.00     0.064 C 
HETATM    2  C7  UNL     1     -33.981   7.293   4.317  1.00 20.00     0.092 C 
HETATM    3  N8  UNL     1     -31.578   8.129   3.623  1.00 20.00    -0.197 NA
ENDROOT
BRANCH   2   4
HETATM    4  C5  UNL     1     -33.967   6.740   5.756  1.00 20.00     0.014 C 
HETATM    5  C3  UNL     1     -34.578   5.354   5.924  1.00 20.00     0.006 C 
ENDBRANCH   2   4
BRANCH   2   6
HETATM    6  C6  UNL     1     -34.531   6.271   3.305  1.00 20.00     0.019 C 
BRANCH   6   7
HETATM    7  C4  UNL     1     -33.470   5.800   2.303  1.00 20.00    -0.003 C 
HETATM    8  C2  UNL     1     -32.976   4.400   2.637  1.00 20.00     0.005 C 
ENDBRANCH   6   7
ENDBRANCH   2   6
TORSDOF 3
ENDMDL
