MODEL 1
REMARK VINA RESULT:      -5.4      0.000      0.000
REMARK  1 active torsions:
REMARK  status: ('A' for Active; 'I' for Inactive)
REMARK    1  A    between atoms: C6_6  and  N7_7 
ROOT
HETATM    1  C1  UNL     1     -34.464   5.438   5.734  1.00 20.00     0.003 C 
HETATM    2  C2  UNL     1     -34.105   6.905   5.938  1.00 20.00     0.030 C 
HETATM    3  C3  UNL     1     -34.944   5.200   4.307  1.00 20.00     0.030 C 
HETATM    4  C4  UNL     1     -33.130   7.392   4.864  1.00 20.00     0.274 C 
HETATM    5  C5  UNL     1     -33.943   5.741   3.285  1.00 20.00     0.274 C 
HETATM    6  N7  UNL     1     -33.668   7.166   3.516  1.00 20.00     0.101 N 
ENDROOT
BRANCH   6   7
HETATM    7  C6  UNL     1     -32.747   7.680   2.503  1.00 20.00     0.386 C 
HETATM    8 CL8  UNL     1     -31.341   8.356   3.326  1.00 20.00    -0.098 Cl
ENDBRANCH   6   7
TORSDOF 1
ENDMDL
MODEL 2
REMARK VINA RESULT:      -5.0      0.698      1.829
REMARK  1 active torsions:
REMARK  status: ('A' for Active; 'I' for Inactive)
REMARK    1  A    between atoms: C6_6  and  N7_7 
ROOT
HETATM    1  C1  UNL     1     -34.878   5.005   5.376  1.00 20.00     0.003 C 
HETATM    2  C2  UNL     1     -34.136   4.364   4.209  1.00 20.00     0.030 C 
HETATM    3  C3  UNL     1     -34.139   6.247   5.859  1.00 20.00     0.030 C 
HETATM    4  C4  UNL     1     -33.848   5.384   3.106  1.00 20.00     0.274 C 
HETATM    5  C5  UNL     1     -33.851   7.208   4.704  1.00 20.00     0.274 C 
HETATM    6  N7  UNL     1     -33.104   6.537   3.631  1.00 20.00     0.101 N 
ENDROOT
BRANCH   6   7
HETATM    7  C6  UNL     1     -32.795   7.480   2.556  1.00 20.00     0.386 C 
HETATM    8 CL8  UNL     1     -31.431   8.475   3.067  1.00 20.00    -0.098 Cl
ENDBRANCH   6   7
TORSDOF 1
ENDMDL
MODEL 3
REMARK VINA RESULT:      -4.8      1.091      2.056
REMARK  1 active torsions:
REMARK  status: ('A' for Active; 'I' for Inactive)
REMARK    1  A    between atoms: C6_6  and  N7_7 
ROOT
HETATM    1  C1  UNL     1     -34.905   5.680   4.549  1.00 20.00     0.003 C 
HETATM    2  C2  UNL     1     -34.006   5.278   3.386  1.00 20.00     0.030 C 
HETATM    3  C3  UNL     1     -34.112   6.462   5.589  1.00 20.00     0.030 C 
HETATM    4  C4  UNL     1     -33.258   6.486   2.818  1.00 20.00     0.274 C 
HETATM    5  C5  UNL     1     -33.361   7.632   4.952  1.00 20.00     0.274 C 
HETATM    6  N7  UNL     1     -32.487   7.172   3.864  1.00 20.00     0.101 N 
ENDROOT
BRANCH   6   7
HETATM    7  C6  UNL     1     -31.741   8.294   3.297  1.00 20.00     0.386 C 
HETATM    8 CL8  UNL     1     -32.302   8.555   1.646  1.00 20.00    -0.098 Cl
ENDBRANCH   6   7
TORSDOF 1
ENDMDL
MODEL 4
REMARK VINA RESULT:      -4.3      2.084      3.579
REMARK  1 active torsions:
REMARK  status: ('A' for Active; 'I' for Inactive)
REMARK    1  A    between atoms: C6_6  and  N7_7 
ROOT
HETATM    1  C1  UNL     1     -31.647   8.085   3.674  1.00 20.00     0.003 C 
HETATM    2  C2  UNL     1     -32.453   7.663   2.451  1.00 20.00     0.030 C 
HETATM    3  C3  UNL     1     -32.565   8.294   4.871  1.00 20.00     0.030 C 
HETATM    4  C4  UNL     1     -33.351   6.465   2.763  1.00 20.00     0.274 C 
HETATM    5  C5  UNL     1     -33.459   7.076   5.108  1.00 20.00     0.274 C 
HETATM    6  N7  UNL     1     -34.234   6.746   3.903  1.00 20.00     0.101 N 
ENDROOT
BRANCH   6   7
HETATM    7  C6  UNL     1     -35.118   5.609   4.159  1.00 20.00     0.386 C 
HETATM    8 CL8  UNL     1     -34.557   4.788   5.615  1.00 20.00    -0.098 Cl
ENDBRANCH   6   7
TORSDOF 1
ENDMDL
MODEL 5
REMARK VINA RESULT:      -3.8      2.180      3.431
REMARK  1 active torsions:
REMARK  status: ('A' for Active; 'I' for Inactive)
REMARK    1  A    between atoms: C6_6  and  N7_7 
ROOT
HETATM    1  C1  UNL     1     -32.296   7.932   2.143  1.00 20.00     0.003 C 
HETATM    2  C2  UNL     1     -31.603   8.213   3.471  1.00 20.00     0.030 C 
HETATM    3  C3  UNL     1     -33.041   6.604   2.202  1.00 20.00     0.030 C 
HETATM    4  C4  UNL     1     -32.580   8.099   4.643  1.00 20.00     0.274 C 
HETATM    5  C5  UNL     1     -33.972   6.540   3.413  1.00 20.00     0.274 C 
HETATM    6  N7  UNL     1     -33.236   6.784   4.661  1.00 20.00     0.101 N 
ENDROOT
BRANCH   6   7
HETATM    7  C6  UNL     1     -34.130   6.673   5.813  1.00 20.00     0.386 C 
HETATM    8 CL8  UNL     1     -34.751   5.024   5.875  1.00 20.00    -0.098 Cl
ENDBRANCH   6   7
TORSDOF 1
ENDMDL
MODEL 6
REMARK VINA RESULT:      -3.8      1.804      1.971
REMARK  1 active torsions:
REMARK  status: ('A' for Active; 'I' for Inactive)
REMARK    1  A    between atoms: C6_6  and  N7_7 
ROOT
HETATM    1  C1  UNL     1     -33.975   6.506   6.314  1.00 20.00     0.003 C 
HETATM    2  C2  UNL     1     -33.682   7.693   5.405  1.00 20.00     0.030 C 
HETATM    3  C3  UNL     1     -34.885   5.507   5.609  1.00 20.00     0.030 C 
HETATM    4  C4  UNL     1     -33.162   7.233   4.041  1.00 20.00     0.274 C 
HETATM    5  C5  UNL     1     -34.327   5.116   4.240  1.00 20.00     0.274 C 
HETATM    6  N7  UNL     1     -34.101   6.302   3.402  1.00 20.00     0.101 N 
ENDROOT
BRANCH   6   7
HETATM    7  C6  UNL     1     -33.613   5.909   2.080  1.00 20.00     0.386 C 
HETATM    8 CL8  UNL     1     -32.792   4.355   2.232  1.00 20.00    -0.098 Cl
ENDBRANCH   6   7
TORSDOF 1
ENDMDL
MODEL 7
REMARK VINA RESULT:      -3.6      1.877      2.629
REMARK  1 active torsions:
REMARK  status: ('A' for Active; 'I' for Inactive)
REMARK    1  A    between atoms: C6_6  and  N7_7 
ROOT
HETATM    1  C1  UNL     1     -34.114   7.283   6.119  1.00 20.00     0.003 C 
HETATM    2  C2  UNL     1     -34.473   5.817   5.906  1.00 20.00     0.030 C 
HETATM    3  C3  UNL     1     -32.953   7.684   5.218  1.00 20.00     0.030 C 
HETATM    4  C4  UNL     1     -34.701   5.511   4.424  1.00 20.00     0.274 C 
HETATM    5  C5  UNL     1     -33.228   7.319   3.759  1.00 20.00     0.274 C 
HETATM    6  N7  UNL     1     -33.531   5.888   3.619  1.00 20.00     0.101 N 
ENDROOT
BRANCH   6   7
HETATM    7  C6  UNL     1     -33.745   5.545   2.213  1.00 20.00     0.386 C 
HETATM    8 CL8  UNL     1     -32.823   4.086   1.853  1.00 20.00    -0.098 Cl
ENDBRANCH   6   7
TORSDOF 1
ENDMDL
MODEL 8
REMARK VINA RESULT:      -3.4      1.382      2.565
REMARK  1 active torsions:
REMARK  status: ('A' for Active; 'I' for Inactive)
REMARK    1  A    between atoms: C6_6  and  N7_7 
ROOT
HETATM    1  C1  UNL     1     -33.667   4.384   3.126  1.00 20.00     0.003 C 
HETATM    2  C2  UNL     1     -34.475   4.202   4.406  1.00 20.00     0.030 C 
HETATM    3  C3  UNL     1     -33.729   5.832   2.658  1.00 20.00     0.030 C 
HETATM    4  C4  UNL     1     -34.062   5.219   5.472  1.00 20.00     0.274 C 
HETATM    5  C5  UNL     1     -33.340   6.797   3.778  1.00 20.00     0.274 C 
HETATM    6  N7  UNL     1     -34.179   6.594   4.968  1.00 20.00     0.101 N 
ENDROOT
BRANCH   6   7
HETATM    7  C6  UNL     1     -33.827   7.555   6.013  1.00 20.00     0.386 C 
HETATM    8 CL8  UNL     1     -32.403   8.450   5.484  1.00 20.00    -0.098 Cl
ENDBRANCH   6   7
TORSDOF 1
ENDMDL
MODEL 9
REMARK VINA RESULT:      -3.3     12.092     12.350
REMARK  1 active torsions:
REMARK  status: ('A' for Active; 'I' for Inactive)
REMARK    1  A    between atoms: C6_6  and  N7_7 
ROOT
HETATM    1  C1  UNL     1     -33.616  16.293  -3.605  1.00 20.00     0.003 C 
HETATM    2  C2  UNL     1     -34.995  15.979  -3.034  1.00 20.00     0.030 C 
HETATM    3  C3  UNL     1     -33.025  15.060  -4.277  1.00 20.00     0.030 C 
HETATM    4  C4  UNL     1     -35.904  15.350  -4.092  1.00 20.00     0.274 C 
HETATM    5  C5  UNL     1     -33.995  14.460  -5.295  1.00 20.00     0.274 C 
HETATM    6  N7  UNL     1     -35.290  14.148  -4.672  1.00 20.00     0.101 N 
ENDROOT
BRANCH   6   7
HETATM    7  C6  UNL     1     -36.190  13.531  -5.646  1.00 20.00     0.386 C 
HETATM    8 CL8  UNL     1     -35.236  13.028  -7.041  1.00 20.00    -0.098 Cl
ENDBRANCH   6   7
TORSDOF 1
ENDMDL
