MODEL 1
REMARK VINA RESULT:      -6.4      0.000      0.000
REMARK  1 active torsions:
REMARK  status: ('A' for Active; 'I' for Inactive)
REMARK    1  A    between atoms: C4_4  and  C8_8 
ROOT
HETATM    1  C1  UNL     1     -34.000   6.717   4.885  1.00 20.00    -0.057 C 
HETATM    2  C2  UNL     1     -33.561   7.362   5.977  1.00 20.00     0.017 C 
HETATM    3  C5  UNL     1     -34.872   5.495   5.003  1.00 20.00     0.038 C 
HETATM    4  C6  UNL     1     -34.243   4.316   4.264  1.00 20.00     0.030 C 
HETATM    5  C7  UNL     1     -33.361   4.751   3.095  1.00 20.00     0.169 C 
HETATM    6  C8  UNL     1     -33.677   7.107   3.453  1.00 20.00     0.171 C 
HETATM    7  O9  UNL     1     -33.816   5.989   2.551  1.00 20.00    -0.378 OA
ENDROOT
BRANCH   6   8
HETATM    8  C4  UNL     1     -32.329   7.727   3.246  1.00 20.00    -0.001 C 
HETATM    9  C3  UNL     1     -31.948   8.327   2.113  1.00 20.00     0.010 C 
ENDBRANCH   6   8
TORSDOF 1
ENDMDL
MODEL 2
REMARK VINA RESULT:      -5.0      1.298      3.752
REMARK  1 active torsions:
REMARK  status: ('A' for Active; 'I' for Inactive)
REMARK    1  A    between atoms: C4_4  and  C8_8 
ROOT
HETATM    1  C1  UNL     1     -33.355   5.900   2.829  1.00 20.00    -0.057 C 
HETATM    2  C2  UNL     1     -32.943   4.732   2.313  1.00 20.00     0.017 C 
HETATM    3  C5  UNL     1     -32.648   7.188   2.496  1.00 20.00     0.038 C 
HETATM    4  C6  UNL     1     -32.189   7.892   3.771  1.00 20.00     0.030 C 
HETATM    5  C7  UNL     1     -33.070   7.571   4.976  1.00 20.00     0.169 C 
HETATM    6  C8  UNL     1     -34.523   6.069   3.786  1.00 20.00     0.171 C 
HETATM    7  O9  UNL     1     -34.405   7.279   4.564  1.00 20.00    -0.378 OA
ENDROOT
BRANCH   6   8
HETATM    8  C4  UNL     1     -34.759   4.920   4.718  1.00 20.00    -0.001 C 
HETATM    9  C3  UNL     1     -34.650   5.001   6.048  1.00 20.00     0.010 C 
ENDBRANCH   6   8
TORSDOF 1
ENDMDL
MODEL 3
REMARK VINA RESULT:      -4.8      1.160      2.484
REMARK  1 active torsions:
REMARK  status: ('A' for Active; 'I' for Inactive)
REMARK    1  A    between atoms: C4_4  and  C8_8 
ROOT
HETATM    1  C1  UNL     1     -33.324   7.316   4.125  1.00 20.00    -0.057 C 
HETATM    2  C2  UNL     1     -32.120   7.749   3.719  1.00 20.00     0.017 C 
HETATM    3  C5  UNL     1     -33.799   7.553   5.534  1.00 20.00     0.038 C 
HETATM    4  C6  UNL     1     -34.172   6.231   6.202  1.00 20.00     0.030 C 
HETATM    5  C7  UNL     1     -34.634   5.172   5.204  1.00 20.00     0.169 C 
HETATM    6  C8  UNL     1     -34.313   6.552   3.262  1.00 20.00     0.171 C 
HETATM    7  O9  UNL     1     -35.233   5.780   4.061  1.00 20.00    -0.378 OA
ENDROOT
BRANCH   6   8
HETATM    8  C4  UNL     1     -33.703   5.654   2.230  1.00 20.00    -0.001 C 
HETATM    9  C3  UNL     1     -32.949   4.587   2.518  1.00 20.00     0.010 C 
ENDBRANCH   6   8
TORSDOF 1
ENDMDL
MODEL 4
REMARK VINA RESULT:      -4.5      1.378      2.414
REMARK  1 active torsions:
REMARK  status: ('A' for Active; 'I' for Inactive)
REMARK    1  A    between atoms: C4_4  and  C8_8 
ROOT
HETATM    1  C1  UNL     1     -33.785   5.978   3.198  1.00 20.00    -0.057 C 
HETATM    2  C2  UNL     1     -34.422   5.763   2.037  1.00 20.00     0.017 C 
HETATM    3  C5  UNL     1     -34.120   5.176   4.428  1.00 20.00     0.038 C 
HETATM    4  C6  UNL     1     -34.506   6.101   5.581  1.00 20.00     0.030 C 
HETATM    5  C7  UNL     1     -33.842   7.473   5.488  1.00 20.00     0.169 C 
HETATM    6  C8  UNL     1     -32.702   7.021   3.420  1.00 20.00     0.171 C 
HETATM    7  O9  UNL     1     -32.589   7.385   4.811  1.00 20.00    -0.378 OA
ENDROOT
BRANCH   6   8
HETATM    8  C4  UNL     1     -32.840   8.271   2.606  1.00 20.00    -0.001 C 
HETATM    9  C3  UNL     1     -31.985   8.636   1.645  1.00 20.00     0.010 C 
ENDBRANCH   6   8
TORSDOF 1
ENDMDL
MODEL 5
REMARK VINA RESULT:      -4.3      1.120      3.047
REMARK  1 active torsions:
REMARK  status: ('A' for Active; 'I' for Inactive)
REMARK    1  A    between atoms: C4_4  and  C8_8 
ROOT
HETATM    1  C1  UNL     1     -34.122   5.120   3.842  1.00 20.00    -0.057 C 
HETATM    2  C2  UNL     1     -34.115   3.951   4.502  1.00 20.00     0.017 C 
HETATM    3  C5  UNL     1     -33.664   5.206   2.410  1.00 20.00     0.038 C 
HETATM    4  C6  UNL     1     -32.547   6.238   2.267  1.00 20.00     0.030 C 
HETATM    5  C7  UNL     1     -32.629   7.349   3.311  1.00 20.00     0.169 C 
HETATM    6  C8  UNL     1     -34.559   6.451   4.429  1.00 20.00     0.171 C 
HETATM    7  O9  UNL     1     -33.980   7.564   3.717  1.00 20.00    -0.378 OA
ENDROOT
BRANCH   6   8
HETATM    8  C4  UNL     1     -34.290   6.624   5.893  1.00 20.00    -0.001 C 
HETATM    9  C3  UNL     1     -33.564   7.623   6.406  1.00 20.00     0.010 C 
ENDBRANCH   6   8
TORSDOF 1
ENDMDL
MODEL 6
REMARK VINA RESULT:      -4.1      1.070      3.282
REMARK  1 active torsions:
REMARK  status: ('A' for Active; 'I' for Inactive)
REMARK    1  A    between atoms: C4_4  and  C8_8 
ROOT
HETATM    1  C1  UNL     1     -32.873   7.392   4.600  1.00 20.00    -0.057 C 
HETATM    2  C2  UNL     1     -33.502   7.738   5.734  1.00 20.00     0.017 C 
HETATM    3  C5  UNL     1     -31.776   8.249   4.028  1.00 20.00     0.038 C 
HETATM    4  C6  UNL     1     -32.100   8.644   2.589  1.00 20.00     0.030 C 
HETATM    5  C7  UNL     1     -32.980   7.619   1.876  1.00 20.00     0.169 C 
HETATM    6  C8  UNL     1     -33.183   6.155   3.773  1.00 20.00     0.171 C 
HETATM    7  O9  UNL     1     -32.761   6.311   2.402  1.00 20.00    -0.378 OA
ENDROOT
BRANCH   6   8
HETATM    8  C4  UNL     1     -34.615   5.717   3.788  1.00 20.00    -0.001 C 
HETATM    9  C3  UNL     1     -35.090   4.738   4.566  1.00 20.00     0.010 C 
ENDBRANCH   6   8
TORSDOF 1
ENDMDL
MODEL 7
REMARK VINA RESULT:      -4.0     11.672     12.570
REMARK  1 active torsions:
REMARK  status: ('A' for Active; 'I' for Inactive)
REMARK    1  A    between atoms: C4_4  and  C8_8 
ROOT
HETATM    1  C1  UNL     1     -33.962  15.168  -5.898  1.00 20.00    -0.057 C 
HETATM    2  C2  UNL     1     -33.721  16.427  -6.298  1.00 20.00     0.017 C 
HETATM    3  C5  UNL     1     -34.190  14.066  -6.899  1.00 20.00     0.038 C 
HETATM    4  C6  UNL     1     -35.529  13.378  -6.640  1.00 20.00     0.030 C 
HETATM    5  C7  UNL     1     -35.955  13.440  -5.175  1.00 20.00     0.169 C 
HETATM    6  C8  UNL     1     -34.048  14.713  -4.451  1.00 20.00     0.171 C 
HETATM    7  O9  UNL     1     -34.815  13.498  -4.319  1.00 20.00    -0.378 OA
ENDROOT
BRANCH   6   8
HETATM    8  C4  UNL     1     -34.587  15.729  -3.491  1.00 20.00    -0.001 C 
HETATM    9  C3  UNL     1     -33.824  16.482  -2.692  1.00 20.00     0.010 C 
ENDBRANCH   6   8
TORSDOF 1
ENDMDL
MODEL 8
REMARK VINA RESULT:      -3.7     11.733     12.435
REMARK  1 active torsions:
REMARK  status: ('A' for Active; 'I' for Inactive)
REMARK    1  A    between atoms: C4_4  and  C8_8 
ROOT
HETATM    1  C1  UNL     1     -35.750  15.161  -4.079  1.00 20.00    -0.057 C 
HETATM    2  C2  UNL     1     -36.996  15.639  -4.217  1.00 20.00     0.017 C 
HETATM    3  C5  UNL     1     -34.764  15.820  -3.151  1.00 20.00     0.038 C 
HETATM    4  C6  UNL     1     -33.495  16.208  -3.908  1.00 20.00     0.030 C 
HETATM    5  C7  UNL     1     -33.219  15.305  -5.107  1.00 20.00     0.169 C 
HETATM    6  C8  UNL     1     -35.190  13.957  -4.819  1.00 20.00     0.171 C 
HETATM    7  O9  UNL     1     -33.750  13.998  -4.890  1.00 20.00    -0.378 OA
ENDROOT
BRANCH   6   8
HETATM    8  C4  UNL     1     -35.733  13.743  -6.198  1.00 20.00    -0.001 C 
HETATM    9  C3  UNL     1     -35.107  13.040  -7.148  1.00 20.00     0.010 C 
ENDBRANCH   6   8
TORSDOF 1
ENDMDL
MODEL 9
REMARK VINA RESULT:      -3.6     11.954     12.733
REMARK  1 active torsions:
REMARK  status: ('A' for Active; 'I' for Inactive)
REMARK    1  A    between atoms: C4_4  and  C8_8 
ROOT
HETATM    1  C1  UNL     1     -34.526  15.406  -3.802  1.00 20.00    -0.057 C 
HETATM    2  C2  UNL     1     -34.760  16.198  -2.745  1.00 20.00     0.017 C 
HETATM    3  C5  UNL     1     -33.156  15.321  -4.420  1.00 20.00     0.038 C 
HETATM    4  C6  UNL     1     -33.218  15.658  -5.909  1.00 20.00     0.030 C 
HETATM    5  C7  UNL     1     -34.570  15.327  -6.536  1.00 20.00     0.169 C 
HETATM    6  C8  UNL     1     -35.568  14.543  -4.494  1.00 20.00     0.171 C 
HETATM    7  O9  UNL     1     -35.192  14.239  -5.853  1.00 20.00    -0.378 OA
ENDROOT
BRANCH   6   8
HETATM    8  C4  UNL     1     -36.961  15.095  -4.492  1.00 20.00    -0.001 C 
HETATM    9  C3  UNL     1     -38.002  14.498  -5.081  1.00 20.00     0.010 C 
ENDBRANCH   6   8
TORSDOF 1
ENDMDL
