MODEL 1
REMARK VINA RESULT:      -5.3      0.000      0.000
REMARK  2 active torsions:
REMARK  status: ('A' for Active; 'I' for Inactive)
REMARK    1  A    between atoms: C1_1  and  C3_3 
REMARK    2  A    between atoms: C1_1  and  C8_8 
ROOT
HETATM    1  C2  UNL     1     -32.811   5.710   3.155  1.00 20.00     0.022 A 
HETATM    2  C3  UNL     1     -33.215   7.027   2.546  1.00 20.00     0.064 A 
HETATM    3  C4  UNL     1     -33.907   6.522   3.800  1.00 20.00    -0.037 A 
HETATM    4  C5  UNL     1     -35.325   6.032   3.658  1.00 20.00     0.015 C 
HETATM    5  C6  UNL     1     -33.612   7.166   5.129  1.00 20.00     0.015 C 
ENDROOT
BRANCH   2   6
HETATM    6  C1  UNL     1     -32.287   8.163   2.600  1.00 20.00     0.131 C 
HETATM    7  O9  UNL     1     -31.267   8.116   3.287  1.00 20.00    -0.298 OA
BRANCH   6   8
HETATM    8  C8  UNL     1     -32.663   9.374   1.768  1.00 20.00     0.074 C 
HETATM    9  C7  UNL     1     -32.176   9.272   0.334  1.00 20.00     0.013 C 
ENDBRANCH   6   8
ENDBRANCH   2   6
TORSDOF 2
ENDMDL
MODEL 2
REMARK VINA RESULT:      -5.2      1.105      1.860
REMARK  2 active torsions:
REMARK  status: ('A' for Active; 'I' for Inactive)
REMARK    1  A    between atoms: C1_1  and  C3_3 
REMARK    2  A    between atoms: C1_1  and  C8_8 
ROOT
HETATM    1  C2  UNL     1     -34.963   6.341   3.127  1.00 20.00     0.022 A 
HETATM    2  C3  UNL     1     -33.838   6.841   3.996  1.00 20.00     0.064 A 
HETATM    3  C4  UNL     1     -33.979   5.356   3.709  1.00 20.00    -0.037 A 
HETATM    4  C5  UNL     1     -34.448   4.475   4.838  1.00 20.00     0.015 C 
HETATM    5  C6  UNL     1     -33.020   4.681   2.763  1.00 20.00     0.015 C 
ENDROOT
BRANCH   2   6
HETATM    6  C1  UNL     1     -32.755   7.627   3.393  1.00 20.00     0.131 C 
HETATM    7  O9  UNL     1     -31.764   7.949   4.048  1.00 20.00    -0.298 OA
BRANCH   6   8
HETATM    8  C8  UNL     1     -32.937   8.009   1.936  1.00 20.00     0.074 C 
HETATM    9  C7  UNL     1     -32.204   9.288   1.571  1.00 20.00     0.013 C 
ENDBRANCH   6   8
ENDBRANCH   2   6
TORSDOF 2
ENDMDL
MODEL 3
REMARK VINA RESULT:      -4.9      0.881      4.014
REMARK  2 active torsions:
REMARK  status: ('A' for Active; 'I' for Inactive)
REMARK    1  A    between atoms: C1_1  and  C3_3 
REMARK    2  A    between atoms: C1_1  and  C8_8 
ROOT
HETATM    1  C2  UNL     1     -32.412  10.198   1.713  1.00 20.00     0.022 A 
HETATM    2  C3  UNL     1     -33.014   8.834   1.931  1.00 20.00     0.064 A 
HETATM    3  C4  UNL     1     -32.358   9.175   0.605  1.00 20.00    -0.037 A 
HETATM    4  C5  UNL     1     -33.261   9.374  -0.584  1.00 20.00     0.015 C 
HETATM    5  C6  UNL     1     -31.014   8.587   0.261  1.00 20.00     0.015 C 
ENDROOT
BRANCH   2   6
HETATM    6  C1  UNL     1     -32.377   7.906   2.874  1.00 20.00     0.131 C 
HETATM    7  O9  UNL     1     -31.474   8.281   3.621  1.00 20.00    -0.298 OA
BRANCH   6   8
HETATM    8  C8  UNL     1     -32.897   6.481   2.863  1.00 20.00     0.074 C 
HETATM    9  C7  UNL     1     -34.219   6.336   3.595  1.00 20.00     0.013 C 
ENDBRANCH   6   8
ENDBRANCH   2   6
TORSDOF 2
ENDMDL
MODEL 4
REMARK VINA RESULT:      -4.8      1.698      2.422
REMARK  2 active torsions:
REMARK  status: ('A' for Active; 'I' for Inactive)
REMARK    1  A    between atoms: C1_1  and  C3_3 
REMARK    2  A    between atoms: C1_1  and  C8_8 
ROOT
HETATM    1  C2  UNL     1     -35.435   5.999   3.765  1.00 20.00     0.022 A 
HETATM    2  C3  UNL     1     -34.071   6.563   4.065  1.00 20.00     0.064 A 
HETATM    3  C4  UNL     1     -34.512   5.254   4.696  1.00 20.00    -0.037 A 
HETATM    4  C5  UNL     1     -34.832   5.269   6.169  1.00 20.00     0.015 C 
HETATM    5  C6  UNL     1     -33.927   3.953   4.211  1.00 20.00     0.015 C 
ENDROOT
BRANCH   2   6
HETATM    6  C1  UNL     1     -33.051   6.587   3.009  1.00 20.00     0.131 C 
HETATM    7  O9  UNL     1     -33.033   5.731   2.125  1.00 20.00    -0.298 OA
BRANCH   6   8
HETATM    8  C8  UNL     1     -32.041   7.717   3.081  1.00 20.00     0.074 C 
HETATM    9  C7  UNL     1     -32.122   8.650   1.886  1.00 20.00     0.013 C 
ENDBRANCH   6   8
ENDBRANCH   2   6
TORSDOF 2
ENDMDL
MODEL 5
REMARK VINA RESULT:      -4.5      2.358      4.134
REMARK  2 active torsions:
REMARK  status: ('A' for Active; 'I' for Inactive)
REMARK    1  A    between atoms: C1_1  and  C3_3 
REMARK    2  A    between atoms: C1_1  and  C8_8 
ROOT
HETATM    1  C2  UNL     1     -32.940   4.899   2.508  1.00 20.00     0.022 A 
HETATM    2  C3  UNL     1     -33.179   5.474   3.881  1.00 20.00     0.064 A 
HETATM    3  C4  UNL     1     -33.525   6.283   2.643  1.00 20.00    -0.037 A 
HETATM    4  C5  UNL     1     -32.641   7.458   2.314  1.00 20.00     0.015 C 
HETATM    5  C6  UNL     1     -34.968   6.475   2.252  1.00 20.00     0.015 C 
ENDROOT
BRANCH   2   6
HETATM    6  C1  UNL     1     -34.232   4.903   4.729  1.00 20.00     0.131 C 
HETATM    7  O9  UNL     1     -34.731   3.808   4.470  1.00 20.00    -0.298 OA
BRANCH   6   8
HETATM    8  C8  UNL     1     -34.655   5.738   5.923  1.00 20.00     0.074 C 
HETATM    9  C7  UNL     1     -33.927   7.068   5.993  1.00 20.00     0.013 C 
ENDBRANCH   6   8
ENDBRANCH   2   6
TORSDOF 2
ENDMDL
MODEL 6
REMARK VINA RESULT:      -4.5      2.115      4.231
REMARK  2 active torsions:
REMARK  status: ('A' for Active; 'I' for Inactive)
REMARK    1  A    between atoms: C1_1  and  C3_3 
REMARK    2  A    between atoms: C1_1  and  C8_8 
ROOT
HETATM    1  C2  UNL     1     -32.566   7.620   4.359  1.00 20.00     0.022 A 
HETATM    2  C3  UNL     1     -33.977   7.546   3.836  1.00 20.00     0.064 A 
HETATM    3  C4  UNL     1     -32.804   7.295   2.905  1.00 20.00    -0.037 A 
HETATM    4  C5  UNL     1     -32.491   8.359   1.885  1.00 20.00     0.015 C 
HETATM    5  C6  UNL     1     -32.502   5.894   2.442  1.00 20.00     0.015 C 
ENDROOT
BRANCH   2   6
HETATM    6  C1  UNL     1     -34.850   6.447   4.266  1.00 20.00     0.131 C 
HETATM    7  O9  UNL     1     -35.785   6.066   3.562  1.00 20.00    -0.298 OA
BRANCH   6   8
HETATM    8  C8  UNL     1     -34.528   5.824   5.611  1.00 20.00     0.074 C 
HETATM    9  C7  UNL     1     -34.355   4.318   5.532  1.00 20.00     0.013 C 
ENDBRANCH   6   8
ENDBRANCH   2   6
TORSDOF 2
ENDMDL
MODEL 7
REMARK VINA RESULT:      -4.4      1.632      3.930
REMARK  2 active torsions:
REMARK  status: ('A' for Active; 'I' for Inactive)
REMARK    1  A    between atoms: C1_1  and  C3_3 
REMARK    2  A    between atoms: C1_1  and  C8_8 
ROOT
HETATM    1  C2  UNL     1     -33.801   8.370   2.667  1.00 20.00     0.022 A 
HETATM    2  C3  UNL     1     -33.362   7.019   2.163  1.00 20.00     0.064 A 
HETATM    3  C4  UNL     1     -32.337   8.110   2.413  1.00 20.00    -0.037 A 
HETATM    4  C5  UNL     1     -31.704   8.756   1.208  1.00 20.00     0.015 C 
HETATM    5  C6  UNL     1     -31.424   8.021   3.609  1.00 20.00     0.015 C 
ENDROOT
BRANCH   2   6
HETATM    6  C1  UNL     1     -33.456   5.852   3.049  1.00 20.00     0.131 C 
HETATM    7  O9  UNL     1     -32.786   4.841   2.840  1.00 20.00    -0.298 OA
BRANCH   6   8
HETATM    8  C8  UNL     1     -34.417   5.975   4.216  1.00 20.00     0.074 C 
HETATM    9  C7  UNL     1     -34.575   4.674   4.982  1.00 20.00     0.013 C 
ENDBRANCH   6   8
ENDBRANCH   2   6
TORSDOF 2
ENDMDL
MODEL 8
REMARK VINA RESULT:      -4.3     10.250     11.502
REMARK  2 active torsions:
REMARK  status: ('A' for Active; 'I' for Inactive)
REMARK    1  A    between atoms: C1_1  and  C3_3 
REMARK    2  A    between atoms: C1_1  and  C8_8 
ROOT
HETATM    1  C2  UNL     1     -35.342  15.315  -3.983  1.00 20.00     0.022 A 
HETATM    2  C3  UNL     1     -35.207  14.989  -5.448  1.00 20.00     0.064 A 
HETATM    3  C4  UNL     1     -33.987  15.395  -4.642  1.00 20.00    -0.037 A 
HETATM    4  C5  UNL     1     -33.408  16.762  -4.902  1.00 20.00     0.015 C 
HETATM    5  C6  UNL     1     -32.961  14.359  -4.262  1.00 20.00     0.015 C 
ENDROOT
BRANCH   2   6
HETATM    6  C1  UNL     1     -35.389  13.604  -5.900  1.00 20.00     0.131 C 
HETATM    7  O9  UNL     1     -35.951  12.773  -5.186  1.00 20.00    -0.298 OA
BRANCH   6   8
HETATM    8  C8  UNL     1     -34.848  13.273  -7.277  1.00 20.00     0.074 C 
HETATM    9  C7  UNL     1     -34.124  14.444  -7.917  1.00 20.00     0.013 C 
ENDBRANCH   6   8
ENDBRANCH   2   6
TORSDOF 2
ENDMDL
MODEL 9
REMARK VINA RESULT:      -4.3      2.137      4.113
REMARK  2 active torsions:
REMARK  status: ('A' for Active; 'I' for Inactive)
REMARK    1  A    between atoms: C1_1  and  C3_3 
REMARK    2  A    between atoms: C1_1  and  C8_8 
ROOT
HETATM    1  C2  UNL     1     -33.597   8.017   2.582  1.00 20.00     0.022 A 
HETATM    2  C3  UNL     1     -33.358   6.560   2.884  1.00 20.00     0.064 A 
HETATM    3  C4  UNL     1     -32.682   7.633   3.718  1.00 20.00    -0.037 A 
HETATM    4  C5  UNL     1     -31.200   7.828   3.527  1.00 20.00     0.015 C 
HETATM    5  C6  UNL     1     -33.158   7.901   5.123  1.00 20.00     0.015 C 
ENDROOT
BRANCH   2   6
HETATM    6  C1  UNL     1     -34.449   5.748   3.436  1.00 20.00     0.131 C 
HETATM    7  O9  UNL     1     -35.623   6.097   3.316  1.00 20.00    -0.298 OA
BRANCH   6   8
HETATM    8  C8  UNL     1     -34.039   4.475   4.152  1.00 20.00     0.074 C 
HETATM    9  C7  UNL     1     -34.441   4.472   5.616  1.00 20.00     0.013 C 
ENDBRANCH   6   8
ENDBRANCH   2   6
TORSDOF 2
ENDMDL
