MODEL 1
REMARK VINA RESULT:      -6.4      0.000      0.000
REMARK  0 active torsions:
REMARK  status: ('A' for Active; 'I' for Inactive)
ROOT
HETATM    1  C1  UNL     1     -34.468   4.771   4.093  1.00 20.00    -0.030 C 
HETATM    2  C2  UNL     1     -34.174   5.645   3.121  1.00 20.00    -0.020 C 
HETATM    3  C3  UNL     1     -33.390   7.238   5.733  1.00 20.00    -0.021 C 
HETATM    4  C4  UNL     1     -33.021   7.510   4.477  1.00 20.00    -0.050 C 
HETATM    5  C5  UNL     1     -34.466   4.967   5.582  1.00 20.00     0.030 C 
HETATM    6  C6  UNL     1     -34.582   6.407   6.079  1.00 20.00     0.031 C 
HETATM    7  C7  UNL     1     -31.832   8.345   4.126  1.00 20.00     0.202 C 
HETATM    8  C8  UNL     1     -32.568   7.328   2.208  1.00 20.00     0.180 C 
HETATM    9  C9  UNL     1     -33.690   7.065   3.211  1.00 20.00     0.062 C 
HETATM   10  O10 UNL     1     -31.868   8.478   2.698  1.00 20.00    -0.386 OA
ENDROOT
TORSDOF 0
ENDMDL
MODEL 2
REMARK VINA RESULT:      -6.2      1.992      3.986
REMARK  0 active torsions:
REMARK  status: ('A' for Active; 'I' for Inactive)
ROOT
HETATM    1  C1  UNL     1     -32.594   8.150   5.064  1.00 20.00    -0.030 C 
HETATM    2  C2  UNL     1     -33.622   7.399   5.483  1.00 20.00    -0.020 C 
HETATM    3  C3  UNL     1     -33.003   6.186   2.633  1.00 20.00    -0.021 C 
HETATM    4  C4  UNL     1     -33.721   5.626   3.613  1.00 20.00    -0.050 C 
HETATM    5  C5  UNL     1     -31.925   8.183   3.720  1.00 20.00     0.030 C 
HETATM    6  C6  UNL     1     -32.739   7.653   2.541  1.00 20.00     0.031 C 
HETATM    7  C7  UNL     1     -33.993   4.160   3.706  1.00 20.00     0.202 C 
HETATM    8  C8  UNL     1     -34.625   5.120   5.690  1.00 20.00     0.180 C 
HETATM    9  C9  UNL     1     -34.381   6.315   4.771  1.00 20.00     0.062 C 
HETATM   10  O10 UNL     1     -34.880   4.007   4.823  1.00 20.00    -0.386 OA
ENDROOT
TORSDOF 0
ENDMDL
MODEL 3
REMARK VINA RESULT:      -5.5      0.775      2.326
REMARK  0 active torsions:
REMARK  status: ('A' for Active; 'I' for Inactive)
ROOT
HETATM    1  C1  UNL     1     -34.108   6.868   5.699  1.00 20.00    -0.030 C 
HETATM    2  C2  UNL     1     -33.038   7.561   5.284  1.00 20.00    -0.020 C 
HETATM    3  C3  UNL     1     -33.788   5.862   2.729  1.00 20.00    -0.021 C 
HETATM    4  C4  UNL     1     -33.001   6.942   2.781  1.00 20.00    -0.050 C 
HETATM    5  C5  UNL     1     -34.854   5.764   5.008  1.00 20.00     0.030 C 
HETATM    6  C6  UNL     1     -34.096   5.010   3.917  1.00 20.00     0.031 C 
HETATM    7  C7  UNL     1     -32.686   7.794   1.595  1.00 20.00     0.202 C 
HETATM    8  C8  UNL     1     -31.965   8.902   3.469  1.00 20.00     0.180 C 
HETATM    9  C9  UNL     1     -32.294   7.500   3.981  1.00 20.00     0.062 C 
HETATM   10  O10 UNL     1     -31.732   8.759   2.062  1.00 20.00    -0.386 OA
ENDROOT
TORSDOF 0
ENDMDL
MODEL 4
REMARK VINA RESULT:      -4.9      1.837      3.442
REMARK  0 active torsions:
REMARK  status: ('A' for Active; 'I' for Inactive)
ROOT
HETATM    1  C1  UNL     1     -33.268   7.196   1.664  1.00 20.00    -0.030 C 
HETATM    2  C2  UNL     1     -33.703   6.182   2.425  1.00 20.00    -0.020 C 
HETATM    3  C3  UNL     1     -32.397   8.121   4.549  1.00 20.00    -0.021 C 
HETATM    4  C4  UNL     1     -33.248   7.115   4.785  1.00 20.00    -0.050 C 
HETATM    5  C5  UNL     1     -32.424   8.378   2.045  1.00 20.00     0.030 C 
HETATM    6  C6  UNL     1     -31.575   8.230   3.307  1.00 20.00     0.031 C 
HETATM    7  C7  UNL     1     -34.068   6.999   6.028  1.00 20.00     0.202 C 
HETATM    8  C8  UNL     1     -34.849   5.456   4.523  1.00 20.00     0.180 C 
HETATM    9  C9  UNL     1     -33.542   5.941   3.899  1.00 20.00     0.062 C 
HETATM   10  O10 UNL     1     -34.740   5.736   5.924  1.00 20.00    -0.386 OA
ENDROOT
TORSDOF 0
ENDMDL
MODEL 5
REMARK VINA RESULT:      -4.5     11.820     12.318
REMARK  0 active torsions:
REMARK  status: ('A' for Active; 'I' for Inactive)
ROOT
HETATM    1  C1  UNL     1     -33.625  17.263  -1.749  1.00 20.00    -0.030 C 
HETATM    2  C2  UNL     1     -32.717  18.089  -1.211  1.00 20.00    -0.020 C 
HETATM    3  C3  UNL     1     -35.001  18.066   0.971  1.00 20.00    -0.021 C 
HETATM    4  C4  UNL     1     -33.736  18.475   1.126  1.00 20.00    -0.050 C 
HETATM    5  C5  UNL     1     -35.014  16.941  -1.281  1.00 20.00     0.030 C 
HETATM    6  C6  UNL     1     -35.675  17.963  -0.358  1.00 20.00     0.031 C 
HETATM    7  C7  UNL     1     -33.059  18.584   2.453  1.00 20.00     0.202 C 
HETATM    8  C8  UNL     1     -31.459  18.806   0.826  1.00 20.00     0.180 C 
HETATM    9  C9  UNL     1     -32.775  18.897   0.055  1.00 20.00     0.062 C 
HETATM   10  O10 UNL     1     -31.774  19.160   2.178  1.00 20.00    -0.386 OA
ENDROOT
TORSDOF 0
ENDMDL
MODEL 6
REMARK VINA RESULT:      -4.5     11.722     12.401
REMARK  0 active torsions:
REMARK  status: ('A' for Active; 'I' for Inactive)
ROOT
HETATM    1  C1  UNL     1     -33.198  15.568  -4.438  1.00 20.00    -0.030 C 
HETATM    2  C2  UNL     1     -33.919  14.485  -4.761  1.00 20.00    -0.020 C 
HETATM    3  C3  UNL     1     -36.005  16.252  -3.178  1.00 20.00    -0.021 C 
HETATM    4  C4  UNL     1     -36.267  15.217  -3.985  1.00 20.00    -0.050 C 
HETATM    5  C5  UNL     1     -33.561  16.724  -3.552  1.00 20.00     0.030 C 
HETATM    6  C6  UNL     1     -34.676  16.480  -2.536  1.00 20.00     0.031 C 
HETATM    7  C7  UNL     1     -37.596  14.982  -4.624  1.00 20.00     0.202 C 
HETATM    8  C8  UNL     1     -36.084  13.564  -5.603  1.00 20.00     0.180 C 
HETATM    9  C9  UNL     1     -35.330  14.120  -4.396  1.00 20.00     0.062 C 
HETATM   10  O10 UNL     1     -37.476  13.723  -5.301  1.00 20.00    -0.386 OA
ENDROOT
TORSDOF 0
ENDMDL
MODEL 7
REMARK VINA RESULT:      -4.5     11.699     12.913
REMARK  0 active torsions:
REMARK  status: ('A' for Active; 'I' for Inactive)
ROOT
HETATM    1  C1  UNL     1     -33.489  17.034  -5.680  1.00 20.00    -0.030 C 
HETATM    2  C2  UNL     1     -33.424  15.839  -6.283  1.00 20.00    -0.020 C 
HETATM    3  C3  UNL     1     -34.993  15.180  -3.622  1.00 20.00    -0.021 C 
HETATM    4  C4  UNL     1     -34.919  14.428  -4.726  1.00 20.00    -0.050 C 
HETATM    5  C5  UNL     1     -33.979  17.381  -4.304  1.00 20.00     0.030 C 
HETATM    6  C6  UNL     1     -34.001  16.245  -3.283  1.00 20.00     0.031 C 
HETATM    7  C7  UNL     1     -35.905  13.359  -5.066  1.00 20.00     0.202 C 
HETATM    8  C8  UNL     1     -34.600  13.726  -6.914  1.00 20.00     0.180 C 
HETATM    9  C9  UNL     1     -33.879  14.489  -5.804  1.00 20.00     0.062 C 
HETATM   10  O10 UNL     1     -35.396  12.735  -6.253  1.00 20.00    -0.386 OA
ENDROOT
TORSDOF 0
ENDMDL
MODEL 8
REMARK VINA RESULT:      -4.4     11.766     12.497
REMARK  0 active torsions:
REMARK  status: ('A' for Active; 'I' for Inactive)
ROOT
HETATM    1  C1  UNL     1     -35.802  16.965  -2.325  1.00 20.00    -0.030 C 
HETATM    2  C2  UNL     1     -36.685  16.638  -3.279  1.00 20.00    -0.020 C 
HETATM    3  C3  UNL     1     -34.160  14.907  -4.058  1.00 20.00    -0.021 C 
HETATM    4  C4  UNL     1     -35.418  14.741  -4.482  1.00 20.00    -0.050 C 
HETATM    5  C5  UNL     1     -34.350  16.600  -2.205  1.00 20.00     0.030 C 
HETATM    6  C6  UNL     1     -33.643  16.191  -3.496  1.00 20.00     0.031 C 
HETATM    7  C7  UNL     1     -35.938  13.461  -5.049  1.00 20.00     0.202 C 
HETATM    8  C8  UNL     1     -37.730  14.837  -4.661  1.00 20.00     0.180 C 
HETATM    9  C9  UNL     1     -36.522  15.756  -4.485  1.00 20.00     0.062 C 
HETATM   10  O10 UNL     1     -37.277  13.750  -5.476  1.00 20.00    -0.386 OA
ENDROOT
TORSDOF 0
ENDMDL
MODEL 9
REMARK VINA RESULT:      -4.1     11.644     12.970
REMARK  0 active torsions:
REMARK  status: ('A' for Active; 'I' for Inactive)
ROOT
HETATM    1  C1  UNL     1     -35.869  13.372  -5.623  1.00 20.00    -0.030 C 
HETATM    2  C2  UNL     1     -35.219  13.866  -4.560  1.00 20.00    -0.020 C 
HETATM    3  C3  UNL     1     -33.845  15.380  -6.968  1.00 20.00    -0.021 C 
HETATM    4  C4  UNL     1     -33.802  15.711  -5.672  1.00 20.00    -0.050 C 
HETATM    5  C5  UNL     1     -35.592  13.571  -7.085  1.00 20.00     0.030 C 
HETATM    6  C6  UNL     1     -34.176  14.008  -7.457  1.00 20.00     0.031 C 
HETATM    7  C7  UNL     1     -33.466  17.080  -5.179  1.00 20.00     0.202 C 
HETATM    8  C8  UNL     1     -34.277  15.872  -3.407  1.00 20.00     0.180 C 
HETATM    9  C9  UNL     1     -34.061  14.820  -4.493  1.00 20.00     0.062 C 
HETATM   10  O10 UNL     1     -33.420  16.969  -3.749  1.00 20.00    -0.386 OA
ENDROOT
TORSDOF 0
ENDMDL
