MODEL 1
REMARK VINA RESULT:      -4.9      0.000      0.000
REMARK  1 active torsions:
REMARK  status: ('A' for Active; 'I' for Inactive)
REMARK    1  A    between atoms: C1_1  and  C3_3 
ROOT
HETATM    1  C2  UNL     1     -34.497   4.795   5.394  1.00 20.00     0.054 A 
HETATM    2  C3  UNL     1     -34.758   5.829   4.328  1.00 20.00     0.109 A 
HETATM    3  C4  UNL     1     -34.615   6.239   5.763  1.00 20.00     0.183 A 
HETATM    4  F6  UNL     1     -33.459   6.896   6.146  1.00 20.00    -0.249 F 
ENDROOT
BRANCH   2   5
HETATM    5  C1  UNL     1     -33.698   6.159   3.371  1.00 20.00     0.225 C 
HETATM    6  O5  UNL     1     -33.340   7.318   3.179  1.00 20.00    -0.279 OA
HETATM    7 CL7  UNL     1     -33.058   4.745   2.589  1.00 20.00    -0.043 Cl
ENDBRANCH   2   5
TORSDOF 1
ENDMDL
MODEL 2
REMARK VINA RESULT:      -4.8      2.395      2.998
REMARK  1 active torsions:
REMARK  status: ('A' for Active; 'I' for Inactive)
REMARK    1  A    between atoms: C1_1  and  C3_3 
ROOT
HETATM    1  C2  UNL     1     -32.883   7.125   2.971  1.00 20.00     0.054 A 
HETATM    2  C3  UNL     1     -34.124   6.906   3.800  1.00 20.00     0.109 A 
HETATM    3  C4  UNL     1     -33.712   5.897   2.769  1.00 20.00     0.183 A 
HETATM    4  F6  UNL     1     -33.185   4.694   3.203  1.00 20.00    -0.249 F 
ENDROOT
BRANCH   2   5
HETATM    5  C1  UNL     1     -33.989   6.583   5.224  1.00 20.00     0.225 C 
HETATM    6  O5  UNL     1     -33.421   7.340   6.005  1.00 20.00    -0.279 OA
HETATM    7 CL7  UNL     1     -34.712   5.053   5.620  1.00 20.00    -0.043 Cl
ENDBRANCH   2   5
TORSDOF 1
ENDMDL
MODEL 3
REMARK VINA RESULT:      -4.7      2.002      2.153
REMARK  1 active torsions:
REMARK  status: ('A' for Active; 'I' for Inactive)
REMARK    1  A    between atoms: C1_1  and  C3_3 
ROOT
HETATM    1  C2  UNL     1     -33.895   4.783   3.548  1.00 20.00     0.054 A 
HETATM    2  C3  UNL     1     -34.500   6.086   4.008  1.00 20.00     0.109 A 
HETATM    3  C4  UNL     1     -34.802   4.810   4.736  1.00 20.00     0.183 A 
HETATM    4  F6  UNL     1     -34.230   4.613   5.980  1.00 20.00    -0.249 F 
ENDROOT
BRANCH   2   5
HETATM    5  C1  UNL     1     -33.641   7.093   4.638  1.00 20.00     0.225 C 
HETATM    6  O5  UNL     1     -33.818   7.458   5.797  1.00 20.00    -0.279 OA
HETATM    7 CL7  UNL     1     -32.403   7.666   3.561  1.00 20.00    -0.043 Cl
ENDBRANCH   2   5
TORSDOF 1
ENDMDL
MODEL 4
REMARK VINA RESULT:      -4.6      1.979      2.200
REMARK  1 active torsions:
REMARK  status: ('A' for Active; 'I' for Inactive)
REMARK    1  A    between atoms: C1_1  and  C3_3 
ROOT
HETATM    1  C2  UNL     1     -34.023   6.805   5.533  1.00 20.00     0.054 A 
HETATM    2  C3  UNL     1     -34.587   6.123   4.312  1.00 20.00     0.109 A 
HETATM    3  C4  UNL     1     -33.695   7.320   4.169  1.00 20.00     0.183 A 
HETATM    4  F6  UNL     1     -32.406   7.126   3.706  1.00 20.00    -0.249 F 
ENDROOT
BRANCH   2   5
HETATM    5  C1  UNL     1     -34.088   4.798   3.933  1.00 20.00     0.225 C 
HETATM    6  O5  UNL     1     -34.389   3.790   4.566  1.00 20.00    -0.279 OA
HETATM    7 CL7  UNL     1     -33.062   4.861   2.532  1.00 20.00    -0.043 Cl
ENDBRANCH   2   5
TORSDOF 1
ENDMDL
MODEL 5
REMARK VINA RESULT:      -4.4      2.173      2.464
REMARK  1 active torsions:
REMARK  status: ('A' for Active; 'I' for Inactive)
REMARK    1  A    between atoms: C1_1  and  C3_3 
ROOT
HETATM    1  C2  UNL     1     -33.661   7.248   4.938  1.00 20.00     0.054 A 
HETATM    2  C3  UNL     1     -34.172   6.509   3.726  1.00 20.00     0.109 A 
HETATM    3  C4  UNL     1     -33.177   7.621   3.574  1.00 20.00     0.183 A 
HETATM    4  F6  UNL     1     -31.872   7.293   3.248  1.00 20.00    -0.249 F 
ENDROOT
BRANCH   2   5
HETATM    5  C1  UNL     1     -33.751   5.124   3.499  1.00 20.00     0.225 C 
HETATM    6  O5  UNL     1     -33.032   4.815   2.554  1.00 20.00    -0.279 OA
HETATM    7 CL7  UNL     1     -34.388   4.040   4.700  1.00 20.00    -0.043 Cl
ENDBRANCH   2   5
TORSDOF 1
ENDMDL
MODEL 6
REMARK VINA RESULT:      -4.2      2.155      2.284
REMARK  1 active torsions:
REMARK  status: ('A' for Active; 'I' for Inactive)
REMARK    1  A    between atoms: C1_1  and  C3_3 
ROOT
HETATM    1  C2  UNL     1     -35.497   5.854   3.854  1.00 20.00     0.054 A 
HETATM    2  C3  UNL     1     -34.058   6.240   4.086  1.00 20.00     0.109 A 
HETATM    3  C4  UNL     1     -34.640   5.036   4.765  1.00 20.00     0.183 A 
HETATM    4  F6  UNL     1     -34.254   3.783   4.323  1.00 20.00    -0.249 F 
ENDROOT
BRANCH   2   5
HETATM    5  C1  UNL     1     -33.084   6.062   3.005  1.00 20.00     0.225 C 
HETATM    6  O5  UNL     1     -32.819   4.952   2.552  1.00 20.00    -0.279 OA
HETATM    7 CL7  UNL     1     -32.395   7.571   2.488  1.00 20.00    -0.043 Cl
ENDBRANCH   2   5
TORSDOF 1
ENDMDL
MODEL 7
REMARK VINA RESULT:      -4.1      2.317      3.188
REMARK  1 active torsions:
REMARK  status: ('A' for Active; 'I' for Inactive)
REMARK    1  A    between atoms: C1_1  and  C3_3 
ROOT
HETATM    1  C2  UNL     1     -32.812   8.176   2.297  1.00 20.00     0.054 A 
HETATM    2  C3  UNL     1     -32.855   6.908   3.113  1.00 20.00     0.109 A 
HETATM    3  C4  UNL     1     -31.681   7.836   3.212  1.00 20.00     0.183 A 
HETATM    4  F6  UNL     1     -31.539   8.594   4.361  1.00 20.00    -0.249 F 
ENDROOT
BRANCH   2   5
HETATM    5  C1  UNL     1     -33.795   6.807   4.233  1.00 20.00     0.225 C 
HETATM    6  O5  UNL     1     -33.538   7.281   5.336  1.00 20.00    -0.279 OA
HETATM    7 CL7  UNL     1     -35.248   5.960   3.795  1.00 20.00    -0.043 Cl
ENDBRANCH   2   5
TORSDOF 1
ENDMDL
MODEL 8
REMARK VINA RESULT:      -4.0      4.239      5.194
REMARK  1 active torsions:
REMARK  status: ('A' for Active; 'I' for Inactive)
REMARK    1  A    between atoms: C1_1  and  C3_3 
ROOT
HETATM    1  C2  UNL     1     -32.863   9.194  -0.151  1.00 20.00     0.054 A 
HETATM    2  C3  UNL     1     -31.915   8.982   1.003  1.00 20.00     0.109 A 
HETATM    3  C4  UNL     1     -32.544  10.324   0.775  1.00 20.00     0.183 A 
HETATM    4  F6  UNL     1     -33.540  10.737   1.642  1.00 20.00    -0.249 F 
ENDROOT
BRANCH   2   5
HETATM    5  C1  UNL     1     -32.342   8.165   2.143  1.00 20.00     0.225 C 
HETATM    6  O5  UNL     1     -33.290   7.390   2.061  1.00 20.00    -0.279 OA
HETATM    7 CL7  UNL     1     -31.363   8.443   3.552  1.00 20.00    -0.043 Cl
ENDBRANCH   2   5
TORSDOF 1
ENDMDL
MODEL 9
REMARK VINA RESULT:      -4.0      2.424      2.807
REMARK  1 active torsions:
REMARK  status: ('A' for Active; 'I' for Inactive)
REMARK    1  A    between atoms: C1_1  and  C3_3 
ROOT
HETATM    1  C2  UNL     1     -33.225   5.928   2.974  1.00 20.00     0.054 A 
HETATM    2  C3  UNL     1     -33.251   7.392   2.613  1.00 20.00     0.109 A 
HETATM    3  C4  UNL     1     -33.825   6.921   3.916  1.00 20.00     0.183 A 
HETATM    4  F6  UNL     1     -33.127   7.200   5.079  1.00 20.00    -0.249 F 
ENDROOT
BRANCH   2   5
HETATM    5  C1  UNL     1     -31.998   8.153   2.606  1.00 20.00     0.225 C 
HETATM    6  O5  UNL     1     -31.365   8.363   3.636  1.00 20.00    -0.279 OA
HETATM    7 CL7  UNL     1     -31.564   8.687   1.009  1.00 20.00    -0.043 Cl
ENDBRANCH   2   5
TORSDOF 1
ENDMDL
