MODEL 1
REMARK VINA RESULT:      -5.4      0.000      0.000
REMARK  1 active torsions:
REMARK  status: ('A' for Active; 'I' for Inactive)
REMARK    1  A    between atoms: C7_7  and  O11_11 
ROOT
HETATM    1  C1  UNL     1     -34.609   4.752   5.629  1.00 20.00    -0.027 C 
HETATM    2  C2  UNL     1     -34.496   5.958   6.215  1.00 20.00     0.001 C 
HETATM    3  C3  UNL     1     -34.211   4.474   4.196  1.00 20.00     0.036 C 
HETATM    4  C4  UNL     1     -32.596   7.087   1.935  1.00 20.00     0.001 C 
HETATM    5  C5  UNL     1     -32.781   7.837   3.264  1.00 20.00     0.008 C 
HETATM    6  C6  UNL     1     -33.144   5.663   2.147  1.00 20.00     0.010 C 
HETATM    7  C7  UNL     1     -33.925   7.172   5.518  1.00 20.00     0.145 C 
HETATM    8  C8  UNL     1     -33.200   6.748   4.243  1.00 20.00     0.026 C 
HETATM    9  C9  UNL     1     -34.036   5.775   3.391  1.00 20.00    -0.035 C 
HETATM   10  C10 UNL     1     -35.423   6.324   2.977  1.00 20.00     0.016 C 
ENDROOT
BRANCH   7  11
HETATM   11  O11 UNL     1     -33.005   7.809   6.398  1.00 20.00    -0.391 OA
HETATM   12  H27 UNL     1     -32.758   8.648   5.980  1.00 20.00     0.210 HD
ENDBRANCH   7  11
TORSDOF 1
ENDMDL
MODEL 2
REMARK VINA RESULT:      -5.3      1.275      2.295
REMARK  1 active torsions:
REMARK  status: ('A' for Active; 'I' for Inactive)
REMARK    1  A    between atoms: C7_7  and  O11_11 
ROOT
HETATM    1  C1  UNL     1     -33.945   7.227   6.138  1.00 20.00    -0.027 C 
HETATM    2  C2  UNL     1     -33.371   8.047   5.238  1.00 20.00     0.001 C 
HETATM    3  C3  UNL     1     -34.299   5.784   5.854  1.00 20.00     0.036 C 
HETATM    4  C4  UNL     1     -33.474   4.043   2.562  1.00 20.00     0.001 C 
HETATM    5  C5  UNL     1     -32.900   5.456   2.366  1.00 20.00     0.008 C 
HETATM    6  C6  UNL     1     -34.099   4.007   3.968  1.00 20.00     0.010 C 
HETATM    7  C7  UNL     1     -32.984   7.610   3.844  1.00 20.00     0.145 C 
HETATM    8  C8  UNL     1     -33.005   6.086   3.749  1.00 20.00     0.026 C 
HETATM    9  C9  UNL     1     -34.291   5.482   4.343  1.00 20.00    -0.035 C 
HETATM   10  C10 UNL     1     -35.596   6.007   3.699  1.00 20.00     0.016 C 
ENDROOT
BRANCH   7  11
HETATM   11  O11 UNL     1     -31.670   8.084   3.570  1.00 20.00    -0.391 OA
HETATM   12  H27 UNL     1     -31.397   8.607   4.340  1.00 20.00     0.210 HD
ENDBRANCH   7  11
TORSDOF 1
ENDMDL
MODEL 3
REMARK VINA RESULT:      -5.2      1.177      3.293
REMARK  1 active torsions:
REMARK  status: ('A' for Active; 'I' for Inactive)
REMARK    1  A    between atoms: C7_7  and  O11_11 
ROOT
HETATM    1  C1  UNL     1     -32.646   8.082   1.800  1.00 20.00    -0.027 C 
HETATM    2  C2  UNL     1     -31.791   8.338   2.807  1.00 20.00     0.001 C 
HETATM    3  C3  UNL     1     -33.868   7.201   1.939  1.00 20.00     0.036 C 
HETATM    4  C4  UNL     1     -34.945   5.634   5.245  1.00 20.00     0.001 C 
HETATM    5  C5  UNL     1     -33.690   6.436   5.628  1.00 20.00     0.008 C 
HETATM    6  C6  UNL     1     -35.163   5.842   3.735  1.00 20.00     0.010 C 
HETATM    7  C7  UNL     1     -31.971   7.799   4.207  1.00 20.00     0.145 C 
HETATM    8  C8  UNL     1     -33.387   7.256   4.380  1.00 20.00     0.026 C 
HETATM    9  C9  UNL     1     -33.809   6.342   3.216  1.00 20.00    -0.035 C 
HETATM   10  C10 UNL     1     -32.871   5.132   2.986  1.00 20.00     0.016 C 
ENDROOT
BRANCH   7  11
HETATM   11  O11 UNL     1     -31.753   8.859   5.132  1.00 20.00    -0.391 OA
HETATM   12  H27 UNL     1     -30.853   8.747   5.476  1.00 20.00     0.210 HD
ENDBRANCH   7  11
TORSDOF 1
ENDMDL
MODEL 4
REMARK VINA RESULT:      -5.0     12.140     13.512
REMARK  1 active torsions:
REMARK  status: ('A' for Active; 'I' for Inactive)
REMARK    1  A    between atoms: C7_7  and  O11_11 
ROOT
HETATM    1  C1  UNL     1     -34.505  14.028  -7.814  1.00 20.00    -0.027 C 
HETATM    2  C2  UNL     1     -35.481  13.426  -7.110  1.00 20.00     0.001 C 
HETATM    3  C3  UNL     1     -33.637  15.139  -7.264  1.00 20.00     0.036 C 
HETATM    4  C4  UNL     1     -33.869  16.382  -3.666  1.00 20.00     0.001 C 
HETATM    5  C5  UNL     1     -34.917  15.258  -3.718  1.00 20.00     0.008 C 
HETATM    6  C6  UNL     1     -33.238  16.469  -5.068  1.00 20.00     0.010 C 
HETATM    7  C7  UNL     1     -35.804  13.768  -5.674  1.00 20.00     0.145 C 
HETATM    8  C8  UNL     1     -34.672  14.594  -5.067  1.00 20.00     0.026 C 
HETATM    9  C9  UNL     1     -34.238  15.752  -5.985  1.00 20.00    -0.035 C 
HETATM   10  C10 UNL     1     -35.378  16.728  -6.360  1.00 20.00     0.016 C 
ENDROOT
BRANCH   7  11
HETATM   11  O11 UNL     1     -35.951  12.555  -4.941  1.00 20.00    -0.391 OA
HETATM   12  H27 UNL     1     -35.891  12.790  -4.002  1.00 20.00     0.210 HD
ENDBRANCH   7  11
TORSDOF 1
ENDMDL
MODEL 5
REMARK VINA RESULT:      -4.9     12.204     12.847
REMARK  1 active torsions:
REMARK  status: ('A' for Active; 'I' for Inactive)
REMARK    1  A    between atoms: C7_7  and  O11_11 
ROOT
HETATM    1  C1  UNL     1     -34.187  18.579   1.484  1.00 20.00    -0.027 C 
HETATM    2  C2  UNL     1     -33.012  19.006   0.986  1.00 20.00     0.001 C 
HETATM    3  C3  UNL     1     -35.207  17.800   0.682  1.00 20.00     0.036 C 
HETATM    4  C4  UNL     1     -34.615  16.676  -2.915  1.00 20.00     0.001 C 
HETATM    5  C5  UNL     1     -33.304  17.393  -2.549  1.00 20.00     0.008 C 
HETATM    6  C6  UNL     1     -35.525  16.755  -1.676  1.00 20.00     0.010 C 
HETATM    7  C7  UNL     1     -32.559  18.728  -0.429  1.00 20.00     0.145 C 
HETATM    8  C8  UNL     1     -33.427  17.636  -1.051  1.00 20.00     0.026 C 
HETATM    9  C9  UNL     1     -34.930  17.889  -0.831  1.00 20.00    -0.035 C 
HETATM   10  C10 UNL     1     -35.432  19.248  -1.373  1.00 20.00     0.016 C 
ENDROOT
BRANCH   7  11
HETATM   11  O11 UNL     1     -31.204  18.293  -0.394  1.00 20.00    -0.391 OA
HETATM   12  H27 UNL     1     -30.961  18.066  -1.305  1.00 20.00     0.210 HD
ENDBRANCH   7  11
TORSDOF 1
ENDMDL
MODEL 6
REMARK VINA RESULT:      -4.6     11.914     12.807
REMARK  1 active torsions:
REMARK  status: ('A' for Active; 'I' for Inactive)
REMARK    1  A    between atoms: C7_7  and  O11_11 
ROOT
HETATM    1  C1  UNL     1     -35.598  13.621  -5.039  1.00 20.00    -0.027 C 
HETATM    2  C2  UNL     1     -36.837  14.145  -5.092  1.00 20.00     0.001 C 
HETATM    3  C3  UNL     1     -34.447  14.262  -4.296  1.00 20.00     0.036 C 
HETATM    4  C4  UNL     1     -34.815  17.436  -2.213  1.00 20.00     0.001 C 
HETATM    5  C5  UNL     1     -36.241  17.188  -2.732  1.00 20.00     0.008 C 
HETATM    6  C6  UNL     1     -33.934  16.305  -2.774  1.00 20.00     0.010 C 
HETATM    7  C7  UNL     1     -37.231  15.422  -4.386  1.00 20.00     0.145 C 
HETATM    8  C8  UNL     1     -36.164  15.803  -3.362  1.00 20.00     0.026 C 
HETATM    9  C9  UNL     1     -34.741  15.733  -3.947  1.00 20.00    -0.035 C 
HETATM   10  C10 UNL     1     -34.524  16.618  -5.197  1.00 20.00     0.016 C 
ENDROOT
BRANCH   7  11
HETATM   11  O11 UNL     1     -38.471  15.208  -3.721  1.00 20.00    -0.391 OA
HETATM   12  H27 UNL     1     -38.428  14.321  -3.333  1.00 20.00     0.210 HD
ENDBRANCH   7  11
TORSDOF 1
ENDMDL
MODEL 7
REMARK VINA RESULT:      -4.5     12.237     13.133
REMARK  1 active torsions:
REMARK  status: ('A' for Active; 'I' for Inactive)
REMARK    1  A    between atoms: C7_7  and  O11_11 
ROOT
HETATM    1  C1  UNL     1     -35.097  15.904  -3.388  1.00 20.00    -0.027 C 
HETATM    2  C2  UNL     1     -33.820  15.559  -3.636  1.00 20.00     0.001 C 
HETATM    3  C3  UNL     1     -36.242  15.623  -4.336  1.00 20.00     0.036 C 
HETATM    4  C4  UNL     1     -35.827  13.683  -7.594  1.00 20.00     0.001 C 
HETATM    5  C5  UNL     1     -34.410  13.678  -6.997  1.00 20.00     0.008 C 
HETATM    6  C6  UNL     1     -36.721  14.458  -6.608  1.00 20.00     0.010 C 
HETATM    7  C7  UNL     1     -33.385  14.819  -4.881  1.00 20.00     0.145 C 
HETATM    8  C8  UNL     1     -34.603  14.235  -5.593  1.00 20.00     0.026 C 
HETATM    9  C9  UNL     1     -35.739  15.262  -5.746  1.00 20.00    -0.035 C 
HETATM   10  C10 UNL     1     -35.333  16.550  -6.501  1.00 20.00     0.016 C 
ENDROOT
BRANCH   7  11
HETATM   11  O11 UNL     1     -32.508  13.765  -4.498  1.00 20.00    -0.391 OA
HETATM   12  H27 UNL     1     -33.068  13.007  -4.271  1.00 20.00     0.210 HD
ENDBRANCH   7  11
TORSDOF 1
ENDMDL
MODEL 8
REMARK VINA RESULT:      -4.4     11.915     13.223
REMARK  1 active torsions:
REMARK  status: ('A' for Active; 'I' for Inactive)
REMARK    1  A    between atoms: C7_7  and  O11_11 
ROOT
HETATM    1  C1  UNL     1     -34.470  15.433  -3.493  1.00 20.00    -0.027 C 
HETATM    2  C2  UNL     1     -34.509  14.381  -4.331  1.00 20.00     0.001 C 
HETATM    3  C3  UNL     1     -35.637  16.370  -3.266  1.00 20.00     0.036 C 
HETATM    4  C4  UNL     1     -39.059  15.867  -4.874  1.00 20.00     0.001 C 
HETATM    5  C5  UNL     1     -38.248  14.666  -5.387  1.00 20.00     0.008 C 
HETATM    6  C6  UNL     1     -38.117  16.687  -3.973  1.00 20.00     0.010 C 
HETATM    7  C7  UNL     1     -35.737  13.993  -5.122  1.00 20.00     0.145 C 
HETATM    8  C8  UNL     1     -36.963  14.718  -4.572  1.00 20.00     0.026 C 
HETATM    9  C9  UNL     1     -36.708  16.221  -4.363  1.00 20.00    -0.035 C 
HETATM   10  C10 UNL     1     -36.256  16.972  -5.638  1.00 20.00     0.016 C 
ENDROOT
BRANCH   7  11
HETATM   11  O11 UNL     1     -35.925  12.586  -5.004  1.00 20.00    -0.391 OA
HETATM   12  H27 UNL     1     -36.490  12.319  -5.746  1.00 20.00     0.210 HD
ENDBRANCH   7  11
TORSDOF 1
ENDMDL
MODEL 9
REMARK VINA RESULT:      -4.4     11.961     13.668
REMARK  1 active torsions:
REMARK  status: ('A' for Active; 'I' for Inactive)
REMARK    1  A    between atoms: C7_7  and  O11_11 
ROOT
HETATM    1  C1  UNL     1     -36.218  15.090  -7.580  1.00 20.00    -0.027 C 
HETATM    2  C2  UNL     1     -36.682  14.160  -6.726  1.00 20.00     0.001 C 
HETATM    3  C3  UNL     1     -35.198  16.142  -7.203  1.00 20.00     0.036 C 
HETATM    4  C4  UNL     1     -33.533  16.299  -3.774  1.00 20.00     0.001 C 
HETATM    5  C5  UNL     1     -34.449  15.068  -3.665  1.00 20.00     0.008 C 
HETATM    6  C6  UNL     1     -33.724  16.871  -5.191  1.00 20.00     0.010 C 
HETATM    7  C7  UNL     1     -36.213  14.037  -5.294  1.00 20.00     0.145 C 
HETATM    8  C8  UNL     1     -34.937  14.850  -5.091  1.00 20.00     0.026 C 
HETATM    9  C9  UNL     1     -35.050  16.270  -5.674  1.00 20.00    -0.035 C 
HETATM   10  C10 UNL     1     -36.225  17.099  -5.105  1.00 20.00     0.016 C 
ENDROOT
BRANCH   7  11
HETATM   11  O11 UNL     1     -35.950  12.664  -5.020  1.00 20.00    -0.391 OA
HETATM   12  H27 UNL     1     -36.812  12.235  -4.901  1.00 20.00     0.210 HD
ENDBRANCH   7  11
TORSDOF 1
ENDMDL
