MODEL 1
REMARK VINA RESULT:      -4.9      0.000      0.000
REMARK  0 active torsions:
REMARK  status: ('A' for Active; 'I' for Inactive)
ROOT
HETATM    1  C1  UNL     1     -35.081  16.889  -2.458  1.00 20.00    -0.071 C 
HETATM    2  C2  UNL     1     -36.927  15.044  -4.587  1.00 20.00     0.220 C 
HETATM    3  C3  UNL     1     -35.472  16.895  -1.175  1.00 20.00     0.016 C 
HETATM    4  C4  UNL     1     -33.653  16.615  -2.866  1.00 20.00     0.037 C 
HETATM    5  C5  UNL     1     -36.040  17.124  -3.596  1.00 20.00     0.159 C 
HETATM    6  C6  UNL     1     -36.738  13.899  -5.560  1.00 20.00     0.103 C 
HETATM    7  C7  UNL     1     -33.587  15.524  -3.944  1.00 20.00     0.030 C 
HETATM    8  C8  UNL     1     -35.293  13.541  -5.838  1.00 20.00     0.015 C 
HETATM    9  C9  UNL     1     -34.480  14.774  -6.219  1.00 20.00     0.005 C 
HETATM   10  C10 UNL     1     -34.563  15.826  -5.102  1.00 20.00     0.091 C 
HETATM   11  C11 UNL     1     -34.929  15.363  -7.561  1.00 20.00     0.012 C 
HETATM   12  N12 UNL     1     -35.913  15.998  -4.527  1.00 20.00    -0.343 N 
HETATM   13  O13 UNL     1     -37.983  15.118  -3.953  1.00 20.00    -0.273 OA
ENDROOT
TORSDOF 0
ENDMDL
MODEL 2
REMARK VINA RESULT:      -4.7      1.263      3.915
REMARK  0 active torsions:
REMARK  status: ('A' for Active; 'I' for Inactive)
ROOT
HETATM    1  C1  UNL     1     -34.089  14.469  -5.670  1.00 20.00    -0.071 C 
HETATM    2  C2  UNL     1     -36.492  15.851  -3.757  1.00 20.00     0.220 C 
HETATM    3  C3  UNL     1     -34.482  13.943  -6.840  1.00 20.00     0.016 C 
HETATM    4  C4  UNL     1     -32.928  15.429  -5.565  1.00 20.00     0.037 C 
HETATM    5  C5  UNL     1     -34.793  14.168  -4.372  1.00 20.00     0.159 C 
HETATM    6  C6  UNL     1     -36.809  17.185  -3.113  1.00 20.00     0.103 C 
HETATM    7  C7  UNL     1     -33.325  16.692  -4.789  1.00 20.00     0.030 C 
HETATM    8  C8  UNL     1     -35.675  18.189  -3.155  1.00 20.00     0.015 C 
HETATM    9  C9  UNL     1     -34.377  17.580  -2.635  1.00 20.00     0.005 C 
HETATM   10  C10 UNL     1     -34.014  16.332  -3.454  1.00 20.00     0.091 C 
HETATM   11  C11 UNL     1     -34.459  17.250  -1.140  1.00 20.00     0.012 C 
HETATM   12  N12 UNL     1     -35.158  15.447  -3.755  1.00 20.00    -0.343 N 
HETATM   13  O13 UNL     1     -37.421  15.160  -4.182  1.00 20.00    -0.273 OA
ENDROOT
TORSDOF 0
ENDMDL
MODEL 3
REMARK VINA RESULT:      -4.7      2.057      4.540
REMARK  0 active torsions:
REMARK  status: ('A' for Active; 'I' for Inactive)
ROOT
HETATM    1  C1  UNL     1     -34.669  15.198  -6.368  1.00 20.00    -0.071 C 
HETATM    2  C2  UNL     1     -33.861  17.909  -4.540  1.00 20.00     0.220 C 
HETATM    3  C3  UNL     1     -33.963  14.999  -7.490  1.00 20.00     0.016 C 
HETATM    4  C4  UNL     1     -34.887  14.108  -5.345  1.00 20.00     0.037 C 
HETATM    5  C5  UNL     1     -35.277  16.533  -6.022  1.00 20.00     0.159 C 
HETATM    6  C6  UNL     1     -33.412  18.241  -3.132  1.00 20.00     0.103 C 
HETATM    7  C7  UNL     1     -34.517  14.592  -3.936  1.00 20.00     0.030 C 
HETATM    8  C8  UNL     1     -33.497  17.086  -2.156  1.00 20.00     0.015 C 
HETATM    9  C9  UNL     1     -34.872  16.427  -2.193  1.00 20.00     0.005 C 
HETATM   10  C10 UNL     1     -35.187  15.945  -3.618  1.00 20.00     0.091 C 
HETATM   11  C11 UNL     1     -35.968  17.366  -1.677  1.00 20.00     0.012 C 
HETATM   12  N12 UNL     1     -34.813  16.901  -4.681  1.00 20.00    -0.343 N 
HETATM   13  O13 UNL     1     -33.425  18.582  -5.477  1.00 20.00    -0.273 OA
ENDROOT
TORSDOF 0
ENDMDL
MODEL 4
REMARK VINA RESULT:      -4.6      1.609      4.069
REMARK  0 active torsions:
REMARK  status: ('A' for Active; 'I' for Inactive)
ROOT
HETATM    1  C1  UNL     1     -36.384  14.547  -5.067  1.00 20.00    -0.071 C 
HETATM    2  C2  UNL     1     -35.954  17.784  -4.242  1.00 20.00     0.220 C 
HETATM    3  C3  UNL     1     -36.902  14.301  -6.279  1.00 20.00     0.016 C 
HETATM    4  C4  UNL     1     -35.132  13.864  -4.569  1.00 20.00     0.037 C 
HETATM    5  C5  UNL     1     -36.991  15.547  -4.117  1.00 20.00     0.159 C 
HETATM    6  C6  UNL     1     -34.837  18.712  -3.812  1.00 20.00     0.103 C 
HETATM    7  C7  UNL     1     -34.117  14.889  -4.044  1.00 20.00     0.030 C 
HETATM    8  C8  UNL     1     -33.539  18.013  -3.462  1.00 20.00     0.015 C 
HETATM    9  C9  UNL     1     -33.771  16.875  -2.473  1.00 20.00     0.005 C 
HETATM   10  C10 UNL     1     -34.779  15.870  -3.052  1.00 20.00     0.091 C 
HETATM   11  C11 UNL     1     -34.237  17.392  -1.107  1.00 20.00     0.012 C 
HETATM   12  N12 UNL     1     -35.937  16.489  -3.727  1.00 20.00    -0.343 N 
HETATM   13  O13 UNL     1     -36.854  18.230  -4.959  1.00 20.00    -0.273 OA
ENDROOT
TORSDOF 0
ENDMDL
MODEL 5
REMARK VINA RESULT:      -4.6      1.331      1.707
REMARK  0 active torsions:
REMARK  status: ('A' for Active; 'I' for Inactive)
ROOT
HETATM    1  C1  UNL     1     -35.805  18.027  -1.852  1.00 20.00    -0.071 C 
HETATM    2  C2  UNL     1     -36.271  15.557  -4.094  1.00 20.00     0.220 C 
HETATM    3  C3  UNL     1     -36.723  18.136  -0.881  1.00 20.00     0.016 C 
HETATM    4  C4  UNL     1     -34.323  17.997  -1.564  1.00 20.00     0.037 C 
HETATM    5  C5  UNL     1     -36.180  17.895  -3.306  1.00 20.00     0.159 C 
HETATM    6  C6  UNL     1     -35.532  14.348  -4.627  1.00 20.00     0.103 C 
HETATM    7  C7  UNL     1     -33.652  16.800  -2.253  1.00 20.00     0.030 C 
HETATM    8  C8  UNL     1     -34.081  14.258  -4.199  1.00 20.00     0.015 C 
HETATM    9  C9  UNL     1     -33.342  15.565  -4.469  1.00 20.00     0.005 C 
HETATM   10  C10 UNL     1     -34.041  16.726  -3.745  1.00 20.00     0.091 C 
HETATM   11  C11 UNL     1     -33.217  15.850  -5.969  1.00 20.00     0.012 C 
HETATM   12  N12 UNL     1     -35.515  16.698  -3.831  1.00 20.00    -0.343 N 
HETATM   13  O13 UNL     1     -37.499  15.503  -3.986  1.00 20.00    -0.273 OA
ENDROOT
TORSDOF 0
ENDMDL
MODEL 6
REMARK VINA RESULT:      -4.6      1.798      4.469
REMARK  0 active torsions:
REMARK  status: ('A' for Active; 'I' for Inactive)
ROOT
HETATM    1  C1  UNL     1     -35.679  14.199  -6.675  1.00 20.00    -0.071 C 
HETATM    2  C2  UNL     1     -33.657  15.983  -4.657  1.00 20.00     0.220 C 
HETATM    3  C3  UNL     1     -35.154  13.095  -7.226  1.00 20.00     0.016 C 
HETATM    4  C4  UNL     1     -37.009  14.191  -5.960  1.00 20.00     0.037 C 
HETATM    5  C5  UNL     1     -34.971  15.529  -6.697  1.00 20.00     0.159 C 
HETATM    6  C6  UNL     1     -33.629  16.487  -3.229  1.00 20.00     0.103 C 
HETATM    7  C7  UNL     1     -36.893  14.835  -4.571  1.00 20.00     0.030 C 
HETATM    8  C8  UNL     1     -34.936  16.328  -2.480  1.00 20.00     0.015 C 
HETATM    9  C9  UNL     1     -36.105  16.895  -3.279  1.00 20.00     0.005 C 
HETATM   10  C10 UNL     1     -36.189  16.206  -4.651  1.00 20.00     0.091 C 
HETATM   11  C11 UNL     1     -36.006  18.416  -3.434  1.00 20.00     0.012 C 
HETATM   12  N12 UNL     1     -34.885  16.012  -5.316  1.00 20.00    -0.343 N 
HETATM   13  O13 UNL     1     -32.597  15.642  -5.188  1.00 20.00    -0.273 OA
ENDROOT
TORSDOF 0
ENDMDL
MODEL 7
REMARK VINA RESULT:      -4.5      1.752      2.137
REMARK  0 active torsions:
REMARK  status: ('A' for Active; 'I' for Inactive)
ROOT
HETATM    1  C1  UNL     1     -34.397  17.125  -3.103  1.00 20.00    -0.071 C 
HETATM    2  C2  UNL     1     -34.648  14.367  -5.020  1.00 20.00     0.220 C 
HETATM    3  C3  UNL     1     -33.689  17.006  -1.970  1.00 20.00     0.016 C 
HETATM    4  C4  UNL     1     -34.165  18.246  -4.088  1.00 20.00     0.037 C 
HETATM    5  C5  UNL     1     -35.460  16.134  -3.499  1.00 20.00     0.159 C 
HETATM    6  C6  UNL     1     -34.333  13.932  -6.436  1.00 20.00     0.103 C 
HETATM    7  C7  UNL     1     -33.980  17.701  -5.511  1.00 20.00     0.030 C 
HETATM    8  C8  UNL     1     -33.953  15.061  -7.372  1.00 20.00     0.015 C 
HETATM    9  C9  UNL     1     -34.974  16.193  -7.319  1.00 20.00     0.005 C 
HETATM   10  C10 UNL     1     -35.109  16.715  -5.880  1.00 20.00     0.091 C 
HETATM   11  C11 UNL     1     -36.336  15.760  -7.875  1.00 20.00     0.012 C 
HETATM   12  N12 UNL     1     -35.147  15.658  -4.849  1.00 20.00    -0.343 N 
HETATM   13  O13 UNL     1     -34.518  13.551  -4.105  1.00 20.00    -0.273 OA
ENDROOT
TORSDOF 0
ENDMDL
MODEL 8
REMARK VINA RESULT:      -4.5      2.279      3.113
REMARK  0 active torsions:
REMARK  status: ('A' for Active; 'I' for Inactive)
ROOT
HETATM    1  C1  UNL     1     -33.332  14.695  -4.247  1.00 20.00    -0.071 C 
HETATM    2  C2  UNL     1     -35.549  13.571  -6.519  1.00 20.00     0.220 C 
HETATM    3  C3  UNL     1     -32.170  14.030  -4.162  1.00 20.00     0.016 C 
HETATM    4  C4  UNL     1     -33.395  16.199  -4.374  1.00 20.00     0.037 C 
HETATM    5  C5  UNL     1     -34.665  13.994  -4.253  1.00 20.00     0.159 C 
HETATM    6  C6  UNL     1     -36.309  14.088  -7.722  1.00 20.00     0.103 C 
HETATM    7  C7  UNL     1     -34.289  16.616  -5.550  1.00 20.00     0.030 C 
HETATM    8  C8  UNL     1     -36.232  15.589  -7.917  1.00 20.00     0.015 C 
HETATM    9  C9  UNL     1     -36.586  16.334  -6.634  1.00 20.00     0.005 C 
HETATM   10  C10 UNL     1     -35.653  15.895  -5.495  1.00 20.00     0.091 C 
HETATM   11  C11 UNL     1     -38.056  16.135  -6.247  1.00 20.00     0.012 C 
HETATM   12  N12 UNL     1     -35.400  14.441  -5.441  1.00 20.00    -0.343 N 
HETATM   13  O13 UNL     1     -35.165  12.398  -6.518  1.00 20.00    -0.273 OA
ENDROOT
TORSDOF 0
ENDMDL
MODEL 9
REMARK VINA RESULT:      -4.5      1.894      3.581
REMARK  0 active torsions:
REMARK  status: ('A' for Active; 'I' for Inactive)
ROOT
HETATM    1  C1  UNL     1     -38.534  15.552  -5.545  1.00 20.00    -0.071 C 
HETATM    2  C2  UNL     1     -35.620  13.961  -4.977  1.00 20.00     0.220 C 
HETATM    3  C3  UNL     1     -39.655  14.855  -5.308  1.00 20.00     0.016 C 
HETATM    4  C4  UNL     1     -38.316  16.942  -4.995  1.00 20.00     0.037 C 
HETATM    5  C5  UNL     1     -37.391  14.994  -6.353  1.00 20.00     0.159 C 
HETATM    6  C6  UNL     1     -34.369  14.140  -4.143  1.00 20.00     0.103 C 
HETATM    7  C7  UNL     1     -36.964  17.044  -4.276  1.00 20.00     0.030 C 
HETATM    8  C8  UNL     1     -34.246  15.494  -3.475  1.00 20.00     0.015 C 
HETATM    9  C9  UNL     1     -34.450  16.626  -4.476  1.00 20.00     0.005 C 
HETATM   10  C10 UNL     1     -35.822  16.490  -5.155  1.00 20.00     0.091 C 
HETATM   11  C11 UNL     1     -33.326  16.678  -5.517  1.00 20.00     0.012 C 
HETATM   12  N12 UNL     1     -36.174  15.108  -5.543  1.00 20.00    -0.343 N 
HETATM   13  O13 UNL     1     -36.046  12.820  -5.174  1.00 20.00    -0.273 OA
ENDROOT
TORSDOF 0
ENDMDL
