MODEL 1
REMARK VINA RESULT:      -5.7      0.000      0.000
REMARK  1 active torsions:
REMARK  status: ('A' for Active; 'I' for Inactive)
REMARK    1  A    between atoms: C4_4  and  C6_6 
ROOT
HETATM    1  C1  UNL     1     -34.349   5.347   5.505  1.00 20.00     0.089 A 
HETATM    2  C2  UNL     1     -33.658   7.394   4.447  1.00 20.00     0.044 A 
HETATM    3  C3  UNL     1     -34.086   6.656   5.609  1.00 20.00    -0.053 A 
HETATM    4  C4  UNL     1     -33.533   6.751   3.282  1.00 20.00     0.080 A 
HETATM    5  C5  UNL     1     -34.209   4.641   4.213  1.00 20.00     0.288 A 
HETATM    6  C8  UNL     1     -34.211   7.412   6.895  1.00 20.00     0.048 C 
HETATM    7  O11 UNL     1     -34.453   3.442   4.127  1.00 20.00    -0.260 OA
HETATM    8  O12 UNL     1     -33.801   5.379   3.134  1.00 20.00    -0.276 OA
ENDROOT
BRANCH   4   9
HETATM    9  C6  UNL     1     -33.115   7.393   2.067  1.00 20.00     0.039 C 
HETATM   10  C7  UNL     1     -32.064   8.247   1.940  1.00 20.00    -0.085 C 
HETATM   11  C9  UNL     1     -31.634   8.915   0.663  1.00 20.00     0.043 C 
HETATM   12  C10 UNL     1     -31.211   8.600   3.131  1.00 20.00     0.043 C 
ENDBRANCH   4   9
TORSDOF 1
ENDMDL
MODEL 2
REMARK VINA RESULT:      -5.5     11.534     12.791
REMARK  1 active torsions:
REMARK  status: ('A' for Active; 'I' for Inactive)
REMARK    1  A    between atoms: C4_4  and  C6_6 
ROOT
HETATM    1  C1  UNL     1     -35.019  14.387  -6.603  1.00 20.00     0.089 A 
HETATM    2  C2  UNL     1     -33.994  16.208  -5.409  1.00 20.00     0.044 A 
HETATM    3  C3  UNL     1     -34.381  15.565  -6.640  1.00 20.00    -0.053 A 
HETATM    4  C4  UNL     1     -34.282  15.611  -4.249  1.00 20.00     0.080 A 
HETATM    5  C5  UNL     1     -35.334  13.731  -5.316  1.00 20.00     0.288 A 
HETATM    6  C8  UNL     1     -34.042  16.267  -7.918  1.00 20.00     0.048 C 
HETATM    7  O11 UNL     1     -35.918  12.652  -5.291  1.00 20.00    -0.260 OA
HETATM    8  O12 UNL     1     -34.949  14.376  -4.170  1.00 20.00    -0.276 OA
ENDROOT
BRANCH   4   9
HETATM    9  C6  UNL     1     -33.941  16.166  -2.969  1.00 20.00     0.039 C 
HETATM   10  C7  UNL     1     -34.791  16.821  -2.134  1.00 20.00    -0.085 C 
HETATM   11  C9  UNL     1     -34.424  17.400  -0.796  1.00 20.00     0.043 C 
HETATM   12  C10 UNL     1     -36.237  17.022  -2.511  1.00 20.00     0.043 C 
ENDBRANCH   4   9
TORSDOF 1
ENDMDL
MODEL 3
REMARK VINA RESULT:      -5.5      1.543      2.438
REMARK  1 active torsions:
REMARK  status: ('A' for Active; 'I' for Inactive)
REMARK    1  A    between atoms: C4_4  and  C6_6 
ROOT
HETATM    1  C1  UNL     1     -34.164   5.423   5.450  1.00 20.00     0.089 A 
HETATM    2  C2  UNL     1     -33.686   5.549   3.095  1.00 20.00     0.044 A 
HETATM    3  C3  UNL     1     -33.979   4.789   4.285  1.00 20.00    -0.053 A 
HETATM    4  C4  UNL     1     -33.602   6.880   3.182  1.00 20.00     0.080 A 
HETATM    5  C5  UNL     1     -34.069   6.896   5.539  1.00 20.00     0.288 A 
HETATM    6  C8  UNL     1     -34.067   3.301   4.145  1.00 20.00     0.048 C 
HETATM    7  O11 UNL     1     -34.239   7.469   6.611  1.00 20.00    -0.260 OA
HETATM    8  O12 UNL     1     -33.788   7.580   4.387  1.00 20.00    -0.276 OA
ENDROOT
BRANCH   4   9
HETATM    9  C6  UNL     1     -33.314   7.727   2.059  1.00 20.00     0.039 C 
HETATM   10  C7  UNL     1     -32.203   8.497   1.908  1.00 20.00    -0.085 C 
HETATM   11  C9  UNL     1     -31.910   9.381   0.728  1.00 20.00     0.043 C 
HETATM   12  C10 UNL     1     -31.132   8.518   2.969  1.00 20.00     0.043 C 
ENDBRANCH   4   9
TORSDOF 1
ENDMDL
MODEL 4
REMARK VINA RESULT:      -5.3     11.452     12.272
REMARK  1 active torsions:
REMARK  status: ('A' for Active; 'I' for Inactive)
REMARK    1  A    between atoms: C4_4  and  C6_6 
ROOT
HETATM    1  C1  UNL     1     -37.375  14.367  -4.967  1.00 20.00     0.089 A 
HETATM    2  C2  UNL     1     -36.556  16.374  -3.921  1.00 20.00     0.044 A 
HETATM    3  C3  UNL     1     -37.621  15.604  -4.514  1.00 20.00    -0.053 A 
HETATM    4  C4  UNL     1     -35.337  15.833  -3.836  1.00 20.00     0.080 A 
HETATM    5  C5  UNL     1     -36.023  13.775  -4.870  1.00 20.00     0.288 A 
HETATM    6  C8  UNL     1     -38.972  16.243  -4.589  1.00 20.00     0.048 C 
HETATM    7  O11 UNL     1     -35.806  12.642  -5.287  1.00 20.00    -0.260 OA
HETATM    8  O12 UNL     1     -35.040  14.540  -4.300  1.00 20.00    -0.276 OA
ENDROOT
BRANCH   4   9
HETATM    9  C6  UNL     1     -34.210  16.516  -3.265  1.00 20.00     0.039 C 
HETATM   10  C7  UNL     1     -34.152  17.047  -2.014  1.00 20.00    -0.085 C 
HETATM   11  C9  UNL     1     -32.966  17.760  -1.425  1.00 20.00     0.043 C 
HETATM   12  C10 UNL     1     -35.333  16.950  -1.082  1.00 20.00     0.043 C 
ENDBRANCH   4   9
TORSDOF 1
ENDMDL
MODEL 5
REMARK VINA RESULT:      -5.3     11.663     12.728
REMARK  1 active torsions:
REMARK  status: ('A' for Active; 'I' for Inactive)
REMARK    1  A    between atoms: C4_4  and  C6_6 
ROOT
HETATM    1  C1  UNL     1     -36.148  13.959  -6.422  1.00 20.00     0.089 A 
HETATM    2  C2  UNL     1     -34.090  14.849  -5.548  1.00 20.00     0.044 A 
HETATM    3  C3  UNL     1     -34.858  14.263  -6.618  1.00 20.00    -0.053 A 
HETATM    4  C4  UNL     1     -34.687  15.078  -4.374  1.00 20.00     0.080 A 
HETATM    5  C5  UNL     1     -36.802  14.214  -5.121  1.00 20.00     0.288 A 
HETATM    6  C8  UNL     1     -34.154  14.025  -7.918  1.00 20.00     0.048 C 
HETATM    7  O11 UNL     1     -37.984  13.933  -4.950  1.00 20.00    -0.260 OA
HETATM    8  O12 UNL     1     -36.037  14.772  -4.131  1.00 20.00    -0.276 OA
ENDROOT
BRANCH   4   9
HETATM    9  C6  UNL     1     -34.012  15.656  -3.246  1.00 20.00     0.039 C 
HETATM   10  C7  UNL     1     -34.009  16.974  -2.910  1.00 20.00    -0.085 C 
HETATM   11  C9  UNL     1     -33.299  17.569  -1.727  1.00 20.00     0.043 C 
HETATM   12  C10 UNL     1     -34.756  17.981  -3.746  1.00 20.00     0.043 C 
ENDBRANCH   4   9
TORSDOF 1
ENDMDL
MODEL 6
REMARK VINA RESULT:      -5.2     11.856     12.498
REMARK  1 active torsions:
REMARK  status: ('A' for Active; 'I' for Inactive)
REMARK    1  A    between atoms: C4_4  and  C6_6 
ROOT
HETATM    1  C1  UNL     1     -33.878  18.236  -0.023  1.00 20.00     0.089 A 
HETATM    2  C2  UNL     1     -35.412  16.862  -1.269  1.00 20.00     0.044 A 
HETATM    3  C3  UNL     1     -35.097  17.691  -0.132  1.00 20.00    -0.053 A 
HETATM    4  C4  UNL     1     -34.473  16.653  -2.196  1.00 20.00     0.080 A 
HETATM    5  C5  UNL     1     -32.843  17.999  -1.052  1.00 20.00     0.288 A 
HETATM    6  C8  UNL     1     -36.177  17.904   0.883  1.00 20.00     0.048 C 
HETATM    7  O11 UNL     1     -31.729  18.501  -0.944  1.00 20.00    -0.260 OA
HETATM    8  O12 UNL     1     -33.183  17.206  -2.116  1.00 20.00    -0.276 OA
ENDROOT
BRANCH   4   9
HETATM    9  C6  UNL     1     -34.684  15.844  -3.364  1.00 20.00     0.039 C 
HETATM   10  C7  UNL     1     -35.073  16.297  -4.586  1.00 20.00    -0.085 C 
HETATM   11  C9  UNL     1     -35.291  15.442  -5.802  1.00 20.00     0.043 C 
HETATM   12  C10 UNL     1     -35.324  17.765  -4.817  1.00 20.00     0.043 C 
ENDBRANCH   4   9
TORSDOF 1
ENDMDL
MODEL 7
REMARK VINA RESULT:      -5.2     11.397     12.800
REMARK  1 active torsions:
REMARK  status: ('A' for Active; 'I' for Inactive)
REMARK    1  A    between atoms: C4_4  and  C6_6 
ROOT
HETATM    1  C1  UNL     1     -33.302  15.577  -5.640  1.00 20.00     0.089 A 
HETATM    2  C2  UNL     1     -34.747  17.122  -4.493  1.00 20.00     0.044 A 
HETATM    3  C3  UNL     1     -33.994  16.724  -5.656  1.00 20.00    -0.053 A 
HETATM    4  C4  UNL     1     -34.738  16.333  -3.416  1.00 20.00     0.080 A 
HETATM    5  C5  UNL     1     -33.296  14.708  -4.443  1.00 20.00     0.288 A 
HETATM    6  C8  UNL     1     -34.031  17.634  -6.844  1.00 20.00     0.048 C 
HETATM    7  O11 UNL     1     -32.659  13.659  -4.436  1.00 20.00    -0.260 OA
HETATM    8  O12 UNL     1     -34.024  15.123  -3.360  1.00 20.00    -0.276 OA
ENDROOT
BRANCH   4   9
HETATM    9  C6  UNL     1     -35.453  16.638  -2.208  1.00 20.00     0.039 C 
HETATM   10  C7  UNL     1     -34.938  17.260  -1.114  1.00 20.00    -0.085 C 
HETATM   11  C9  UNL     1     -35.695  17.575   0.146  1.00 20.00     0.043 C 
HETATM   12  C10 UNL     1     -33.496  17.700  -1.088  1.00 20.00     0.043 C 
ENDBRANCH   4   9
TORSDOF 1
ENDMDL
MODEL 8
REMARK VINA RESULT:      -5.1     12.021     12.613
REMARK  1 active torsions:
REMARK  status: ('A' for Active; 'I' for Inactive)
REMARK    1  A    between atoms: C4_4  and  C6_6 
ROOT
HETATM    1  C1  UNL     1     -33.730  18.306   0.070  1.00 20.00     0.089 A 
HETATM    2  C2  UNL     1     -34.893  16.993  -1.578  1.00 20.00     0.044 A 
HETATM    3  C3  UNL     1     -34.871  17.739  -0.344  1.00 20.00    -0.053 A 
HETATM    4  C4  UNL     1     -33.766  16.881  -2.286  1.00 20.00     0.080 A 
HETATM    5  C5  UNL     1     -32.486  18.178  -0.718  1.00 20.00     0.288 A 
HETATM    6  C8  UNL     1     -36.155  17.842   0.419  1.00 20.00     0.048 C 
HETATM    7  O11 UNL     1     -31.445  18.700  -0.331  1.00 20.00    -0.260 OA
HETATM    8  O12 UNL     1     -32.550  17.461  -1.883  1.00 20.00    -0.276 OA
ENDROOT
BRANCH   4   9
HETATM    9  C6  UNL     1     -33.681  16.160  -3.525  1.00 20.00     0.039 C 
HETATM   10  C7  UNL     1     -33.622  16.715  -4.766  1.00 20.00    -0.085 C 
HETATM   11  C9  UNL     1     -33.534  15.951  -6.058  1.00 20.00     0.043 C 
HETATM   12  C10 UNL     1     -33.643  18.212  -4.940  1.00 20.00     0.043 C 
ENDBRANCH   4   9
TORSDOF 1
ENDMDL
MODEL 9
REMARK VINA RESULT:      -5.0     11.682     12.643
REMARK  1 active torsions:
REMARK  status: ('A' for Active; 'I' for Inactive)
REMARK    1  A    between atoms: C4_4  and  C6_6 
ROOT
HETATM    1  C1  UNL     1     -33.631  18.619  -1.489  1.00 20.00     0.089 A 
HETATM    2  C2  UNL     1     -35.197  16.795  -1.575  1.00 20.00     0.044 A 
HETATM    3  C3  UNL     1     -34.478  17.808  -0.843  1.00 20.00    -0.053 A 
HETATM    4  C4  UNL     1     -35.000  16.687  -2.892  1.00 20.00     0.080 A 
HETATM    5  C5  UNL     1     -33.417  18.494  -2.946  1.00 20.00     0.288 A 
HETATM    6  C8  UNL     1     -34.729  17.898   0.631  1.00 20.00     0.048 C 
HETATM    7  O11 UNL     1     -32.638  19.241  -3.530  1.00 20.00    -0.260 OA
HETATM    8  O12 UNL     1     -34.119  17.519  -3.604  1.00 20.00    -0.276 OA
ENDROOT
BRANCH   4   9
HETATM    9  C6  UNL     1     -35.665  15.712  -3.712  1.00 20.00     0.039 C 
HETATM   10  C7  UNL     1     -35.079  14.634  -4.299  1.00 20.00    -0.085 C 
HETATM   11  C9  UNL     1     -35.784  13.620  -5.156  1.00 20.00     0.043 C 
HETATM   12  C10 UNL     1     -33.607  14.368  -4.121  1.00 20.00     0.043 C 
ENDBRANCH   4   9
TORSDOF 1
ENDMDL
