MODEL 1
REMARK VINA RESULT:      -5.2      0.000      0.000
REMARK  2 active torsions:
REMARK  status: ('A' for Active; 'I' for Inactive)
REMARK    1  A    between atoms: C1_1  and  C3_3 
REMARK    2  A    between atoms: C3_3  and  C4_4 
ROOT
HETATM    1  C2  UNL     1     -34.429   4.369   4.872  1.00 20.00     0.069 C 
HETATM    2  C3  UNL     1     -34.389   5.730   4.160  1.00 20.00     0.264 C 
HETATM    3  O5  UNL     1     -35.564   5.991   3.622  1.00 20.00    -0.210 OA
ENDROOT
BRANCH   2   4
HETATM    4  C1  UNL     1     -33.357   5.756   3.012  1.00 20.00     0.265 C 
HETATM    5  O6  UNL     1     -32.863   4.723   2.561  1.00 20.00    -0.276 OA
HETATM    6 CL10 UNL     1     -32.932   7.357   2.428  1.00 20.00    -0.040 Cl
ENDBRANCH   2   4
BRANCH   2   7
HETATM    7  C4  UNL     1     -34.062   6.822   5.190  1.00 20.00     0.429 C 
HETATM    8  F7  UNL     1     -34.590   8.020   4.844  1.00 20.00    -0.167 F 
HETATM    9  F8  UNL     1     -32.731   7.002   5.352  1.00 20.00    -0.167 F 
HETATM   10  F9  UNL     1     -34.572   6.503   6.405  1.00 20.00    -0.167 F 
ENDBRANCH   2   7
TORSDOF 2
ENDMDL
MODEL 2
REMARK VINA RESULT:      -5.2      0.019      1.192
REMARK  2 active torsions:
REMARK  status: ('A' for Active; 'I' for Inactive)
REMARK    1  A    between atoms: C1_1  and  C3_3 
REMARK    2  A    between atoms: C3_3  and  C4_4 
ROOT
HETATM    1  C2  UNL     1     -34.434   4.370   4.866  1.00 20.00     0.069 C 
HETATM    2  C3  UNL     1     -34.391   5.733   4.158  1.00 20.00     0.264 C 
HETATM    3  O5  UNL     1     -35.564   5.996   3.616  1.00 20.00    -0.210 OA
ENDROOT
BRANCH   2   4
HETATM    4  C1  UNL     1     -33.354   5.762   3.015  1.00 20.00     0.265 C 
HETATM    5  O6  UNL     1     -32.850   4.732   2.571  1.00 20.00    -0.276 OA
HETATM    6 CL10 UNL     1     -32.938   7.364   2.427  1.00 20.00    -0.040 Cl
ENDBRANCH   2   4
BRANCH   2   7
HETATM    7  C4  UNL     1     -34.069   6.823   5.193  1.00 20.00     0.429 C 
HETATM    8  F7  UNL     1     -32.735   7.012   5.331  1.00 20.00    -0.167 F 
HETATM    9  F8  UNL     1     -34.562   6.536   6.420  1.00 20.00    -0.167 F 
HETATM   10  F9  UNL     1     -34.599   8.012   4.817  1.00 20.00    -0.167 F 
ENDBRANCH   2   7
TORSDOF 2
ENDMDL
MODEL 3
REMARK VINA RESULT:      -4.9      2.236      2.685
REMARK  2 active torsions:
REMARK  status: ('A' for Active; 'I' for Inactive)
REMARK    1  A    between atoms: C1_1  and  C3_3 
REMARK    2  A    between atoms: C3_3  and  C4_4 
ROOT
HETATM    1  C2  UNL     1     -33.294   5.169   2.676  1.00 20.00     0.069 C 
HETATM    2  C3  UNL     1     -34.106   5.751   3.843  1.00 20.00     0.264 C 
HETATM    3  O5  UNL     1     -35.287   6.151   3.414  1.00 20.00    -0.210 OA
ENDROOT
BRANCH   2   4
HETATM    4  C1  UNL     1     -33.420   6.982   4.473  1.00 20.00     0.265 C 
HETATM    5  O6  UNL     1     -32.525   7.593   3.892  1.00 20.00    -0.276 OA
HETATM    6 CL10 UNL     1     -33.995   7.417   6.076  1.00 20.00    -0.040 Cl
ENDBRANCH   2   4
BRANCH   2   7
HETATM    7  C4  UNL     1     -34.309   4.657   4.904  1.00 20.00     0.429 C 
HETATM    8  F7  UNL     1     -35.548   4.704   5.449  1.00 20.00    -0.167 F 
HETATM    9  F8  UNL     1     -33.420   4.747   5.920  1.00 20.00    -0.167 F 
HETATM   10  F9  UNL     1     -34.165   3.426   4.356  1.00 20.00    -0.167 F 
ENDBRANCH   2   7
TORSDOF 2
ENDMDL
MODEL 4
REMARK VINA RESULT:      -4.9      1.897      2.630
REMARK  2 active torsions:
REMARK  status: ('A' for Active; 'I' for Inactive)
REMARK    1  A    between atoms: C1_1  and  C3_3 
REMARK    2  A    between atoms: C3_3  and  C4_4 
ROOT
HETATM    1  C2  UNL     1     -33.218   5.212   2.722  1.00 20.00     0.069 C 
HETATM    2  C3  UNL     1     -34.137   5.756   3.827  1.00 20.00     0.264 C 
HETATM    3  O5  UNL     1     -35.295   6.117   3.311  1.00 20.00    -0.210 OA
ENDROOT
BRANCH   2   4
HETATM    4  C1  UNL     1     -33.545   7.005   4.515  1.00 20.00     0.265 C 
HETATM    5  O6  UNL     1     -34.009   7.447   5.565  1.00 20.00    -0.276 OA
HETATM    6 CL10 UNL     1     -32.194   7.748   3.675  1.00 20.00    -0.040 Cl
ENDBRANCH   2   4
BRANCH   2   7
HETATM    7  C4  UNL     1     -34.381   4.647   4.863  1.00 20.00     0.429 C 
HETATM    8  F7  UNL     1     -33.893   4.976   6.083  1.00 20.00    -0.167 F 
HETATM    9  F8  UNL     1     -33.814   3.470   4.508  1.00 20.00    -0.167 F 
HETATM   10  F9  UNL     1     -35.708   4.420   5.018  1.00 20.00    -0.167 F 
ENDBRANCH   2   7
TORSDOF 2
ENDMDL
MODEL 5
REMARK VINA RESULT:      -4.7      1.958      2.256
REMARK  2 active torsions:
REMARK  status: ('A' for Active; 'I' for Inactive)
REMARK    1  A    between atoms: C1_1  and  C3_3 
REMARK    2  A    between atoms: C3_3  and  C4_4 
ROOT
HETATM    1  C2  UNL     1     -32.896   4.735   2.861  1.00 20.00     0.069 C 
HETATM    2  C3  UNL     1     -33.803   5.962   3.046  1.00 20.00     0.264 C 
HETATM    3  O5  UNL     1     -34.444   6.220   1.923  1.00 20.00    -0.210 OA
ENDROOT
BRANCH   2   4
HETATM    4  C1  UNL     1     -33.000   7.231   3.404  1.00 20.00     0.265 C 
HETATM    5  O6  UNL     1     -32.708   7.506   4.566  1.00 20.00    -0.276 OA
HETATM    6 CL10 UNL     1     -32.567   8.249   2.039  1.00 20.00    -0.040 Cl
ENDBRANCH   2   4
BRANCH   2   7
HETATM    7  C4  UNL     1     -34.833   5.659   4.145  1.00 20.00     0.429 C 
HETATM    8  F7  UNL     1     -36.097   5.933   3.745  1.00 20.00    -0.167 F 
HETATM    9  F8  UNL     1     -34.608   6.366   5.277  1.00 20.00    -0.167 F 
HETATM   10  F9  UNL     1     -34.802   4.346   4.482  1.00 20.00    -0.167 F 
ENDBRANCH   2   7
TORSDOF 2
ENDMDL
MODEL 6
REMARK VINA RESULT:      -4.7      1.630      1.782
REMARK  2 active torsions:
REMARK  status: ('A' for Active; 'I' for Inactive)
REMARK    1  A    between atoms: C1_1  and  C3_3 
REMARK    2  A    between atoms: C3_3  and  C4_4 
ROOT
HETATM    1  C2  UNL     1     -34.744   5.799   5.878  1.00 20.00     0.069 C 
HETATM    2  C3  UNL     1     -34.472   5.875   4.368  1.00 20.00     0.264 C 
HETATM    3  O5  UNL     1     -35.597   6.105   3.719  1.00 20.00    -0.210 OA
ENDROOT
BRANCH   2   4
HETATM    4  C1  UNL     1     -33.898   4.554   3.813  1.00 20.00     0.265 C 
HETATM    5  O6  UNL     1     -34.013   3.491   4.421  1.00 20.00    -0.276 OA
HETATM    6 CL10 UNL     1     -33.056   4.694   2.277  1.00 20.00    -0.040 Cl
ENDBRANCH   2   4
BRANCH   2   7
HETATM    7  C4  UNL     1     -33.498   7.032   4.094  1.00 20.00     0.429 C 
HETATM    8  F7  UNL     1     -34.074   8.018   3.365  1.00 20.00    -0.167 F 
HETATM    9  F8  UNL     1     -32.391   6.633   3.426  1.00 20.00    -0.167 F 
HETATM   10  F9  UNL     1     -33.082   7.593   5.256  1.00 20.00    -0.167 F 
ENDBRANCH   2   7
TORSDOF 2
ENDMDL
MODEL 7
REMARK VINA RESULT:      -4.6      2.615      3.208
REMARK  2 active torsions:
REMARK  status: ('A' for Active; 'I' for Inactive)
REMARK    1  A    between atoms: C1_1  and  C3_3 
REMARK    2  A    between atoms: C3_3  and  C4_4 
ROOT
HETATM    1  C2  UNL     1     -33.929   7.191   4.754  1.00 20.00     0.069 C 
HETATM    2  C3  UNL     1     -34.382   6.014   3.876  1.00 20.00     0.264 C 
HETATM    3  O5  UNL     1     -35.595   6.242   3.411  1.00 20.00    -0.210 OA
ENDROOT
BRANCH   2   4
HETATM    4  C1  UNL     1     -34.449   4.690   4.667  1.00 20.00     0.265 C 
HETATM    5  O6  UNL     1     -34.358   3.598   4.109  1.00 20.00    -0.276 OA
HETATM    6 CL10 UNL     1     -34.688   4.867   6.398  1.00 20.00    -0.040 Cl
ENDBRANCH   2   4
BRANCH   2   7
HETATM    7  C4  UNL     1     -33.415   5.875   2.691  1.00 20.00     0.429 C 
HETATM    8  F7  UNL     1     -32.719   4.714   2.738  1.00 20.00    -0.167 F 
HETATM    9  F8  UNL     1     -32.513   6.882   2.635  1.00 20.00    -0.167 F 
HETATM   10  F9  UNL     1     -34.092   5.881   1.516  1.00 20.00    -0.167 F 
ENDBRANCH   2   7
TORSDOF 2
ENDMDL
MODEL 8
REMARK VINA RESULT:      -4.5      2.606      3.270
REMARK  2 active torsions:
REMARK  status: ('A' for Active; 'I' for Inactive)
REMARK    1  A    between atoms: C1_1  and  C3_3 
REMARK    2  A    between atoms: C3_3  and  C4_4 
ROOT
HETATM    1  C2  UNL     1     -33.782   7.485   3.261  1.00 20.00     0.069 C 
HETATM    2  C3  UNL     1     -34.359   6.164   3.794  1.00 20.00     0.264 C 
HETATM    3  O5  UNL     1     -35.634   6.069   3.473  1.00 20.00    -0.210 OA
ENDROOT
BRANCH   2   4
HETATM    4  C1  UNL     1     -34.277   6.072   5.332  1.00 20.00     0.265 C 
HETATM    5  O6  UNL     1     -34.739   5.113   5.949  1.00 20.00    -0.276 OA
HETATM    6 CL10 UNL     1     -33.507   7.439   6.121  1.00 20.00    -0.040 Cl
ENDBRANCH   2   4
BRANCH   2   7
HETATM    7  C4  UNL     1     -33.598   4.994   3.152  1.00 20.00     0.429 C 
HETATM    8  F7  UNL     1     -33.880   4.868   1.833  1.00 20.00    -0.167 F 
HETATM    9  F8  UNL     1     -33.880   3.807   3.737  1.00 20.00    -0.167 F 
HETATM   10  F9  UNL     1     -32.259   5.180   3.252  1.00 20.00    -0.167 F 
ENDBRANCH   2   7
TORSDOF 2
ENDMDL
MODEL 9
REMARK VINA RESULT:      -4.5      2.592      3.138
REMARK  2 active torsions:
REMARK  status: ('A' for Active; 'I' for Inactive)
REMARK    1  A    between atoms: C1_1  and  C3_3 
REMARK    2  A    between atoms: C3_3  and  C4_4 
ROOT
HETATM    1  C2  UNL     1     -33.188   7.367   5.624  1.00 20.00     0.069 C 
HETATM    2  C3  UNL     1     -33.865   7.123   4.266  1.00 20.00     0.264 C 
HETATM    3  O5  UNL     1     -34.600   8.167   3.935  1.00 20.00    -0.210 OA
ENDROOT
BRANCH   2   4
HETATM    4  C1  UNL     1     -34.810   5.903   4.298  1.00 20.00     0.265 C 
HETATM    5  O6  UNL     1     -35.775   5.811   3.539  1.00 20.00    -0.276 OA
HETATM    6 CL10 UNL     1     -34.419   4.688   5.505  1.00 20.00    -0.040 Cl
ENDBRANCH   2   4
BRANCH   2   7
HETATM    7  C4  UNL     1     -32.779   6.923   3.197  1.00 20.00     0.429 C 
HETATM    8  F7  UNL     1     -32.549   5.612   2.946  1.00 20.00    -0.167 F 
HETATM    9  F8  UNL     1     -31.596   7.478   3.547  1.00 20.00    -0.167 F 
HETATM   10  F9  UNL     1     -33.153   7.489   2.023  1.00 20.00    -0.167 F 
ENDBRANCH   2   7
TORSDOF 2
ENDMDL
