MODEL 1
REMARK VINA RESULT:      -4.7      0.000      0.000
REMARK  1 active torsions:
REMARK  status: ('A' for Active; 'I' for Inactive)
REMARK    1  A    between atoms: C2_2  and  C3_3 
ROOT
HETATM    1  C1  UNL     1     -32.850   7.087   3.230  1.00 20.00     0.112 C 
HETATM    2  C2  UNL     1     -33.638   6.737   4.253  1.00 20.00     0.090 C 
HETATM    3 CL6  UNL     1     -31.604   8.267   3.293  1.00 20.00    -0.095 Cl
HETATM    4 CL7  UNL     1     -33.497   7.455   5.822  1.00 20.00    -0.080 Cl
ENDROOT
BRANCH   2   5
HETATM    5  C3  UNL     1     -34.704   5.694   4.109  1.00 20.00     0.167 C 
HETATM    6  C4  UNL     1     -34.421   4.282   4.564  1.00 20.00     0.097 C 
HETATM    7  O5  UNL     1     -35.801   5.978   3.627  1.00 20.00    -0.292 OA
ENDBRANCH   2   5
TORSDOF 1
ENDMDL
MODEL 2
REMARK VINA RESULT:      -4.5      2.126      2.141
REMARK  1 active torsions:
REMARK  status: ('A' for Active; 'I' for Inactive)
REMARK    1  A    between atoms: C2_2  and  C3_3 
ROOT
HETATM    1  C1  UNL     1     -32.510   7.798   3.641  1.00 20.00     0.112 C 
HETATM    2  C2  UNL     1     -33.429   6.850   3.850  1.00 20.00     0.090 C 
HETATM    3 CL6  UNL     1     -31.828   8.203   2.118  1.00 20.00    -0.095 Cl
HETATM    4 CL7  UNL     1     -34.069   5.877   2.569  1.00 20.00    -0.080 Cl
ENDROOT
BRANCH   2   5
HETATM    5  C3  UNL     1     -33.971   6.561   5.217  1.00 20.00     0.167 C 
HETATM    6  C4  UNL     1     -34.643   5.234   5.480  1.00 20.00     0.097 C 
HETATM    7  O5  UNL     1     -33.874   7.393   6.120  1.00 20.00    -0.292 OA
ENDBRANCH   2   5
TORSDOF 1
ENDMDL
MODEL 3
REMARK VINA RESULT:      -4.2      2.519      3.636
REMARK  1 active torsions:
REMARK  status: ('A' for Active; 'I' for Inactive)
REMARK    1  A    between atoms: C2_2  and  C3_3 
ROOT
HETATM    1  C1  UNL     1     -34.013   6.280   3.362  1.00 20.00     0.112 C 
HETATM    2  C2  UNL     1     -33.229   7.184   3.961  1.00 20.00     0.090 C 
HETATM    3 CL6  UNL     1     -35.227   5.347   4.139  1.00 20.00    -0.095 Cl
HETATM    4 CL7  UNL     1     -33.343   7.538   5.652  1.00 20.00    -0.080 Cl
ENDROOT
BRANCH   2   5
HETATM    5  C3  UNL     1     -32.191   7.956   3.204  1.00 20.00     0.167 C 
HETATM    6  C4  UNL     1     -32.475   8.376   1.782  1.00 20.00     0.097 C 
HETATM    7  O5  UNL     1     -31.116   8.246   3.731  1.00 20.00    -0.292 OA
ENDBRANCH   2   5
TORSDOF 1
ENDMDL
MODEL 4
REMARK VINA RESULT:      -4.2      2.753      3.912
REMARK  1 active torsions:
REMARK  status: ('A' for Active; 'I' for Inactive)
REMARK    1  A    between atoms: C2_2  and  C3_3 
ROOT
HETATM    1  C1  UNL     1     -33.736   6.951   4.755  1.00 20.00     0.112 C 
HETATM    2  C2  UNL     1     -33.085   6.817   3.594  1.00 20.00     0.090 C 
HETATM    3 CL6  UNL     1     -34.747   5.763   5.471  1.00 20.00    -0.095 Cl
HETATM    4 CL7  UNL     1     -33.183   5.380   2.634  1.00 20.00    -0.080 Cl
ENDROOT
BRANCH   2   5
HETATM    5  C3  UNL     1     -32.222   7.910   3.040  1.00 20.00     0.167 C 
HETATM    6  C4  UNL     1     -32.513   8.454   1.662  1.00 20.00     0.097 C 
HETATM    7  O5  UNL     1     -31.283   8.363   3.697  1.00 20.00    -0.292 OA
ENDBRANCH   2   5
TORSDOF 1
ENDMDL
MODEL 5
REMARK VINA RESULT:      -4.0      1.371      1.405
REMARK  1 active torsions:
REMARK  status: ('A' for Active; 'I' for Inactive)
REMARK    1  A    between atoms: C2_2  and  C3_3 
ROOT
HETATM    1  C1  UNL     1     -32.652   7.420   2.526  1.00 20.00     0.112 C 
HETATM    2  C2  UNL     1     -33.174   6.841   3.613  1.00 20.00     0.090 C 
HETATM    3 CL6  UNL     1     -31.955   8.988   2.471  1.00 20.00    -0.095 Cl
HETATM    4 CL7  UNL     1     -33.214   7.628   5.155  1.00 20.00    -0.080 Cl
ENDROOT
BRANCH   2   5
HETATM    5  C3  UNL     1     -33.765   5.465   3.571  1.00 20.00     0.167 C 
HETATM    6  C4  UNL     1     -34.874   5.108   4.532  1.00 20.00     0.097 C 
HETATM    7  O5  UNL     1     -33.355   4.629   2.764  1.00 20.00    -0.292 OA
ENDBRANCH   2   5
TORSDOF 1
ENDMDL
MODEL 6
REMARK VINA RESULT:      -3.8      3.169      4.467
REMARK  1 active torsions:
REMARK  status: ('A' for Active; 'I' for Inactive)
REMARK    1  A    between atoms: C2_2  and  C3_3 
ROOT
HETATM    1  C1  UNL     1     -33.318   7.140   2.422  1.00 20.00     0.112 C 
HETATM    2  C2  UNL     1     -32.361   8.073   2.471  1.00 20.00     0.090 C 
HETATM    3 CL6  UNL     1     -33.754   6.094   3.712  1.00 20.00    -0.095 Cl
HETATM    4 CL7  UNL     1     -31.407   8.352   3.889  1.00 20.00    -0.080 Cl
ENDROOT
BRANCH   2   5
HETATM    5  C3  UNL     1     -32.045   8.945   1.294  1.00 20.00     0.167 C 
HETATM    6  C4  UNL     1     -32.803  10.238   1.109  1.00 20.00     0.097 C 
HETATM    7  O5  UNL     1     -31.178   8.617   0.483  1.00 20.00    -0.292 OA
ENDBRANCH   2   5
TORSDOF 1
ENDMDL
MODEL 7
REMARK VINA RESULT:      -3.5     11.699     11.936
REMARK  1 active torsions:
REMARK  status: ('A' for Active; 'I' for Inactive)
REMARK    1  A    between atoms: C2_2  and  C3_3 
ROOT
HETATM    1  C1  UNL     1     -35.108  15.716  -3.299  1.00 20.00     0.112 C 
HETATM    2  C2  UNL     1     -34.781  14.713  -4.121  1.00 20.00     0.090 C 
HETATM    3 CL6  UNL     1     -33.995  16.684  -2.420  1.00 20.00    -0.095 Cl
HETATM    4 CL7  UNL     1     -33.139  14.248  -4.413  1.00 20.00    -0.080 Cl
ENDROOT
BRANCH   2   5
HETATM    5  C3  UNL     1     -35.821  13.918  -4.851  1.00 20.00     0.167 C 
HETATM    6  C4  UNL     1     -37.198  14.506  -5.047  1.00 20.00     0.097 C 
HETATM    7  O5  UNL     1     -35.561  12.796  -5.288  1.00 20.00    -0.292 OA
ENDBRANCH   2   5
TORSDOF 1
ENDMDL
MODEL 8
REMARK VINA RESULT:      -3.4     11.697     12.089
REMARK  1 active torsions:
REMARK  status: ('A' for Active; 'I' for Inactive)
REMARK    1  A    between atoms: C2_2  and  C3_3 
ROOT
HETATM    1  C1  UNL     1     -35.167  15.418  -3.718  1.00 20.00     0.112 C 
HETATM    2  C2  UNL     1     -34.494  14.523  -4.449  1.00 20.00     0.090 C 
HETATM    3 CL6  UNL     1     -34.488  16.423  -2.504  1.00 20.00    -0.095 Cl
HETATM    4 CL7  UNL     1     -32.794  14.256  -4.255  1.00 20.00    -0.080 Cl
ENDROOT
BRANCH   2   5
HETATM    5  C3  UNL     1     -35.168  13.684  -5.491  1.00 20.00     0.167 C 
HETATM    6  C4  UNL     1     -34.869  13.937  -6.950  1.00 20.00     0.097 C 
HETATM    7  O5  UNL     1     -35.959  12.796  -5.169  1.00 20.00    -0.292 OA
ENDBRANCH   2   5
TORSDOF 1
ENDMDL
MODEL 9
REMARK VINA RESULT:      -3.4      2.337      3.124
REMARK  1 active torsions:
REMARK  status: ('A' for Active; 'I' for Inactive)
REMARK    1  A    between atoms: C2_2  and  C3_3 
ROOT
HETATM    1  C1  UNL     1     -33.350   7.324   5.129  1.00 20.00     0.112 C 
HETATM    2  C2  UNL     1     -33.778   6.567   4.113  1.00 20.00     0.090 C 
HETATM    3 CL6  UNL     1     -34.146   7.507   6.639  1.00 20.00    -0.095 Cl
HETATM    4 CL7  UNL     1     -35.241   5.644   4.196  1.00 20.00    -0.080 Cl
ENDROOT
BRANCH   2   5
HETATM    5  C3  UNL     1     -33.018   6.465   2.826  1.00 20.00     0.167 C 
HETATM    6  C4  UNL     1     -32.432   7.715   2.214  1.00 20.00     0.097 C 
HETATM    7  O5  UNL     1     -32.869   5.377   2.268  1.00 20.00    -0.292 OA
ENDBRANCH   2   5
TORSDOF 1
ENDMDL
