MODEL 1
REMARK VINA RESULT:      -4.7      0.000      0.000
REMARK  4 active torsions:
REMARK  status: ('A' for Active; 'I' for Inactive)
REMARK    1  A    between atoms: C2_2  and  C5_5 
REMARK    2  A    between atoms: C2_2  and  C6_6 
REMARK    3  A    between atoms: C5_5  and  C7_7 
REMARK    4  A    between atoms: C6_6  and  C8_8 
ROOT
HETATM    1  C1  UNL     1     -33.096   5.121   2.772  1.00 20.00     0.207 A 
HETATM    2  C2  UNL     1     -33.322   6.560   3.172  1.00 20.00     0.082 A 
HETATM    3  O9  UNL     1     -33.773   6.049   1.910  1.00 20.00    -0.375 OA
ENDROOT
BRANCH   2   4
HETATM    4  C5  UNL     1     -34.449   6.902   4.131  1.00 20.00     0.040 C 
BRANCH   4   5
HETATM    5  C7  UNL     1     -34.080   6.561   5.573  1.00 20.00    -0.002 C 
HETATM    6  C3  UNL     1     -34.597   5.187   5.971  1.00 20.00     0.005 C 
ENDBRANCH   4   5
ENDBRANCH   2   4
BRANCH   2   7
HETATM    7  C6  UNL     1     -32.201   7.541   3.057  1.00 20.00     0.040 C 
BRANCH   7   8
HETATM    8  C8  UNL     1     -32.513   8.674   2.065  1.00 20.00    -0.002 C 
HETATM    9  C4  UNL     1     -31.547   8.698   0.891  1.00 20.00     0.005 C 
ENDBRANCH   7   8
ENDBRANCH   2   7
TORSDOF 4
ENDMDL
MODEL 2
REMARK VINA RESULT:      -4.4      1.452      3.032
REMARK  4 active torsions:
REMARK  status: ('A' for Active; 'I' for Inactive)
REMARK    1  A    between atoms: C2_2  and  C5_5 
REMARK    2  A    between atoms: C2_2  and  C6_6 
REMARK    3  A    between atoms: C5_5  and  C7_7 
REMARK    4  A    between atoms: C6_6  and  C8_8 
ROOT
HETATM    1  C1  UNL     1     -32.294   8.350   2.080  1.00 20.00     0.207 A 
HETATM    2  C2  UNL     1     -32.806   7.335   3.075  1.00 20.00     0.082 A 
HETATM    3  O9  UNL     1     -31.562   8.021   3.271  1.00 20.00    -0.375 OA
ENDROOT
BRANCH   2   4
HETATM    4  C5  UNL     1     -33.887   7.735   4.065  1.00 20.00     0.040 C 
BRANCH   4   5
HETATM    5  C7  UNL     1     -33.429   7.529   5.507  1.00 20.00    -0.002 C 
HETATM    6  C3  UNL     1     -34.326   6.544   6.241  1.00 20.00     0.005 C 
ENDBRANCH   4   5
ENDBRANCH   2   4
BRANCH   2   7
HETATM    7  C6  UNL     1     -32.649   5.877   2.787  1.00 20.00     0.040 C 
BRANCH   7   8
HETATM    8  C8  UNL     1     -33.984   5.118   2.863  1.00 20.00    -0.002 C 
HETATM    9  C4  UNL     1     -33.989   4.063   3.958  1.00 20.00     0.005 C 
ENDBRANCH   7   8
ENDBRANCH   2   7
TORSDOF 4
ENDMDL
MODEL 3
REMARK VINA RESULT:      -4.4      1.544      4.269
REMARK  4 active torsions:
REMARK  status: ('A' for Active; 'I' for Inactive)
REMARK    1  A    between atoms: C2_2  and  C5_5 
REMARK    2  A    between atoms: C2_2  and  C6_6 
REMARK    3  A    between atoms: C5_5  and  C7_7 
REMARK    4  A    between atoms: C6_6  and  C8_8 
ROOT
HETATM    1  C1  UNL     1     -32.983   7.676   4.909  1.00 20.00     0.207 A 
HETATM    2  C2  UNL     1     -32.723   7.367   3.453  1.00 20.00     0.082 A 
HETATM    3  O9  UNL     1     -33.950   7.969   3.889  1.00 20.00    -0.375 OA
ENDROOT
BRANCH   2   4
HETATM    4  C5  UNL     1     -31.842   8.297   2.636  1.00 20.00     0.040 C 
BRANCH   4   5
HETATM    5  C7  UNL     1     -32.501   8.670   1.309  1.00 20.00    -0.002 C 
HETATM    6  C3  UNL     1     -32.627  10.178   1.154  1.00 20.00     0.005 C 
ENDBRANCH   4   5
ENDBRANCH   2   4
BRANCH   2   7
HETATM    7  C6  UNL     1     -32.883   5.967   2.958  1.00 20.00     0.040 C 
BRANCH   7   8
HETATM    8  C8  UNL     1     -34.299   5.419   3.197  1.00 20.00    -0.002 C 
HETATM    9  C4  UNL     1     -34.334   4.357   4.285  1.00 20.00     0.005 C 
ENDBRANCH   7   8
ENDBRANCH   2   7
TORSDOF 4
ENDMDL
MODEL 4
REMARK VINA RESULT:      -4.4      0.875      4.115
REMARK  4 active torsions:
REMARK  status: ('A' for Active; 'I' for Inactive)
REMARK    1  A    between atoms: C2_2  and  C5_5 
REMARK    2  A    between atoms: C2_2  and  C6_6 
REMARK    3  A    between atoms: C5_5  and  C7_7 
REMARK    4  A    between atoms: C6_6  and  C8_8 
ROOT
HETATM    1  C1  UNL     1     -33.663   5.925   2.116  1.00 20.00     0.207 A 
HETATM    2  C2  UNL     1     -33.132   6.986   3.051  1.00 20.00     0.082 A 
HETATM    3  O9  UNL     1     -32.795   5.602   3.213  1.00 20.00    -0.375 OA
ENDROOT
BRANCH   2   4
HETATM    4  C5  UNL     1     -31.963   7.853   2.614  1.00 20.00     0.040 C 
BRANCH   4   5
HETATM    5  C7  UNL     1     -32.442   9.148   1.959  1.00 20.00    -0.002 C 
HETATM    6  C3  UNL     1     -32.028   9.217   0.497  1.00 20.00     0.005 C 
ENDBRANCH   4   5
ENDBRANCH   2   4
BRANCH   2   7
HETATM    7  C6  UNL     1     -34.013   7.521   4.134  1.00 20.00     0.040 C 
BRANCH   7   8
HETATM    8  C8  UNL     1     -33.689   6.911   5.507  1.00 20.00    -0.002 C 
HETATM    9  C4  UNL     1     -34.583   5.727   5.840  1.00 20.00     0.005 C 
ENDBRANCH   7   8
ENDBRANCH   2   7
TORSDOF 4
ENDMDL
MODEL 5
REMARK VINA RESULT:      -4.3      1.611      2.377
REMARK  4 active torsions:
REMARK  status: ('A' for Active; 'I' for Inactive)
REMARK    1  A    between atoms: C2_2  and  C5_5 
REMARK    2  A    between atoms: C2_2  and  C6_6 
REMARK    3  A    between atoms: C5_5  and  C7_7 
REMARK    4  A    between atoms: C6_6  and  C8_8 
ROOT
HETATM    1  C1  UNL     1     -31.921   8.300   4.197  1.00 20.00     0.207 A 
HETATM    2  C2  UNL     1     -32.514   7.723   2.933  1.00 20.00     0.082 A 
HETATM    3  O9  UNL     1     -31.106   7.961   3.064  1.00 20.00    -0.375 OA
ENDROOT
BRANCH   2   4
HETATM    4  C5  UNL     1     -32.884   6.250   2.883  1.00 20.00     0.040 C 
BRANCH   4   5
HETATM    5  C7  UNL     1     -34.387   6.044   3.063  1.00 20.00    -0.002 C 
HETATM    6  C3  UNL     1     -34.728   5.658   4.494  1.00 20.00     0.005 C 
ENDBRANCH   4   5
ENDBRANCH   2   4
BRANCH   2   7
HETATM    7  C6  UNL     1     -33.189   8.631   1.956  1.00 20.00     0.040 C 
BRANCH   7   8
HETATM    8  C8  UNL     1     -32.254   9.059   0.813  1.00 20.00    -0.002 C 
HETATM    9  C4  UNL     1     -33.016   9.444  -0.445  1.00 20.00     0.005 C 
ENDBRANCH   7   8
ENDBRANCH   2   7
TORSDOF 4
ENDMDL
MODEL 6
REMARK VINA RESULT:      -4.2      1.774      2.383
REMARK  4 active torsions:
REMARK  status: ('A' for Active; 'I' for Inactive)
REMARK    1  A    between atoms: C2_2  and  C5_5 
REMARK    2  A    between atoms: C2_2  and  C6_6 
REMARK    3  A    between atoms: C5_5  and  C7_7 
REMARK    4  A    between atoms: C6_6  and  C8_8 
ROOT
HETATM    1  C1  UNL     1     -33.924   7.750   6.020  1.00 20.00     0.207 A 
HETATM    2  C2  UNL     1     -33.609   7.088   4.700  1.00 20.00     0.082 A 
HETATM    3  O9  UNL     1     -33.219   6.502   5.950  1.00 20.00    -0.375 OA
ENDROOT
BRANCH   2   4
HETATM    4  C5  UNL     1     -34.694   6.312   3.973  1.00 20.00     0.040 C 
BRANCH   4   5
HETATM    5  C7  UNL     1     -34.930   4.945   4.614  1.00 20.00    -0.002 C 
HETATM    6  C3  UNL     1     -33.979   3.898   4.056  1.00 20.00     0.005 C 
ENDBRANCH   4   5
ENDBRANCH   2   4
BRANCH   2   7
HETATM    7  C6  UNL     1     -32.459   7.583   3.884  1.00 20.00     0.040 C 
BRANCH   7   8
HETATM    8  C8  UNL     1     -32.749   7.534   2.375  1.00 20.00    -0.002 C 
HETATM    9  C4  UNL     1     -32.090   8.679   1.622  1.00 20.00     0.005 C 
ENDBRANCH   7   8
ENDBRANCH   2   7
TORSDOF 4
ENDMDL
MODEL 7
REMARK VINA RESULT:      -4.1      1.353      3.174
REMARK  4 active torsions:
REMARK  status: ('A' for Active; 'I' for Inactive)
REMARK    1  A    between atoms: C2_2  and  C5_5 
REMARK    2  A    between atoms: C2_2  and  C6_6 
REMARK    3  A    between atoms: C5_5  and  C7_7 
REMARK    4  A    between atoms: C6_6  and  C8_8 
ROOT
HETATM    1  C1  UNL     1     -31.824   8.049   1.842  1.00 20.00     0.207 A 
HETATM    2  C2  UNL     1     -32.763   7.446   2.860  1.00 20.00     0.082 A 
HETATM    3  O9  UNL     1     -33.064   8.681   2.196  1.00 20.00    -0.375 OA
ENDROOT
BRANCH   2   4
HETATM    4  C5  UNL     1     -33.670   6.296   2.456  1.00 20.00     0.040 C 
BRANCH   4   5
HETATM    5  C7  UNL     1     -33.094   4.950   2.891  1.00 20.00    -0.002 C 
HETATM    6  C3  UNL     1     -34.030   4.228   3.849  1.00 20.00     0.005 C 
ENDBRANCH   4   5
ENDBRANCH   2   4
BRANCH   2   7
HETATM    7  C6  UNL     1     -32.468   7.604   4.317  1.00 20.00     0.040 C 
BRANCH   7   8
HETATM    8  C8  UNL     1     -33.735   7.869   5.146  1.00 20.00    -0.002 C 
HETATM    9  C4  UNL     1     -34.040   6.739   6.116  1.00 20.00     0.005 C 
ENDBRANCH   7   8
ENDBRANCH   2   7
TORSDOF 4
ENDMDL
MODEL 8
REMARK VINA RESULT:      -4.0      1.518      2.173
REMARK  4 active torsions:
REMARK  status: ('A' for Active; 'I' for Inactive)
REMARK    1  A    between atoms: C2_2  and  C5_5 
REMARK    2  A    between atoms: C2_2  and  C6_6 
REMARK    3  A    between atoms: C5_5  and  C7_7 
REMARK    4  A    between atoms: C6_6  and  C8_8 
ROOT
HETATM    1  C1  UNL     1     -33.561   3.761   4.781  1.00 20.00     0.207 A 
HETATM    2  C2  UNL     1     -34.007   4.952   3.966  1.00 20.00     0.082 A 
HETATM    3  O9  UNL     1     -34.602   3.658   3.798  1.00 20.00    -0.375 OA
ENDROOT
BRANCH   2   4
HETATM    4  C5  UNL     1     -34.939   5.979   4.587  1.00 20.00     0.040 C 
BRANCH   4   5
HETATM    5  C7  UNL     1     -34.503   6.344   6.005  1.00 20.00    -0.002 C 
HETATM    6  C3  UNL     1     -33.547   7.526   6.007  1.00 20.00     0.005 C 
ENDBRANCH   4   5
ENDBRANCH   2   4
BRANCH   2   7
HETATM    7  C6  UNL     1     -33.186   5.393   2.797  1.00 20.00     0.040 C 
BRANCH   7   8
HETATM    8  C8  UNL     1     -33.398   6.878   2.461  1.00 20.00    -0.002 C 
HETATM    9  C4  UNL     1     -32.150   7.711   2.707  1.00 20.00     0.005 C 
ENDBRANCH   7   8
ENDBRANCH   2   7
TORSDOF 4
ENDMDL
MODEL 9
REMARK VINA RESULT:      -3.7     10.801     12.256
REMARK  4 active torsions:
REMARK  status: ('A' for Active; 'I' for Inactive)
REMARK    1  A    between atoms: C2_2  and  C5_5 
REMARK    2  A    between atoms: C2_2  and  C6_6 
REMARK    3  A    between atoms: C5_5  and  C7_7 
REMARK    4  A    between atoms: C6_6  and  C8_8 
ROOT
HETATM    1  C1  UNL     1     -36.684  13.946  -5.265  1.00 20.00     0.207 A 
HETATM    2  C2  UNL     1     -35.176  13.999  -5.323  1.00 20.00     0.082 A 
HETATM    3  O9  UNL     1     -35.884  12.754  -5.242  1.00 20.00    -0.375 OA
ENDROOT
BRANCH   2   4
HETATM    4  C5  UNL     1     -34.484  14.223  -6.657  1.00 20.00     0.040 C 
BRANCH   4   5
HETATM    5  C7  UNL     1     -33.503  15.392  -6.589  1.00 20.00    -0.002 C 
HETATM    6  C3  UNL     1     -34.157  16.694  -7.026  1.00 20.00     0.005 C 
ENDBRANCH   4   5
ENDBRANCH   2   4
BRANCH   2   7
HETATM    7  C6  UNL     1     -34.403  14.332  -4.088  1.00 20.00     0.040 C 
BRANCH   7   8
HETATM    8  C8  UNL     1     -34.879  15.638  -3.433  1.00 20.00    -0.002 C 
HETATM    9  C4  UNL     1     -33.722  16.520  -2.991  1.00 20.00     0.005 C 
ENDBRANCH   7   8
ENDBRANCH   2   7
TORSDOF 4
ENDMDL
