MODEL 1
REMARK VINA RESULT:      -4.9      0.000      0.000
REMARK  2 active torsions:
REMARK  status: ('A' for Active; 'I' for Inactive)
REMARK    1  A    between atoms: C1_1  and  C3_3 
REMARK    2  A    between atoms: C3_3  and  C4_4 
ROOT
HETATM    1  C2  UNL     1     -34.417   4.764   5.196  1.00 20.00     0.069 C 
HETATM    2  C3  UNL     1     -34.450   5.784   4.047  1.00 20.00     0.264 C 
HETATM    3  O5  UNL     1     -35.691   5.970   3.646  1.00 20.00    -0.210 OA
ENDROOT
BRANCH   2   4
HETATM    4  C1  UNL     1     -33.908   7.163   4.478  1.00 20.00     0.265 C 
HETATM    5  O6  UNL     1     -33.652   8.043   3.658  1.00 20.00    -0.276 OA
HETATM    6 CL10 UNL     1     -33.664   7.362   6.206  1.00 20.00    -0.040 Cl
ENDBRANCH   2   4
BRANCH   2   7
HETATM    7  C4  UNL     1     -33.628   5.236   2.870  1.00 20.00     0.429 C 
HETATM    8  F7  UNL     1     -33.577   3.881   2.876  1.00 20.00    -0.167 F 
HETATM    9  F8  UNL     1     -32.352   5.685   2.874  1.00 20.00    -0.167 F 
HETATM   10  F9  UNL     1     -34.177   5.603   1.687  1.00 20.00    -0.167 F 
ENDBRANCH   2   7
TORSDOF 2
ENDMDL
MODEL 2
REMARK VINA RESULT:      -4.8      2.863      3.544
REMARK  2 active torsions:
REMARK  status: ('A' for Active; 'I' for Inactive)
REMARK    1  A    between atoms: C1_1  and  C3_3 
REMARK    2  A    between atoms: C3_3  and  C4_4 
ROOT
HETATM    1  C2  UNL     1     -33.569   7.137   3.341  1.00 20.00     0.069 C 
HETATM    2  C3  UNL     1     -34.382   6.072   4.092  1.00 20.00     0.264 C 
HETATM    3  O5  UNL     1     -35.653   6.157   3.755  1.00 20.00    -0.210 OA
ENDROOT
BRANCH   2   4
HETATM    4  C1  UNL     1     -33.923   4.640   3.749  1.00 20.00     0.265 C 
HETATM    5  O6  UNL     1     -34.324   3.662   4.379  1.00 20.00    -0.276 OA
HETATM    6 CL10 UNL     1     -32.775   4.521   2.425  1.00 20.00    -0.040 Cl
ENDBRANCH   2   4
BRANCH   2   7
HETATM    7  C4  UNL     1     -34.255   6.322   5.603  1.00 20.00     0.429 C 
HETATM    8  F7  UNL     1     -33.116   5.791   6.110  1.00 20.00    -0.167 F 
HETATM    9  F8  UNL     1     -35.288   5.800   6.305  1.00 20.00    -0.167 F 
HETATM   10  F9  UNL     1     -34.222   7.650   5.870  1.00 20.00    -0.167 F 
ENDBRANCH   2   7
TORSDOF 2
ENDMDL
MODEL 3
REMARK VINA RESULT:      -4.8      1.762      2.410
REMARK  2 active torsions:
REMARK  status: ('A' for Active; 'I' for Inactive)
REMARK    1  A    between atoms: C1_1  and  C3_3 
REMARK    2  A    between atoms: C3_3  and  C4_4 
ROOT
HETATM    1  C2  UNL     1     -33.357   4.796   2.992  1.00 20.00     0.069 C 
HETATM    2  C3  UNL     1     -34.064   5.982   3.667  1.00 20.00     0.264 C 
HETATM    3  O5  UNL     1     -35.281   6.116   3.180  1.00 20.00    -0.210 OA
ENDROOT
BRANCH   2   4
HETATM    4  C1  UNL     1     -34.211   5.781   5.190  1.00 20.00     0.265 C 
HETATM    5  O6  UNL     1     -34.466   4.681   5.677  1.00 20.00    -0.276 OA
HETATM    6 CL10 UNL     1     -34.017   7.235   6.156  1.00 20.00    -0.040 Cl
ENDBRANCH   2   4
BRANCH   2   7
HETATM    7  C4  UNL     1     -33.272   7.266   3.375  1.00 20.00     0.429 C 
HETATM    8  F7  UNL     1     -32.659   7.219   2.168  1.00 20.00    -0.167 F 
HETATM    9  F8  UNL     1     -32.315   7.508   4.301  1.00 20.00    -0.167 F 
HETATM   10  F9  UNL     1     -34.092   8.344   3.357  1.00 20.00    -0.167 F 
ENDBRANCH   2   7
TORSDOF 2
ENDMDL
MODEL 4
REMARK VINA RESULT:      -4.7      2.186      2.705
REMARK  2 active torsions:
REMARK  status: ('A' for Active; 'I' for Inactive)
REMARK    1  A    between atoms: C1_1  and  C3_3 
REMARK    2  A    between atoms: C3_3  and  C4_4 
ROOT
HETATM    1  C2  UNL     1     -33.903   7.063   5.305  1.00 20.00     0.069 C 
HETATM    2  C3  UNL     1     -34.263   6.010   4.245  1.00 20.00     0.264 C 
HETATM    3  O5  UNL     1     -35.392   6.338   3.651  1.00 20.00    -0.210 OA
ENDROOT
BRANCH   2   4
HETATM    4  C1  UNL     1     -33.191   5.904   3.142  1.00 20.00     0.265 C 
HETATM    5  O6  UNL     1     -33.034   4.875   2.487  1.00 20.00    -0.276 OA
HETATM    6 CL10 UNL     1     -32.207   7.341   2.917  1.00 20.00    -0.040 Cl
ENDBRANCH   2   4
BRANCH   2   7
HETATM    7  C4  UNL     1     -34.447   4.650   4.938  1.00 20.00     0.429 C 
HETATM    8  F7  UNL     1     -34.765   4.788   6.248  1.00 20.00    -0.167 F 
HETATM    9  F8  UNL     1     -33.336   3.880   4.874  1.00 20.00    -0.167 F 
HETATM   10  F9  UNL     1     -35.454   3.949   4.362  1.00 20.00    -0.167 F 
ENDBRANCH   2   7
TORSDOF 2
ENDMDL
MODEL 5
REMARK VINA RESULT:      -4.6      2.083      2.430
REMARK  2 active torsions:
REMARK  status: ('A' for Active; 'I' for Inactive)
REMARK    1  A    between atoms: C1_1  and  C3_3 
REMARK    2  A    between atoms: C3_3  and  C4_4 
ROOT
HETATM    1  C2  UNL     1     -33.105   4.933   2.973  1.00 20.00     0.069 C 
HETATM    2  C3  UNL     1     -33.799   6.222   3.441  1.00 20.00     0.264 C 
HETATM    3  O5  UNL     1     -34.946   6.369   2.810  1.00 20.00    -0.210 OA
ENDROOT
BRANCH   2   4
HETATM    4  C1  UNL     1     -34.117   6.197   4.950  1.00 20.00     0.265 C 
HETATM    5  O6  UNL     1     -34.045   7.210   5.644  1.00 20.00    -0.276 OA
HETATM    6 CL10 UNL     1     -34.555   4.623   5.594  1.00 20.00    -0.040 Cl
ENDBRANCH   2   4
BRANCH   2   7
HETATM    7  C4  UNL     1     -32.896   7.421   3.109  1.00 20.00     0.429 C 
HETATM    8  F7  UNL     1     -32.165   7.210   1.988  1.00 20.00    -0.167 F 
HETATM    9  F8  UNL     1     -32.028   7.710   4.106  1.00 20.00    -0.167 F 
HETATM   10  F9  UNL     1     -33.637   8.534   2.889  1.00 20.00    -0.167 F 
ENDBRANCH   2   7
TORSDOF 2
ENDMDL
MODEL 6
REMARK VINA RESULT:      -4.6      2.113      2.390
REMARK  2 active torsions:
REMARK  status: ('A' for Active; 'I' for Inactive)
REMARK    1  A    between atoms: C1_1  and  C3_3 
REMARK    2  A    between atoms: C3_3  and  C4_4 
ROOT
HETATM    1  C2  UNL     1     -33.395   7.153   5.231  1.00 20.00     0.069 C 
HETATM    2  C3  UNL     1     -33.425   7.261   3.698  1.00 20.00     0.264 C 
HETATM    3  O5  UNL     1     -34.440   8.012   3.320  1.00 20.00    -0.210 OA
ENDROOT
BRANCH   2   4
HETATM    4  C1  UNL     1     -32.148   7.919   3.136  1.00 20.00     0.265 C 
HETATM    5  O6  UNL     1     -31.147   8.089   3.831  1.00 20.00    -0.276 OA
HETATM    6 CL10 UNL     1     -32.245   8.423   1.457  1.00 20.00    -0.040 Cl
ENDBRANCH   2   4
BRANCH   2   7
HETATM    7  C4  UNL     1     -33.604   5.855   3.103  1.00 20.00     0.429 C 
HETATM    8  F7  UNL     1     -34.125   4.987   4.004  1.00 20.00    -0.167 F 
HETATM    9  F8  UNL     1     -32.439   5.326   2.663  1.00 20.00    -0.167 F 
HETATM   10  F9  UNL     1     -34.454   5.884   2.049  1.00 20.00    -0.167 F 
ENDBRANCH   2   7
TORSDOF 2
ENDMDL
MODEL 7
REMARK VINA RESULT:      -4.5      2.219      2.649
REMARK  2 active torsions:
REMARK  status: ('A' for Active; 'I' for Inactive)
REMARK    1  A    between atoms: C1_1  and  C3_3 
REMARK    2  A    between atoms: C3_3  and  C4_4 
ROOT
HETATM    1  C2  UNL     1     -34.564   6.273   2.196  1.00 20.00     0.069 C 
HETATM    2  C3  UNL     1     -33.680   5.916   3.401  1.00 20.00     0.264 C 
HETATM    3  O5  UNL     1     -32.624   5.239   3.000  1.00 20.00    -0.210 OA
ENDROOT
BRANCH   2   4
HETATM    4  C1  UNL     1     -33.157   7.171   4.130  1.00 20.00     0.265 C 
HETATM    5  O6  UNL     1     -33.670   7.577   5.171  1.00 20.00    -0.276 OA
HETATM    6 CL10 UNL     1     -31.806   7.978   3.351  1.00 20.00    -0.040 Cl
ENDBRANCH   2   4
BRANCH   2   7
HETATM    7  C4  UNL     1     -34.490   5.039   4.370  1.00 20.00     0.429 C 
HETATM    8  F7  UNL     1     -35.808   5.353   4.356  1.00 20.00    -0.167 F 
HETATM    9  F8  UNL     1     -34.064   5.150   5.650  1.00 20.00    -0.167 F 
HETATM   10  F9  UNL     1     -34.394   3.731   4.029  1.00 20.00    -0.167 F 
ENDBRANCH   2   7
TORSDOF 2
ENDMDL
MODEL 8
REMARK VINA RESULT:      -4.5     12.397     12.755
REMARK  2 active torsions:
REMARK  status: ('A' for Active; 'I' for Inactive)
REMARK    1  A    between atoms: C1_1  and  C3_3 
REMARK    2  A    between atoms: C3_3  and  C4_4 
ROOT
HETATM    1  C2  UNL     1     -34.631  15.604  -3.479  1.00 20.00     0.069 C 
HETATM    2  C3  UNL     1     -34.487  14.541  -4.579  1.00 20.00     0.264 C 
HETATM    3  O5  UNL     1     -33.634  13.612  -4.198  1.00 20.00    -0.210 OA
ENDROOT
BRANCH   2   4
HETATM    4  C1  UNL     1     -35.821  13.828  -4.879  1.00 20.00     0.265 C 
HETATM    5  O6  UNL     1     -35.860  12.660  -5.263  1.00 20.00    -0.276 OA
HETATM    6 CL10 UNL     1     -37.259  14.812  -4.658  1.00 20.00    -0.040 Cl
ENDBRANCH   2   4
BRANCH   2   7
HETATM    7  C4  UNL     1     -33.947  15.213  -5.852  1.00 20.00     0.429 C 
HETATM    8  F7  UNL     1     -33.877  14.346  -6.891  1.00 20.00    -0.167 F 
HETATM    9  F8  UNL     1     -32.709  15.733  -5.680  1.00 20.00    -0.167 F 
HETATM   10  F9  UNL     1     -34.756  16.227  -6.241  1.00 20.00    -0.167 F 
ENDBRANCH   2   7
TORSDOF 2
ENDMDL
MODEL 9
REMARK VINA RESULT:      -4.5     12.226     12.906
REMARK  2 active torsions:
REMARK  status: ('A' for Active; 'I' for Inactive)
REMARK    1  A    between atoms: C1_1  and  C3_3 
REMARK    2  A    between atoms: C3_3  and  C4_4 
ROOT
HETATM    1  C2  UNL     1     -34.536  14.215  -4.141  1.00 20.00     0.069 C 
HETATM    2  C3  UNL     1     -35.595  13.860  -5.196  1.00 20.00     0.264 C 
HETATM    3  O5  UNL     1     -35.837  12.565  -5.173  1.00 20.00    -0.210 OA
ENDROOT
BRANCH   2   4
HETATM    4  C1  UNL     1     -36.938  14.571  -4.935  1.00 20.00     0.265 C 
HETATM    5  O6  UNL     1     -38.003  13.956  -4.905  1.00 20.00    -0.276 OA
HETATM    6 CL10 UNL     1     -36.832  16.310  -4.714  1.00 20.00    -0.040 Cl
ENDBRANCH   2   4
BRANCH   2   7
HETATM    7  C4  UNL     1     -35.058  14.235  -6.586  1.00 20.00     0.429 C 
HETATM    8  F7  UNL     1     -34.281  15.345  -6.546  1.00 20.00    -0.167 F 
HETATM    9  F8  UNL     1     -36.047  14.471  -7.479  1.00 20.00    -0.167 F 
HETATM   10  F9  UNL     1     -34.292  13.238  -7.092  1.00 20.00    -0.167 F 
ENDBRANCH   2   7
TORSDOF 2
ENDMDL
