MODEL 1
REMARK VINA RESULT:      -5.0      0.000      0.000
REMARK  0 active torsions:
REMARK  status: ('A' for Active; 'I' for Inactive)
ROOT
HETATM    1  C1  UNL     1     -34.054   6.752   5.380  1.00 20.00    -0.057 C 
HETATM    2  C2  UNL     1     -33.599   7.590   6.318  1.00 20.00     0.017 C 
HETATM    3  C3  UNL     1     -34.418   5.327   5.614  1.00 20.00     0.205 C 
HETATM    4  C4  UNL     1     -33.118   7.502   3.123  1.00 20.00     0.040 C 
HETATM    5  C5  UNL     1     -32.461   6.175   2.808  1.00 20.00     0.172 C 
HETATM    6  C6  UNL     1     -34.319   7.099   3.948  1.00 20.00     0.073 C 
HETATM    7  C7  UNL     1     -34.685   5.744   3.359  1.00 20.00     0.268 C 
HETATM    8  O8  UNL     1     -35.139   4.923   4.441  1.00 20.00    -0.356 OA
HETATM    9  O9  UNL     1     -33.518   5.214   2.707  1.00 20.00    -0.361 OA
ENDROOT
TORSDOF 0
ENDMDL
MODEL 2
REMARK VINA RESULT:      -4.9      1.550      3.357
REMARK  0 active torsions:
REMARK  status: ('A' for Active; 'I' for Inactive)
ROOT
HETATM    1  C1  UNL     1     -33.327   5.596   2.924  1.00 20.00    -0.057 C 
HETATM    2  C2  UNL     1     -32.980   4.426   2.376  1.00 20.00     0.017 C 
HETATM    3  C3  UNL     1     -32.474   6.817   2.938  1.00 20.00     0.205 C 
HETATM    4  C4  UNL     1     -34.960   5.127   4.833  1.00 20.00     0.040 C 
HETATM    5  C5  UNL     1     -34.130   5.827   5.888  1.00 20.00     0.172 C 
HETATM    6  C6  UNL     1     -34.639   5.904   3.577  1.00 20.00     0.073 C 
HETATM    7  C7  UNL     1     -34.401   7.310   4.110  1.00 20.00     0.268 C 
HETATM    8  O8  UNL     1     -33.349   7.885   3.327  1.00 20.00    -0.356 OA
HETATM    9  O9  UNL     1     -34.067   7.205   5.505  1.00 20.00    -0.361 OA
ENDROOT
TORSDOF 0
ENDMDL
MODEL 3
REMARK VINA RESULT:      -4.8      1.342      2.202
REMARK  0 active torsions:
REMARK  status: ('A' for Active; 'I' for Inactive)
ROOT
HETATM    1  C1  UNL     1     -33.138   7.248   4.146  1.00 20.00    -0.057 C 
HETATM    2  C2  UNL     1     -32.188   7.909   3.476  1.00 20.00     0.017 C 
HETATM    3  C3  UNL     1     -33.268   7.212   5.629  1.00 20.00     0.205 C 
HETATM    4  C4  UNL     1     -33.869   5.252   2.727  1.00 20.00     0.040 C 
HETATM    5  C5  UNL     1     -33.566   4.218   3.792  1.00 20.00     0.172 C 
HETATM    6  C6  UNL     1     -34.261   6.467   3.535  1.00 20.00     0.073 C 
HETATM    7  C7  UNL     1     -34.919   5.851   4.762  1.00 20.00     0.268 C 
HETATM    8  O8  UNL     1     -34.572   6.673   5.883  1.00 20.00    -0.356 OA
HETATM    9  O9  UNL     1     -34.442   4.501   4.890  1.00 20.00    -0.361 OA
ENDROOT
TORSDOF 0
ENDMDL
MODEL 4
REMARK VINA RESULT:      -4.5      1.591      3.030
REMARK  0 active torsions:
REMARK  status: ('A' for Active; 'I' for Inactive)
ROOT
HETATM    1  C1  UNL     1     -33.909   4.867   3.856  1.00 20.00    -0.057 C 
HETATM    2  C2  UNL     1     -34.019   3.589   4.236  1.00 20.00     0.017 C 
HETATM    3  C3  UNL     1     -32.963   5.371   2.822  1.00 20.00     0.205 C 
HETATM    4  C4  UNL     1     -34.592   6.344   5.826  1.00 20.00     0.040 C 
HETATM    5  C5  UNL     1     -33.288   7.113   5.869  1.00 20.00     0.172 C 
HETATM    6  C6  UNL     1     -34.739   6.007   4.360  1.00 20.00     0.073 C 
HETATM    7  C7  UNL     1     -34.083   7.199   3.679  1.00 20.00     0.268 C 
HETATM    8  O8  UNL     1     -33.406   6.701   2.519  1.00 20.00    -0.356 OA
HETATM    9  O9  UNL     1     -33.192   7.815   4.625  1.00 20.00    -0.361 OA
ENDROOT
TORSDOF 0
ENDMDL
MODEL 5
REMARK VINA RESULT:      -4.2     12.012     12.944
REMARK  0 active torsions:
REMARK  status: ('A' for Active; 'I' for Inactive)
ROOT
HETATM    1  C1  UNL     1     -34.202  14.676  -5.935  1.00 20.00    -0.057 C 
HETATM    2  C2  UNL     1     -33.330  15.677  -6.101  1.00 20.00     0.017 C 
HETATM    3  C3  UNL     1     -34.579  13.691  -6.986  1.00 20.00     0.205 C 
HETATM    4  C4  UNL     1     -35.884  15.376  -4.143  1.00 20.00     0.040 C 
HETATM    5  C5  UNL     1     -37.101  15.180  -5.024  1.00 20.00     0.172 C 
HETATM    6  C6  UNL     1     -34.917  14.337  -4.664  1.00 20.00     0.073 C 
HETATM    7  C7  UNL     1     -35.845  13.218  -5.115  1.00 20.00     0.268 C 
HETATM    8  O8  UNL     1     -35.269  12.642  -6.293  1.00 20.00    -0.356 OA
HETATM    9  O9  UNL     1     -37.145  13.786  -5.349  1.00 20.00    -0.361 OA
ENDROOT
TORSDOF 0
ENDMDL
MODEL 6
REMARK VINA RESULT:      -4.1     11.807     12.920
REMARK  0 active torsions:
REMARK  status: ('A' for Active; 'I' for Inactive)
ROOT
HETATM    1  C1  UNL     1     -34.115  15.371  -5.459  1.00 20.00    -0.057 C 
HETATM    2  C2  UNL     1     -33.514  16.470  -5.927  1.00 20.00     0.017 C 
HETATM    3  C3  UNL     1     -33.502  14.404  -4.506  1.00 20.00     0.205 C 
HETATM    4  C4  UNL     1     -35.804  14.582  -7.207  1.00 20.00     0.040 C 
HETATM    5  C5  UNL     1     -35.214  13.193  -7.340  1.00 20.00     0.172 C 
HETATM    6  C6  UNL     1     -35.515  14.937  -5.767  1.00 20.00     0.073 C 
HETATM    7  C7  UNL     1     -35.585  13.585  -5.071  1.00 20.00     0.268 C 
HETATM    8  O8  UNL     1     -34.587  13.587  -4.045  1.00 20.00    -0.356 OA
HETATM    9  O9  UNL     1     -35.366  12.566  -6.062  1.00 20.00    -0.361 OA
ENDROOT
TORSDOF 0
ENDMDL
MODEL 7
REMARK VINA RESULT:      -4.0     11.790     13.149
REMARK  0 active torsions:
REMARK  status: ('A' for Active; 'I' for Inactive)
ROOT
HETATM    1  C1  UNL     1     -34.400  14.088  -6.776  1.00 20.00    -0.057 C 
HETATM    2  C2  UNL     1     -33.786  14.415  -7.918  1.00 20.00     0.017 C 
HETATM    3  C3  UNL     1     -35.605  13.219  -6.673  1.00 20.00     0.205 C 
HETATM    4  C4  UNL     1     -34.011  15.975  -5.097  1.00 20.00     0.040 C 
HETATM    5  C5  UNL     1     -35.482  16.229  -4.843  1.00 20.00     0.172 C 
HETATM    6  C6  UNL     1     -33.968  14.495  -5.401  1.00 20.00     0.073 C 
HETATM    7  C7  UNL     1     -35.101  13.949  -4.542  1.00 20.00     0.268 C 
HETATM    8  O8  UNL     1     -35.716  12.889  -5.282  1.00 20.00    -0.356 OA
HETATM    9  O9  UNL     1     -36.004  15.031  -4.259  1.00 20.00    -0.361 OA
ENDROOT
TORSDOF 0
ENDMDL
MODEL 8
REMARK VINA RESULT:      -3.8     11.440     12.746
REMARK  0 active torsions:
REMARK  status: ('A' for Active; 'I' for Inactive)
ROOT
HETATM    1  C1  UNL     1     -34.411  16.013  -5.015  1.00 20.00    -0.057 C 
HETATM    2  C2  UNL     1     -34.609  17.280  -5.393  1.00 20.00     0.017 C 
HETATM    3  C3  UNL     1     -33.274  15.159  -5.457  1.00 20.00     0.205 C 
HETATM    4  C4  UNL     1     -36.687  14.978  -4.484  1.00 20.00     0.040 C 
HETATM    5  C5  UNL     1     -36.540  13.833  -5.465  1.00 20.00     0.172 C 
HETATM    6  C6  UNL     1     -35.262  15.241  -4.054  1.00 20.00     0.073 C 
HETATM    7  C7  UNL     1     -34.634  13.856  -4.122  1.00 20.00     0.268 C 
HETATM    8  O8  UNL     1     -33.288  14.026  -4.578  1.00 20.00    -0.356 OA
HETATM    9  O9  UNL     1     -35.428  13.053  -5.012  1.00 20.00    -0.361 OA
ENDROOT
TORSDOF 0
ENDMDL
MODEL 9
REMARK VINA RESULT:      -3.7     11.991     12.740
REMARK  0 active torsions:
REMARK  status: ('A' for Active; 'I' for Inactive)
ROOT
HETATM    1  C1  UNL     1     -35.649  14.429  -4.572  1.00 20.00    -0.057 C 
HETATM    2  C2  UNL     1     -35.961  13.413  -5.384  1.00 20.00     0.017 C 
HETATM    3  C3  UNL     1     -36.582  15.518  -4.171  1.00 20.00     0.205 C 
HETATM    4  C4  UNL     1     -33.142  14.877  -4.789  1.00 20.00     0.040 C 
HETATM    5  C5  UNL     1     -33.304  16.331  -5.180  1.00 20.00     0.172 C 
HETATM    6  C6  UNL     1     -34.331  14.633  -3.889  1.00 20.00     0.073 C 
HETATM    7  C7  UNL     1     -34.529  15.988  -3.226  1.00 20.00     0.268 C 
HETATM    8  O8  UNL     1     -35.939  16.182  -3.073  1.00 20.00    -0.356 OA
HETATM    9  O9  UNL     1     -33.915  16.985  -4.062  1.00 20.00    -0.361 OA
ENDROOT
TORSDOF 0
ENDMDL
