MODEL 1
REMARK VINA RESULT:      -6.5      0.000      0.000
REMARK  1 active torsions:
REMARK  status: ('A' for Active; 'I' for Inactive)
REMARK    1  A    between atoms: C5_5  and  C6_6 
ROOT
HETATM    1  C1  UNL     1     -34.054   6.685   5.293  1.00 20.00     0.139 C 
HETATM    2  C2  UNL     1     -34.418   5.310   5.794  1.00 20.00     0.079 C 
HETATM    3  C3  UNL     1     -34.828   4.602   4.509  1.00 20.00     0.008 C 
HETATM    4  C4  UNL     1     -33.970   5.248   3.430  1.00 20.00     0.021 C 
HETATM    5  C5  UNL     1     -33.988   6.738   3.779  1.00 20.00     0.163 C 
HETATM    6  O7  UNL     1     -33.839   7.640   6.029  1.00 20.00    -0.297 OA
ENDROOT
BRANCH   5   7
HETATM    7  C6  UNL     1     -32.773   7.482   3.265  1.00 20.00     0.398 C 
HETATM    8  F8  UNL     1     -33.147   8.534   2.514  1.00 20.00    -0.170 F 
HETATM    9  F9  UNL     1     -32.029   7.934   4.291  1.00 20.00    -0.170 F 
HETATM   10  F10 UNL     1     -32.010   6.672   2.509  1.00 20.00    -0.170 F 
ENDBRANCH   5   7
TORSDOF 1
ENDMDL
MODEL 2
REMARK VINA RESULT:      -6.0      2.464      3.336
REMARK  1 active torsions:
REMARK  status: ('A' for Active; 'I' for Inactive)
REMARK    1  A    between atoms: C5_5  and  C6_6 
ROOT
HETATM    1  C1  UNL     1     -33.384   7.204   4.771  1.00 20.00     0.139 C 
HETATM    2  C2  UNL     1     -32.871   8.166   3.728  1.00 20.00     0.079 C 
HETATM    3  C3  UNL     1     -32.433   7.222   2.615  1.00 20.00     0.008 C 
HETATM    4  C4  UNL     1     -33.384   6.038   2.726  1.00 20.00     0.021 C 
HETATM    5  C5  UNL     1     -33.501   5.792   4.232  1.00 20.00     0.163 C 
HETATM    6  O7  UNL     1     -33.669   7.534   5.915  1.00 20.00    -0.297 OA
ENDROOT
BRANCH   5   7
HETATM    7  C6  UNL     1     -34.799   5.115   4.622  1.00 20.00     0.398 C 
HETATM    8  F8  UNL     1     -34.994   5.201   5.951  1.00 20.00    -0.170 F 
HETATM    9  F9  UNL     1     -35.840   5.698   4.001  1.00 20.00    -0.170 F 
HETATM   10  F10 UNL     1     -34.773   3.814   4.281  1.00 20.00    -0.170 F 
ENDBRANCH   5   7
TORSDOF 1
ENDMDL
MODEL 3
REMARK VINA RESULT:      -5.9      1.899      2.589
REMARK  1 active torsions:
REMARK  status: ('A' for Active; 'I' for Inactive)
REMARK    1  A    between atoms: C5_5  and  C6_6 
ROOT
HETATM    1  C1  UNL     1     -34.265   5.070   4.770  1.00 20.00     0.139 C 
HETATM    2  C2  UNL     1     -34.871   5.793   5.947  1.00 20.00     0.079 C 
HETATM    3  C3  UNL     1     -33.983   7.026   6.052  1.00 20.00     0.008 C 
HETATM    4  C4  UNL     1     -33.557   7.310   4.618  1.00 20.00     0.021 C 
HETATM    5  C5  UNL     1     -33.250   5.927   4.039  1.00 20.00     0.163 C 
HETATM    6  O7  UNL     1     -34.564   3.927   4.450  1.00 20.00    -0.297 OA
ENDROOT
BRANCH   5   7
HETATM    7  C6  UNL     1     -33.402   5.869   2.533  1.00 20.00     0.398 C 
HETATM    8  F8  UNL     1     -32.742   6.888   1.953  1.00 20.00    -0.170 F 
HETATM    9  F9  UNL     1     -32.907   4.714   2.053  1.00 20.00    -0.170 F 
HETATM   10  F10 UNL     1     -34.700   5.953   2.187  1.00 20.00    -0.170 F 
ENDBRANCH   5   7
TORSDOF 1
ENDMDL
MODEL 4
REMARK VINA RESULT:      -5.9      1.894      2.459
REMARK  1 active torsions:
REMARK  status: ('A' for Active; 'I' for Inactive)
REMARK    1  A    between atoms: C5_5  and  C6_6 
ROOT
HETATM    1  C1  UNL     1     -34.249   5.039   4.756  1.00 20.00     0.139 C 
HETATM    2  C2  UNL     1     -34.876   5.736   5.938  1.00 20.00     0.079 C 
HETATM    3  C3  UNL     1     -34.004   6.978   6.071  1.00 20.00     0.008 C 
HETATM    4  C4  UNL     1     -33.567   7.289   4.646  1.00 20.00     0.021 C 
HETATM    5  C5  UNL     1     -33.238   5.919   4.049  1.00 20.00     0.163 C 
HETATM    6  O7  UNL     1     -34.530   3.897   4.416  1.00 20.00    -0.297 OA
ENDROOT
BRANCH   5   7
HETATM    7  C6  UNL     1     -33.373   5.882   2.541  1.00 20.00     0.398 C 
HETATM    8  F8  UNL     1     -34.668   5.951   2.182  1.00 20.00    -0.170 F 
HETATM    9  F9  UNL     1     -32.721   6.918   1.983  1.00 20.00    -0.170 F 
HETATM   10  F10 UNL     1     -32.857   4.740   2.049  1.00 20.00    -0.170 F 
ENDBRANCH   5   7
TORSDOF 1
ENDMDL
MODEL 5
REMARK VINA RESULT:      -5.8      2.566      3.434
REMARK  1 active torsions:
REMARK  status: ('A' for Active; 'I' for Inactive)
REMARK    1  A    between atoms: C5_5  and  C6_6 
ROOT
HETATM    1  C1  UNL     1     -33.998   4.883   3.808  1.00 20.00     0.139 C 
HETATM    2  C2  UNL     1     -33.078   5.024   2.621  1.00 20.00     0.079 C 
HETATM    3  C3  UNL     1     -33.123   6.524   2.362  1.00 20.00     0.008 C 
HETATM    4  C4  UNL     1     -33.333   7.141   3.739  1.00 20.00     0.021 C 
HETATM    5  C5  UNL     1     -34.367   6.228   4.403  1.00 20.00     0.163 C 
HETATM    6  O7  UNL     1     -34.393   3.806   4.235  1.00 20.00    -0.297 OA
ENDROOT
BRANCH   5   7
HETATM    7  C6  UNL     1     -34.290   6.248   5.915  1.00 20.00     0.398 C 
HETATM    8  F8  UNL     1     -34.115   7.505   6.362  1.00 20.00    -0.170 F 
HETATM    9  F9  UNL     1     -35.423   5.759   6.452  1.00 20.00    -0.170 F 
HETATM   10  F10 UNL     1     -33.258   5.498   6.344  1.00 20.00    -0.170 F 
ENDBRANCH   5   7
TORSDOF 1
ENDMDL
MODEL 6
REMARK VINA RESULT:      -5.8      1.450      2.270
REMARK  1 active torsions:
REMARK  status: ('A' for Active; 'I' for Inactive)
REMARK    1  A    between atoms: C5_5  and  C6_6 
ROOT
HETATM    1  C1  UNL     1     -34.106   6.803   4.559  1.00 20.00     0.139 C 
HETATM    2  C2  UNL     1     -34.137   6.413   6.016  1.00 20.00     0.079 C 
HETATM    3  C3  UNL     1     -34.737   5.014   5.956  1.00 20.00     0.008 C 
HETATM    4  C4  UNL     1     -34.263   4.455   4.621  1.00 20.00     0.021 C 
HETATM    5  C5  UNL     1     -34.412   5.629   3.651  1.00 20.00     0.163 C 
HETATM    6  O7  UNL     1     -33.860   7.937   4.166  1.00 20.00    -0.297 OA
ENDROOT
BRANCH   5   7
HETATM    7  C6  UNL     1     -33.474   5.538   2.464  1.00 20.00     0.398 C 
HETATM    8  F8  UNL     1     -33.085   4.266   2.266  1.00 20.00    -0.170 F 
HETATM    9  F9  UNL     1     -34.084   5.976   1.347  1.00 20.00    -0.170 F 
HETATM   10  F10 UNL     1     -32.377   6.290   2.673  1.00 20.00    -0.170 F 
ENDBRANCH   5   7
TORSDOF 1
ENDMDL
MODEL 7
REMARK VINA RESULT:      -5.8      1.653      2.356
REMARK  1 active torsions:
REMARK  status: ('A' for Active; 'I' for Inactive)
REMARK    1  A    between atoms: C5_5  and  C6_6 
ROOT
HETATM    1  C1  UNL     1     -33.998   6.081   3.205  1.00 20.00     0.139 C 
HETATM    2  C2  UNL     1     -35.068   5.793   4.228  1.00 20.00     0.079 C 
HETATM    3  C3  UNL     1     -34.377   6.184   5.528  1.00 20.00     0.008 C 
HETATM    4  C4  UNL     1     -33.432   7.311   5.132  1.00 20.00     0.021 C 
HETATM    5  C5  UNL     1     -32.832   6.844   3.803  1.00 20.00     0.163 C 
HETATM    6  O7  UNL     1     -34.070   5.735   2.033  1.00 20.00    -0.297 OA
ENDROOT
BRANCH   5   7
HETATM    7  C6  UNL     1     -32.365   7.990   2.929  1.00 20.00     0.398 C 
HETATM    8  F8  UNL     1     -31.745   7.523   1.830  1.00 20.00    -0.170 F 
HETATM    9  F9  UNL     1     -33.410   8.743   2.541  1.00 20.00    -0.170 F 
HETATM   10  F10 UNL     1     -31.502   8.774   3.602  1.00 20.00    -0.170 F 
ENDBRANCH   5   7
TORSDOF 1
ENDMDL
MODEL 8
REMARK VINA RESULT:      -5.8      1.448      1.933
REMARK  1 active torsions:
REMARK  status: ('A' for Active; 'I' for Inactive)
REMARK    1  A    between atoms: C5_5  and  C6_6 
ROOT
HETATM    1  C1  UNL     1     -34.106   6.810   4.563  1.00 20.00     0.139 C 
HETATM    2  C2  UNL     1     -34.138   6.420   6.020  1.00 20.00     0.079 C 
HETATM    3  C3  UNL     1     -34.739   5.022   5.961  1.00 20.00     0.008 C 
HETATM    4  C4  UNL     1     -34.266   4.462   4.626  1.00 20.00     0.021 C 
HETATM    5  C5  UNL     1     -34.414   5.635   3.655  1.00 20.00     0.163 C 
HETATM    6  O7  UNL     1     -33.860   7.943   4.170  1.00 20.00    -0.297 OA
ENDROOT
BRANCH   5   7
HETATM    7  C6  UNL     1     -33.477   5.544   2.468  1.00 20.00     0.398 C 
HETATM    8  F8  UNL     1     -34.087   5.980   1.351  1.00 20.00    -0.170 F 
HETATM    9  F9  UNL     1     -32.380   6.295   2.674  1.00 20.00    -0.170 F 
HETATM   10  F10 UNL     1     -33.090   4.270   2.271  1.00 20.00    -0.170 F 
ENDBRANCH   5   7
TORSDOF 1
ENDMDL
MODEL 9
REMARK VINA RESULT:      -5.7      2.724      3.706
REMARK  1 active torsions:
REMARK  status: ('A' for Active; 'I' for Inactive)
REMARK    1  A    between atoms: C5_5  and  C6_6 
ROOT
HETATM    1  C1  UNL     1     -33.354   6.847   3.163  1.00 20.00     0.139 C 
HETATM    2  C2  UNL     1     -32.091   7.639   3.397  1.00 20.00     0.079 C 
HETATM    3  C3  UNL     1     -32.384   8.313   4.731  1.00 20.00     0.008 C 
HETATM    4  C4  UNL     1     -33.280   7.326   5.467  1.00 20.00     0.021 C 
HETATM    5  C5  UNL     1     -34.244   6.822   4.390  1.00 20.00     0.163 C 
HETATM    6  O7  UNL     1     -33.619   6.292   2.104  1.00 20.00    -0.297 OA
ENDROOT
BRANCH   5   7
HETATM    7  C6  UNL     1     -34.800   5.446   4.690  1.00 20.00     0.398 C 
HETATM    8  F8  UNL     1     -33.926   4.493   4.321  1.00 20.00    -0.170 F 
HETATM    9  F9  UNL     1     -35.045   5.313   6.006  1.00 20.00    -0.170 F 
HETATM   10  F10 UNL     1     -35.951   5.247   4.021  1.00 20.00    -0.170 F 
ENDBRANCH   5   7
TORSDOF 1
ENDMDL
