MODEL 1
REMARK VINA RESULT:      -5.7      0.000      0.000
REMARK  1 active torsions:
REMARK  status: ('A' for Active; 'I' for Inactive)
REMARK    1  A    between atoms: C2_2  and  C4_4 
REMARK       I    between atoms: C2_2  and  N7_7 
ROOT
HETATM    1  C1  UNL     1     -32.146   8.269   2.591  1.00 20.00     0.166 C 
HETATM    2  C2  UNL     1     -33.149   7.344   4.303  1.00 20.00     0.249 C 
HETATM    3  N7  UNL     1     -32.017   7.645   3.577  1.00 20.00    -0.199 NA
HETATM    4  O8  UNL     1     -33.399   7.657   5.463  1.00 20.00    -0.271 OA
HETATM    5  S9  UNL     1     -32.283   9.116   1.248  1.00 20.00    -0.055 SA
ENDROOT
BRANCH   2   6
HETATM    6  C4  UNL     1     -34.137   6.559   3.555  1.00 20.00     0.084 A 
HETATM    7  C3  UNL     1     -33.786   5.164   3.103  1.00 20.00     0.019 A 
HETATM    8  C5  UNL     1     -34.814   5.363   4.182  1.00 20.00    -0.005 A 
HETATM    9  C6  UNL     1     -34.523   4.928   5.577  1.00 20.00     0.011 C 
ENDBRANCH   2   6
TORSDOF 1
ENDMDL
MODEL 2
REMARK VINA RESULT:      -4.4     11.254     12.240
REMARK  1 active torsions:
REMARK  status: ('A' for Active; 'I' for Inactive)
REMARK    1  A    between atoms: C2_2  and  C4_4 
REMARK       I    between atoms: C2_2  and  N7_7 
ROOT
HETATM    1  C1  UNL     1     -35.934  13.709  -5.900  1.00 20.00     0.166 C 
HETATM    2  C2  UNL     1     -34.443  13.949  -4.315  1.00 20.00     0.249 C 
HETATM    3  N7  UNL     1     -35.431  13.231  -4.953  1.00 20.00    -0.199 NA
HETATM    4  O8  UNL     1     -33.275  13.617  -4.136  1.00 20.00    -0.271 OA
HETATM    5  S9  UNL     1     -36.639  14.327  -7.188  1.00 20.00    -0.055 SA
ENDROOT
BRANCH   2   6
HETATM    6  C4  UNL     1     -34.892  15.252  -3.814  1.00 20.00     0.084 A 
HETATM    7  C3  UNL     1     -33.904  16.161  -3.125  1.00 20.00     0.019 A 
HETATM    8  C5  UNL     1     -34.446  16.534  -4.476  1.00 20.00    -0.005 A 
HETATM    9  C6  UNL     1     -33.546  16.542  -5.664  1.00 20.00     0.011 C 
ENDBRANCH   2   6
TORSDOF 1
ENDMDL
MODEL 3
REMARK VINA RESULT:      -4.4     11.834     12.659
REMARK  1 active torsions:
REMARK  status: ('A' for Active; 'I' for Inactive)
REMARK    1  A    between atoms: C2_2  and  C4_4 
REMARK       I    between atoms: C2_2  and  N7_7 
ROOT
HETATM    1  C1  UNL     1     -37.999  14.903  -5.629  1.00 20.00     0.166 C 
HETATM    2  C2  UNL     1     -36.333  13.634  -4.991  1.00 20.00     0.249 C 
HETATM    3  N7  UNL     1     -37.671  13.962  -5.008  1.00 20.00    -0.199 NA
HETATM    4  O8  UNL     1     -35.814  12.589  -5.372  1.00 20.00    -0.271 OA
HETATM    5  S9  UNL     1     -38.480  16.173  -6.463  1.00 20.00    -0.055 SA
ENDROOT
BRANCH   2   6
HETATM    6  C4  UNL     1     -35.474  14.691  -4.447  1.00 20.00     0.084 A 
HETATM    7  C3  UNL     1     -33.997  14.433  -4.281  1.00 20.00     0.019 A 
HETATM    8  C5  UNL     1     -34.473  15.406  -5.323  1.00 20.00    -0.005 A 
HETATM    9  C6  UNL     1     -34.313  15.086  -6.769  1.00 20.00     0.011 C 
ENDBRANCH   2   6
TORSDOF 1
ENDMDL
MODEL 4
REMARK VINA RESULT:      -4.1     11.382     12.504
REMARK  1 active torsions:
REMARK  status: ('A' for Active; 'I' for Inactive)
REMARK    1  A    between atoms: C2_2  and  C4_4 
REMARK       I    between atoms: C2_2  and  N7_7 
ROOT
HETATM    1  C1  UNL     1     -34.208  15.016  -3.921  1.00 20.00     0.166 C 
HETATM    2  C2  UNL     1     -35.065  13.491  -5.238  1.00 20.00     0.249 C 
HETATM    3  N7  UNL     1     -34.318  13.868  -4.143  1.00 20.00    -0.199 NA
HETATM    4  O8  UNL     1     -36.074  12.793  -5.251  1.00 20.00    -0.271 OA
HETATM    5  S9  UNL     1     -34.036  16.564  -3.590  1.00 20.00    -0.055 SA
ENDROOT
BRANCH   2   6
HETATM    6  C4  UNL     1     -34.551  14.013  -6.509  1.00 20.00     0.084 A 
HETATM    7  C3  UNL     1     -35.288  13.705  -7.788  1.00 20.00     0.019 A 
HETATM    8  C5  UNL     1     -35.281  15.108  -7.250  1.00 20.00    -0.005 A 
HETATM    9  C6  UNL     1     -36.540  15.714  -6.732  1.00 20.00     0.011 C 
ENDBRANCH   2   6
TORSDOF 1
ENDMDL
MODEL 5
REMARK VINA RESULT:      -4.1      2.940      4.732
REMARK  1 active torsions:
REMARK  status: ('A' for Active; 'I' for Inactive)
REMARK    1  A    between atoms: C2_2  and  C4_4 
REMARK       I    between atoms: C2_2  and  N7_7 
ROOT
HETATM    1  C1  UNL     1     -32.922   7.017   3.154  1.00 20.00     0.166 C 
HETATM    2  C2  UNL     1     -31.805   8.429   1.909  1.00 20.00     0.249 C 
HETATM    3  N7  UNL     1     -31.905   7.582   2.992  1.00 20.00    -0.199 NA
HETATM    4  O8  UNL     1     -31.013   8.357   0.974  1.00 20.00    -0.271 OA
HETATM    5  S9  UNL     1     -34.286   6.233   3.407  1.00 20.00    -0.055 SA
ENDROOT
BRANCH   2   6
HETATM    6  C4  UNL     1     -32.780   9.525   1.925  1.00 20.00     0.084 A 
HETATM    7  C3  UNL     1     -32.414  10.850   1.305  1.00 20.00     0.019 A 
HETATM    8  C5  UNL     1     -33.455   9.982   0.654  1.00 20.00    -0.005 A 
HETATM    9  C6  UNL     1     -33.175   9.347  -0.665  1.00 20.00     0.011 C 
ENDBRANCH   2   6
TORSDOF 1
ENDMDL
MODEL 6
REMARK VINA RESULT:      -4.1     11.690     12.492
REMARK  1 active torsions:
REMARK  status: ('A' for Active; 'I' for Inactive)
REMARK    1  A    between atoms: C2_2  and  C4_4 
REMARK       I    between atoms: C2_2  and  N7_7 
ROOT
HETATM    1  C1  UNL     1     -36.813  15.812  -5.026  1.00 20.00     0.166 C 
HETATM    2  C2  UNL     1     -35.506  14.087  -4.693  1.00 20.00     0.249 C 
HETATM    3  N7  UNL     1     -36.709  14.745  -4.547  1.00 20.00    -0.199 NA
HETATM    4  O8  UNL     1     -35.307  13.004  -5.235  1.00 20.00    -0.271 OA
HETATM    5  S9  UNL     1     -36.991  17.261  -5.664  1.00 20.00    -0.055 SA
ENDROOT
BRANCH   2   6
HETATM    6  C4  UNL     1     -34.366  14.808  -4.117  1.00 20.00     0.084 A 
HETATM    7  C3  UNL     1     -32.973  14.261  -4.303  1.00 20.00     0.019 A 
HETATM    8  C5  UNL     1     -33.377  15.530  -5.001  1.00 20.00    -0.005 A 
HETATM    9  C6  UNL     1     -33.510  15.554  -6.485  1.00 20.00     0.011 C 
ENDBRANCH   2   6
TORSDOF 1
ENDMDL
MODEL 7
REMARK VINA RESULT:      -4.0     12.101     12.560
REMARK  1 active torsions:
REMARK  status: ('A' for Active; 'I' for Inactive)
REMARK    1  A    between atoms: C2_2  and  C4_4 
REMARK       I    between atoms: C2_2  and  N7_7 
ROOT
HETATM    1  C1  UNL     1     -34.376  14.717  -5.760  1.00 20.00     0.166 C 
HETATM    2  C2  UNL     1     -33.474  16.463  -4.795  1.00 20.00     0.249 C 
HETATM    3  N7  UNL     1     -33.447  15.434  -5.712  1.00 20.00    -0.199 NA
HETATM    4  O8  UNL     1     -33.406  17.668  -5.021  1.00 20.00    -0.271 OA
HETATM    5  S9  UNL     1     -35.618  13.725  -5.856  1.00 20.00    -0.055 SA
ENDROOT
BRANCH   2   6
HETATM    6  C4  UNL     1     -33.602  16.011  -3.405  1.00 20.00     0.084 A 
HETATM    7  C3  UNL     1     -33.668  17.033  -2.298  1.00 20.00     0.019 A 
HETATM    8  C5  UNL     1     -34.885  16.219  -2.637  1.00 20.00    -0.005 A 
HETATM    9  C6  UNL     1     -36.077  16.877  -3.244  1.00 20.00     0.011 C 
ENDBRANCH   2   6
TORSDOF 1
ENDMDL
MODEL 8
REMARK VINA RESULT:      -4.0     12.346     12.721
REMARK  1 active torsions:
REMARK  status: ('A' for Active; 'I' for Inactive)
REMARK    1  A    between atoms: C2_2  and  C4_4 
REMARK       I    between atoms: C2_2  and  N7_7 
ROOT
HETATM    1  C1  UNL     1     -34.386  14.945  -6.828  1.00 20.00     0.166 C 
HETATM    2  C2  UNL     1     -35.910  13.605  -6.007  1.00 20.00     0.249 C 
HETATM    3  N7  UNL     1     -34.893  13.887  -6.893  1.00 20.00    -0.199 NA
HETATM    4  O8  UNL     1     -35.947  12.705  -5.173  1.00 20.00    -0.271 OA
HETATM    5  S9  UNL     1     -33.674  16.369  -6.770  1.00 20.00    -0.055 SA
ENDROOT
BRANCH   2   6
HETATM    6  C4  UNL     1     -37.055  14.515  -6.115  1.00 20.00     0.084 A 
HETATM    7  C3  UNL     1     -38.207  14.373  -5.152  1.00 20.00     0.019 A 
HETATM    8  C5  UNL     1     -37.307  15.574  -5.069  1.00 20.00    -0.005 A 
HETATM    9  C6  UNL     1     -36.412  15.754  -3.890  1.00 20.00     0.011 C 
ENDBRANCH   2   6
TORSDOF 1
ENDMDL
MODEL 9
REMARK VINA RESULT:      -3.9     11.822     12.862
REMARK  1 active torsions:
REMARK  status: ('A' for Active; 'I' for Inactive)
REMARK    1  A    between atoms: C2_2  and  C4_4 
REMARK       I    between atoms: C2_2  and  N7_7 
ROOT
HETATM    1  C1  UNL     1     -36.058  15.794  -4.301  1.00 20.00     0.166 C 
HETATM    2  C2  UNL     1     -35.431  13.870  -5.136  1.00 20.00     0.249 C 
HETATM    3  N7  UNL     1     -35.551  14.756  -4.087  1.00 20.00    -0.199 NA
HETATM    4  O8  UNL     1     -35.902  12.740  -5.218  1.00 20.00    -0.271 OA
HETATM    5  S9  UNL     1     -36.741  17.211  -4.553  1.00 20.00    -0.055 SA
ENDROOT
BRANCH   2   6
HETATM    6  C4  UNL     1     -34.638  14.387  -6.257  1.00 20.00     0.084 A 
HETATM    7  C3  UNL     1     -34.461  13.540  -7.492  1.00 20.00     0.019 A 
HETATM    8  C5  UNL     1     -35.299  14.786  -7.556  1.00 20.00    -0.005 A 
HETATM    9  C6  UNL     1     -36.772  14.684  -7.761  1.00 20.00     0.011 C 
ENDBRANCH   2   6
TORSDOF 1
ENDMDL
