MODEL 1
REMARK VINA RESULT:      -5.2      0.000      0.000
REMARK  1 active torsions:
REMARK  status: ('A' for Active; 'I' for Inactive)
REMARK    1  A    between atoms: C4_4  and  C10_10 
ROOT
HETATM    1  C1  UNL     1     -32.916   7.678   4.571  1.00 20.00     0.008 C 
HETATM    2  C2  UNL     1     -31.648   8.356   4.048  1.00 20.00     0.035 C 
HETATM    3  C3  UNL     1     -33.526   6.707   2.318  1.00 20.00     0.039 C 
HETATM    4  C4  UNL     1     -33.218   6.390   3.790  1.00 20.00    -0.005 C 
HETATM    5  C5  UNL     1     -31.610   8.472   2.560  1.00 20.00     0.151 A 
HETATM    6  C6  UNL     1     -32.513   7.623   1.706  1.00 20.00     0.151 A 
HETATM    7  O11 UNL     1     -32.781   9.018   1.951  1.00 20.00    -0.375 OA
ENDROOT
BRANCH   4   8
HETATM    8  C10 UNL     1     -34.382   5.632   4.426  1.00 20.00    -0.048 C 
HETATM    9  C7  UNL     1     -34.137   4.118   4.319  1.00 20.00     0.015 C 
HETATM   10  C8  UNL     1     -35.691   5.986   3.700  1.00 20.00     0.015 C 
HETATM   11  C9  UNL     1     -34.506   6.021   5.910  1.00 20.00     0.015 C 
ENDBRANCH   4   8
TORSDOF 1
ENDMDL
MODEL 2
REMARK VINA RESULT:      -4.6      1.934      3.994
REMARK  1 active torsions:
REMARK  status: ('A' for Active; 'I' for Inactive)
REMARK    1  A    between atoms: C4_4  and  C10_10 
ROOT
HETATM    1  C1  UNL     1     -33.032   7.371   5.030  1.00 20.00     0.008 C 
HETATM    2  C2  UNL     1     -34.102   6.942   6.036  1.00 20.00     0.035 C 
HETATM    3  C3  UNL     1     -34.032   6.024   3.139  1.00 20.00     0.039 C 
HETATM    4  C4  UNL     1     -33.601   7.424   3.604  1.00 20.00    -0.005 C 
HETATM    5  C5  UNL     1     -34.879   5.744   5.598  1.00 20.00     0.151 A 
HETATM    6  C6  UNL     1     -34.874   5.318   4.154  1.00 20.00     0.151 A 
HETATM    7  O11 UNL     1     -34.102   4.629   5.159  1.00 20.00    -0.375 OA
ENDROOT
BRANCH   4   8
HETATM    8  C10 UNL     1     -32.577   8.015   2.635  1.00 20.00    -0.048 C 
HETATM    9  C7  UNL     1     -33.153   9.281   1.979  1.00 20.00     0.015 C 
HETATM   10  C8  UNL     1     -32.242   6.986   1.543  1.00 20.00     0.015 C 
HETATM   11  C9  UNL     1     -31.292   8.381   3.398  1.00 20.00     0.015 C 
ENDBRANCH   4   8
TORSDOF 1
ENDMDL
MODEL 3
REMARK VINA RESULT:      -4.5     11.292     12.116
REMARK  1 active torsions:
REMARK  status: ('A' for Active; 'I' for Inactive)
REMARK    1  A    between atoms: C4_4  and  C10_10 
ROOT
HETATM    1  C1  UNL     1     -33.727  15.941  -3.541  1.00 20.00     0.008 C 
HETATM    2  C2  UNL     1     -33.868  14.586  -4.235  1.00 20.00     0.035 C 
HETATM    3  C3  UNL     1     -36.223  16.300  -3.369  1.00 20.00     0.039 C 
HETATM    4  C4  UNL     1     -34.903  16.201  -2.588  1.00 20.00    -0.005 C 
HETATM    5  C5  UNL     1     -35.230  14.350  -4.800  1.00 20.00     0.151 A 
HETATM    6  C6  UNL     1     -36.401  15.174  -4.338  1.00 20.00     0.151 A 
HETATM    7  O11 UNL     1     -35.756  15.403  -5.607  1.00 20.00    -0.375 OA
ENDROOT
BRANCH   4   8
HETATM    8  C10 UNL     1     -34.669  17.474  -1.774  1.00 20.00    -0.048 C 
HETATM    9  C7  UNL     1     -35.242  18.685  -2.529  1.00 20.00     0.015 C 
HETATM   10  C8  UNL     1     -33.162  17.680  -1.554  1.00 20.00     0.015 C 
HETATM   11  C9  UNL     1     -35.368  17.352  -0.409  1.00 20.00     0.015 C 
ENDBRANCH   4   8
TORSDOF 1
ENDMDL
MODEL 4
REMARK VINA RESULT:      -4.4     11.292     12.068
REMARK  1 active torsions:
REMARK  status: ('A' for Active; 'I' for Inactive)
REMARK    1  A    between atoms: C4_4  and  C10_10 
ROOT
HETATM    1  C1  UNL     1     -36.076  15.901  -3.287  1.00 20.00     0.008 C 
HETATM    2  C2  UNL     1     -36.357  15.123  -4.574  1.00 20.00     0.035 C 
HETATM    3  C3  UNL     1     -33.566  15.729  -3.531  1.00 20.00     0.039 C 
HETATM    4  C4  UNL     1     -34.760  16.686  -3.389  1.00 20.00    -0.005 C 
HETATM    5  C5  UNL     1     -35.175  14.355  -5.070  1.00 20.00     0.151 A 
HETATM    6  C6  UNL     1     -33.791  14.686  -4.581  1.00 20.00     0.151 A 
HETATM    7  O11 UNL     1     -34.518  13.537  -4.101  1.00 20.00    -0.375 OA
ENDROOT
BRANCH   4   8
HETATM    8  C10 UNL     1     -34.575  17.591  -2.171  1.00 20.00    -0.048 C 
HETATM    9  C7  UNL     1     -35.408  17.056  -0.995  1.00 20.00     0.015 C 
HETATM   10  C8  UNL     1     -35.035  19.018  -2.510  1.00 20.00     0.015 C 
HETATM   11  C9  UNL     1     -33.090  17.621  -1.768  1.00 20.00     0.015 C 
ENDBRANCH   4   8
TORSDOF 1
ENDMDL
MODEL 5
REMARK VINA RESULT:      -4.4      0.967      2.200
REMARK  1 active torsions:
REMARK  status: ('A' for Active; 'I' for Inactive)
REMARK    1  A    between atoms: C4_4  and  C10_10 
ROOT
HETATM    1  C1  UNL     1     -32.986   6.665   2.437  1.00 20.00     0.008 C 
HETATM    2  C2  UNL     1     -32.366   7.914   1.807  1.00 20.00     0.035 C 
HETATM    3  C3  UNL     1     -32.825   7.567   4.792  1.00 20.00     0.039 C 
HETATM    4  C4  UNL     1     -33.767   7.015   3.712  1.00 20.00    -0.005 C 
HETATM    5  C5  UNL     1     -31.654   8.781   2.793  1.00 20.00     0.151 A 
HETATM    6  C6  UNL     1     -31.915   8.633   4.267  1.00 20.00     0.151 A 
HETATM    7  O11 UNL     1     -30.723   8.113   3.645  1.00 20.00    -0.375 OA
ENDROOT
BRANCH   4   8
HETATM    8  C10 UNL     1     -34.521   5.794   4.237  1.00 20.00    -0.048 C 
HETATM    9  C7  UNL     1     -34.531   5.811   5.774  1.00 20.00     0.015 C 
HETATM   10  C8  UNL     1     -33.832   4.509   3.749  1.00 20.00     0.015 C 
HETATM   11  C9  UNL     1     -35.971   5.817   3.721  1.00 20.00     0.015 C 
ENDBRANCH   4   8
TORSDOF 1
ENDMDL
MODEL 6
REMARK VINA RESULT:      -4.3      0.964      1.813
REMARK  1 active torsions:
REMARK  status: ('A' for Active; 'I' for Inactive)
REMARK    1  A    between atoms: C4_4  and  C10_10 
ROOT
HETATM    1  C1  UNL     1     -32.995   6.678   2.426  1.00 20.00     0.008 C 
HETATM    2  C2  UNL     1     -32.379   7.929   1.797  1.00 20.00     0.035 C 
HETATM    3  C3  UNL     1     -32.820   7.573   4.783  1.00 20.00     0.039 C 
HETATM    4  C4  UNL     1     -33.769   7.024   3.707  1.00 20.00    -0.005 C 
HETATM    5  C5  UNL     1     -31.661   8.792   2.780  1.00 20.00     0.151 A 
HETATM    6  C6  UNL     1     -31.913   8.640   4.256  1.00 20.00     0.151 A 
HETATM    7  O11 UNL     1     -30.725   8.122   3.625  1.00 20.00    -0.375 OA
ENDROOT
BRANCH   4   8
HETATM    8  C10 UNL     1     -34.520   5.801   4.232  1.00 20.00    -0.048 C 
HETATM    9  C7  UNL     1     -33.830   4.517   3.741  1.00 20.00     0.015 C 
HETATM   10  C8  UNL     1     -35.970   5.823   3.722  1.00 20.00     0.015 C 
HETATM   11  C9  UNL     1     -34.524   5.816   5.771  1.00 20.00     0.015 C 
ENDBRANCH   4   8
TORSDOF 1
ENDMDL
MODEL 7
REMARK VINA RESULT:      -4.3     11.156     12.064
REMARK  1 active torsions:
REMARK  status: ('A' for Active; 'I' for Inactive)
REMARK    1  A    between atoms: C4_4  and  C10_10 
ROOT
HETATM    1  C1  UNL     1     -35.763  16.968  -1.841  1.00 20.00     0.008 C 
HETATM    2  C2  UNL     1     -35.376  17.362  -0.414  1.00 20.00     0.035 C 
HETATM    3  C3  UNL     1     -33.409  17.217  -2.728  1.00 20.00     0.039 C 
HETATM    4  C4  UNL     1     -34.602  16.263  -2.556  1.00 20.00    -0.005 C 
HETATM    5  C5  UNL     1     -34.048  18.040  -0.328  1.00 20.00     0.151 A 
HETATM    6  C6  UNL     1     -33.061  17.931  -1.459  1.00 20.00     0.151 A 
HETATM    7  O11 UNL     1     -33.845  19.121  -1.239  1.00 20.00    -0.375 OA
ENDROOT
BRANCH   4   8
HETATM    8  C10 UNL     1     -35.051  15.723  -3.914  1.00 20.00    -0.048 C 
HETATM    9  C7  UNL     1     -34.554  16.654  -5.033  1.00 20.00     0.015 C 
HETATM   10  C8  UNL     1     -36.586  15.648  -3.961  1.00 20.00     0.015 C 
HETATM   11  C9  UNL     1     -34.468  14.315  -4.131  1.00 20.00     0.015 C 
ENDBRANCH   4   8
TORSDOF 1
ENDMDL
MODEL 8
REMARK VINA RESULT:      -4.0      1.906      4.321
REMARK  1 active torsions:
REMARK  status: ('A' for Active; 'I' for Inactive)
REMARK    1  A    between atoms: C4_4  and  C10_10 
ROOT
HETATM    1  C1  UNL     1     -32.170   8.148   3.196  1.00 20.00     0.008 C 
HETATM    2  C2  UNL     1     -32.870   7.469   4.375  1.00 20.00     0.035 C 
HETATM    3  C3  UNL     1     -33.642   7.038   1.467  1.00 20.00     0.039 C 
HETATM    4  C4  UNL     1     -33.144   8.378   2.031  1.00 20.00    -0.005 C 
HETATM    5  C5  UNL     1     -33.697   6.292   3.973  1.00 20.00     0.151 A 
HETATM    6  C6  UNL     1     -34.111   6.106   2.538  1.00 20.00     0.151 A 
HETATM    7  O11 UNL     1     -33.047   5.336   3.134  1.00 20.00    -0.375 OA
ENDROOT
BRANCH   4   8
HETATM    8  C10 UNL     1     -32.483   9.207   0.930  1.00 20.00    -0.048 C 
HETATM    9  C7  UNL     1     -33.291   9.079  -0.372  1.00 20.00     0.015 C 
HETATM   10  C8  UNL     1     -31.051   8.702   0.689  1.00 20.00     0.015 C 
HETATM   11  C9  UNL     1     -32.434  10.686   1.352  1.00 20.00     0.015 C 
ENDBRANCH   4   8
TORSDOF 1
ENDMDL
MODEL 9
REMARK VINA RESULT:      -3.9     11.449     12.749
REMARK  1 active torsions:
REMARK  status: ('A' for Active; 'I' for Inactive)
REMARK    1  A    between atoms: C4_4  and  C10_10 
ROOT
HETATM    1  C1  UNL     1     -36.464  16.555  -4.775  1.00 20.00     0.008 C 
HETATM    2  C2  UNL     1     -37.625  16.305  -5.740  1.00 20.00     0.035 C 
HETATM    3  C3  UNL     1     -35.630  14.172  -4.896  1.00 20.00     0.039 C 
HETATM    4  C4  UNL     1     -35.266  15.651  -5.102  1.00 20.00    -0.005 C 
HETATM    5  C5  UNL     1     -37.933  14.857  -5.931  1.00 20.00     0.151 A 
HETATM    6  C6  UNL     1     -36.925  13.806  -5.550  1.00 20.00     0.151 A 
HETATM    7  O11 UNL     1     -38.079  14.092  -4.734  1.00 20.00    -0.375 OA
ENDROOT
BRANCH   4   8
HETATM    8  C10 UNL     1     -34.057  16.026  -4.246  1.00 20.00    -0.048 C 
HETATM    9  C7  UNL     1     -34.498  16.239  -2.788  1.00 20.00     0.015 C 
HETATM   10  C8  UNL     1     -33.425  17.322  -4.778  1.00 20.00     0.015 C 
HETATM   11  C9  UNL     1     -33.013  14.896  -4.299  1.00 20.00     0.015 C 
ENDBRANCH   4   8
TORSDOF 1
ENDMDL
