MODEL 1
REMARK VINA RESULT:      -4.8      0.000      0.000
REMARK  2 active torsions:
REMARK  status: ('A' for Active; 'I' for Inactive)
REMARK    1  A    between atoms: C1_1  and  C5_5 
REMARK    2  A    between atoms: C4_4  and  C5_5 
ROOT
HETATM    1  C5  UNL     1     -34.324   6.030   3.233  1.00 20.00     0.101 C 
ENDROOT
BRANCH   1   2
HETATM    2  C1  UNL     1     -34.414   5.072   4.408  1.00 20.00     0.219 C 
HETATM    3  O6  UNL     1     -34.423   3.853   4.269  1.00 20.00    -0.280 OA
HETATM    4 CL7  UNL     1     -34.499   5.919   5.929  1.00 20.00    -0.044 Cl
ENDBRANCH   1   2
BRANCH   1   5
HETATM    5  C4  UNL     1     -32.939   6.493   2.939  1.00 20.00    -0.006 A 
HETATM    6  C2  UNL     1     -32.711   7.795   2.223  1.00 20.00     0.005 A 
HETATM    7  C3  UNL     1     -32.359   7.666   3.678  1.00 20.00     0.005 A 
ENDBRANCH   1   5
TORSDOF 2
ENDMDL
MODEL 2
REMARK VINA RESULT:      -4.8      3.162      3.861
REMARK  2 active torsions:
REMARK  status: ('A' for Active; 'I' for Inactive)
REMARK    1  A    between atoms: C1_1  and  C5_5 
REMARK    2  A    between atoms: C4_4  and  C5_5 
ROOT
HETATM    1  C5  UNL     1     -32.991   6.686   3.078  1.00 20.00     0.101 C 
ENDROOT
BRANCH   1   2
HETATM    2  C1  UNL     1     -32.153   7.935   2.863  1.00 20.00     0.219 C 
HETATM    3  O6  UNL     1     -31.308   8.313   3.669  1.00 20.00    -0.280 OA
HETATM    4 CL7  UNL     1     -32.546   8.728   1.363  1.00 20.00    -0.044 Cl
ENDBRANCH   1   2
BRANCH   1   5
HETATM    5  C4  UNL     1     -34.147   6.889   3.995  1.00 20.00    -0.006 A 
HETATM    6  C2  UNL     1     -34.672   5.745   4.818  1.00 20.00     0.005 A 
HETATM    7  C3  UNL     1     -33.943   6.877   5.485  1.00 20.00     0.005 A 
ENDBRANCH   1   5
TORSDOF 2
ENDMDL
MODEL 3
REMARK VINA RESULT:      -4.8      1.800      1.800
REMARK  2 active torsions:
REMARK  status: ('A' for Active; 'I' for Inactive)
REMARK    1  A    between atoms: C1_1  and  C5_5 
REMARK    2  A    between atoms: C4_4  and  C5_5 
ROOT
HETATM    1  C5  UNL     1     -34.082   6.945   3.764  1.00 20.00     0.101 C 
ENDROOT
BRANCH   1   2
HETATM    2  C1  UNL     1     -34.081   6.573   5.236  1.00 20.00     0.219 C 
HETATM    3  O6  UNL     1     -33.769   7.367   6.120  1.00 20.00    -0.280 OA
HETATM    4 CL7  UNL     1     -34.567   4.919   5.487  1.00 20.00    -0.044 Cl
ENDBRANCH   1   2
BRANCH   1   5
HETATM    5  C4  UNL     1     -32.726   6.972   3.149  1.00 20.00    -0.006 A 
HETATM    6  C2  UNL     1     -32.387   7.999   2.105  1.00 20.00     0.005 A 
HETATM    7  C3  UNL     1     -31.770   8.087   3.472  1.00 20.00     0.005 A 
ENDBRANCH   1   5
TORSDOF 2
ENDMDL
MODEL 4
REMARK VINA RESULT:      -4.6      2.811      3.627
REMARK  2 active torsions:
REMARK  status: ('A' for Active; 'I' for Inactive)
REMARK    1  A    between atoms: C1_1  and  C5_5 
REMARK    2  A    between atoms: C4_4  and  C5_5 
ROOT
HETATM    1  C5  UNL     1     -33.131   6.432   2.998  1.00 20.00     0.101 C 
ENDROOT
BRANCH   1   2
HETATM    2  C1  UNL     1     -32.497   7.755   2.604  1.00 20.00     0.219 C 
HETATM    3  O6  UNL     1     -32.782   8.342   1.565  1.00 20.00    -0.280 OA
HETATM    4 CL7  UNL     1     -31.348   8.302   3.794  1.00 20.00    -0.044 Cl
ENDBRANCH   1   2
BRANCH   1   5
HETATM    5  C4  UNL     1     -34.297   6.574   3.914  1.00 20.00    -0.006 A 
HETATM    6  C2  UNL     1     -34.706   5.432   4.802  1.00 20.00     0.005 A 
HETATM    7  C3  UNL     1     -34.086   6.663   5.400  1.00 20.00     0.005 A 
ENDBRANCH   1   5
TORSDOF 2
ENDMDL
MODEL 5
REMARK VINA RESULT:      -4.4      2.413      3.150
REMARK  2 active torsions:
REMARK  status: ('A' for Active; 'I' for Inactive)
REMARK    1  A    between atoms: C1_1  and  C5_5 
REMARK    2  A    between atoms: C4_4  and  C5_5 
ROOT
HETATM    1  C5  UNL     1     -31.981   8.168   2.883  1.00 20.00     0.101 C 
ENDROOT
BRANCH   1   2
HETATM    2  C1  UNL     1     -32.883   7.260   3.700  1.00 20.00     0.219 C 
HETATM    3  O6  UNL     1     -33.127   7.462   4.886  1.00 20.00    -0.280 OA
HETATM    4 CL7  UNL     1     -33.501   5.937   2.750  1.00 20.00    -0.044 Cl
ENDBRANCH   1   2
BRANCH   1   5
HETATM    5  C4  UNL     1     -32.590   8.628   1.604  1.00 20.00    -0.006 A 
HETATM    6  C2  UNL     1     -32.581  10.088   1.242  1.00 20.00     0.005 A 
HETATM    7  C3  UNL     1     -31.717   9.121   0.484  1.00 20.00     0.005 A 
ENDBRANCH   1   5
TORSDOF 2
ENDMDL
MODEL 6
REMARK VINA RESULT:      -4.4      1.853      2.631
REMARK  2 active torsions:
REMARK  status: ('A' for Active; 'I' for Inactive)
REMARK    1  A    between atoms: C1_1  and  C5_5 
REMARK    2  A    between atoms: C4_4  and  C5_5 
ROOT
HETATM    1  C5  UNL     1     -32.241   8.028   2.966  1.00 20.00     0.101 C 
ENDROOT
BRANCH   1   2
HETATM    2  C1  UNL     1     -33.206   7.014   3.554  1.00 20.00     0.219 C 
HETATM    3  O6  UNL     1     -33.685   6.095   2.895  1.00 20.00    -0.280 OA
HETATM    4 CL7  UNL     1     -33.528   7.326   5.237  1.00 20.00    -0.044 Cl
ENDBRANCH   1   2
BRANCH   1   5
HETATM    5  C4  UNL     1     -32.637   8.524   1.618  1.00 20.00    -0.006 A 
HETATM    6  C2  UNL     1     -32.525   9.986   1.286  1.00 20.00     0.005 A 
HETATM    7  C3  UNL     1     -31.590   8.997   0.648  1.00 20.00     0.005 A 
ENDBRANCH   1   5
TORSDOF 2
ENDMDL
MODEL 7
REMARK VINA RESULT:      -4.3      3.755      4.477
REMARK  2 active torsions:
REMARK  status: ('A' for Active; 'I' for Inactive)
REMARK    1  A    between atoms: C1_1  and  C5_5 
REMARK    2  A    between atoms: C4_4  and  C5_5 
ROOT
HETATM    1  C5  UNL     1     -32.076   8.175   2.635  1.00 20.00     0.101 C 
ENDROOT
BRANCH   1   2
HETATM    2  C1  UNL     1     -31.916   8.933   1.329  1.00 20.00     0.219 C 
HETATM    3  O6  UNL     1     -31.143   8.575   0.446  1.00 20.00    -0.280 OA
HETATM    4 CL7  UNL     1     -32.949  10.334   1.263  1.00 20.00    -0.044 Cl
ENDBRANCH   1   2
BRANCH   1   5
HETATM    5  C4  UNL     1     -33.324   7.365   2.712  1.00 20.00    -0.006 A 
HETATM    6  C2  UNL     1     -33.250   5.882   2.947  1.00 20.00     0.005 A 
HETATM    7  C3  UNL     1     -33.772   6.788   4.026  1.00 20.00     0.005 A 
ENDBRANCH   1   5
TORSDOF 2
ENDMDL
MODEL 8
REMARK VINA RESULT:      -4.0      2.690      3.725
REMARK  2 active torsions:
REMARK  status: ('A' for Active; 'I' for Inactive)
REMARK    1  A    between atoms: C1_1  and  C5_5 
REMARK    2  A    between atoms: C4_4  and  C5_5 
ROOT
HETATM    1  C5  UNL     1     -33.356   7.067   4.877  1.00 20.00     0.101 C 
ENDROOT
BRANCH   1   2
HETATM    2  C1  UNL     1     -32.580   7.571   3.672  1.00 20.00     0.219 C 
HETATM    3  O6  UNL     1     -31.564   8.252   3.776  1.00 20.00    -0.280 OA
HETATM    4 CL7  UNL     1     -33.309   7.062   2.174  1.00 20.00    -0.044 Cl
ENDBRANCH   1   2
BRANCH   1   5
HETATM    5  C4  UNL     1     -34.429   6.093   4.536  1.00 20.00    -0.006 A 
HETATM    6  C2  UNL     1     -34.096   4.643   4.319  1.00 20.00     0.005 A 
HETATM    7  C3  UNL     1     -34.862   5.062   5.541  1.00 20.00     0.005 A 
ENDBRANCH   1   5
TORSDOF 2
ENDMDL
MODEL 9
REMARK VINA RESULT:      -3.9      1.978      2.446
REMARK  2 active torsions:
REMARK  status: ('A' for Active; 'I' for Inactive)
REMARK    1  A    between atoms: C1_1  and  C5_5 
REMARK    2  A    between atoms: C4_4  and  C5_5 
ROOT
HETATM    1  C5  UNL     1     -34.526   5.465   5.391  1.00 20.00     0.101 C 
ENDROOT
BRANCH   1   2
HETATM    2  C1  UNL     1     -34.315   4.655   4.124  1.00 20.00     0.219 C 
HETATM    3  O6  UNL     1     -34.180   3.435   4.133  1.00 20.00    -0.280 OA
HETATM    4 CL7  UNL     1     -34.293   5.665   2.705  1.00 20.00    -0.044 Cl
ENDBRANCH   1   2
BRANCH   1   5
HETATM    5  C4  UNL     1     -34.323   6.930   5.209  1.00 20.00    -0.006 A 
HETATM    6  C2  UNL     1     -33.552   7.721   6.229  1.00 20.00     0.005 A 
HETATM    7  C3  UNL     1     -32.961   7.469   4.871  1.00 20.00     0.005 A 
ENDBRANCH   1   5
TORSDOF 2
ENDMDL
