MODEL 1
REMARK VINA RESULT:      -4.7      0.000      0.000
REMARK  2 active torsions:
REMARK  status: ('A' for Active; 'I' for Inactive)
REMARK    1  A    between atoms: C4_4  and  C11_11 
REMARK    2  A    between atoms: C10_10  and  C11_11 
ROOT
HETATM    1  C1  UNL     1     -36.177  14.741  -4.302  1.00 20.00     0.008 C 
HETATM    2  C2  UNL     1     -36.319  13.652  -5.367  1.00 20.00     0.035 C 
HETATM    3  C3  UNL     1     -33.651  14.399  -4.814  1.00 20.00     0.040 C 
HETATM    4  C4  UNL     1     -34.711  15.025  -3.883  1.00 20.00    -0.004 C 
HETATM    5  C5  UNL     1     -35.484  14.016  -6.550  1.00 20.00     0.151 A 
HETATM    6  C6  UNL     1     -34.078  14.440  -6.247  1.00 20.00     0.151 A 
HETATM    7  O12 UNL     1     -34.371  13.161  -6.825  1.00 20.00    -0.375 OA
ENDROOT
BRANCH   4   8
HETATM    8  C11 UNL     1     -34.487  16.535  -3.744  1.00 20.00    -0.044 C 
HETATM    9  C8  UNL     1     -33.329  16.958  -4.670  1.00 20.00     0.015 C 
HETATM   10  C9  UNL     1     -35.768  17.274  -4.180  1.00 20.00     0.015 C 
BRANCH   8  11
HETATM   11  C10 UNL     1     -34.148  16.852  -2.260  1.00 20.00     0.004 C 
HETATM   12  C7  UNL     1     -35.328  16.926  -1.299  1.00 20.00     0.006 C 
ENDBRANCH   8  11
ENDBRANCH   4   8
TORSDOF 2
ENDMDL
MODEL 2
REMARK VINA RESULT:      -4.7      0.791      1.226
REMARK  2 active torsions:
REMARK  status: ('A' for Active; 'I' for Inactive)
REMARK    1  A    between atoms: C4_4  and  C11_11 
REMARK    2  A    between atoms: C10_10  and  C11_11 
ROOT
HETATM    1  C1  UNL     1     -36.643  14.923  -4.524  1.00 20.00     0.008 C 
HETATM    2  C2  UNL     1     -36.528  13.903  -5.659  1.00 20.00     0.035 C 
HETATM    3  C3  UNL     1     -34.122  14.353  -4.250  1.00 20.00     0.040 C 
HETATM    4  C4  UNL     1     -35.367  15.039  -3.650  1.00 20.00    -0.004 C 
HETATM    5  C5  UNL     1     -35.335  14.235  -6.494  1.00 20.00     0.151 A 
HETATM    6  C6  UNL     1     -34.068  14.502  -5.738  1.00 20.00     0.151 A 
HETATM    7  O12 UNL     1     -34.266  13.286  -6.472  1.00 20.00    -0.375 OA
ENDROOT
BRANCH   4   8
HETATM    8  C11 UNL     1     -35.078  16.510  -3.336  1.00 20.00    -0.044 C 
HETATM    9  C8  UNL     1     -35.497  17.373  -4.543  1.00 20.00     0.015 C 
HETATM   10  C9  UNL     1     -35.911  16.935  -2.110  1.00 20.00     0.015 C 
BRANCH   8  11
HETATM   11  C10 UNL     1     -33.558  16.668  -3.049  1.00 20.00     0.004 C 
HETATM   12  C7  UNL     1     -33.185  17.495  -1.826  1.00 20.00     0.006 C 
ENDBRANCH   8  11
ENDBRANCH   4   8
TORSDOF 2
ENDMDL
MODEL 3
REMARK VINA RESULT:      -4.6     11.520     12.343
REMARK  2 active torsions:
REMARK  status: ('A' for Active; 'I' for Inactive)
REMARK    1  A    between atoms: C4_4  and  C11_11 
REMARK    2  A    between atoms: C10_10  and  C11_11 
ROOT
HETATM    1  C1  UNL     1     -34.778   6.411   2.974  1.00 20.00     0.008 C 
HETATM    2  C2  UNL     1     -35.518   5.509   3.964  1.00 20.00     0.035 C 
HETATM    3  C3  UNL     1     -33.777   7.379   5.168  1.00 20.00     0.040 C 
HETATM    4  C4  UNL     1     -33.956   7.542   3.645  1.00 20.00    -0.004 C 
HETATM    5  C5  UNL     1     -34.537   4.952   4.943  1.00 20.00     0.151 A 
HETATM    6  C6  UNL     1     -33.597   5.946   5.556  1.00 20.00     0.151 A 
HETATM    7  O12 UNL     1     -34.686   5.381   6.299  1.00 20.00    -0.375 OA
ENDROOT
BRANCH   4   8
HETATM    8  C11 UNL     1     -32.598   7.687   2.950  1.00 20.00    -0.044 C 
HETATM    9  C8  UNL     1     -31.566   8.206   3.971  1.00 20.00     0.015 C 
HETATM   10  C9  UNL     1     -32.143   6.304   2.443  1.00 20.00     0.015 C 
BRANCH   8  11
HETATM   11  C10 UNL     1     -32.749   8.685   1.767  1.00 20.00     0.004 C 
HETATM   12  C7  UNL     1     -31.552   8.809   0.832  1.00 20.00     0.006 C 
ENDBRANCH   8  11
ENDBRANCH   4   8
TORSDOF 2
ENDMDL
MODEL 4
REMARK VINA RESULT:      -4.6      1.573      2.295
REMARK  2 active torsions:
REMARK  status: ('A' for Active; 'I' for Inactive)
REMARK    1  A    between atoms: C4_4  and  C11_11 
REMARK    2  A    between atoms: C10_10  and  C11_11 
ROOT
HETATM    1  C1  UNL     1     -35.980  16.056  -3.911  1.00 20.00     0.008 C 
HETATM    2  C2  UNL     1     -35.760  15.558  -5.341  1.00 20.00     0.035 C 
HETATM    3  C3  UNL     1     -33.403  15.735  -3.794  1.00 20.00     0.040 C 
HETATM    4  C4  UNL     1     -34.713  15.990  -3.019  1.00 20.00    -0.004 C 
HETATM    5  C5  UNL     1     -34.631  16.321  -5.954  1.00 20.00     0.151 A 
HETATM    6  C6  UNL     1     -33.394  16.436  -5.115  1.00 20.00     0.151 A 
HETATM    7  O12 UNL     1     -33.453  15.570  -6.257  1.00 20.00    -0.375 OA
ENDROOT
BRANCH   4   8
HETATM    8  C11 UNL     1     -34.603  17.260  -2.169  1.00 20.00    -0.044 C 
HETATM    9  C8  UNL     1     -35.219  18.439  -2.947  1.00 20.00     0.015 C 
HETATM   10  C9  UNL     1     -35.396  17.059  -0.862  1.00 20.00     0.015 C 
BRANCH   8  11
HETATM   11  C10 UNL     1     -33.101  17.526  -1.866  1.00 20.00     0.004 C 
HETATM   12  C7  UNL     1     -32.803  18.433  -0.678  1.00 20.00     0.006 C 
ENDBRANCH   8  11
ENDBRANCH   4   8
TORSDOF 2
ENDMDL
MODEL 5
REMARK VINA RESULT:      -4.5      1.549      2.771
REMARK  2 active torsions:
REMARK  status: ('A' for Active; 'I' for Inactive)
REMARK    1  A    between atoms: C4_4  and  C11_11 
REMARK    2  A    between atoms: C10_10  and  C11_11 
ROOT
HETATM    1  C1  UNL     1     -33.580  17.286  -4.756  1.00 20.00     0.008 C 
HETATM    2  C2  UNL     1     -33.236  16.085  -5.639  1.00 20.00     0.035 C 
HETATM    3  C3  UNL     1     -35.369  15.637  -3.843  1.00 20.00     0.040 C 
HETATM    4  C4  UNL     1     -34.855  17.090  -3.896  1.00 20.00    -0.004 C 
HETATM    5  C5  UNL     1     -33.123  14.867  -4.783  1.00 20.00     0.151 A 
HETATM    6  C6  UNL     1     -34.244  14.651  -3.810  1.00 20.00     0.151 A 
HETATM    7  O12 UNL     1     -34.109  13.853  -4.994  1.00 20.00    -0.375 OA
ENDROOT
BRANCH   4   8
HETATM    8  C11 UNL     1     -34.624  17.637  -2.483  1.00 20.00    -0.044 C 
HETATM    9  C8  UNL     1     -35.117  19.096  -2.423  1.00 20.00     0.015 C 
HETATM   10  C9  UNL     1     -35.439  16.796  -1.480  1.00 20.00     0.015 C 
BRANCH   8  11
HETATM   11  C10 UNL     1     -33.105  17.556  -2.161  1.00 20.00     0.004 C 
HETATM   12  C7  UNL     1     -32.637  18.310  -0.923  1.00 20.00     0.006 C 
ENDBRANCH   8  11
ENDBRANCH   4   8
TORSDOF 2
ENDMDL
MODEL 6
REMARK VINA RESULT:      -4.4      0.787      1.970
REMARK  2 active torsions:
REMARK  status: ('A' for Active; 'I' for Inactive)
REMARK    1  A    between atoms: C4_4  and  C11_11 
REMARK    2  A    between atoms: C10_10  and  C11_11 
ROOT
HETATM    1  C1  UNL     1     -36.651  14.924  -4.512  1.00 20.00     0.008 C 
HETATM    2  C2  UNL     1     -36.592  13.928  -5.672  1.00 20.00     0.035 C 
HETATM    3  C3  UNL     1     -34.157  14.234  -4.274  1.00 20.00     0.040 C 
HETATM    4  C4  UNL     1     -35.364  14.960  -3.647  1.00 20.00    -0.004 C 
HETATM    5  C5  UNL     1     -35.392  14.226  -6.509  1.00 20.00     0.151 A 
HETATM    6  C6  UNL     1     -34.108  14.416  -5.758  1.00 20.00     0.151 A 
HETATM    7  O12 UNL     1     -34.367  13.229  -6.520  1.00 20.00    -0.375 OA
ENDROOT
BRANCH   4   8
HETATM    8  C11 UNL     1     -35.006  16.409  -3.300  1.00 20.00    -0.044 C 
HETATM    9  C8  UNL     1     -35.571  16.745  -1.905  1.00 20.00     0.015 C 
HETATM   10  C9  UNL     1     -33.472  16.552  -3.263  1.00 20.00     0.015 C 
BRANCH   8  11
HETATM   11  C10 UNL     1     -35.619  17.345  -4.380  1.00 20.00     0.004 C 
HETATM   12  C7  UNL     1     -34.633  18.027  -5.320  1.00 20.00     0.006 C 
ENDBRANCH   8  11
ENDBRANCH   4   8
TORSDOF 2
ENDMDL
MODEL 7
REMARK VINA RESULT:      -4.2      1.654      2.793
REMARK  2 active torsions:
REMARK  status: ('A' for Active; 'I' for Inactive)
REMARK    1  A    between atoms: C4_4  and  C11_11 
REMARK    2  A    between atoms: C10_10  and  C11_11 
ROOT
HETATM    1  C1  UNL     1     -35.697  16.382  -6.392  1.00 20.00     0.008 C 
HETATM    2  C2  UNL     1     -36.811  15.420  -6.810  1.00 20.00     0.035 C 
HETATM    3  C3  UNL     1     -36.549  15.755  -4.017  1.00 20.00     0.040 C 
HETATM    4  C4  UNL     1     -35.669  16.691  -4.872  1.00 20.00    -0.004 C 
HETATM    5  C5  UNL     1     -36.697  14.164  -6.009  1.00 20.00     0.151 A 
HETATM    6  C6  UNL     1     -36.528  14.350  -4.531  1.00 20.00     0.151 A 
HETATM    7  O12 UNL     1     -37.765  13.898  -5.097  1.00 20.00    -0.375 OA
ENDROOT
BRANCH   4   8
HETATM    8  C11 UNL     1     -34.224  16.692  -4.363  1.00 20.00    -0.044 C 
HETATM    9  C8  UNL     1     -33.639  18.111  -4.519  1.00 20.00     0.015 C 
HETATM   10  C9  UNL     1     -34.217  16.313  -2.869  1.00 20.00     0.015 C 
BRANCH   8  11
HETATM   11  C10 UNL     1     -33.403  15.666  -5.195  1.00 20.00     0.004 C 
HETATM   12  C7  UNL     1     -32.906  14.436  -4.446  1.00 20.00     0.006 C 
ENDBRANCH   8  11
ENDBRANCH   4   8
TORSDOF 2
ENDMDL
MODEL 8
REMARK VINA RESULT:      -4.1      1.408      2.263
REMARK  2 active torsions:
REMARK  status: ('A' for Active; 'I' for Inactive)
REMARK    1  A    between atoms: C4_4  and  C11_11 
REMARK    2  A    between atoms: C10_10  and  C11_11 
ROOT
HETATM    1  C1  UNL     1     -33.205  15.823  -4.835  1.00 20.00     0.008 C 
HETATM    2  C2  UNL     1     -33.718  14.420  -5.170  1.00 20.00     0.035 C 
HETATM    3  C3  UNL     1     -35.726  16.405  -5.082  1.00 20.00     0.040 C 
HETATM    4  C4  UNL     1     -34.282  16.932  -4.954  1.00 20.00    -0.004 C 
HETATM    5  C5  UNL     1     -34.900  14.115  -4.310  1.00 20.00     0.151 A 
HETATM    6  C6  UNL     1     -35.949  15.185  -4.244  1.00 20.00     0.151 A 
HETATM    7  O12 UNL     1     -36.153  13.975  -4.985  1.00 20.00    -0.375 OA
ENDROOT
BRANCH   4   8
HETATM    8  C11 UNL     1     -34.162  17.908  -3.779  1.00 20.00    -0.044 C 
HETATM    9  C8  UNL     1     -33.198  19.046  -4.169  1.00 20.00     0.015 C 
HETATM   10  C9  UNL     1     -35.550  18.512  -3.485  1.00 20.00     0.015 C 
BRANCH   8  11
HETATM   11  C10 UNL     1     -33.626  17.134  -2.542  1.00 20.00     0.004 C 
HETATM   12  C7  UNL     1     -34.534  17.104  -1.319  1.00 20.00     0.006 C 
ENDBRANCH   8  11
ENDBRANCH   4   8
TORSDOF 2
ENDMDL
MODEL 9
REMARK VINA RESULT:      -4.1      2.934      5.257
REMARK  2 active torsions:
REMARK  status: ('A' for Active; 'I' for Inactive)
REMARK    1  A    between atoms: C4_4  and  C11_11 
REMARK    2  A    between atoms: C10_10  and  C11_11 
ROOT
HETATM    1  C1  UNL     1     -33.138  17.368  -2.088  1.00 20.00     0.008 C 
HETATM    2  C2  UNL     1     -33.135  18.441  -0.997  1.00 20.00     0.035 C 
HETATM    3  C3  UNL     1     -35.555  16.998  -1.205  1.00 20.00     0.040 C 
HETATM    4  C4  UNL     1     -34.403  16.470  -2.085  1.00 20.00    -0.004 C 
HETATM    5  C5  UNL     1     -34.377  19.262  -1.118  1.00 20.00     0.151 A 
HETATM    6  C6  UNL     1     -35.655  18.490  -1.258  1.00 20.00     0.151 A 
HETATM    7  O12 UNL     1     -35.309  19.160  -0.038  1.00 20.00    -0.375 OA
ENDROOT
BRANCH   4   8
HETATM    8  C11 UNL     1     -34.881  16.231  -3.521  1.00 20.00    -0.044 C 
HETATM    9  C8  UNL     1     -36.422  16.176  -3.534  1.00 20.00     0.015 C 
HETATM   10  C9  UNL     1     -34.419  17.406  -4.406  1.00 20.00     0.015 C 
BRANCH   8  11
HETATM   11  C10 UNL     1     -34.279  14.891  -4.029  1.00 20.00     0.004 C 
HETATM   12  C7  UNL     1     -33.852  14.854  -5.491  1.00 20.00     0.006 C 
ENDBRANCH   8  11
ENDBRANCH   4   8
TORSDOF 2
ENDMDL
