MODEL 1
REMARK VINA RESULT:      -5.2      0.000      0.000
REMARK  2 active torsions:
REMARK  status: ('A' for Active; 'I' for Inactive)
REMARK    1  A    between atoms: C3_3  and  C5_5 
REMARK    2  A    between atoms: C4_4  and  C8_8 
ROOT
HETATM    1  C1  UNL     1     -33.622   7.138   4.950  1.00 20.00     0.023 A 
HETATM    2  C2  UNL     1     -32.867   8.076   4.191  1.00 20.00     0.016 A 
HETATM    3  C3  UNL     1     -33.997   6.046   4.198  1.00 20.00     0.043 A 
HETATM    4  C4  UNL     1     -32.693   7.666   2.887  1.00 20.00    -0.013 A 
HETATM    5  S10 UNL     1     -33.439   6.155   2.583  1.00 20.00    -0.091 SA
ENDROOT
BRANCH   4   6
HETATM    6  C8  UNL     1     -31.924   8.463   1.828  1.00 20.00     0.026 A 
HETATM    7  C6  UNL     1     -32.305   9.908   1.584  1.00 20.00     0.010 A 
HETATM    8  C7  UNL     1     -32.642   8.871   0.558  1.00 20.00     0.010 A 
ENDBRANCH   4   6
BRANCH   3   9
HETATM    9  C5  UNL     1     -34.754   4.903   4.595  1.00 20.00     0.277 C 
HETATM   10  O9  UNL     1     -34.410   3.723   4.376  1.00 20.00    -0.301 OA
ENDBRANCH   3   9
TORSDOF 2
ENDMDL
MODEL 2
REMARK VINA RESULT:      -5.2      2.466      4.644
REMARK  2 active torsions:
REMARK  status: ('A' for Active; 'I' for Inactive)
REMARK    1  A    between atoms: C3_3  and  C5_5 
REMARK    2  A    between atoms: C4_4  and  C8_8 
ROOT
HETATM    1  C1  UNL     1     -32.075   8.282   3.843  1.00 20.00     0.023 A 
HETATM    2  C2  UNL     1     -32.963   7.512   4.649  1.00 20.00     0.016 A 
HETATM    3  C3  UNL     1     -32.232   8.015   2.501  1.00 20.00     0.043 A 
HETATM    4  C4  UNL     1     -33.764   6.686   3.892  1.00 20.00    -0.013 A 
HETATM    5  S10 UNL     1     -33.445   6.841   2.216  1.00 20.00    -0.091 SA
ENDROOT
BRANCH   4   6
HETATM    6  C8  UNL     1     -34.818   5.738   4.474  1.00 20.00     0.026 A 
HETATM    7  C6  UNL     1     -34.559   5.100   5.822  1.00 20.00     0.010 A 
HETATM    8  C7  UNL     1     -34.492   4.263   4.582  1.00 20.00     0.010 A 
ENDBRANCH   4   6
BRANCH   3   9
HETATM    9  C5  UNL     1     -31.535   8.577   1.389  1.00 20.00     0.277 C 
HETATM   10  O9  UNL     1     -32.001   9.467   0.647  1.00 20.00    -0.301 OA
ENDBRANCH   3   9
TORSDOF 2
ENDMDL
MODEL 3
REMARK VINA RESULT:      -4.8      1.279      1.576
REMARK  2 active torsions:
REMARK  status: ('A' for Active; 'I' for Inactive)
REMARK    1  A    between atoms: C3_3  and  C5_5 
REMARK    2  A    between atoms: C4_4  and  C8_8 
ROOT
HETATM    1  C1  UNL     1     -33.968   5.781   3.149  1.00 20.00     0.023 A 
HETATM    2  C2  UNL     1     -33.309   6.496   2.109  1.00 20.00     0.016 A 
HETATM    3  C3  UNL     1     -33.845   6.412   4.368  1.00 20.00     0.043 A 
HETATM    4  C4  UNL     1     -32.707   7.645   2.571  1.00 20.00    -0.013 A 
HETATM    5  S10 UNL     1     -32.937   7.859   4.254  1.00 20.00    -0.091 SA
ENDROOT
BRANCH   4   6
HETATM    6  C8  UNL     1     -31.921   8.621   1.689  1.00 20.00     0.026 A 
HETATM    7  C6  UNL     1     -32.432  10.038   1.534  1.00 20.00     0.010 A 
HETATM    8  C7  UNL     1     -32.535   9.084   0.384  1.00 20.00     0.010 A 
ENDBRANCH   4   6
BRANCH   3   9
HETATM    9  C5  UNL     1     -34.361   6.014   5.638  1.00 20.00     0.277 C 
HETATM   10  O9  UNL     1     -34.717   4.849   5.915  1.00 20.00    -0.301 OA
ENDBRANCH   3   9
TORSDOF 2
ENDMDL
MODEL 4
REMARK VINA RESULT:      -4.4     10.981     11.370
REMARK  2 active torsions:
REMARK  status: ('A' for Active; 'I' for Inactive)
REMARK    1  A    between atoms: C3_3  and  C5_5 
REMARK    2  A    between atoms: C4_4  and  C8_8 
ROOT
HETATM    1  C1  UNL     1     -33.943  14.934  -4.225  1.00 20.00     0.023 A 
HETATM    2  C2  UNL     1     -33.744  15.961  -3.258  1.00 20.00     0.016 A 
HETATM    3  C3  UNL     1     -35.274  14.776  -4.546  1.00 20.00     0.043 A 
HETATM    4  C4  UNL     1     -34.930  16.549  -2.876  1.00 20.00    -0.013 A 
HETATM    5  S10 UNL     1     -36.276  15.863  -3.683  1.00 20.00    -0.091 SA
ENDROOT
BRANCH   4   6
HETATM    6  C8  UNL     1     -35.039  17.682  -1.851  1.00 20.00     0.026 A 
HETATM    7  C6  UNL     1     -34.013  17.762  -0.740  1.00 20.00     0.010 A 
HETATM    8  C7  UNL     1     -35.415  17.342  -0.424  1.00 20.00     0.010 A 
ENDBRANCH   4   6
BRANCH   3   9
HETATM    9  C5  UNL     1     -35.870  13.861  -5.463  1.00 20.00     0.277 C 
HETATM   10  O9  UNL     1     -35.914  12.624  -5.291  1.00 20.00    -0.301 OA
ENDBRANCH   3   9
TORSDOF 2
ENDMDL
MODEL 5
REMARK VINA RESULT:      -4.1     11.127     11.925
REMARK  2 active torsions:
REMARK  status: ('A' for Active; 'I' for Inactive)
REMARK    1  A    between atoms: C3_3  and  C5_5 
REMARK    2  A    between atoms: C4_4  and  C8_8 
ROOT
HETATM    1  C1  UNL     1     -33.544  15.479  -6.326  1.00 20.00     0.023 A 
HETATM    2  C2  UNL     1     -33.203  16.270  -5.191  1.00 20.00     0.016 A 
HETATM    3  C3  UNL     1     -34.507  14.538  -6.029  1.00 20.00     0.043 A 
HETATM    4  C4  UNL     1     -33.916  15.904  -4.071  1.00 20.00    -0.013 A 
HETATM    5  S10 UNL     1     -34.993  14.611  -4.390  1.00 20.00    -0.091 SA
ENDROOT
BRANCH   4   6
HETATM    6  C8  UNL     1     -33.768  16.569  -2.699  1.00 20.00     0.026 A 
HETATM    7  C6  UNL     1     -34.989  16.690  -1.812  1.00 20.00     0.010 A 
HETATM    8  C7  UNL     1     -34.425  17.914  -2.465  1.00 20.00     0.010 A 
ENDBRANCH   4   6
BRANCH   3   9
HETATM    9  C5  UNL     1     -35.105  13.569  -6.889  1.00 20.00     0.277 C 
HETATM   10  O9  UNL     1     -35.040  12.335  -6.706  1.00 20.00    -0.301 OA
ENDBRANCH   3   9
TORSDOF 2
ENDMDL
MODEL 6
REMARK VINA RESULT:      -4.1     11.131     11.421
REMARK  2 active torsions:
REMARK  status: ('A' for Active; 'I' for Inactive)
REMARK    1  A    between atoms: C3_3  and  C5_5 
REMARK    2  A    between atoms: C4_4  and  C8_8 
ROOT
HETATM    1  C1  UNL     1     -36.373  15.597  -3.861  1.00 20.00     0.023 A 
HETATM    2  C2  UNL     1     -35.752  16.467  -2.920  1.00 20.00     0.016 A 
HETATM    3  C3  UNL     1     -35.454  14.815  -4.526  1.00 20.00     0.043 A 
HETATM    4  C4  UNL     1     -34.382  16.317  -2.901  1.00 20.00    -0.013 A 
HETATM    5  S10 UNL     1     -33.851  15.131  -4.016  1.00 20.00    -0.091 SA
ENDROOT
BRANCH   4   6
HETATM    6  C8  UNL     1     -33.440  17.115  -1.994  1.00 20.00     0.026 A 
HETATM    7  C6  UNL     1     -34.038  18.004  -0.924  1.00 20.00     0.010 A 
HETATM    8  C7  UNL     1     -33.400  18.623  -2.129  1.00 20.00     0.010 A 
ENDBRANCH   4   6
BRANCH   3   9
HETATM    9  C5  UNL     1     -35.680  13.830  -5.534  1.00 20.00     0.277 C 
HETATM   10  O9  UNL     1     -35.900  12.623  -5.298  1.00 20.00    -0.301 OA
ENDBRANCH   3   9
TORSDOF 2
ENDMDL
MODEL 7
REMARK VINA RESULT:      -4.0     11.139     11.649
REMARK  2 active torsions:
REMARK  status: ('A' for Active; 'I' for Inactive)
REMARK    1  A    between atoms: C3_3  and  C5_5 
REMARK    2  A    between atoms: C4_4  and  C8_8 
ROOT
HETATM    1  C1  UNL     1     -35.184  14.659  -4.503  1.00 20.00     0.023 A 
HETATM    2  C2  UNL     1     -34.072  15.202  -3.799  1.00 20.00     0.016 A 
HETATM    3  C3  UNL     1     -36.359  15.309  -4.196  1.00 20.00     0.043 A 
HETATM    4  C4  UNL     1     -34.438  16.246  -2.979  1.00 20.00    -0.013 A 
HETATM    5  S10 UNL     1     -36.118  16.569  -3.061  1.00 20.00    -0.091 SA
ENDROOT
BRANCH   4   6
HETATM    6  C8  UNL     1     -33.464  17.031  -2.095  1.00 20.00     0.026 A 
HETATM    7  C6  UNL     1     -34.018  18.067  -1.140  1.00 20.00     0.010 A 
HETATM    8  C7  UNL     1     -33.268  18.510  -2.358  1.00 20.00     0.010 A 
ENDBRANCH   4   6
BRANCH   3   9
HETATM    9  C5  UNL     1     -37.674  15.062  -4.690  1.00 20.00     0.277 C 
HETATM   10  O9  UNL     1     -38.133  13.923  -4.923  1.00 20.00    -0.301 OA
ENDBRANCH   3   9
TORSDOF 2
ENDMDL
MODEL 8
REMARK VINA RESULT:      -3.8     11.269     11.643
REMARK  2 active torsions:
REMARK  status: ('A' for Active; 'I' for Inactive)
REMARK    1  A    between atoms: C3_3  and  C5_5 
REMARK    2  A    between atoms: C4_4  and  C8_8 
ROOT
HETATM    1  C1  UNL     1     -35.257  17.375  -0.404  1.00 20.00     0.023 A 
HETATM    2  C2  UNL     1     -35.416  16.708  -1.652  1.00 20.00     0.016 A 
HETATM    3  C3  UNL     1     -34.038  18.010  -0.308  1.00 20.00     0.043 A 
HETATM    4  C4  UNL     1     -34.312  16.857  -2.463  1.00 20.00    -0.013 A 
HETATM    5  S10 UNL     1     -33.091  17.800  -1.718  1.00 20.00    -0.091 SA
ENDROOT
BRANCH   4   6
HETATM    6  C8  UNL     1     -34.184  16.253  -3.865  1.00 20.00     0.026 A 
HETATM    7  C6  UNL     1     -34.824  14.910  -4.142  1.00 20.00     0.010 A 
HETATM    8  C7  UNL     1     -33.333  15.014  -4.052  1.00 20.00     0.010 A 
ENDBRANCH   4   6
BRANCH   3   9
HETATM    9  C5  UNL     1     -33.512  18.777   0.774  1.00 20.00     0.277 C 
HETATM   10  O9  UNL     1     -32.318  18.746   1.139  1.00 20.00    -0.301 OA
ENDBRANCH   3   9
TORSDOF 2
ENDMDL
MODEL 9
REMARK VINA RESULT:      -3.8     11.407     11.847
REMARK  2 active torsions:
REMARK  status: ('A' for Active; 'I' for Inactive)
REMARK    1  A    between atoms: C3_3  and  C5_5 
REMARK    2  A    between atoms: C4_4  and  C8_8 
ROOT
HETATM    1  C1  UNL     1     -31.461  18.863   1.499  1.00 20.00     0.023 A 
HETATM    2  C2  UNL     1     -31.905  18.643   0.163  1.00 20.00     0.016 A 
HETATM    3  C3  UNL     1     -32.504  18.855   2.399  1.00 20.00     0.043 A 
HETATM    4  C4  UNL     1     -33.271  18.475   0.093  1.00 20.00    -0.013 A 
HETATM    5  S10 UNL     1     -34.012  18.583   1.634  1.00 20.00    -0.091 SA
ENDROOT
BRANCH   4   6
HETATM    6  C8  UNL     1     -34.043  18.222  -1.206  1.00 20.00     0.026 A 
HETATM    7  C6  UNL     1     -35.046  17.089  -1.249  1.00 20.00     0.010 A 
HETATM    8  C7  UNL     1     -33.753  16.961  -1.993  1.00 20.00     0.010 A 
ENDBRANCH   4   6
BRANCH   3   9
HETATM    9  C5  UNL     1     -32.467  19.038   3.814  1.00 20.00     0.277 C 
HETATM   10  O9  UNL     1     -33.114  18.346   4.627  1.00 20.00    -0.301 OA
ENDBRANCH   3   9
TORSDOF 2
ENDMDL
