MODEL 1
REMARK VINA RESULT:      -5.2      0.000      0.000
REMARK  2 active torsions:
REMARK  status: ('A' for Active; 'I' for Inactive)
REMARK    1  A    between atoms: C4_4  and  C11_11 
REMARK    2  A    between atoms: C10_10  and  C11_11 
ROOT
HETATM    1  C1  UNL     1     -33.028   7.385   5.009  1.00 20.00     0.008 C 
HETATM    2  C2  UNL     1     -34.093   6.923   6.005  1.00 20.00     0.035 C 
HETATM    3  C3  UNL     1     -34.020   6.079   3.086  1.00 20.00     0.040 C 
HETATM    4  C4  UNL     1     -33.598   7.470   3.586  1.00 20.00    -0.004 C 
HETATM    5  C5  UNL     1     -34.862   5.732   5.538  1.00 20.00     0.151 A 
HETATM    6  C6  UNL     1     -34.856   5.341   4.085  1.00 20.00     0.151 A 
HETATM    7  O12 UNL     1     -34.078   4.633   5.070  1.00 20.00    -0.375 OA
ENDROOT
BRANCH   4   8
HETATM    8  C11 UNL     1     -32.579   8.091   2.631  1.00 20.00    -0.044 C 
HETATM    9  C8  UNL     1     -31.267   8.353   3.398  1.00 20.00     0.015 C 
HETATM   10  C9  UNL     1     -32.295   7.100   1.485  1.00 20.00     0.015 C 
BRANCH   8  11
HETATM   11  C10 UNL     1     -33.165   9.421   2.076  1.00 20.00     0.004 C 
HETATM   12  C7  UNL     1     -32.517   9.967   0.809  1.00 20.00     0.006 C 
ENDBRANCH   8  11
ENDBRANCH   4   8
TORSDOF 2
ENDMDL
MODEL 2
REMARK VINA RESULT:      -4.7     11.090     11.915
REMARK  2 active torsions:
REMARK  status: ('A' for Active; 'I' for Inactive)
REMARK    1  A    between atoms: C4_4  and  C11_11 
REMARK    2  A    between atoms: C10_10  and  C11_11 
ROOT
HETATM    1  C1  UNL     1     -33.794  15.854  -3.578  1.00 20.00     0.008 C 
HETATM    2  C2  UNL     1     -33.997  14.494  -4.247  1.00 20.00     0.035 C 
HETATM    3  C3  UNL     1     -36.272  16.315  -3.384  1.00 20.00     0.040 C 
HETATM    4  C4  UNL     1     -34.947  16.178  -2.617  1.00 20.00    -0.004 C 
HETATM    5  C5  UNL     1     -35.374  14.301  -4.791  1.00 20.00     0.151 A 
HETATM    6  C6  UNL     1     -36.505  15.180  -4.331  1.00 20.00     0.151 A 
HETATM    7  O12 UNL     1     -35.869  15.362  -5.611  1.00 20.00    -0.375 OA
ENDROOT
BRANCH   4   8
HETATM    8  C11 UNL     1     -34.654  17.454  -1.830  1.00 20.00    -0.044 C 
HETATM    9  C8  UNL     1     -35.297  18.652  -2.557  1.00 20.00     0.015 C 
HETATM   10  C9  UNL     1     -35.279  17.332  -0.425  1.00 20.00     0.015 C 
BRANCH   8  11
HETATM   11  C10 UNL     1     -33.112  17.635  -1.732  1.00 20.00     0.004 C 
HETATM   12  C7  UNL     1     -32.607  18.526  -0.603  1.00 20.00     0.006 C 
ENDBRANCH   8  11
ENDBRANCH   4   8
TORSDOF 2
ENDMDL
MODEL 3
REMARK VINA RESULT:      -4.6     11.040     11.810
REMARK  2 active torsions:
REMARK  status: ('A' for Active; 'I' for Inactive)
REMARK    1  A    between atoms: C4_4  and  C11_11 
REMARK    2  A    between atoms: C10_10  and  C11_11 
ROOT
HETATM    1  C1  UNL     1     -36.070  15.909  -3.289  1.00 20.00     0.008 C 
HETATM    2  C2  UNL     1     -36.372  15.130  -4.569  1.00 20.00     0.035 C 
HETATM    3  C3  UNL     1     -33.565  15.708  -3.560  1.00 20.00     0.040 C 
HETATM    4  C4  UNL     1     -34.746  16.679  -3.408  1.00 20.00    -0.004 C 
HETATM    5  C5  UNL     1     -35.206  14.348  -5.076  1.00 20.00     0.151 A 
HETATM    6  C6  UNL     1     -33.813  14.665  -4.604  1.00 20.00     0.151 A 
HETATM    7  O12 UNL     1     -34.546  13.526  -4.112  1.00 20.00    -0.375 OA
ENDROOT
BRANCH   4   8
HETATM    8  C11 UNL     1     -34.537  17.586  -2.195  1.00 20.00    -0.044 C 
HETATM    9  C8  UNL     1     -35.015  19.009  -2.544  1.00 20.00     0.015 C 
HETATM   10  C9  UNL     1     -35.379  17.053  -1.019  1.00 20.00     0.015 C 
BRANCH   8  11
HETATM   11  C10 UNL     1     -33.025  17.588  -1.832  1.00 20.00     0.004 C 
HETATM   12  C7  UNL     1     -32.605  18.515  -0.697  1.00 20.00     0.006 C 
ENDBRANCH   8  11
ENDBRANCH   4   8
TORSDOF 2
ENDMDL
MODEL 4
REMARK VINA RESULT:      -4.6     11.289     12.100
REMARK  2 active torsions:
REMARK  status: ('A' for Active; 'I' for Inactive)
REMARK    1  A    between atoms: C4_4  and  C11_11 
REMARK    2  A    between atoms: C10_10  and  C11_11 
ROOT
HETATM    1  C1  UNL     1     -33.434  16.746  -4.475  1.00 20.00     0.008 C 
HETATM    2  C2  UNL     1     -33.012  15.577  -5.366  1.00 20.00     0.035 C 
HETATM    3  C3  UNL     1     -35.381  15.491  -3.464  1.00 20.00     0.040 C 
HETATM    4  C4  UNL     1     -34.076  16.248  -3.172  1.00 20.00    -0.004 C 
HETATM    5  C5  UNL     1     -34.071  14.536  -5.516  1.00 20.00     0.151 A 
HETATM    6  C6  UNL     1     -35.221  14.472  -4.548  1.00 20.00     0.151 A 
HETATM    7  O12 UNL     1     -35.368  15.019  -5.873  1.00 20.00    -0.375 OA
ENDROOT
BRANCH   4   8
HETATM    8  C11 UNL     1     -34.338  17.413  -2.218  1.00 20.00    -0.044 C 
HETATM    9  C8  UNL     1     -33.017  17.801  -1.525  1.00 20.00     0.015 C 
HETATM   10  C9  UNL     1     -34.848  18.621  -3.029  1.00 20.00     0.015 C 
BRANCH   8  11
HETATM   11  C10 UNL     1     -35.398  16.968  -1.170  1.00 20.00     0.004 C 
HETATM   12  C7  UNL     1     -35.341  17.664   0.185  1.00 20.00     0.006 C 
ENDBRANCH   8  11
ENDBRANCH   4   8
TORSDOF 2
ENDMDL
MODEL 5
REMARK VINA RESULT:      -4.6     11.040     11.961
REMARK  2 active torsions:
REMARK  status: ('A' for Active; 'I' for Inactive)
REMARK    1  A    between atoms: C4_4  and  C11_11 
REMARK    2  A    between atoms: C10_10  and  C11_11 
ROOT
HETATM    1  C1  UNL     1     -35.592  16.761  -2.154  1.00 20.00     0.008 C 
HETATM    2  C2  UNL     1     -35.428  17.104  -0.673  1.00 20.00     0.035 C 
HETATM    3  C3  UNL     1     -33.221  17.410  -2.739  1.00 20.00     0.040 C 
HETATM    4  C4  UNL     1     -34.266  16.284  -2.764  1.00 20.00    -0.004 C 
HETATM    5  C5  UNL     1     -34.236  17.958  -0.391  1.00 20.00     0.151 A 
HETATM    6  C6  UNL     1     -33.127  18.074  -1.401  1.00 20.00     0.151 A 
HETATM    7  O12 UNL     1     -34.100  19.120  -1.211  1.00 20.00    -0.375 OA
ENDROOT
BRANCH   4   8
HETATM    8  C11 UNL     1     -34.476  15.784  -4.192  1.00 20.00    -0.044 C 
HETATM    9  C8  UNL     1     -35.749  16.436  -4.770  1.00 20.00     0.015 C 
HETATM   10  C9  UNL     1     -33.268  16.205  -5.054  1.00 20.00     0.015 C 
BRANCH   8  11
HETATM   11  C10 UNL     1     -34.617  14.236  -4.162  1.00 20.00     0.004 C 
HETATM   12  C7  UNL     1     -35.752  13.645  -4.990  1.00 20.00     0.006 C 
ENDBRANCH   8  11
ENDBRANCH   4   8
TORSDOF 2
ENDMDL
MODEL 6
REMARK VINA RESULT:      -4.5     11.014     11.957
REMARK  2 active torsions:
REMARK  status: ('A' for Active; 'I' for Inactive)
REMARK    1  A    between atoms: C4_4  and  C11_11 
REMARK    2  A    between atoms: C10_10  and  C11_11 
ROOT
HETATM    1  C1  UNL     1     -35.747  16.919  -1.906  1.00 20.00     0.008 C 
HETATM    2  C2  UNL     1     -35.478  17.304  -0.451  1.00 20.00     0.035 C 
HETATM    3  C3  UNL     1     -33.347  17.269  -2.617  1.00 20.00     0.040 C 
HETATM    4  C4  UNL     1     -34.512  16.269  -2.546  1.00 20.00    -0.004 C 
HETATM    5  C5  UNL     1     -34.187  18.028  -0.259  1.00 20.00     0.151 A 
HETATM    6  C6  UNL     1     -33.118  17.974  -1.317  1.00 20.00     0.151 A 
HETATM    7  O12 UNL     1     -33.959  19.131  -1.138  1.00 20.00    -0.375 OA
ENDROOT
BRANCH   4   8
HETATM    8  C11 UNL     1     -34.842  15.736  -3.940  1.00 20.00    -0.044 C 
HETATM    9  C8  UNL     1     -34.255  14.318  -4.087  1.00 20.00     0.015 C 
HETATM   10  C9  UNL     1     -36.373  15.660  -4.099  1.00 20.00     0.015 C 
BRANCH   8  11
HETATM   11  C10 UNL     1     -34.227  16.697  -4.998  1.00 20.00     0.004 C 
HETATM   12  C7  UNL     1     -33.444  16.042  -6.130  1.00 20.00     0.006 C 
ENDBRANCH   8  11
ENDBRANCH   4   8
TORSDOF 2
ENDMDL
MODEL 7
REMARK VINA RESULT:      -4.4     11.148     12.114
REMARK  2 active torsions:
REMARK  status: ('A' for Active; 'I' for Inactive)
REMARK    1  A    between atoms: C4_4  and  C11_11 
REMARK    2  A    between atoms: C10_10  and  C11_11 
ROOT
HETATM    1  C1  UNL     1     -36.701  16.100  -3.716  1.00 20.00     0.008 C 
HETATM    2  C2  UNL     1     -38.074  16.152  -4.388  1.00 20.00     0.035 C 
HETATM    3  C3  UNL     1     -35.719  14.561  -5.463  1.00 20.00     0.040 C 
HETATM    4  C4  UNL     1     -35.583  15.916  -4.752  1.00 20.00    -0.004 C 
HETATM    5  C5  UNL     1     -38.285  15.064  -5.389  1.00 20.00     0.151 A 
HETATM    6  C6  UNL     1     -37.111  14.306  -5.949  1.00 20.00     0.151 A 
HETATM    7  O12 UNL     1     -37.975  13.743  -4.942  1.00 20.00    -0.375 OA
ENDROOT
BRANCH   4   8
HETATM    8  C11 UNL     1     -34.209  16.036  -4.093  1.00 20.00    -0.044 C 
HETATM    9  C8  UNL     1     -33.434  14.720  -4.306  1.00 20.00     0.015 C 
HETATM   10  C9  UNL     1     -33.429  17.185  -4.762  1.00 20.00     0.015 C 
BRANCH   8  11
HETATM   11  C10 UNL     1     -34.408  16.317  -2.576  1.00 20.00     0.004 C 
HETATM   12  C7  UNL     1     -33.456  17.325  -1.946  1.00 20.00     0.006 C 
ENDBRANCH   8  11
ENDBRANCH   4   8
TORSDOF 2
ENDMDL
MODEL 8
REMARK VINA RESULT:      -4.3      2.013      4.292
REMARK  2 active torsions:
REMARK  status: ('A' for Active; 'I' for Inactive)
REMARK    1  A    between atoms: C4_4  and  C11_11 
REMARK    2  A    between atoms: C10_10  and  C11_11 
ROOT
HETATM    1  C1  UNL     1     -32.683   7.712   4.452  1.00 20.00     0.008 C 
HETATM    2  C2  UNL     1     -31.439   8.327   3.810  1.00 20.00     0.035 C 
HETATM    3  C3  UNL     1     -33.686   7.016   2.238  1.00 20.00     0.040 C 
HETATM    4  C4  UNL     1     -33.214   6.535   3.619  1.00 20.00    -0.004 C 
HETATM    5  C5  UNL     1     -31.591   8.579   2.346  1.00 20.00     0.151 A 
HETATM    6  C6  UNL     1     -32.681   7.896   1.564  1.00 20.00     0.151 A 
HETATM    7  O12 UNL     1     -32.775   9.279   1.958  1.00 20.00    -0.375 OA
ENDROOT
BRANCH   4   8
HETATM    8  C11 UNL     1     -34.350   5.823   4.352  1.00 20.00    -0.044 C 
HETATM    9  C8  UNL     1     -34.392   6.314   5.812  1.00 20.00     0.015 C 
HETATM   10  C9  UNL     1     -35.687   6.177   3.670  1.00 20.00     0.015 C 
BRANCH   8  11
HETATM   11  C10 UNL     1     -34.093   4.290   4.296  1.00 20.00     0.004 C 
HETATM   12  C7  UNL     1     -33.310   3.780   3.092  1.00 20.00     0.006 C 
ENDBRANCH   8  11
ENDBRANCH   4   8
TORSDOF 2
ENDMDL
MODEL 9
REMARK VINA RESULT:      -4.3     11.022     11.925
REMARK  2 active torsions:
REMARK  status: ('A' for Active; 'I' for Inactive)
REMARK    1  A    between atoms: C4_4  and  C11_11 
REMARK    2  A    between atoms: C10_10  and  C11_11 
ROOT
HETATM    1  C1  UNL     1     -33.548  16.394  -2.785  1.00 20.00     0.008 C 
HETATM    2  C2  UNL     1     -33.484  17.482  -1.713  1.00 20.00     0.035 C 
HETATM    3  C3  UNL     1     -36.039  16.647  -3.132  1.00 20.00     0.040 C 
HETATM    4  C4  UNL     1     -34.658  16.684  -3.806  1.00 20.00    -0.004 C 
HETATM    5  C5  UNL     1     -34.820  17.830  -1.143  1.00 20.00     0.151 A 
HETATM    6  C6  UNL     1     -36.081  17.450  -1.869  1.00 20.00     0.151 A 
HETATM    7  O12 UNL     1     -35.617  16.725  -0.714  1.00 20.00    -0.375 OA
ENDROOT
BRANCH   4   8
HETATM    8  C11 UNL     1     -34.604  15.687  -4.963  1.00 20.00    -0.044 C 
HETATM    9  C8  UNL     1     -35.651  16.089  -6.021  1.00 20.00     0.015 C 
HETATM   10  C9  UNL     1     -33.203  15.740  -5.605  1.00 20.00     0.015 C 
BRANCH   8  11
HETATM   11  C10 UNL     1     -34.901  14.265  -4.408  1.00 20.00     0.004 C 
HETATM   12  C7  UNL     1     -35.924  13.440  -5.180  1.00 20.00     0.006 C 
ENDBRANCH   8  11
ENDBRANCH   4   8
TORSDOF 2
ENDMDL
