MODEL 1
REMARK VINA RESULT:      -4.8      0.000      0.000
REMARK  1 active torsions:
REMARK  status: ('A' for Active; 'I' for Inactive)
REMARK    1  A    between atoms: C2_2  and  C6_6 
REMARK       I    between atoms: C2_2  and  N7_7 
ROOT
HETATM    1  C1  UNL     1     -32.476   7.931   2.413  1.00 20.00     0.166 C 
HETATM    2  C2  UNL     1     -33.265   6.923   4.198  1.00 20.00     0.252 C 
HETATM    3  N7  UNL     1     -32.437   6.973   3.089  1.00 20.00    -0.199 NA
HETATM    4  O8  UNL     1     -33.249   7.716   5.140  1.00 20.00    -0.270 OA
HETATM    5  S9  UNL     1     -32.499   9.216   1.471  1.00 20.00    -0.055 SA
ENDROOT
BRANCH   2   6
HETATM    6  C6  UNL     1     -34.259   5.742   4.163  1.00 20.00     0.032 C 
HETATM    7  C3  UNL     1     -34.542   5.268   5.596  1.00 20.00     0.025 C 
HETATM    8  C4  UNL     1     -35.582   6.186   3.516  1.00 20.00     0.025 C 
HETATM    9  C5  UNL     1     -33.661   4.597   3.334  1.00 20.00     0.025 C 
ENDBRANCH   2   6
TORSDOF 1
ENDMDL
MODEL 2
REMARK VINA RESULT:      -4.1      1.614      1.975
REMARK  1 active torsions:
REMARK  status: ('A' for Active; 'I' for Inactive)
REMARK    1  A    between atoms: C2_2  and  C6_6 
REMARK       I    between atoms: C2_2  and  N7_7 
ROOT
HETATM    1  C1  UNL     1     -32.689   7.759   2.352  1.00 20.00     0.166 C 
HETATM    2  C2  UNL     1     -33.449   5.821   3.052  1.00 20.00     0.252 C 
HETATM    3  N7  UNL     1     -33.605   7.026   2.389  1.00 20.00    -0.199 NA
HETATM    4  O8  UNL     1     -32.629   4.947   2.767  1.00 20.00    -0.270 OA
HETATM    5  S9  UNL     1     -31.467   8.779   2.280  1.00 20.00    -0.055 SA
ENDROOT
BRANCH   2   6
HETATM    6  C6  UNL     1     -34.430   5.645   4.231  1.00 20.00     0.032 C 
HETATM    7  C3  UNL     1     -34.382   4.192   4.725  1.00 20.00     0.025 C 
HETATM    8  C4  UNL     1     -34.032   6.576   5.389  1.00 20.00     0.025 C 
HETATM    9  C5  UNL     1     -35.850   6.003   3.773  1.00 20.00     0.025 C 
ENDBRANCH   2   6
TORSDOF 1
ENDMDL
MODEL 3
REMARK VINA RESULT:      -3.5     11.677     12.472
REMARK  1 active torsions:
REMARK  status: ('A' for Active; 'I' for Inactive)
REMARK    1  A    between atoms: C2_2  and  C6_6 
REMARK       I    between atoms: C2_2  and  N7_7 
ROOT
HETATM    1  C1  UNL     1     -33.762  16.188  -3.314  1.00 20.00     0.166 C 
HETATM    2  C2  UNL     1     -34.140  14.593  -4.776  1.00 20.00     0.252 C 
HETATM    3  N7  UNL     1     -33.367  15.620  -4.262  1.00 20.00    -0.199 NA
HETATM    4  O8  UNL     1     -34.467  13.571  -4.171  1.00 20.00    -0.270 OA
HETATM    5  S9  UNL     1     -34.265  16.982  -2.028  1.00 20.00    -0.055 SA
ENDROOT
BRANCH   2   6
HETATM    6  C6  UNL     1     -34.582  14.836  -6.235  1.00 20.00     0.032 C 
HETATM    7  C3  UNL     1     -35.991  15.445  -6.249  1.00 20.00     0.025 C 
HETATM    8  C4  UNL     1     -33.612  15.813  -6.922  1.00 20.00     0.025 C 
HETATM    9  C5  UNL     1     -34.571  13.506  -7.000  1.00 20.00     0.025 C 
ENDBRANCH   2   6
TORSDOF 1
ENDMDL
MODEL 4
REMARK VINA RESULT:      -3.5     11.671     12.468
REMARK  1 active torsions:
REMARK  status: ('A' for Active; 'I' for Inactive)
REMARK    1  A    between atoms: C2_2  and  C6_6 
REMARK       I    between atoms: C2_2  and  N7_7 
ROOT
HETATM    1  C1  UNL     1     -33.771  16.170  -3.320  1.00 20.00     0.166 C 
HETATM    2  C2  UNL     1     -34.149  14.577  -4.784  1.00 20.00     0.252 C 
HETATM    3  N7  UNL     1     -33.375  15.602  -4.268  1.00 20.00    -0.199 NA
HETATM    4  O8  UNL     1     -34.479  13.555  -4.180  1.00 20.00    -0.270 OA
HETATM    5  S9  UNL     1     -34.274  16.963  -2.033  1.00 20.00    -0.055 SA
ENDROOT
BRANCH   2   6
HETATM    6  C6  UNL     1     -34.589  14.822  -6.243  1.00 20.00     0.032 C 
HETATM    7  C3  UNL     1     -34.591  13.491  -7.008  1.00 20.00     0.025 C 
HETATM    8  C4  UNL     1     -36.008  15.414  -6.272  1.00 20.00     0.025 C 
HETATM    9  C5  UNL     1     -33.623  15.813  -6.907  1.00 20.00     0.025 C 
ENDBRANCH   2   6
TORSDOF 1
ENDMDL
MODEL 5
REMARK VINA RESULT:      -3.5     11.874     12.600
REMARK  1 active torsions:
REMARK  status: ('A' for Active; 'I' for Inactive)
REMARK    1  A    between atoms: C2_2  and  C6_6 
REMARK       I    between atoms: C2_2  and  N7_7 
ROOT
HETATM    1  C1  UNL     1     -37.740  14.920  -4.801  1.00 20.00     0.166 C 
HETATM    2  C2  UNL     1     -35.788  13.946  -5.053  1.00 20.00     0.252 C 
HETATM    3  N7  UNL     1     -36.643  14.815  -4.397  1.00 20.00    -0.199 NA
HETATM    4  O8  UNL     1     -35.964  12.735  -5.191  1.00 20.00    -0.270 OA
HETATM    5  S9  UNL     1     -39.237  15.089  -5.319  1.00 20.00    -0.055 SA
ENDROOT
BRANCH   2   6
HETATM    6  C6  UNL     1     -34.535  14.643  -5.626  1.00 20.00     0.032 C 
HETATM    7  C3  UNL     1     -34.189  14.033  -6.992  1.00 20.00     0.025 C 
HETATM    8  C4  UNL     1     -34.806  16.146  -5.807  1.00 20.00     0.025 C 
HETATM    9  C5  UNL     1     -33.361  14.464  -4.653  1.00 20.00     0.025 C 
ENDBRANCH   2   6
TORSDOF 1
ENDMDL
MODEL 6
REMARK VINA RESULT:      -3.5     11.817     12.579
REMARK  1 active torsions:
REMARK  status: ('A' for Active; 'I' for Inactive)
REMARK    1  A    between atoms: C2_2  and  C6_6 
REMARK       I    between atoms: C2_2  and  N7_7 
ROOT
HETATM    1  C1  UNL     1     -37.770  14.935  -4.777  1.00 20.00     0.166 C 
HETATM    2  C2  UNL     1     -35.789  14.007  -4.980  1.00 20.00     0.252 C 
HETATM    3  N7  UNL     1     -36.691  14.832  -4.328  1.00 20.00    -0.199 NA
HETATM    4  O8  UNL     1     -35.936  12.801  -5.179  1.00 20.00    -0.270 OA
HETATM    5  S9  UNL     1     -39.245  15.100  -5.356  1.00 20.00    -0.055 SA
ENDROOT
BRANCH   2   6
HETATM    6  C6  UNL     1     -34.525  14.751  -5.464  1.00 20.00     0.032 C 
HETATM    7  C3  UNL     1     -34.765  16.266  -5.397  1.00 20.00     0.025 C 
HETATM    8  C4  UNL     1     -33.331  14.397  -4.562  1.00 20.00     0.025 C 
HETATM    9  C5  UNL     1     -34.203  14.328  -6.903  1.00 20.00     0.025 C 
ENDBRANCH   2   6
TORSDOF 1
ENDMDL
MODEL 7
REMARK VINA RESULT:      -3.5     11.551     12.296
REMARK  1 active torsions:
REMARK  status: ('A' for Active; 'I' for Inactive)
REMARK    1  A    between atoms: C2_2  and  C6_6 
REMARK       I    between atoms: C2_2  and  N7_7 
ROOT
HETATM    1  C1  UNL     1     -37.222  15.153  -4.998  1.00 20.00     0.166 C 
HETATM    2  C2  UNL     1     -35.261  14.259  -4.572  1.00 20.00     0.252 C 
HETATM    3  N7  UNL     1     -36.366  15.009  -4.207  1.00 20.00    -0.199 NA
HETATM    4  O8  UNL     1     -35.280  13.078  -4.921  1.00 20.00    -0.270 OA
HETATM    5  S9  UNL     1     -38.404  15.370  -6.044  1.00 20.00    -0.055 SA
ENDROOT
BRANCH   2   6
HETATM    6  C6  UNL     1     -33.939  15.053  -4.504  1.00 20.00     0.032 C 
HETATM    7  C3  UNL     1     -33.723  15.803  -5.827  1.00 20.00     0.025 C 
HETATM    8  C4  UNL     1     -33.998  16.076  -3.357  1.00 20.00     0.025 C 
HETATM    9  C5  UNL     1     -32.775  14.086  -4.247  1.00 20.00     0.025 C 
ENDBRANCH   2   6
TORSDOF 1
ENDMDL
MODEL 8
REMARK VINA RESULT:      -3.4     11.576     12.336
REMARK  1 active torsions:
REMARK  status: ('A' for Active; 'I' for Inactive)
REMARK    1  A    between atoms: C2_2  and  C6_6 
REMARK       I    between atoms: C2_2  and  N7_7 
ROOT
HETATM    1  C1  UNL     1     -37.046  15.373  -5.041  1.00 20.00     0.166 C 
HETATM    2  C2  UNL     1     -35.143  14.434  -4.477  1.00 20.00     0.252 C 
HETATM    3  N7  UNL     1     -36.228  15.251  -4.209  1.00 20.00    -0.199 NA
HETATM    4  O8  UNL     1     -35.198  13.234  -4.745  1.00 20.00    -0.270 OA
HETATM    5  S9  UNL     1     -38.179  15.563  -6.145  1.00 20.00    -0.055 SA
ENDROOT
BRANCH   2   6
HETATM    6  C6  UNL     1     -33.791  15.178  -4.411  1.00 20.00     0.032 C 
HETATM    7  C3  UNL     1     -32.660  14.165  -4.182  1.00 20.00     0.025 C 
HETATM    8  C4  UNL     1     -33.534  15.919  -5.734  1.00 20.00     0.025 C 
HETATM    9  C5  UNL     1     -33.826  16.201  -3.268  1.00 20.00     0.025 C 
ENDBRANCH   2   6
TORSDOF 1
ENDMDL
MODEL 9
REMARK VINA RESULT:      -3.3     11.689     12.241
REMARK  1 active torsions:
REMARK  status: ('A' for Active; 'I' for Inactive)
REMARK    1  A    between atoms: C2_2  and  C6_6 
REMARK       I    between atoms: C2_2  and  N7_7 
ROOT
HETATM    1  C1  UNL     1     -35.233  13.885  -5.568  1.00 20.00     0.166 C 
HETATM    2  C2  UNL     1     -34.112  15.051  -4.082  1.00 20.00     0.252 C 
HETATM    3  N7  UNL     1     -35.173  14.241  -4.452  1.00 20.00    -0.199 NA
HETATM    4  O8  UNL     1     -32.921  14.750  -4.159  1.00 20.00    -0.270 OA
HETATM    5  S9  UNL     1     -35.348  13.381  -7.075  1.00 20.00    -0.055 SA
ENDROOT
BRANCH   2   6
HETATM    6  C6  UNL     1     -34.557  16.425  -3.538  1.00 20.00     0.032 C 
HETATM    7  C3  UNL     1     -36.005  16.333  -3.036  1.00 20.00     0.025 C 
HETATM    8  C4  UNL     1     -33.652  16.846  -2.368  1.00 20.00     0.025 C 
HETATM    9  C5  UNL     1     -34.448  17.475  -4.652  1.00 20.00     0.025 C 
ENDBRANCH   2   6
TORSDOF 1
ENDMDL
