MODEL 1
REMARK VINA RESULT:      -5.1      0.000      0.000
REMARK  0 active torsions:
REMARK  status: ('A' for Active; 'I' for Inactive)
ROOT
HETATM    1  C1  UNL     1     -31.898   8.176   2.796  1.00 20.00    -0.027 C 
HETATM    2  C2  UNL     1     -33.657   4.110   3.784  1.00 20.00    -0.027 C 
HETATM    3  C3  UNL     1     -31.966   8.120   4.133  1.00 20.00    -0.001 C 
HETATM    4  C4  UNL     1     -34.619   4.535   4.613  1.00 20.00    -0.001 C 
HETATM    5  C5  UNL     1     -32.872   7.440   1.925  1.00 20.00     0.063 C 
HETATM    6  C6  UNL     1     -32.966   5.043   2.832  1.00 20.00     0.063 C 
HETATM    7  C7  UNL     1     -33.031   7.338   4.849  1.00 20.00     0.300 C 
HETATM    8  C8  UNL     1     -35.049   5.975   4.671  1.00 20.00     0.300 C 
HETATM    9  C9  UNL     1     -33.711   6.391   2.687  1.00 20.00     0.230 C 
HETATM   10  N10 UNL     1     -34.156   6.928   3.988  1.00 20.00     0.100 N 
ENDROOT
TORSDOF 0
ENDMDL
MODEL 2
REMARK VINA RESULT:      -5.0      0.683      3.706
REMARK  0 active torsions:
REMARK  status: ('A' for Active; 'I' for Inactive)
ROOT
HETATM    1  C1  UNL     1     -34.595   4.587   5.010  1.00 20.00    -0.027 C 
HETATM    2  C2  UNL     1     -31.902   8.053   3.858  1.00 20.00    -0.027 C 
HETATM    3  C3  UNL     1     -33.774   4.115   4.062  1.00 20.00    -0.001 C 
HETATM    4  C4  UNL     1     -32.076   7.974   2.532  1.00 20.00    -0.001 C 
HETATM    5  C5  UNL     1     -35.005   6.029   5.051  1.00 20.00     0.063 C 
HETATM    6  C6  UNL     1     -32.844   7.390   4.819  1.00 20.00     0.063 C 
HETATM    7  C7  UNL     1     -33.228   4.988   2.968  1.00 20.00     0.300 C 
HETATM    8  C8  UNL     1     -33.204   7.191   1.917  1.00 20.00     0.300 C 
HETATM    9  C9  UNL     1     -34.157   6.938   4.137  1.00 20.00     0.230 C 
HETATM   10  N10 UNL     1     -33.916   6.285   2.835  1.00 20.00     0.100 N 
ENDROOT
TORSDOF 0
ENDMDL
MODEL 3
REMARK VINA RESULT:      -4.1      0.951      3.467
REMARK  0 active torsions:
REMARK  status: ('A' for Active; 'I' for Inactive)
ROOT
HETATM    1  C1  UNL     1     -34.530   5.211   4.402  1.00 20.00    -0.027 C 
HETATM    2  C2  UNL     1     -33.002   8.457   1.623  1.00 20.00    -0.027 C 
HETATM    3  C3  UNL     1     -34.483   6.331   5.136  1.00 20.00    -0.001 C 
HETATM    4  C4  UNL     1     -32.030   8.922   2.418  1.00 20.00    -0.001 C 
HETATM    5  C5  UNL     1     -33.585   4.975   3.262  1.00 20.00     0.063 C 
HETATM    6  C6  UNL     1     -33.630   7.112   1.846  1.00 20.00     0.063 C 
HETATM    7  C7  UNL     1     -33.471   7.412   4.884  1.00 20.00     0.300 C 
HETATM    8  C8  UNL     1     -31.526   8.147   3.605  1.00 20.00     0.300 C 
HETATM    9  C9  UNL     1     -32.813   6.239   2.829  1.00 20.00     0.230 C 
HETATM   10  N10 UNL     1     -32.358   7.000   4.009  1.00 20.00     0.100 N 
ENDROOT
TORSDOF 0
ENDMDL
MODEL 4
REMARK VINA RESULT:      -4.1     11.470     12.353
REMARK  0 active torsions:
REMARK  status: ('A' for Active; 'I' for Inactive)
ROOT
HETATM    1  C1  UNL     1     -34.244  16.635  -2.291  1.00 20.00    -0.027 C 
HETATM    2  C2  UNL     1     -35.895  13.500  -5.128  1.00 20.00    -0.027 C 
HETATM    3  C3  UNL     1     -35.577  16.736  -2.214  1.00 20.00    -0.001 C 
HETATM    4  C4  UNL     1     -36.736  14.299  -5.797  1.00 20.00    -0.001 C 
HETATM    5  C5  UNL     1     -33.558  16.183  -3.546  1.00 20.00     0.063 C 
HETATM    6  C6  UNL     1     -34.776  14.053  -4.293  1.00 20.00     0.063 C 
HETATM    7  C7  UNL     1     -36.474  16.426  -3.380  1.00 20.00     0.300 C 
HETATM    8  C8  UNL     1     -36.638  15.799  -5.733  1.00 20.00     0.300 C 
HETATM    9  C9  UNL     1     -34.516  15.551  -4.579  1.00 20.00     0.230 C 
HETATM   10  N10 UNL     1     -35.767  16.330  -4.670  1.00 20.00     0.100 N 
ENDROOT
TORSDOF 0
ENDMDL
MODEL 5
REMARK VINA RESULT:      -4.1      1.029      2.341
REMARK  0 active torsions:
REMARK  status: ('A' for Active; 'I' for Inactive)
ROOT
HETATM    1  C1  UNL     1     -31.984   9.000   2.326  1.00 20.00    -0.027 C 
HETATM    2  C2  UNL     1     -34.474   6.400   5.090  1.00 20.00    -0.027 C 
HETATM    3  C3  UNL     1     -32.981   8.514   1.574  1.00 20.00    -0.001 C 
HETATM    4  C4  UNL     1     -34.510   5.310   4.314  1.00 20.00    -0.001 C 
HETATM    5  C5  UNL     1     -31.435   8.240   3.496  1.00 20.00     0.063 C 
HETATM    6  C6  UNL     1     -33.465   7.491   4.872  1.00 20.00     0.063 C 
HETATM    7  C7  UNL     1     -33.600   7.170   1.835  1.00 20.00     0.300 C 
HETATM    8  C8  UNL     1     -33.569   5.117   3.156  1.00 20.00     0.300 C 
HETATM    9  C9  UNL     1     -32.320   7.052   3.929  1.00 20.00     0.230 C 
HETATM   10  N10 UNL     1     -32.817   6.317   2.749  1.00 20.00     0.100 N 
ENDROOT
TORSDOF 0
ENDMDL
MODEL 6
REMARK VINA RESULT:      -4.0     11.662     13.152
REMARK  0 active torsions:
REMARK  status: ('A' for Active; 'I' for Inactive)
ROOT
HETATM    1  C1  UNL     1     -35.134  13.101  -7.157  1.00 20.00    -0.027 C 
HETATM    2  C2  UNL     1     -33.564  15.608  -3.715  1.00 20.00    -0.027 C 
HETATM    3  C3  UNL     1     -34.218  13.922  -7.688  1.00 20.00    -0.001 C 
HETATM    4  C4  UNL     1     -33.717  16.807  -4.291  1.00 20.00    -0.001 C 
HETATM    5  C5  UNL     1     -35.943  13.493  -5.956  1.00 20.00     0.063 C 
HETATM    6  C6  UNL     1     -34.268  14.387  -4.232  1.00 20.00     0.063 C 
HETATM    7  C7  UNL     1     -33.954  15.294  -7.135  1.00 20.00     0.300 C 
HETATM    8  C8  UNL     1     -34.575  17.007  -5.510  1.00 20.00     0.300 C 
HETATM    9  C9  UNL     1     -35.399  14.740  -5.227  1.00 20.00     0.230 C 
HETATM   10  N10 UNL     1     -34.989  15.772  -6.199  1.00 20.00     0.100 N 
ENDROOT
TORSDOF 0
ENDMDL
MODEL 7
REMARK VINA RESULT:      -4.0     11.729     12.700
REMARK  0 active torsions:
REMARK  status: ('A' for Active; 'I' for Inactive)
ROOT
HETATM    1  C1  UNL     1     -35.493  14.428  -4.425  1.00 20.00    -0.027 C 
HETATM    2  C2  UNL     1     -34.052  17.420  -1.332  1.00 20.00    -0.027 C 
HETATM    3  C3  UNL     1     -34.156  14.434  -4.515  1.00 20.00    -0.001 C 
HETATM    4  C4  UNL     1     -33.249  18.127  -2.137  1.00 20.00    -0.001 C 
HETATM    5  C5  UNL     1     -36.261  15.644  -4.001  1.00 20.00     0.063 C 
HETATM    6  C6  UNL     1     -35.110  16.506  -1.877  1.00 20.00     0.063 C 
HETATM    7  C7  UNL     1     -33.339  15.660  -4.220  1.00 20.00     0.300 C 
HETATM    8  C8  UNL     1     -33.330  18.030  -3.636  1.00 20.00     0.300 C 
HETATM    9  C9  UNL     1     -35.376  16.747  -3.382  1.00 20.00     0.230 C 
HETATM   10  N10 UNL     1     -34.127  16.905  -4.153  1.00 20.00     0.100 N 
ENDROOT
TORSDOF 0
ENDMDL
MODEL 8
REMARK VINA RESULT:      -3.9     11.519     12.889
REMARK  0 active torsions:
REMARK  status: ('A' for Active; 'I' for Inactive)
ROOT
HETATM    1  C1  UNL     1     -33.747  16.752  -4.198  1.00 20.00    -0.027 C 
HETATM    2  C2  UNL     1     -34.195  13.918  -7.714  1.00 20.00    -0.027 C 
HETATM    3  C3  UNL     1     -33.637  15.517  -3.691  1.00 20.00    -0.001 C 
HETATM    4  C4  UNL     1     -35.131  13.124  -7.178  1.00 20.00    -0.001 C 
HETATM    5  C5  UNL     1     -34.580  17.034  -5.413  1.00 20.00     0.063 C 
HETATM    6  C6  UNL     1     -33.905  15.282  -7.160  1.00 20.00     0.063 C 
HETATM    7  C7  UNL     1     -34.354  14.339  -4.287  1.00 20.00     0.300 C 
HETATM    8  C8  UNL     1     -35.928  13.528  -5.968  1.00 20.00     0.300 C 
HETATM    9  C9  UNL     1     -35.002  15.764  -6.180  1.00 20.00     0.230 C 
HETATM   10  N10 UNL     1     -35.418  14.704  -5.241  1.00 20.00     0.100 N 
ENDROOT
TORSDOF 0
ENDMDL
MODEL 9
REMARK VINA RESULT:      -3.9     11.985     12.698
REMARK  0 active torsions:
REMARK  status: ('A' for Active; 'I' for Inactive)
ROOT
HETATM    1  C1  UNL     1     -34.321  17.201  -1.455  1.00 20.00    -0.027 C 
HETATM    2  C2  UNL     1     -34.136  14.644  -5.199  1.00 20.00    -0.027 C 
HETATM    3  C3  UNL     1     -35.579  16.806  -1.692  1.00 20.00    -0.001 C 
HETATM    4  C4  UNL     1     -35.115  15.257  -5.876  1.00 20.00    -0.001 C 
HETATM    5  C5  UNL     1     -33.332  17.395  -2.565  1.00 20.00     0.063 C 
HETATM    6  C6  UNL     1     -33.470  15.286  -4.017  1.00 20.00     0.063 C 
HETATM    7  C7  UNL     1     -36.091  16.552  -3.082  1.00 20.00     0.300 C 
HETATM    8  C8  UNL     1     -35.636  16.611  -5.480  1.00 20.00     0.300 C 
HETATM    9  C9  UNL     1     -33.791  16.796  -3.912  1.00 20.00     0.230 C 
HETATM   10  N10 UNL     1     -35.220  17.083  -4.148  1.00 20.00     0.100 N 
ENDROOT
TORSDOF 0
ENDMDL
