MODEL 1
REMARK VINA RESULT:      -5.2      0.000      0.000
REMARK  0 active torsions:
REMARK  status: ('A' for Active; 'I' for Inactive)
ROOT
HETATM    1  C1  UNL     1     -31.833   8.200   3.238  1.00 20.00    -0.026 C 
HETATM    2  C2  UNL     1     -33.457   4.147   3.583  1.00 20.00    -0.027 C 
HETATM    3  C3  UNL     1     -32.183   8.080   4.522  1.00 20.00    -0.001 C 
HETATM    4  C4  UNL     1     -33.011   5.054   2.702  1.00 20.00     0.005 C 
HETATM    5  C5  UNL     1     -34.560   4.454   4.554  1.00 20.00     0.057 C 
HETATM    6  C6  UNL     1     -32.586   7.511   2.145  1.00 20.00     0.066 C 
HETATM    7  C7  UNL     1     -33.355   7.253   4.957  1.00 20.00     0.300 C 
HETATM    8  C8  UNL     1     -35.220   5.825   4.317  1.00 20.00     0.277 C 
HETATM    9  C9  UNL     1     -33.597   6.447   2.631  1.00 20.00     0.249 C 
HETATM   10  N10 UNL     1     -34.279   6.869   3.875  1.00 20.00     0.100 N 
ENDROOT
TORSDOF 0
ENDMDL
MODEL 2
REMARK VINA RESULT:      -5.1      0.768      3.662
REMARK  0 active torsions:
REMARK  status: ('A' for Active; 'I' for Inactive)
ROOT
HETATM    1  C1  UNL     1     -34.456   4.501   5.086  1.00 20.00    -0.026 C 
HETATM    2  C2  UNL     1     -31.993   7.992   4.123  1.00 20.00    -0.027 C 
HETATM    3  C3  UNL     1     -33.778   4.150   3.990  1.00 20.00    -0.001 C 
HETATM    4  C4  UNL     1     -32.969   7.557   4.933  1.00 20.00     0.005 C 
HETATM    5  C5  UNL     1     -32.100   7.908   2.628  1.00 20.00     0.057 C 
HETATM    6  C6  UNL     1     -34.883   5.913   5.333  1.00 20.00     0.066 C 
HETATM    7  C7  UNL     1     -33.403   5.140   2.930  1.00 20.00     0.300 C 
HETATM    8  C8  UNL     1     -33.484   7.441   2.139  1.00 20.00     0.277 C 
HETATM    9  C9  UNL     1     -34.244   6.955   4.385  1.00 20.00     0.249 C 
HETATM   10  N10 UNL     1     -34.111   6.430   3.008  1.00 20.00     0.100 N 
ENDROOT
TORSDOF 0
ENDMDL
MODEL 3
REMARK VINA RESULT:      -4.2     11.699     12.644
REMARK  0 active torsions:
REMARK  status: ('A' for Active; 'I' for Inactive)
ROOT
HETATM    1  C1  UNL     1     -35.408  14.321  -4.468  1.00 20.00    -0.026 C 
HETATM    2  C2  UNL     1     -34.409  17.135  -1.264  1.00 20.00    -0.027 C 
HETATM    3  C3  UNL     1     -34.074  14.379  -4.467  1.00 20.00    -0.001 C 
HETATM    4  C4  UNL     1     -35.433  16.619  -1.959  1.00 20.00     0.005 C 
HETATM    5  C5  UNL     1     -33.243  17.799  -1.935  1.00 20.00     0.057 C 
HETATM    6  C6  UNL     1     -36.252  15.502  -4.106  1.00 20.00     0.066 C 
HETATM    7  C7  UNL     1     -33.328  15.630  -4.111  1.00 20.00     0.300 C 
HETATM    8  C8  UNL     1     -33.428  17.972  -3.454  1.00 20.00     0.277 C 
HETATM    9  C9  UNL     1     -35.475  16.678  -3.471  1.00 20.00     0.249 C 
HETATM   10  N10 UNL     1     -34.145  16.856  -4.096  1.00 20.00     0.100 N 
ENDROOT
TORSDOF 0
ENDMDL
MODEL 4
REMARK VINA RESULT:      -4.0     11.641     12.346
REMARK  0 active torsions:
REMARK  status: ('A' for Active; 'I' for Inactive)
ROOT
HETATM    1  C1  UNL     1     -34.307  16.629  -2.270  1.00 20.00    -0.026 C 
HETATM    2  C2  UNL     1     -35.780  13.496  -4.954  1.00 20.00    -0.027 C 
HETATM    3  C3  UNL     1     -35.638  16.749  -2.239  1.00 20.00    -0.001 C 
HETATM    4  C4  UNL     1     -34.665  14.102  -4.520  1.00 20.00     0.005 C 
HETATM    5  C5  UNL     1     -36.924  14.263  -5.550  1.00 20.00     0.057 C 
HETATM    6  C6  UNL     1     -33.582  16.179  -3.499  1.00 20.00     0.066 C 
HETATM    7  C7  UNL     1     -36.496  16.448  -3.430  1.00 20.00     0.300 C 
HETATM    8  C8  UNL     1     -36.615  15.757  -5.762  1.00 20.00     0.277 C 
HETATM    9  C9  UNL     1     -34.492  15.602  -4.609  1.00 20.00     0.249 C 
HETATM   10  N10 UNL     1     -35.769  16.344  -4.708  1.00 20.00     0.100 N 
ENDROOT
TORSDOF 0
ENDMDL
MODEL 5
REMARK VINA RESULT:      -4.0     11.758     13.250
REMARK  0 active torsions:
REMARK  status: ('A' for Active; 'I' for Inactive)
ROOT
HETATM    1  C1  UNL     1     -35.072  13.078  -7.157  1.00 20.00    -0.026 C 
HETATM    2  C2  UNL     1     -33.556  15.506  -3.841  1.00 20.00    -0.027 C 
HETATM    3  C3  UNL     1     -34.247  13.961  -7.727  1.00 20.00    -0.001 C 
HETATM    4  C4  UNL     1     -34.439  14.546  -4.154  1.00 20.00     0.005 C 
HETATM    5  C5  UNL     1     -33.529  16.827  -4.555  1.00 20.00     0.057 C 
HETATM    6  C6  UNL     1     -35.874  13.416  -5.940  1.00 20.00     0.066 C 
HETATM    7  C7  UNL     1     -34.072  15.351  -7.196  1.00 20.00     0.300 C 
HETATM    8  C8  UNL     1     -34.701  17.016  -5.536  1.00 20.00     0.277 C 
HETATM    9  C9  UNL     1     -35.466  14.738  -5.247  1.00 20.00     0.249 C 
HETATM   10  N10 UNL     1     -35.100  15.780  -6.231  1.00 20.00     0.100 N 
ENDROOT
TORSDOF 0
ENDMDL
MODEL 6
REMARK VINA RESULT:      -4.0     11.669     12.330
REMARK  0 active torsions:
REMARK  status: ('A' for Active; 'I' for Inactive)
ROOT
HETATM    1  C1  UNL     1     -34.158  17.346  -1.163  1.00 20.00    -0.026 C 
HETATM    2  C2  UNL     1     -34.415  14.367  -4.363  1.00 20.00    -0.027 C 
HETATM    3  C3  UNL     1     -35.459  17.054  -1.256  1.00 20.00    -0.001 C 
HETATM    4  C4  UNL     1     -33.574  15.206  -3.743  1.00 20.00     0.005 C 
HETATM    5  C5  UNL     1     -35.705  14.836  -4.972  1.00 20.00     0.057 C 
HETATM    6  C6  UNL     1     -33.257  17.329  -2.358  1.00 20.00     0.066 C 
HETATM    7  C7  UNL     1     -36.107  16.695  -2.558  1.00 20.00     0.300 C 
HETATM    8  C8  UNL     1     -35.867  16.367  -4.958  1.00 20.00     0.277 C 
HETATM    9  C9  UNL     1     -33.874  16.684  -3.621  1.00 20.00     0.249 C 
HETATM   10  N10 UNL     1     -35.311  17.012  -3.756  1.00 20.00     0.100 N 
ENDROOT
TORSDOF 0
ENDMDL
MODEL 7
REMARK VINA RESULT:      -4.0      1.098      2.453
REMARK  0 active torsions:
REMARK  status: ('A' for Active; 'I' for Inactive)
ROOT
HETATM    1  C1  UNL     1     -31.979   9.071   2.208  1.00 20.00    -0.026 C 
HETATM    2  C2  UNL     1     -34.349   6.876   5.167  1.00 20.00    -0.027 C 
HETATM    3  C3  UNL     1     -33.009   8.571   1.520  1.00 20.00    -0.001 C 
HETATM    4  C4  UNL     1     -33.195   7.536   4.990  1.00 20.00     0.005 C 
HETATM    5  C5  UNL     1     -34.754   5.728   4.289  1.00 20.00     0.057 C 
HETATM    6  C6  UNL     1     -31.388   8.353   3.380  1.00 20.00     0.066 C 
HETATM    7  C7  UNL     1     -33.640   7.257   1.865  1.00 20.00     0.300 C 
HETATM    8  C8  UNL     1     -33.652   5.293   3.304  1.00 20.00     0.277 C 
HETATM    9  C9  UNL     1     -32.225   7.158   3.892  1.00 20.00     0.249 C 
HETATM   10  N10 UNL     1     -32.850   6.411   2.778  1.00 20.00     0.100 N 
ENDROOT
TORSDOF 0
ENDMDL
MODEL 8
REMARK VINA RESULT:      -3.9     11.542     12.958
REMARK  0 active torsions:
REMARK  status: ('A' for Active; 'I' for Inactive)
ROOT
HETATM    1  C1  UNL     1     -33.602  15.875  -4.192  1.00 20.00    -0.026 C 
HETATM    2  C2  UNL     1     -37.040  14.546  -6.557  1.00 20.00    -0.027 C 
HETATM    3  C3  UNL     1     -33.293  16.192  -5.453  1.00 20.00    -0.001 C 
HETATM    4  C4  UNL     1     -36.511  14.524  -5.326  1.00 20.00     0.005 C 
HETATM    5  C5  UNL     1     -36.283  14.061  -7.760  1.00 20.00     0.057 C 
HETATM    6  C6  UNL     1     -34.425  14.671  -3.858  1.00 20.00     0.066 C 
HETATM    7  C7  UNL     1     -33.743  15.364  -6.618  1.00 20.00     0.300 C 
HETATM    8  C8  UNL     1     -34.939  13.397  -7.409  1.00 20.00     0.277 C 
HETATM    9  C9  UNL     1     -35.113  14.004  -5.072  1.00 20.00     0.249 C 
HETATM   10  N10 UNL     1     -34.245  14.023  -6.270  1.00 20.00     0.100 N 
ENDROOT
TORSDOF 0
ENDMDL
MODEL 9
REMARK VINA RESULT:      -3.9     11.712     12.722
REMARK  0 active torsions:
REMARK  status: ('A' for Active; 'I' for Inactive)
ROOT
HETATM    1  C1  UNL     1     -36.894  14.107  -5.235  1.00 20.00    -0.026 C 
HETATM    2  C2  UNL     1     -35.120  16.661  -2.151  1.00 20.00    -0.027 C 
HETATM    3  C3  UNL     1     -35.695  13.569  -4.993  1.00 20.00    -0.001 C 
HETATM    4  C4  UNL     1     -36.169  16.547  -2.978  1.00 20.00     0.005 C 
HETATM    5  C5  UNL     1     -33.704  16.625  -2.649  1.00 20.00     0.057 C 
HETATM    6  C6  UNL     1     -37.134  15.580  -5.136  1.00 20.00     0.066 C 
HETATM    7  C7  UNL     1     -34.507  14.400  -4.612  1.00 20.00     0.300 C 
HETATM    8  C8  UNL     1     -33.596  16.617  -4.185  1.00 20.00     0.277 C 
HETATM    9  C9  UNL     1     -35.988  16.377  -4.470  1.00 20.00     0.249 C 
HETATM   10  N10 UNL     1     -34.660  15.847  -4.852  1.00 20.00     0.100 N 
ENDROOT
TORSDOF 0
ENDMDL
