MODEL 1
REMARK VINA RESULT:      -5.7      0.000      0.000
REMARK  0 active torsions:
REMARK  status: ('A' for Active; 'I' for Inactive)
ROOT
HETATM    1  C1  UNL     1     -32.922   6.949   2.190  1.00 20.00     0.030 A 
HETATM    2  C2  UNL     1     -32.020   7.989   2.101  1.00 20.00     0.141 A 
HETATM    3  C3  UNL     1     -33.423   6.614   3.443  1.00 20.00    -0.030 A 
HETATM    4  C4  UNL     1     -32.997   7.368   4.534  1.00 20.00     0.063 A 
HETATM    5  C5  UNL     1     -34.443   5.516   3.580  1.00 20.00     0.041 C 
HETATM    6  C6  UNL     1     -33.460   7.063   5.931  1.00 20.00     0.062 C 
HETATM    7  C7  UNL     1     -34.621   5.038   5.021  1.00 20.00     0.005 C 
HETATM    8  C8  UNL     1     -34.738   6.227   5.969  1.00 20.00     0.006 C 
HETATM    9  N9  UNL     1     -31.609   8.694   3.173  1.00 20.00    -0.162 NA
HETATM   10  N10 UNL     1     -32.102   8.377   4.403  1.00 20.00    -0.155 NA
ENDROOT
TORSDOF 0
ENDMDL
MODEL 2
REMARK VINA RESULT:      -5.6      1.095      2.127
REMARK  0 active torsions:
REMARK  status: ('A' for Active; 'I' for Inactive)
ROOT
HETATM    1  C1  UNL     1     -32.058   8.390   4.266  1.00 20.00     0.030 A 
HETATM    2  C2  UNL     1     -31.657   8.618   2.966  1.00 20.00     0.141 A 
HETATM    3  C3  UNL     1     -33.003   7.397   4.502  1.00 20.00    -0.030 A 
HETATM    4  C4  UNL     1     -33.472   6.675   3.408  1.00 20.00     0.063 A 
HETATM    5  C5  UNL     1     -33.435   7.086   5.910  1.00 20.00     0.041 C 
HETATM    6  C6  UNL     1     -34.515   5.604   3.559  1.00 20.00     0.062 C 
HETATM    7  C7  UNL     1     -34.708   6.242   5.975  1.00 20.00     0.005 C 
HETATM    8  C8  UNL     1     -34.632   5.080   4.990  1.00 20.00     0.006 C 
HETATM    9  N9  UNL     1     -32.138   7.917   1.920  1.00 20.00    -0.162 NA
HETATM   10  N10 UNL     1     -33.057   6.938   2.145  1.00 20.00    -0.155 NA
ENDROOT
TORSDOF 0
ENDMDL
MODEL 3
REMARK VINA RESULT:      -5.5      1.955      4.045
REMARK  0 active torsions:
REMARK  status: ('A' for Active; 'I' for Inactive)
ROOT
HETATM    1  C1  UNL     1     -33.829   6.882   5.861  1.00 20.00     0.030 A 
HETATM    2  C2  UNL     1     -34.726   5.834   5.874  1.00 20.00     0.141 A 
HETATM    3  C3  UNL     1     -33.229   7.224   4.653  1.00 20.00    -0.030 A 
HETATM    4  C4  UNL     1     -33.591   6.498   3.521  1.00 20.00     0.063 A 
HETATM    5  C5  UNL     1     -32.279   8.389   4.586  1.00 20.00     0.041 C 
HETATM    6  C6  UNL     1     -32.975   6.774   2.178  1.00 20.00     0.062 C 
HETATM    7  C7  UNL     1     -31.450   8.414   3.302  1.00 20.00     0.005 C 
HETATM    8  C8  UNL     1     -32.335   8.159   2.087  1.00 20.00     0.006 C 
HETATM    9  N9  UNL     1     -35.048   5.134   4.768  1.00 20.00    -0.162 NA
HETATM   10  N10 UNL     1     -34.471   5.470   3.580  1.00 20.00    -0.155 NA
ENDROOT
TORSDOF 0
ENDMDL
MODEL 4
REMARK VINA RESULT:      -5.4      1.607      3.471
REMARK  0 active torsions:
REMARK  status: ('A' for Active; 'I' for Inactive)
ROOT
HETATM    1  C1  UNL     1     -34.463   5.449   3.685  1.00 20.00     0.030 A 
HETATM    2  C2  UNL     1     -34.953   5.201   4.950  1.00 20.00     0.141 A 
HETATM    3  C3  UNL     1     -33.571   6.503   3.516  1.00 20.00    -0.030 A 
HETATM    4  C4  UNL     1     -33.209   7.233   4.645  1.00 20.00     0.063 A 
HETATM    5  C5  UNL     1     -32.978   6.780   2.161  1.00 20.00     0.041 C 
HETATM    6  C6  UNL     1     -32.276   8.408   4.558  1.00 20.00     0.062 C 
HETATM    7  C7  UNL     1     -32.314   8.153   2.065  1.00 20.00     0.005 C 
HETATM    8  C8  UNL     1     -31.432   8.409   3.284  1.00 20.00     0.006 C 
HETATM    9  N9  UNL     1     -34.601   5.932   6.026  1.00 20.00    -0.162 NA
HETATM   10  N10 UNL     1     -33.722   6.961   5.870  1.00 20.00    -0.155 NA
ENDROOT
TORSDOF 0
ENDMDL
MODEL 5
REMARK VINA RESULT:      -4.9     11.484     12.695
REMARK  0 active torsions:
REMARK  status: ('A' for Active; 'I' for Inactive)
ROOT
HETATM    1  C1  UNL     1     -34.284  14.232  -7.326  1.00 20.00     0.030 A 
HETATM    2  C2  UNL     1     -34.982  13.042  -7.325  1.00 20.00     0.141 A 
HETATM    3  C3  UNL     1     -34.164  14.928  -6.127  1.00 20.00    -0.030 A 
HETATM    4  C4  UNL     1     -34.741  14.367  -4.991  1.00 20.00     0.063 A 
HETATM    5  C5  UNL     1     -33.373  16.208  -6.074  1.00 20.00     0.041 C 
HETATM    6  C6  UNL     1     -34.690  15.059  -3.658  1.00 20.00     0.062 C 
HETATM    7  C7  UNL     1     -33.629  17.019  -4.804  1.00 20.00     0.005 C 
HETATM    8  C8  UNL     1     -33.590  16.117  -3.575  1.00 20.00     0.006 C 
HETATM    9  N9  UNL     1     -35.546  12.526  -6.216  1.00 20.00    -0.162 NA
HETATM   10  N10 UNL     1     -35.425  13.199  -5.037  1.00 20.00    -0.155 NA
ENDROOT
TORSDOF 0
ENDMDL
MODEL 6
REMARK VINA RESULT:      -4.7     11.714     12.189
REMARK  0 active torsions:
REMARK  status: ('A' for Active; 'I' for Inactive)
ROOT
HETATM    1  C1  UNL     1     -33.269  18.691   1.324  1.00 20.00     0.030 A 
HETATM    2  C2  UNL     1     -31.927  19.012   1.353  1.00 20.00     0.141 A 
HETATM    3  C3  UNL     1     -33.791  18.139   0.159  1.00 20.00    -0.030 A 
HETATM    4  C4  UNL     1     -32.918  17.922  -0.904  1.00 20.00     0.063 A 
HETATM    5  C5  UNL     1     -35.240  17.734   0.099  1.00 20.00     0.041 C 
HETATM    6  C6  UNL     1     -33.395  17.358  -2.213  1.00 20.00     0.062 C 
HETATM    7  C7  UNL     1     -35.735  17.484  -1.325  1.00 20.00     0.005 C 
HETATM    8  C8  UNL     1     -34.735  16.632  -2.099  1.00 20.00     0.006 C 
HETATM    9  N9  UNL     1     -31.105  18.808   0.306  1.00 20.00    -0.162 NA
HETATM   10  N10 UNL     1     -31.608  18.259  -0.835  1.00 20.00    -0.155 NA
ENDROOT
TORSDOF 0
ENDMDL
MODEL 7
REMARK VINA RESULT:      -4.6     11.828     12.127
REMARK  0 active torsions:
REMARK  status: ('A' for Active; 'I' for Inactive)
ROOT
HETATM    1  C1  UNL     1     -35.118  13.935  -5.087  1.00 20.00     0.030 A 
HETATM    2  C2  UNL     1     -36.381  13.519  -5.451  1.00 20.00     0.141 A 
HETATM    3  C3  UNL     1     -35.002  14.983  -4.180  1.00 20.00    -0.030 A 
HETATM    4  C4  UNL     1     -36.177  15.536  -3.676  1.00 20.00     0.063 A 
HETATM    5  C5  UNL     1     -33.643  15.439  -3.721  1.00 20.00     0.041 C 
HETATM    6  C6  UNL     1     -36.155  16.691  -2.715  1.00 20.00     0.062 C 
HETATM    7  C7  UNL     1     -33.670  16.797  -3.021  1.00 20.00     0.005 C 
HETATM    8  C8  UNL     1     -34.809  16.857  -2.009  1.00 20.00     0.006 C 
HETATM    9  N9  UNL     1     -37.504  14.081  -4.963  1.00 20.00    -0.162 NA
HETATM   10  N10 UNL     1     -37.399  15.103  -4.068  1.00 20.00    -0.155 NA
ENDROOT
TORSDOF 0
ENDMDL
MODEL 8
REMARK VINA RESULT:      -4.5     11.711     12.110
REMARK  0 active torsions:
REMARK  status: ('A' for Active; 'I' for Inactive)
ROOT
HETATM    1  C1  UNL     1     -36.753  14.503  -4.920  1.00 20.00     0.030 A 
HETATM    2  C2  UNL     1     -36.370  13.558  -5.849  1.00 20.00     0.141 A 
HETATM    3  C3  UNL     1     -35.763  15.157  -4.195  1.00 20.00    -0.030 A 
HETATM    4  C4  UNL     1     -34.437  14.832  -4.469  1.00 20.00     0.063 A 
HETATM    5  C5  UNL     1     -36.136  16.226  -3.203  1.00 20.00     0.041 C 
HETATM    6  C6  UNL     1     -33.300  15.463  -3.716  1.00 20.00     0.062 C 
HETATM    7  C7  UNL     1     -34.995  16.588  -2.253  1.00 20.00     0.005 C 
HETATM    8  C8  UNL     1     -33.691  16.768  -3.024  1.00 20.00     0.006 C 
HETATM    9  N9  UNL     1     -35.080  13.248  -6.085  1.00 20.00    -0.162 NA
HETATM   10  N10 UNL     1     -34.104  13.891  -5.385  1.00 20.00    -0.155 NA
ENDROOT
TORSDOF 0
ENDMDL
MODEL 9
REMARK VINA RESULT:      -4.5     11.439     12.514
REMARK  0 active torsions:
REMARK  status: ('A' for Active; 'I' for Inactive)
ROOT
HETATM    1  C1  UNL     1     -37.773  16.124  -4.154  1.00 20.00     0.030 A 
HETATM    2  C2  UNL     1     -38.592  15.161  -4.704  1.00 20.00     0.141 A 
HETATM    3  C3  UNL     1     -36.423  15.830  -3.992  1.00 20.00    -0.030 A 
HETATM    4  C4  UNL     1     -35.976  14.582  -4.419  1.00 20.00     0.063 A 
HETATM    5  C5  UNL     1     -35.485  16.868  -3.437  1.00 20.00     0.041 C 
HETATM    6  C6  UNL     1     -34.542  14.162  -4.259  1.00 20.00     0.062 C 
HETATM    7  C7  UNL     1     -34.141  16.289  -2.996  1.00 20.00     0.005 C 
HETATM    8  C8  UNL     1     -33.591  15.341  -4.057  1.00 20.00     0.006 C 
HETATM    9  N9  UNL     1     -38.140  13.953  -5.095  1.00 20.00    -0.162 NA
HETATM   10  N10 UNL     1     -36.818  13.661  -4.948  1.00 20.00    -0.155 NA
ENDROOT
TORSDOF 0
ENDMDL
