MODEL 1
REMARK VINA RESULT:      -5.1      0.000      0.000
REMARK  0 active torsions:
REMARK  status: ('A' for Active; 'I' for Inactive)
ROOT
HETATM    1  C1  UNL     1     -34.316   4.353   4.406  1.00 20.00     0.066 C 
HETATM    2  C2  UNL     1     -32.538   7.527   2.370  1.00 20.00     0.032 C 
HETATM    3  C3  UNL     1     -33.579   6.419   2.415  1.00 20.00     0.039 C 
HETATM    4  C4  UNL     1     -34.738   6.225   5.957  1.00 20.00     0.051 C 
HETATM    5  C5  UNL     1     -32.198   7.719   3.839  1.00 20.00     0.273 C 
HETATM    6  C6  UNL     1     -33.413   6.966   5.835  1.00 20.00     0.274 C 
HETATM    7  C7  UNL     1     -34.965   5.665   4.551  1.00 20.00     0.128 C 
HETATM    8  C8  UNL     1     -34.380   6.767   3.664  1.00 20.00     0.240 C 
HETATM    9  N9  UNL     1     -33.805   3.317   4.290  1.00 20.00    -0.197 NA
HETATM   10  N10 UNL     1     -33.491   7.590   4.515  1.00 20.00     0.094 N 
ENDROOT
TORSDOF 0
ENDMDL
MODEL 2
REMARK VINA RESULT:      -4.6      1.222      3.756
REMARK  0 active torsions:
REMARK  status: ('A' for Active; 'I' for Inactive)
ROOT
HETATM    1  C1  UNL     1     -32.374   7.696   3.466  1.00 20.00     0.066 C 
HETATM    2  C2  UNL     1     -34.579   5.285   6.056  1.00 20.00     0.032 C 
HETATM    3  C3  UNL     1     -34.299   6.658   5.464  1.00 20.00     0.039 C 
HETATM    4  C4  UNL     1     -33.379   6.081   1.894  1.00 20.00     0.051 C 
HETATM    5  C5  UNL     1     -33.956   4.351   5.031  1.00 20.00     0.273 C 
HETATM    6  C6  UNL     1     -33.262   4.808   2.721  1.00 20.00     0.274 C 
HETATM    7  C7  UNL     1     -33.641   7.164   2.941  1.00 20.00     0.128 C 
HETATM    8  C8  UNL     1     -34.496   6.420   3.971  1.00 20.00     0.240 C 
HETATM    9  N9  UNL     1     -31.375   8.116   3.881  1.00 20.00    -0.197 NA
HETATM   10  N10 UNL     1     -34.291   4.972   3.747  1.00 20.00     0.094 N 
ENDROOT
TORSDOF 0
ENDMDL
MODEL 3
REMARK VINA RESULT:      -4.1     12.191     13.236
REMARK  0 active torsions:
REMARK  status: ('A' for Active; 'I' for Inactive)
ROOT
HETATM    1  C1  UNL     1     -36.661  13.821  -5.323  1.00 20.00     0.066 C 
HETATM    2  C2  UNL     1     -33.614  16.292  -3.912  1.00 20.00     0.032 C 
HETATM    3  C3  UNL     1     -34.444  15.024  -3.771  1.00 20.00     0.039 C 
HETATM    4  C4  UNL     1     -35.110  13.826  -7.242  1.00 20.00     0.051 C 
HETATM    5  C5  UNL     1     -33.815  16.656  -5.375  1.00 20.00     0.273 C 
HETATM    6  C6  UNL     1     -34.677  15.286  -7.220  1.00 20.00     0.274 C 
HETATM    7  C7  UNL     1     -35.297  13.488  -5.762  1.00 20.00     0.128 C 
HETATM    8  C8  UNL     1     -34.194  14.315  -5.097  1.00 20.00     0.240 C 
HETATM    9  N9  UNL     1     -37.738  14.082  -4.976  1.00 20.00    -0.197 NA
HETATM   10  N10 UNL     1     -33.789  15.362  -6.061  1.00 20.00     0.094 N 
ENDROOT
TORSDOF 0
ENDMDL
MODEL 4
REMARK VINA RESULT:      -4.1     11.963     13.547
REMARK  0 active torsions:
REMARK  status: ('A' for Active; 'I' for Inactive)
ROOT
HETATM    1  C1  UNL     1     -35.442  13.818  -4.786  1.00 20.00     0.066 C 
HETATM    2  C2  UNL     1     -35.749  17.399  -6.898  1.00 20.00     0.032 C 
HETATM    3  C3  UNL     1     -36.303  16.443  -5.853  1.00 20.00     0.039 C 
HETATM    4  C4  UNL     1     -33.346  14.948  -4.137  1.00 20.00     0.051 C 
HETATM    5  C5  UNL     1     -34.294  16.969  -6.999  1.00 20.00     0.273 C 
HETATM    6  C6  UNL     1     -32.968  15.578  -5.471  1.00 20.00     0.274 C 
HETATM    7  C7  UNL     1     -34.875  15.009  -4.135  1.00 20.00     0.128 C 
HETATM    8  C8  UNL     1     -35.149  16.327  -4.865  1.00 20.00     0.240 C 
HETATM    9  N9  UNL     1     -35.890  12.878  -5.299  1.00 20.00    -0.197 NA
HETATM   10  N10 UNL     1     -33.921  16.678  -5.613  1.00 20.00     0.094 N 
ENDROOT
TORSDOF 0
ENDMDL
MODEL 5
REMARK VINA RESULT:      -4.0     12.168     13.553
REMARK  0 active torsions:
REMARK  status: ('A' for Active; 'I' for Inactive)
ROOT
HETATM    1  C1  UNL     1     -35.184  13.665  -5.798  1.00 20.00     0.066 C 
HETATM    2  C2  UNL     1     -33.678  16.602  -3.251  1.00 20.00     0.032 C 
HETATM    3  C3  UNL     1     -33.542  15.230  -3.893  1.00 20.00     0.039 C 
HETATM    4  C4  UNL     1     -34.901  15.561  -7.353  1.00 20.00     0.051 C 
HETATM    5  C5  UNL     1     -34.657  17.304  -4.179  1.00 20.00     0.273 C 
HETATM    6  C6  UNL     1     -35.356  16.703  -6.454  1.00 20.00     0.274 C 
HETATM    7  C7  UNL     1     -34.210  14.599  -6.385  1.00 20.00     0.128 C 
HETATM    8  C8  UNL     1     -33.562  15.557  -5.381  1.00 20.00     0.240 C 
HETATM    9  N9  UNL     1     -35.952  12.928  -5.336  1.00 20.00    -0.197 NA
HETATM   10  N10 UNL     1     -34.248  16.861  -5.514  1.00 20.00     0.094 N 
ENDROOT
TORSDOF 0
ENDMDL
MODEL 6
REMARK VINA RESULT:      -4.0     12.391     13.641
REMARK  0 active torsions:
REMARK  status: ('A' for Active; 'I' for Inactive)
ROOT
HETATM    1  C1  UNL     1     -35.955  14.170  -6.406  1.00 20.00     0.066 C 
HETATM    2  C2  UNL     1     -33.747  16.096  -3.440  1.00 20.00     0.032 C 
HETATM    3  C3  UNL     1     -34.427  14.838  -3.958  1.00 20.00     0.039 C 
HETATM    4  C4  UNL     1     -33.935  14.837  -7.657  1.00 20.00     0.051 C 
HETATM    5  C5  UNL     1     -33.567  16.918  -4.707  1.00 20.00     0.273 C 
HETATM    6  C6  UNL     1     -33.702  16.216  -7.055  1.00 20.00     0.274 C 
HETATM    7  C7  UNL     1     -34.493  14.027  -6.485  1.00 20.00     0.128 C 
HETATM    8  C8  UNL     1     -33.729  14.610  -5.293  1.00 20.00     0.240 C 
HETATM    9  N9  UNL     1     -37.109  14.282  -6.343  1.00 20.00    -0.197 NA
HETATM   10  N10 UNL     1     -33.194  15.924  -5.716  1.00 20.00     0.094 N 
ENDROOT
TORSDOF 0
ENDMDL
MODEL 7
REMARK VINA RESULT:      -3.9     12.370     13.373
REMARK  0 active torsions:
REMARK  status: ('A' for Active; 'I' for Inactive)
ROOT
HETATM    1  C1  UNL     1     -33.268  18.088  -2.780  1.00 20.00     0.066 C 
HETATM    2  C2  UNL     1     -34.272  15.527  -5.913  1.00 20.00     0.032 C 
HETATM    3  C3  UNL     1     -33.241  16.037  -4.918  1.00 20.00     0.039 C 
HETATM    4  C4  UNL     1     -35.111  16.789  -1.777  1.00 20.00     0.051 C 
HETATM    5  C5  UNL     1     -35.584  15.958  -5.278  1.00 20.00     0.273 C 
HETATM    6  C6  UNL     1     -36.041  16.689  -2.979  1.00 20.00     0.274 C 
HETATM    7  C7  UNL     1     -33.715  16.739  -2.401  1.00 20.00     0.128 C 
HETATM    8  C8  UNL     1     -33.919  15.780  -3.577  1.00 20.00     0.240 C 
HETATM    9  N9  UNL     1     -32.914  19.152  -3.079  1.00 20.00    -0.197 NA
HETATM   10  N10 UNL     1     -35.373  15.721  -3.848  1.00 20.00     0.094 N 
ENDROOT
TORSDOF 0
ENDMDL
MODEL 8
REMARK VINA RESULT:      -3.9     12.238     13.102
REMARK  0 active torsions:
REMARK  status: ('A' for Active; 'I' for Inactive)
ROOT
HETATM    1  C1  UNL     1     -36.202  14.495  -4.577  1.00 20.00     0.066 C 
HETATM    2  C2  UNL     1     -33.644  17.455  -3.138  1.00 20.00     0.032 C 
HETATM    3  C3  UNL     1     -34.430  16.174  -2.901  1.00 20.00     0.039 C 
HETATM    4  C4  UNL     1     -34.272  14.251  -6.095  1.00 20.00     0.051 C 
HETATM    5  C5  UNL     1     -33.537  17.500  -4.654  1.00 20.00     0.273 C 
HETATM    6  C6  UNL     1     -33.917  15.718  -6.299  1.00 20.00     0.274 C 
HETATM    7  C7  UNL     1     -34.762  14.202  -4.647  1.00 20.00     0.128 C 
HETATM    8  C8  UNL     1     -33.867  15.239  -3.964  1.00 20.00     0.240 C 
HETATM    9  N9  UNL     1     -37.338  14.725  -4.521  1.00 20.00    -0.197 NA
HETATM   10  N10 UNL     1     -33.306  16.103  -5.027  1.00 20.00     0.094 N 
ENDROOT
TORSDOF 0
ENDMDL
MODEL 9
REMARK VINA RESULT:      -3.9     12.138     13.429
REMARK  0 active torsions:
REMARK  status: ('A' for Active; 'I' for Inactive)
ROOT
HETATM    1  C1  UNL     1     -33.672  16.915  -5.892  1.00 20.00     0.066 C 
HETATM    2  C2  UNL     1     -35.538  13.229  -6.453  1.00 20.00     0.032 C 
HETATM    3  C3  UNL     1     -34.381  14.170  -6.752  1.00 20.00     0.039 C 
HETATM    4  C4  UNL     1     -33.712  16.032  -3.588  1.00 20.00     0.051 C 
HETATM    5  C5  UNL     1     -36.101  13.799  -5.161  1.00 20.00     0.273 C 
HETATM    6  C6  UNL     1     -35.090  15.384  -3.582  1.00 20.00     0.274 C 
HETATM    7  C7  UNL     1     -33.222  15.818  -5.021  1.00 20.00     0.128 C 
HETATM    8  C8  UNL     1     -33.813  14.447  -5.365  1.00 20.00     0.240 C 
HETATM    9  N9  UNL     1     -34.026  17.780  -6.579  1.00 20.00    -0.197 NA
HETATM   10  N10 UNL     1     -34.908  14.188  -4.404  1.00 20.00     0.094 N 
ENDROOT
TORSDOF 0
ENDMDL
