MODEL 1
REMARK VINA RESULT:      -4.9      0.000      0.000
REMARK  0 active torsions:
REMARK  status: ('A' for Active; 'I' for Inactive)
ROOT
HETATM    1  C1  UNL     1     -32.471   8.267   2.135  1.00 20.00     0.101 C 
HETATM    2  C2  UNL     1     -32.943   5.781   1.911  1.00 20.00     0.042 A 
HETATM    3  C3  UNL     1     -33.483   4.827   2.746  1.00 20.00     0.092 A 
HETATM    4  C4  UNL     1     -32.936   7.010   2.617  1.00 20.00     0.068 A 
HETATM    5  C5  UNL     1     -33.475   6.777   3.868  1.00 20.00     0.032 A 
HETATM    6  C6  UNL     1     -33.740   7.701   5.008  1.00 20.00     0.059 C 
HETATM    7  C7  UNL     1     -33.960   6.946   6.319  1.00 20.00     0.008 C 
HETATM    8  C8  UNL     1     -34.917   5.771   6.115  1.00 20.00     0.021 C 
HETATM    9  C9  UNL     1     -34.348   4.783   5.097  1.00 20.00     0.128 C 
HETATM   10  N10 UNL     1     -32.091   9.290   1.741  1.00 20.00    -0.191 NA
HETATM   11  N11 UNL     1     -33.803   5.443   3.925  1.00 20.00    -0.359 N 
ENDROOT
TORSDOF 0
ENDMDL
MODEL 2
REMARK VINA RESULT:      -4.8      1.444      2.488
REMARK  0 active torsions:
REMARK  status: ('A' for Active; 'I' for Inactive)
ROOT
HETATM    1  C1  UNL     1     -31.870   8.282   1.612  1.00 20.00     0.101 C 
HETATM    2  C2  UNL     1     -31.680   8.792   4.093  1.00 20.00     0.042 A 
HETATM    3  C3  UNL     1     -32.295   8.301   5.225  1.00 20.00     0.092 A 
HETATM    4  C4  UNL     1     -32.221   8.100   2.981  1.00 20.00     0.068 A 
HETATM    5  C5  UNL     1     -33.153   7.201   3.461  1.00 20.00     0.032 A 
HETATM    6  C6  UNL     1     -34.002   6.198   2.754  1.00 20.00     0.059 C 
HETATM    7  C7  UNL     1     -35.164   5.716   3.622  1.00 20.00     0.008 C 
HETATM    8  C8  UNL     1     -34.682   5.375   5.034  1.00 20.00     0.021 C 
HETATM    9  C9  UNL     1     -34.075   6.605   5.707  1.00 20.00     0.128 C 
HETATM   10  N10 UNL     1     -31.584   8.431   0.498  1.00 20.00    -0.191 NA
HETATM   11  N11 UNL     1     -33.181   7.338   4.829  1.00 20.00    -0.359 N 
ENDROOT
TORSDOF 0
ENDMDL
MODEL 3
REMARK VINA RESULT:      -4.4     11.668     13.133
REMARK  0 active torsions:
REMARK  status: ('A' for Active; 'I' for Inactive)
ROOT
HETATM    1  C1  UNL     1     -35.391  13.891  -5.366  1.00 20.00     0.101 C 
HETATM    2  C2  UNL     1     -34.355  15.796  -6.689  1.00 20.00     0.042 A 
HETATM    3  C3  UNL     1     -33.800  17.011  -6.350  1.00 20.00     0.092 A 
HETATM    4  C4  UNL     1     -34.771  15.168  -5.489  1.00 20.00     0.068 A 
HETATM    5  C5  UNL     1     -34.459  16.016  -4.444  1.00 20.00     0.032 A 
HETATM    6  C6  UNL     1     -34.638  15.862  -2.971  1.00 20.00     0.059 C 
HETATM    7  C7  UNL     1     -34.529  17.199  -2.237  1.00 20.00     0.008 C 
HETATM    8  C8  UNL     1     -33.318  17.992  -2.731  1.00 20.00     0.021 C 
HETATM    9  C9  UNL     1     -33.440  18.288  -4.225  1.00 20.00     0.128 C 
HETATM   10  N10 UNL     1     -35.896  12.851  -5.267  1.00 20.00    -0.191 NA
HETATM   11  N11 UNL     1     -33.867  17.131  -4.989  1.00 20.00    -0.359 N 
ENDROOT
TORSDOF 0
ENDMDL
MODEL 4
REMARK VINA RESULT:      -4.3     11.849     12.227
REMARK  0 active torsions:
REMARK  status: ('A' for Active; 'I' for Inactive)
ROOT
HETATM    1  C1  UNL     1     -36.802  14.354  -4.793  1.00 20.00     0.101 C 
HETATM    2  C2  UNL     1     -34.264  14.410  -4.865  1.00 20.00     0.042 A 
HETATM    3  C3  UNL     1     -33.300  15.146  -4.209  1.00 20.00     0.092 A 
HETATM    4  C4  UNL     1     -35.527  14.846  -4.393  1.00 20.00     0.068 A 
HETATM    5  C5  UNL     1     -35.304  15.838  -3.458  1.00 20.00     0.032 A 
HETATM    6  C6  UNL     1     -36.254  16.627  -2.621  1.00 20.00     0.059 C 
HETATM    7  C7  UNL     1     -35.601  17.880  -2.038  1.00 20.00     0.008 C 
HETATM    8  C8  UNL     1     -34.230  17.551  -1.444  1.00 20.00     0.021 C 
HETATM    9  C9  UNL     1     -33.297  16.995  -2.519  1.00 20.00     0.128 C 
HETATM   10  N10 UNL     1     -37.841  13.952  -5.121  1.00 20.00    -0.191 NA
HETATM   11  N11 UNL     1     -33.943  16.004  -3.360  1.00 20.00    -0.359 N 
ENDROOT
TORSDOF 0
ENDMDL
MODEL 5
REMARK VINA RESULT:      -4.3     11.875     12.375
REMARK  0 active torsions:
REMARK  status: ('A' for Active; 'I' for Inactive)
ROOT
HETATM    1  C1  UNL     1     -33.727  16.979  -3.200  1.00 20.00     0.101 C 
HETATM    2  C2  UNL     1     -35.519  16.960  -1.400  1.00 20.00     0.042 A 
HETATM    3  C3  UNL     1     -35.569  17.386  -0.090  1.00 20.00     0.092 A 
HETATM    4  C4  UNL     1     -34.219  17.244  -1.891  1.00 20.00     0.068 A 
HETATM    5  C5  UNL     1     -33.507  17.838  -0.867  1.00 20.00     0.032 A 
HETATM    6  C6  UNL     1     -32.114  18.370  -0.823  1.00 20.00     0.059 C 
HETATM    7  C7  UNL     1     -31.618  18.562   0.610  1.00 20.00     0.008 C 
HETATM    8  C8  UNL     1     -32.677  19.263   1.462  1.00 20.00     0.021 C 
HETATM    9  C9  UNL     1     -33.959  18.433   1.518  1.00 20.00     0.128 C 
HETATM   10  N10 UNL     1     -33.326  16.762  -4.268  1.00 20.00    -0.191 NA
HETATM   11  N11 UNL     1     -34.347  17.917   0.219  1.00 20.00    -0.359 N 
ENDROOT
TORSDOF 0
ENDMDL
MODEL 6
REMARK VINA RESULT:      -4.3     11.948     12.484
REMARK  0 active torsions:
REMARK  status: ('A' for Active; 'I' for Inactive)
ROOT
HETATM    1  C1  UNL     1     -35.643  13.279  -6.006  1.00 20.00     0.101 C 
HETATM    2  C2  UNL     1     -37.683  14.479  -5.084  1.00 20.00     0.042 A 
HETATM    3  C3  UNL     1     -37.867  15.526  -4.206  1.00 20.00     0.092 A 
HETATM    4  C4  UNL     1     -36.287  14.260  -5.199  1.00 20.00     0.068 A 
HETATM    5  C5  UNL     1     -35.652  15.180  -4.388  1.00 20.00     0.032 A 
HETATM    6  C6  UNL     1     -34.203  15.433  -4.142  1.00 20.00     0.059 C 
HETATM    7  C7  UNL     1     -33.971  16.262  -2.878  1.00 20.00     0.008 C 
HETATM    8  C8  UNL     1     -34.923  17.459  -2.832  1.00 20.00     0.021 C 
HETATM    9  C9  UNL     1     -36.377  16.991  -2.824  1.00 20.00     0.128 C 
HETATM   10  N10 UNL     1     -35.119  12.480  -6.663  1.00 20.00    -0.191 NA
HETATM   11  N11 UNL     1     -36.631  15.942  -3.795  1.00 20.00    -0.359 N 
ENDROOT
TORSDOF 0
ENDMDL
MODEL 7
REMARK VINA RESULT:      -4.2     11.793     12.250
REMARK  0 active torsions:
REMARK  status: ('A' for Active; 'I' for Inactive)
ROOT
HETATM    1  C1  UNL     1     -35.098  16.661  -2.365  1.00 20.00     0.101 C 
HETATM    2  C2  UNL     1     -32.921  17.834  -1.782  1.00 20.00     0.042 A 
HETATM    3  C3  UNL     1     -32.446  18.474  -0.658  1.00 20.00     0.092 A 
HETATM    4  C4  UNL     1     -34.232  17.381  -1.492  1.00 20.00     0.068 A 
HETATM    5  C5  UNL     1     -34.527  17.756  -0.196  1.00 20.00     0.032 A 
HETATM    6  C6  UNL     1     -35.740  17.522   0.640  1.00 20.00     0.059 C 
HETATM    7  C7  UNL     1     -35.791  18.455   1.851  1.00 20.00     0.008 C 
HETATM    8  C8  UNL     1     -34.435  18.502   2.557  1.00 20.00     0.021 C 
HETATM    9  C9  UNL     1     -33.353  19.023   1.612  1.00 20.00     0.128 C 
HETATM   10  N10 UNL     1     -35.802  16.075  -3.077  1.00 20.00    -0.191 NA
HETATM   11  N11 UNL     1     -33.426  18.418   0.294  1.00 20.00    -0.359 N 
ENDROOT
TORSDOF 0
ENDMDL
MODEL 8
REMARK VINA RESULT:      -4.1     11.744     12.386
REMARK  0 active torsions:
REMARK  status: ('A' for Active; 'I' for Inactive)
ROOT
HETATM    1  C1  UNL     1     -33.131  17.761  -1.642  1.00 20.00     0.101 C 
HETATM    2  C2  UNL     1     -35.656  17.683  -1.913  1.00 20.00     0.042 A 
HETATM    3  C3  UNL     1     -36.518  16.914  -2.664  1.00 20.00     0.092 A 
HETATM    4  C4  UNL     1     -34.337  17.249  -2.200  1.00 20.00     0.068 A 
HETATM    5  C5  UNL     1     -34.427  16.224  -3.122  1.00 20.00     0.032 A 
HETATM    6  C6  UNL     1     -33.371  15.380  -3.754  1.00 20.00     0.059 C 
HETATM    7  C7  UNL     1     -33.884  14.659  -5.001  1.00 20.00     0.008 C 
HETATM    8  C8  UNL     1     -35.246  14.017  -4.735  1.00 20.00     0.021 C 
HETATM    9  C9  UNL     1     -36.276  15.079  -4.353  1.00 20.00     0.128 C 
HETATM   10  N10 UNL     1     -32.149  18.180  -1.187  1.00 20.00    -0.191 NA
HETATM   11  N11 UNL     1     -35.762  16.034  -3.389  1.00 20.00    -0.359 N 
ENDROOT
TORSDOF 0
ENDMDL
MODEL 9
REMARK VINA RESULT:      -4.1     11.353     12.210
REMARK  0 active torsions:
REMARK  status: ('A' for Active; 'I' for Inactive)
ROOT
HETATM    1  C1  UNL     1     -33.613  14.540  -4.088  1.00 20.00     0.101 C 
HETATM    2  C2  UNL     1     -36.052  15.195  -4.358  1.00 20.00     0.042 A 
HETATM    3  C3  UNL     1     -36.863  16.142  -3.770  1.00 20.00     0.092 A 
HETATM    4  C4  UNL     1     -34.765  15.316  -3.775  1.00 20.00     0.068 A 
HETATM    5  C5  UNL     1     -34.822  16.336  -2.845  1.00 20.00     0.032 A 
HETATM    6  C6  UNL     1     -33.768  16.916  -1.963  1.00 20.00     0.059 C 
HETATM    7  C7  UNL     1     -34.365  17.738  -0.821  1.00 20.00     0.008 C 
HETATM    8  C8  UNL     1     -35.458  18.674  -1.339  1.00 20.00     0.021 C 
HETATM    9  C9  UNL     1     -36.591  17.876  -1.982  1.00 20.00     0.128 C 
HETATM   10  N10 UNL     1     -32.674  13.907  -4.344  1.00 20.00    -0.191 NA
HETATM   11  N11 UNL     1     -36.106  16.826  -2.859  1.00 20.00    -0.359 N 
ENDROOT
TORSDOF 0
ENDMDL
