MODEL 1
REMARK VINA RESULT:      -5.0      0.000      0.000
REMARK  1 active torsions:
REMARK  status: ('A' for Active; 'I' for Inactive)
REMARK    1  A    between atoms: C3_3  and  C5_5 
ROOT
HETATM    1  C1  UNL     1     -31.652   8.718   3.812  1.00 20.00     0.034 A 
HETATM    2  C2  UNL     1     -32.202   8.354   5.021  1.00 20.00     0.092 A 
HETATM    3  C3  UNL     1     -32.276   7.937   2.808  1.00 20.00     0.025 A 
HETATM    4  C4  UNL     1     -33.194   7.113   3.429  1.00 20.00     0.024 A 
HETATM    5  C6  UNL     1     -34.107   6.071   2.876  1.00 20.00     0.058 C 
HETATM    6  C7  UNL     1     -35.220   5.704   3.858  1.00 20.00     0.008 C 
HETATM    7  C8  UNL     1     -34.657   5.487   5.263  1.00 20.00     0.021 C 
HETATM    8  C9  UNL     1     -33.982   6.759   5.775  1.00 20.00     0.128 C 
HETATM    9  N10 UNL     1     -33.132   7.380   4.776  1.00 20.00    -0.359 N 
ENDROOT
BRANCH   3  10
HETATM   10  C5  UNL     1     -32.020   7.968   1.395  1.00 20.00     0.272 C 
HETATM   11  O11 UNL     1     -31.863   9.016   0.742  1.00 20.00    -0.301 OA
ENDBRANCH   3  10
TORSDOF 1
ENDMDL
MODEL 2
REMARK VINA RESULT:      -4.7      2.242      3.824
REMARK  1 active torsions:
REMARK  status: ('A' for Active; 'I' for Inactive)
REMARK    1  A    between atoms: C3_3  and  C5_5 
ROOT
HETATM    1  C1  UNL     1     -34.148   6.597   6.078  1.00 20.00     0.034 A 
HETATM    2  C2  UNL     1     -33.297   7.669   5.920  1.00 20.00     0.092 A 
HETATM    3  C3  UNL     1     -34.265   5.956   4.820  1.00 20.00     0.025 A 
HETATM    4  C4  UNL     1     -33.483   6.654   3.921  1.00 20.00     0.024 A 
HETATM    5  C6  UNL     1     -33.251   6.452   2.461  1.00 20.00     0.058 C 
HETATM    6  C7  UNL     1     -32.010   7.199   1.969  1.00 20.00     0.008 C 
HETATM    7  C8  UNL     1     -31.989   8.631   2.505  1.00 20.00     0.021 C 
HETATM    8  C9  UNL     1     -31.961   8.634   4.032  1.00 20.00     0.128 C 
HETATM    9  N10 UNL     1     -32.904   7.693   4.609  1.00 20.00    -0.359 N 
ENDROOT
BRANCH   3  10
HETATM   10  C5  UNL     1     -35.051   4.797   4.502  1.00 20.00     0.272 C 
HETATM   11  O11 UNL     1     -34.569   3.668   4.297  1.00 20.00    -0.301 OA
ENDBRANCH   3  10
TORSDOF 1
ENDMDL
MODEL 3
REMARK VINA RESULT:      -4.7      1.228      2.352
REMARK  1 active torsions:
REMARK  status: ('A' for Active; 'I' for Inactive)
REMARK    1  A    between atoms: C3_3  and  C5_5 
ROOT
HETATM    1  C1  UNL     1     -32.894   6.012   1.845  1.00 20.00     0.034 A 
HETATM    2  C2  UNL     1     -33.521   5.042   2.597  1.00 20.00     0.092 A 
HETATM    3  C3  UNL     1     -32.798   7.176   2.646  1.00 20.00     0.025 A 
HETATM    4  C4  UNL     1     -33.370   6.890   3.870  1.00 20.00     0.024 A 
HETATM    5  C6  UNL     1     -33.574   7.741   5.079  1.00 20.00     0.058 C 
HETATM    6  C7  UNL     1     -33.873   6.904   6.324  1.00 20.00     0.008 C 
HETATM    7  C8  UNL     1     -34.920   5.831   6.021  1.00 20.00     0.021 C 
HETATM    8  C9  UNL     1     -34.419   4.885   4.931  1.00 20.00     0.128 C 
HETATM    9  N10 UNL     1     -33.806   5.588   3.819  1.00 20.00    -0.359 N 
ENDROOT
BRANCH   3  10
HETATM   10  C5  UNL     1     -32.223   8.440   2.281  1.00 20.00     0.272 C 
HETATM   11  O11 UNL     1     -31.701   8.670   1.175  1.00 20.00    -0.301 OA
ENDBRANCH   3  10
TORSDOF 1
ENDMDL
MODEL 4
REMARK VINA RESULT:      -4.3     11.329     12.618
REMARK  1 active torsions:
REMARK  status: ('A' for Active; 'I' for Inactive)
REMARK    1  A    between atoms: C3_3  and  C5_5 
ROOT
HETATM    1  C1  UNL     1     -34.227  15.317  -7.710  1.00 20.00     0.034 A 
HETATM    2  C2  UNL     1     -33.649  16.392  -7.069  1.00 20.00     0.092 A 
HETATM    3  C3  UNL     1     -34.837  14.508  -6.721  1.00 20.00     0.025 A 
HETATM    4  C4  UNL     1     -34.616  15.107  -5.496  1.00 20.00     0.024 A 
HETATM    5  C6  UNL     1     -35.000  14.688  -4.117  1.00 20.00     0.058 C 
HETATM    6  C7  UNL     1     -34.908  15.844  -3.119  1.00 20.00     0.008 C 
HETATM    7  C8  UNL     1     -33.596  16.610  -3.294  1.00 20.00     0.021 C 
HETATM    8  C9  UNL     1     -33.500  17.198  -4.701  1.00 20.00     0.128 C 
HETATM    9  N10 UNL     1     -33.891  16.251  -5.729  1.00 20.00    -0.359 N 
ENDROOT
BRANCH   3  10
HETATM   10  C5  UNL     1     -35.553  13.280  -6.920  1.00 20.00     0.272 C 
HETATM   11  O11 UNL     1     -35.031  12.152  -6.840  1.00 20.00    -0.301 OA
ENDBRANCH   3  10
TORSDOF 1
ENDMDL
MODEL 5
REMARK VINA RESULT:      -4.3     11.209     11.744
REMARK  1 active torsions:
REMARK  status: ('A' for Active; 'I' for Inactive)
REMARK    1  A    between atoms: C3_3  and  C5_5 
ROOT
HETATM    1  C1  UNL     1     -34.225  18.529   1.790  1.00 20.00     0.034 A 
HETATM    2  C2  UNL     1     -35.245  17.886   1.123  1.00 20.00     0.092 A 
HETATM    3  C3  UNL     1     -33.142  18.662   0.886  1.00 20.00     0.025 A 
HETATM    4  C4  UNL     1     -33.527  18.094  -0.313  1.00 20.00     0.024 A 
HETATM    5  C6  UNL     1     -32.787  17.923  -1.597  1.00 20.00     0.058 C 
HETATM    6  C7  UNL     1     -33.727  17.615  -2.764  1.00 20.00     0.008 C 
HETATM    7  C8  UNL     1     -34.743  16.540  -2.375  1.00 20.00     0.021 C 
HETATM    8  C9  UNL     1     -35.597  17.007  -1.198  1.00 20.00     0.128 C 
HETATM    9  N10 UNL     1     -34.808  17.627  -0.148  1.00 20.00    -0.359 N 
ENDROOT
BRANCH   3  10
HETATM   10  C5  UNL     1     -31.864  19.263   1.141  1.00 20.00     0.272 C 
HETATM   11  O11 UNL     1     -30.784  18.648   1.077  1.00 20.00    -0.301 OA
ENDBRANCH   3  10
TORSDOF 1
ENDMDL
MODEL 6
REMARK VINA RESULT:      -4.2     11.224     12.103
REMARK  1 active torsions:
REMARK  status: ('A' for Active; 'I' for Inactive)
REMARK    1  A    between atoms: C3_3  and  C5_5 
ROOT
HETATM    1  C1  UNL     1     -34.056  15.284  -6.381  1.00 20.00     0.034 A 
HETATM    2  C2  UNL     1     -33.325  16.286  -5.781  1.00 20.00     0.092 A 
HETATM    3  C3  UNL     1     -35.038  14.859  -5.453  1.00 20.00     0.025 A 
HETATM    4  C4  UNL     1     -34.883  15.612  -4.306  1.00 20.00     0.024 A 
HETATM    5  C6  UNL     1     -35.613  15.577  -3.005  1.00 20.00     0.058 C 
HETATM    6  C7  UNL     1     -35.380  16.846  -2.183  1.00 20.00     0.008 C 
HETATM    7  C8  UNL     1     -33.897  17.216  -2.161  1.00 20.00     0.021 C 
HETATM    8  C9  UNL     1     -33.385  17.475  -3.577  1.00 20.00     0.128 C 
HETATM    9  N10 UNL     1     -33.835  16.473  -4.525  1.00 20.00    -0.359 N 
ENDROOT
BRANCH   3  10
HETATM   10  C5  UNL     1     -36.024  13.832  -5.638  1.00 20.00     0.272 C 
HETATM   11  O11 UNL     1     -35.863  12.647  -5.293  1.00 20.00    -0.301 OA
ENDBRANCH   3  10
TORSDOF 1
ENDMDL
MODEL 7
REMARK VINA RESULT:      -4.2     11.219     11.517
REMARK  1 active torsions:
REMARK  status: ('A' for Active; 'I' for Inactive)
REMARK    1  A    between atoms: C3_3  and  C5_5 
ROOT
HETATM    1  C1  UNL     1     -33.560  14.449  -4.927  1.00 20.00     0.034 A 
HETATM    2  C2  UNL     1     -32.848  15.339  -4.154  1.00 20.00     0.092 A 
HETATM    3  C3  UNL     1     -34.931  14.605  -4.603  1.00 20.00     0.025 A 
HETATM    4  C4  UNL     1     -35.023  15.587  -3.637  1.00 20.00     0.024 A 
HETATM    5  C6  UNL     1     -36.203  16.140  -2.911  1.00 20.00     0.058 C 
HETATM    6  C7  UNL     1     -35.888  17.478  -2.239  1.00 20.00     0.008 C 
HETATM    7  C8  UNL     1     -34.556  17.411  -1.491  1.00 20.00     0.021 C 
HETATM    8  C9  UNL     1     -33.414  17.092  -2.455  1.00 20.00     0.128 C 
HETATM    9  N10 UNL     1     -33.745  16.020  -3.376  1.00 20.00    -0.359 N 
ENDROOT
BRANCH   3  10
HETATM   10  C5  UNL     1     -36.044  13.884  -5.153  1.00 20.00     0.272 C 
HETATM   11  O11 UNL     1     -36.050  12.652  -5.335  1.00 20.00    -0.301 OA
ENDBRANCH   3  10
TORSDOF 1
ENDMDL
MODEL 8
REMARK VINA RESULT:      -4.2     11.097     11.595
REMARK  1 active torsions:
REMARK  status: ('A' for Active; 'I' for Inactive)
REMARK    1  A    between atoms: C3_3  and  C5_5 
ROOT
HETATM    1  C1  UNL     1     -34.464  16.191  -2.920  1.00 20.00     0.034 A 
HETATM    2  C2  UNL     1     -35.816  16.453  -2.882  1.00 20.00     0.092 A 
HETATM    3  C3  UNL     1     -34.240  15.259  -3.963  1.00 20.00     0.025 A 
HETATM    4  C4  UNL     1     -35.463  14.972  -4.537  1.00 20.00     0.024 A 
HETATM    5  C6  UNL     1     -35.830  14.044  -5.646  1.00 20.00     0.058 C 
HETATM    6  C7  UNL     1     -37.218  14.349  -6.213  1.00 20.00     0.008 C 
HETATM    7  C8  UNL     1     -38.232  14.555  -5.087  1.00 20.00     0.021 C 
HETATM    8  C9  UNL     1     -37.821  15.729  -4.200  1.00 20.00     0.128 C 
HETATM    9  N10 UNL     1     -36.409  15.707  -3.865  1.00 20.00    -0.359 N 
ENDROOT
BRANCH   3  10
HETATM   10  C5  UNL     1     -32.985  14.691  -4.369  1.00 20.00     0.272 C 
HETATM   11  O11 UNL     1     -32.650  13.515  -4.137  1.00 20.00    -0.301 OA
ENDBRANCH   3  10
TORSDOF 1
ENDMDL
MODEL 9
REMARK VINA RESULT:      -4.1     11.183     12.069
REMARK  1 active torsions:
REMARK  status: ('A' for Active; 'I' for Inactive)
REMARK    1  A    between atoms: C3_3  and  C5_5 
ROOT
HETATM    1  C1  UNL     1     -37.456  15.297  -4.645  1.00 20.00     0.034 A 
HETATM    2  C2  UNL     1     -37.698  16.460  -3.947  1.00 20.00     0.092 A 
HETATM    3  C3  UNL     1     -36.105  14.936  -4.417  1.00 20.00     0.025 A 
HETATM    4  C4  UNL     1     -35.553  15.890  -3.584  1.00 20.00     0.024 A 
HETATM    5  C6  UNL     1     -34.170  16.036  -3.042  1.00 20.00     0.058 C 
HETATM    6  C7  UNL     1     -34.119  16.996  -1.853  1.00 20.00     0.008 C 
HETATM    7  C8  UNL     1     -34.908  18.272  -2.149  1.00 20.00     0.021 C 
HETATM    8  C9  UNL     1     -36.375  17.945  -2.423  1.00 20.00     0.128 C 
HETATM    9  N10 UNL     1     -36.538  16.809  -3.312  1.00 20.00    -0.359 N 
ENDROOT
BRANCH   3  10
HETATM   10  C5  UNL     1     -35.405  13.800  -4.945  1.00 20.00     0.272 C 
HETATM   11  O11 UNL     1     -35.953  12.719  -5.231  1.00 20.00    -0.301 OA
ENDBRANCH   3  10
TORSDOF 1
ENDMDL
