MODEL 1
REMARK VINA RESULT:      -6.1      0.000      0.000
REMARK  0 active torsions:
REMARK  status: ('A' for Active; 'I' for Inactive)
ROOT
HETATM    1  C1  UNL     1     -33.079   6.443   2.576  1.00 20.00     0.027 A 
HETATM    2  C2  UNL     1     -32.133   7.400   2.241  1.00 20.00     0.116 A 
HETATM    3  C3  UNL     1     -32.195   8.388   4.331  1.00 20.00     0.123 A 
HETATM    4  C4  UNL     1     -33.572   6.490   3.865  1.00 20.00    -0.045 A 
HETATM    5  C5  UNL     1     -33.128   7.471   4.755  1.00 20.00    -0.034 A 
HETATM    6  C6  UNL     1     -33.821   7.370   6.072  1.00 20.00     0.041 C 
HETATM    7  C7  UNL     1     -34.359   5.931   6.005  1.00 20.00     0.014 C 
HETATM    8  C8  UNL     1     -34.623   5.633   4.513  1.00 20.00     0.015 C 
HETATM    9  C9  UNL     1     -34.531   4.148   4.198  1.00 20.00     0.015 C 
HETATM   10  N10 UNL     1     -31.678   8.369   3.081  1.00 20.00    -0.273 NA
ENDROOT
TORSDOF 0
ENDMDL
MODEL 2
REMARK VINA RESULT:      -5.5      1.838      3.966
REMARK  0 active torsions:
REMARK  status: ('A' for Active; 'I' for Inactive)
ROOT
HETATM    1  C1  UNL     1     -33.575   7.351   5.489  1.00 20.00     0.027 A 
HETATM    2  C2  UNL     1     -34.262   6.448   6.286  1.00 20.00     0.116 A 
HETATM    3  C3  UNL     1     -34.732   5.037   4.514  1.00 20.00     0.123 A 
HETATM    4  C4  UNL     1     -33.475   7.037   4.148  1.00 20.00    -0.045 A 
HETATM    5  C5  UNL     1     -34.058   5.869   3.651  1.00 20.00    -0.034 A 
HETATM    6  C6  UNL     1     -33.873   5.748   2.177  1.00 20.00     0.041 C 
HETATM    7  C7  UNL     1     -32.708   6.725   1.951  1.00 20.00     0.014 C 
HETATM    8  C8  UNL     1     -32.842   7.820   3.032  1.00 20.00     0.015 C 
HETATM    9  C9  UNL     1     -31.505   8.461   3.371  1.00 20.00     0.015 C 
HETATM   10  N10 UNL     1     -34.842   5.302   5.836  1.00 20.00    -0.273 NA
ENDROOT
TORSDOF 0
ENDMDL
MODEL 3
REMARK VINA RESULT:      -4.9      1.962      3.318
REMARK  0 active torsions:
REMARK  status: ('A' for Active; 'I' for Inactive)
ROOT
HETATM    1  C1  UNL     1     -33.297   5.187   2.952  1.00 20.00     0.027 A 
HETATM    2  C2  UNL     1     -34.032   4.087   3.368  1.00 20.00     0.116 A 
HETATM    3  C3  UNL     1     -34.577   5.049   5.399  1.00 20.00     0.123 A 
HETATM    4  C4  UNL     1     -33.236   6.253   3.829  1.00 20.00    -0.045 A 
HETATM    5  C5  UNL     1     -33.880   6.187   5.066  1.00 20.00    -0.034 A 
HETATM    6  C6  UNL     1     -33.647   7.420   5.873  1.00 20.00     0.041 C 
HETATM    7  C7  UNL     1     -33.200   8.400   4.777  1.00 20.00     0.014 C 
HETATM    8  C8  UNL     1     -32.494   7.554   3.695  1.00 20.00     0.015 C 
HETATM    9  C9  UNL     1     -32.567   8.199   2.320  1.00 20.00     0.015 C 
HETATM   10  N10 UNL     1     -34.672   3.989   4.565  1.00 20.00    -0.273 NA
ENDROOT
TORSDOF 0
ENDMDL
MODEL 4
REMARK VINA RESULT:      -4.8      1.038      2.454
REMARK  0 active torsions:
REMARK  status: ('A' for Active; 'I' for Inactive)
ROOT
HETATM    1  C1  UNL     1     -31.901   8.258   4.066  1.00 20.00     0.027 A 
HETATM    2  C2  UNL     1     -31.396   8.801   2.893  1.00 20.00     0.116 A 
HETATM    3  C3  UNL     1     -32.721   7.468   1.546  1.00 20.00     0.123 A 
HETATM    4  C4  UNL     1     -32.870   7.284   3.924  1.00 20.00    -0.045 A 
HETATM    5  C5  UNL     1     -33.287   6.882   2.654  1.00 20.00    -0.034 A 
HETATM    6  C6  UNL     1     -34.300   5.790   2.729  1.00 20.00     0.041 C 
HETATM    7  C7  UNL     1     -34.777   5.940   4.183  1.00 20.00     0.014 C 
HETATM    8  C8  UNL     1     -33.572   6.481   4.983  1.00 20.00     0.015 C 
HETATM    9  C9  UNL     1     -34.004   7.269   6.211  1.00 20.00     0.015 C 
HETATM   10  N10 UNL     1     -31.778   8.434   1.640  1.00 20.00    -0.273 NA
ENDROOT
TORSDOF 0
ENDMDL
MODEL 5
REMARK VINA RESULT:      -4.7      1.667      3.388
REMARK  0 active torsions:
REMARK  status: ('A' for Active; 'I' for Inactive)
ROOT
HETATM    1  C1  UNL     1     -34.012   6.013   2.970  1.00 20.00     0.027 A 
HETATM    2  C2  UNL     1     -34.854   5.460   3.923  1.00 20.00     0.116 A 
HETATM    3  C3  UNL     1     -33.999   6.765   5.631  1.00 20.00     0.123 A 
HETATM    4  C4  UNL     1     -33.146   6.996   3.410  1.00 20.00    -0.045 A 
HETATM    5  C5  UNL     1     -33.136   7.378   4.752  1.00 20.00    -0.034 A 
HETATM    6  C6  UNL     1     -32.097   8.414   5.020  1.00 20.00     0.041 C 
HETATM    7  C7  UNL     1     -31.837   8.935   3.597  1.00 20.00     0.014 C 
HETATM    8  C8  UNL     1     -32.094   7.747   2.644  1.00 20.00     0.015 C 
HETATM    9  C9  UNL     1     -32.509   8.204   1.254  1.00 20.00     0.015 C 
HETATM   10  N10 UNL     1     -34.872   5.809   5.239  1.00 20.00    -0.273 NA
ENDROOT
TORSDOF 0
ENDMDL
MODEL 6
REMARK VINA RESULT:      -4.5     11.868     12.301
REMARK  0 active torsions:
REMARK  status: ('A' for Active; 'I' for Inactive)
ROOT
HETATM    1  C1  UNL     1     -32.223  18.512  -0.481  1.00 20.00     0.027 A 
HETATM    2  C2  UNL     1     -31.788  18.921   0.771  1.00 20.00     0.116 A 
HETATM    3  C3  UNL     1     -33.848  18.554   1.756  1.00 20.00     0.123 A 
HETATM    4  C4  UNL     1     -33.539  18.100  -0.571  1.00 20.00    -0.045 A 
HETATM    5  C5  UNL     1     -34.363  18.121   0.556  1.00 20.00    -0.034 A 
HETATM    6  C6  UNL     1     -35.751  17.684   0.229  1.00 20.00     0.041 C 
HETATM    7  C7  UNL     1     -35.516  16.952  -1.102  1.00 20.00     0.014 C 
HETATM    8  C8  UNL     1     -34.313  17.648  -1.777  1.00 20.00     0.015 C 
HETATM    9  C9  UNL     1     -33.561  16.717  -2.715  1.00 20.00     0.015 C 
HETATM   10  N10 UNL     1     -32.562  18.953   1.889  1.00 20.00    -0.273 NA
ENDROOT
TORSDOF 0
ENDMDL
MODEL 7
REMARK VINA RESULT:      -4.5     11.896     12.570
REMARK  0 active torsions:
REMARK  status: ('A' for Active; 'I' for Inactive)
ROOT
HETATM    1  C1  UNL     1     -36.980  15.860  -3.858  1.00 20.00     0.027 A 
HETATM    2  C2  UNL     1     -37.934  15.019  -4.412  1.00 20.00     0.116 A 
HETATM    3  C3  UNL     1     -36.351  13.622  -5.356  1.00 20.00     0.123 A 
HETATM    4  C4  UNL     1     -35.659  15.520  -4.079  1.00 20.00    -0.045 A 
HETATM    5  C5  UNL     1     -35.337  14.391  -4.834  1.00 20.00    -0.034 A 
HETATM    6  C6  UNL     1     -33.862  14.236  -4.989  1.00 20.00     0.041 C 
HETATM    7  C7  UNL     1     -33.358  15.124  -3.839  1.00 20.00     0.014 C 
HETATM    8  C8  UNL     1     -34.409  16.240  -3.656  1.00 20.00     0.015 C 
HETATM    9  C9  UNL     1     -34.427  16.787  -2.237  1.00 20.00     0.015 C 
HETATM   10  N10 UNL     1     -37.657  13.912  -5.153  1.00 20.00    -0.273 NA
ENDROOT
TORSDOF 0
ENDMDL
MODEL 8
REMARK VINA RESULT:      -4.3      1.792      3.617
REMARK  0 active torsions:
REMARK  status: ('A' for Active; 'I' for Inactive)
ROOT
HETATM    1  C1  UNL     1     -34.489   5.245   5.051  1.00 20.00     0.027 A 
HETATM    2  C2  UNL     1     -34.478   4.006   4.428  1.00 20.00     0.116 A 
HETATM    3  C3  UNL     1     -33.180   4.753   2.665  1.00 20.00     0.123 A 
HETATM    4  C4  UNL     1     -33.788   6.256   4.421  1.00 20.00    -0.045 A 
HETATM    5  C5  UNL     1     -33.126   6.011   3.216  1.00 20.00    -0.034 A 
HETATM    6  C6  UNL     1     -32.476   7.245   2.687  1.00 20.00     0.041 C 
HETATM    7  C7  UNL     1     -32.427   8.111   3.956  1.00 20.00     0.014 C 
HETATM    8  C8  UNL     1     -33.645   7.700   4.813  1.00 20.00     0.015 C 
HETATM    9  C9  UNL     1     -33.416   7.948   6.296  1.00 20.00     0.015 C 
HETATM   10  N10 UNL     1     -33.845   3.733   3.255  1.00 20.00    -0.273 NA
ENDROOT
TORSDOF 0
ENDMDL
MODEL 9
REMARK VINA RESULT:      -4.3     11.780     12.354
REMARK  0 active torsions:
REMARK  status: ('A' for Active; 'I' for Inactive)
ROOT
HETATM    1  C1  UNL     1     -35.594  17.284  -0.814  1.00 20.00     0.027 A 
HETATM    2  C2  UNL     1     -35.559  16.588  -2.013  1.00 20.00     0.116 A 
HETATM    3  C3  UNL     1     -33.334  17.091  -2.396  1.00 20.00     0.123 A 
HETATM    4  C4  UNL     1     -34.415  17.888  -0.419  1.00 20.00    -0.045 A 
HETATM    5  C5  UNL     1     -33.272  17.793  -1.215  1.00 20.00    -0.034 A 
HETATM    6  C6  UNL     1     -32.131  18.554  -0.629  1.00 20.00     0.041 C 
HETATM    7  C7  UNL     1     -32.599  18.698   0.828  1.00 20.00     0.014 C 
HETATM    8  C8  UNL     1     -34.142  18.740   0.789  1.00 20.00     0.015 C 
HETATM    9  C9  UNL     1     -34.765  18.243   2.085  1.00 20.00     0.015 C 
HETATM   10  N10 UNL     1     -34.464  16.475  -2.813  1.00 20.00    -0.273 NA
ENDROOT
TORSDOF 0
ENDMDL
