MODEL 1
REMARK VINA RESULT:      -5.7      0.000      0.000
REMARK  2 active torsions:
REMARK  status: ('A' for Active; 'I' for Inactive)
REMARK    1  A    between atoms: C1_1  and  C8_8 
REMARK    2  A    between atoms: C5_5  and  C8_8 
ROOT
HETATM    1  C2  UNL     1     -34.070   6.671   5.622  1.00 20.00     0.003 C 
HETATM    2  C3  UNL     1     -33.020   7.579   4.952  1.00 20.00     0.007 C 
HETATM    3  C4  UNL     1     -34.895   5.816   4.655  1.00 20.00     0.034 C 
HETATM    4  C5  UNL     1     -33.025   7.532   3.414  1.00 20.00     0.023 C 
HETATM    5  C6  UNL     1     -34.012   5.191   3.626  1.00 20.00     0.151 A 
HETATM    6  C7  UNL     1     -33.016   6.098   2.962  1.00 20.00     0.155 A 
HETATM    7  O10 UNL     1     -34.199   5.658   2.286  1.00 20.00    -0.375 OA
ENDROOT
BRANCH   4   8
HETATM    8  C8  UNL     1     -31.843   8.304   2.836  1.00 20.00     0.076 C 
BRANCH   8   9
HETATM    9  C1  UNL     1     -32.161   8.920   1.501  1.00 20.00     0.231 C 
HETATM   10  O9  UNL     1     -32.483  10.089   1.321  1.00 20.00    -0.307 OA
ENDBRANCH   8   9
ENDBRANCH   4   8
TORSDOF 2
ENDMDL
MODEL 2
REMARK VINA RESULT:      -5.6      1.859      2.515
REMARK  2 active torsions:
REMARK  status: ('A' for Active; 'I' for Inactive)
REMARK    1  A    between atoms: C1_1  and  C8_8 
REMARK    2  A    between atoms: C5_5  and  C8_8 
ROOT
HETATM    1  C2  UNL     1     -34.463   4.350   4.325  1.00 20.00     0.003 C 
HETATM    2  C3  UNL     1     -33.997   5.255   3.167  1.00 20.00     0.007 C 
HETATM    3  C4  UNL     1     -34.176   4.897   5.726  1.00 20.00     0.034 C 
HETATM    4  C5  UNL     1     -33.251   6.525   3.611  1.00 20.00     0.023 C 
HETATM    5  C6  UNL     1     -34.535   6.345   5.806  1.00 20.00     0.151 A 
HETATM    6  C7  UNL     1     -34.045   7.216   4.686  1.00 20.00     0.155 A 
HETATM    7  O10 UNL     1     -33.435   7.244   5.980  1.00 20.00    -0.375 OA
ENDROOT
BRANCH   4   8
HETATM    8  C8  UNL     1     -32.993   7.454   2.429  1.00 20.00     0.076 C 
BRANCH   8   9
HETATM    9  C1  UNL     1     -31.800   8.343   2.651  1.00 20.00     0.231 C 
HETATM   10  O9  UNL     1     -31.074   8.319   3.638  1.00 20.00    -0.307 OA
ENDBRANCH   8   9
ENDBRANCH   4   8
TORSDOF 2
ENDMDL
MODEL 3
REMARK VINA RESULT:      -5.1      1.474      2.148
REMARK  2 active torsions:
REMARK  status: ('A' for Active; 'I' for Inactive)
REMARK    1  A    between atoms: C1_1  and  C8_8 
REMARK    2  A    between atoms: C5_5  and  C8_8 
ROOT
HETATM    1  C2  UNL     1     -34.101   5.118   3.255  1.00 20.00     0.003 C 
HETATM    2  C3  UNL     1     -33.184   6.214   2.675  1.00 20.00     0.007 C 
HETATM    3  C4  UNL     1     -34.262   5.151   4.777  1.00 20.00     0.034 C 
HETATM    4  C5  UNL     1     -32.520   7.114   3.731  1.00 20.00     0.023 C 
HETATM    5  C6  UNL     1     -34.489   6.549   5.249  1.00 20.00     0.151 A 
HETATM    6  C7  UNL     1     -33.567   7.598   4.698  1.00 20.00     0.155 A 
HETATM    7  O10 UNL     1     -33.437   7.113   6.039  1.00 20.00    -0.375 OA
ENDROOT
BRANCH   4   8
HETATM    8  C8  UNL     1     -31.787   8.282   3.078  1.00 20.00     0.076 C 
BRANCH   8   9
HETATM    9  C1  UNL     1     -32.333   8.608   1.714  1.00 20.00     0.231 C 
HETATM   10  O9  UNL     1     -31.659   8.928   0.742  1.00 20.00    -0.307 OA
ENDBRANCH   8   9
ENDBRANCH   4   8
TORSDOF 2
ENDMDL
MODEL 4
REMARK VINA RESULT:      -4.4     10.734     11.709
REMARK  2 active torsions:
REMARK  status: ('A' for Active; 'I' for Inactive)
REMARK    1  A    between atoms: C1_1  and  C8_8 
REMARK    2  A    between atoms: C5_5  and  C8_8 
ROOT
HETATM    1  C2  UNL     1     -35.377  17.394  -0.536  1.00 20.00     0.003 C 
HETATM    2  C3  UNL     1     -35.164  16.637  -1.862  1.00 20.00     0.007 C 
HETATM    3  C4  UNL     1     -34.149  18.148  -0.019  1.00 20.00     0.034 C 
HETATM    4  C5  UNL     1     -33.727  16.702  -2.409  1.00 20.00     0.023 C 
HETATM    5  C6  UNL     1     -33.487  18.895  -1.131  1.00 20.00     0.151 A 
HETATM    6  C7  UNL     1     -33.260  18.132  -2.404  1.00 20.00     0.155 A 
HETATM    7  O10 UNL     1     -32.187  18.425  -1.502  1.00 20.00    -0.375 OA
ENDROOT
BRANCH   4   8
HETATM    8  C8  UNL     1     -33.642  16.096  -3.806  1.00 20.00     0.076 C 
BRANCH   8   9
HETATM    9  C1  UNL     1     -34.518  14.883  -3.958  1.00 20.00     0.231 C 
HETATM   10  O9  UNL     1     -34.116  13.737  -4.126  1.00 20.00    -0.307 OA
ENDBRANCH   8   9
ENDBRANCH   4   8
TORSDOF 2
ENDMDL
MODEL 5
REMARK VINA RESULT:      -4.3      1.689      3.959
REMARK  2 active torsions:
REMARK  status: ('A' for Active; 'I' for Inactive)
REMARK    1  A    between atoms: C1_1  and  C8_8 
REMARK    2  A    between atoms: C5_5  and  C8_8 
ROOT
HETATM    1  C2  UNL     1     -32.068   8.671   4.755  1.00 20.00     0.003 C 
HETATM    2  C3  UNL     1     -33.148   7.834   5.470  1.00 20.00     0.007 C 
HETATM    3  C4  UNL     1     -31.601   8.108   3.410  1.00 20.00     0.034 C 
HETATM    4  C5  UNL     1     -33.522   6.527   4.748  1.00 20.00     0.023 C 
HETATM    5  C6  UNL     1     -32.770   7.664   2.594  1.00 20.00     0.151 A 
HETATM    6  C7  UNL     1     -33.795   6.823   3.299  1.00 20.00     0.155 A 
HETATM    7  O10 UNL     1     -32.866   6.254   2.370  1.00 20.00    -0.375 OA
ENDROOT
BRANCH   4   8
HETATM    8  C8  UNL     1     -34.720   5.856   5.412  1.00 20.00     0.076 C 
BRANCH   8   9
HETATM    9  C1  UNL     1     -34.676   4.357   5.288  1.00 20.00     0.231 C 
HETATM   10  O9  UNL     1     -34.289   3.740   4.302  1.00 20.00    -0.307 OA
ENDBRANCH   8   9
ENDBRANCH   4   8
TORSDOF 2
ENDMDL
MODEL 6
REMARK VINA RESULT:      -4.3     11.052     11.855
REMARK  2 active torsions:
REMARK  status: ('A' for Active; 'I' for Inactive)
REMARK    1  A    between atoms: C1_1  and  C8_8 
REMARK    2  A    between atoms: C5_5  and  C8_8 
ROOT
HETATM    1  C2  UNL     1     -33.990  14.731  -7.553  1.00 20.00     0.003 C 
HETATM    2  C3  UNL     1     -33.597  15.467  -6.257  1.00 20.00     0.007 C 
HETATM    3  C4  UNL     1     -34.738  13.411  -7.344  1.00 20.00     0.034 C 
HETATM    4  C5  UNL     1     -33.954  14.713  -4.963  1.00 20.00     0.023 C 
HETATM    5  C6  UNL     1     -35.796  13.567  -6.302  1.00 20.00     0.151 A 
HETATM    6  C7  UNL     1     -35.386  14.258  -5.034  1.00 20.00     0.155 A 
HETATM    7  O10 UNL     1     -35.579  12.841  -5.088  1.00 20.00    -0.375 OA
ENDROOT
BRANCH   4   8
HETATM    8  C8  UNL     1     -33.708  15.583  -3.734  1.00 20.00     0.076 C 
BRANCH   8   9
HETATM    9  C1  UNL     1     -34.989  16.070  -3.113  1.00 20.00     0.231 C 
HETATM   10  O9  UNL     1     -35.105  16.484  -1.965  1.00 20.00    -0.307 OA
ENDBRANCH   8   9
ENDBRANCH   4   8
TORSDOF 2
ENDMDL
MODEL 7
REMARK VINA RESULT:      -4.1     11.047     11.734
REMARK  2 active torsions:
REMARK  status: ('A' for Active; 'I' for Inactive)
REMARK    1  A    between atoms: C1_1  and  C8_8 
REMARK    2  A    between atoms: C5_5  and  C8_8 
ROOT
HETATM    1  C2  UNL     1     -35.219  16.695  -2.888  1.00 20.00     0.003 C 
HETATM    2  C3  UNL     1     -36.043  15.605  -3.602  1.00 20.00     0.007 C 
HETATM    3  C4  UNL     1     -33.703  16.589  -3.084  1.00 20.00     0.034 C 
HETATM    4  C5  UNL     1     -35.201  14.544  -4.332  1.00 20.00     0.023 C 
HETATM    5  C6  UNL     1     -33.379  16.317  -4.517  1.00 20.00     0.151 A 
HETATM    6  C7  UNL     1     -34.171  15.231  -5.186  1.00 20.00     0.155 A 
HETATM    7  O10 UNL     1     -32.810  15.032  -4.788  1.00 20.00    -0.375 OA
ENDROOT
BRANCH   4   8
HETATM    8  C8  UNL     1     -36.083  13.619  -5.164  1.00 20.00     0.076 C 
BRANCH   8   9
HETATM    9  C1  UNL     1     -35.485  13.317  -6.511  1.00 20.00     0.231 C 
HETATM   10  O9  UNL     1     -35.084  12.218  -6.876  1.00 20.00    -0.307 OA
ENDBRANCH   8   9
ENDBRANCH   4   8
TORSDOF 2
ENDMDL
MODEL 8
REMARK VINA RESULT:      -4.1     10.837     11.943
REMARK  2 active torsions:
REMARK  status: ('A' for Active; 'I' for Inactive)
REMARK    1  A    between atoms: C1_1  and  C8_8 
REMARK    2  A    between atoms: C5_5  and  C8_8 
ROOT
HETATM    1  C2  UNL     1     -33.638  16.109  -6.342  1.00 20.00     0.003 C 
HETATM    2  C3  UNL     1     -33.542  16.845  -4.991  1.00 20.00     0.007 C 
HETATM    3  C4  UNL     1     -33.884  14.601  -6.239  1.00 20.00     0.034 C 
HETATM    4  C5  UNL     1     -33.633  15.928  -3.758  1.00 20.00     0.023 C 
HETATM    5  C6  UNL     1     -34.945  14.312  -5.229  1.00 20.00     0.151 A 
HETATM    6  C7  UNL     1     -34.817  15.013  -3.908  1.00 20.00     0.155 A 
HETATM    7  O10 UNL     1     -34.507  13.623  -4.053  1.00 20.00    -0.375 OA
ENDROOT
BRANCH   4   8
HETATM    8  C8  UNL     1     -33.721  16.743  -2.471  1.00 20.00     0.076 C 
BRANCH   8   9
HETATM    9  C1  UNL     1     -33.303  18.174  -2.671  1.00 20.00     0.231 C 
HETATM   10  O9  UNL     1     -32.457  18.763  -2.007  1.00 20.00    -0.307 OA
ENDBRANCH   8   9
ENDBRANCH   4   8
TORSDOF 2
ENDMDL
MODEL 9
REMARK VINA RESULT:      -3.8      1.998      4.340
REMARK  2 active torsions:
REMARK  status: ('A' for Active; 'I' for Inactive)
REMARK    1  A    between atoms: C1_1  and  C8_8 
REMARK    2  A    between atoms: C5_5  and  C8_8 
ROOT
HETATM    1  C2  UNL     1     -32.256   7.472   2.374  1.00 20.00     0.003 C 
HETATM    2  C3  UNL     1     -33.395   6.456   2.586  1.00 20.00     0.007 C 
HETATM    3  C4  UNL     1     -32.157   8.564   3.444  1.00 20.00     0.034 C 
HETATM    4  C5  UNL     1     -34.295   6.751   3.799  1.00 20.00     0.023 C 
HETATM    5  C6  UNL     1     -32.298   7.973   4.808  1.00 20.00     0.151 A 
HETATM    6  C7  UNL     1     -33.432   7.009   5.004  1.00 20.00     0.155 A 
HETATM    7  O10 UNL     1     -33.482   8.343   5.522  1.00 20.00    -0.375 OA
ENDROOT
BRANCH   4   8
HETATM    8  C8  UNL     1     -35.272   5.608   4.051  1.00 20.00     0.076 C 
BRANCH   8   9
HETATM    9  C1  UNL     1     -34.644   4.479   4.823  1.00 20.00     0.231 C 
HETATM   10  O9  UNL     1     -34.103   3.498   4.326  1.00 20.00    -0.307 OA
ENDBRANCH   8   9
ENDBRANCH   4   8
TORSDOF 2
ENDMDL
