MODEL 1
REMARK VINA RESULT:      -4.2      0.000      0.000
REMARK  1 active torsions:
REMARK  status: ('A' for Active; 'I' for Inactive)
REMARK    1  A    between atoms: C4_4  and  C6_6 
ROOT
HETATM    1  C1  UNL     1     -34.850   5.825   3.626  1.00 20.00     0.280 C 
HETATM    2  C2  UNL     1     -34.457   5.651   5.088  1.00 20.00     0.104 C 
HETATM    3  C3  UNL     1     -32.633   7.615   4.539  1.00 20.00     0.109 C 
HETATM    4  C4  UNL     1     -33.233   7.576   3.130  1.00 20.00     0.229 C 
HETATM    5  N7  UNL     1     -33.729   6.239   2.781  1.00 20.00     0.089 N 
HETATM    6  S8  UNL     1     -33.869   7.208   5.807  1.00 20.00    -0.165 SA
HETATM    7  H21 UNL     1     -32.972   5.561   2.868  1.00 20.00     0.316 HD
ENDROOT
BRANCH   4   8
HETATM    8  C6  UNL     1     -32.165   7.973   2.106  1.00 20.00     0.032 C 
HETATM    9  C5  UNL     1     -32.466   9.297   1.485  1.00 20.00     0.007 C 
ENDBRANCH   4   8
TORSDOF 1
ENDMDL
MODEL 2
REMARK VINA RESULT:      -4.1      1.679      2.052
REMARK  1 active torsions:
REMARK  status: ('A' for Active; 'I' for Inactive)
REMARK    1  A    between atoms: C4_4  and  C6_6 
ROOT
HETATM    1  C1  UNL     1     -33.897   6.725   5.772  1.00 20.00     0.280 C 
HETATM    2  C2  UNL     1     -34.838   5.539   5.597  1.00 20.00     0.104 C 
HETATM    3  C3  UNL     1     -33.906   5.539   3.024  1.00 20.00     0.109 C 
HETATM    4  C4  UNL     1     -33.060   6.731   3.485  1.00 20.00     0.229 C 
HETATM    5  N7  UNL     1     -33.727   7.501   4.543  1.00 20.00     0.089 N 
HETATM    6  S8  UNL     1     -34.199   4.361   4.375  1.00 20.00    -0.165 SA
HETATM    7  H21 UNL     1     -34.639   7.815   4.213  1.00 20.00     0.316 HD
ENDROOT
BRANCH   4   8
HETATM    8  C6  UNL     1     -32.802   7.666   2.301  1.00 20.00     0.032 C 
HETATM    9  C5  UNL     1     -31.645   8.574   2.560  1.00 20.00     0.007 C 
ENDBRANCH   4   8
TORSDOF 1
ENDMDL
MODEL 3
REMARK VINA RESULT:      -3.7      2.156      3.905
REMARK  1 active torsions:
REMARK  status: ('A' for Active; 'I' for Inactive)
REMARK    1  A    between atoms: C4_4  and  C6_6 
ROOT
HETATM    1  C1  UNL     1     -32.341   8.491   4.898  1.00 20.00     0.280 C 
HETATM    2  C2  UNL     1     -31.543   8.232   3.626  1.00 20.00     0.104 C 
HETATM    3  C3  UNL     1     -33.439   6.314   3.163  1.00 20.00     0.109 C 
HETATM    4  C4  UNL     1     -34.035   6.789   4.493  1.00 20.00     0.229 C 
HETATM    5  N7  UNL     1     -33.003   7.290   5.410  1.00 20.00     0.089 N 
HETATM    6  S8  UNL     1     -32.613   7.667   2.276  1.00 20.00    -0.165 SA
HETATM    7  H21 UNL     1     -32.306   6.562   5.568  1.00 20.00     0.316 HD
ENDROOT
BRANCH   4   8
HETATM    8  C6  UNL     1     -34.760   5.626   5.175  1.00 20.00     0.032 C 
HETATM    9  C5  UNL     1     -34.439   4.321   4.524  1.00 20.00     0.007 C 
ENDBRANCH   4   8
TORSDOF 1
ENDMDL
MODEL 4
REMARK VINA RESULT:      -3.3     11.367     11.985
REMARK  1 active torsions:
REMARK  status: ('A' for Active; 'I' for Inactive)
REMARK    1  A    between atoms: C4_4  and  C6_6 
ROOT
HETATM    1  C1  UNL     1     -34.830  14.224  -4.518  1.00 20.00     0.280 C 
HETATM    2  C2  UNL     1     -34.862  14.833  -5.915  1.00 20.00     0.104 C 
HETATM    3  C3  UNL     1     -33.568  16.929  -4.724  1.00 20.00     0.109 C 
HETATM    4  C4  UNL     1     -33.676  16.084  -3.451  1.00 20.00     0.229 C 
HETATM    5  N7  UNL     1     -34.872  15.231  -3.457  1.00 20.00     0.089 N 
HETATM    6  S8  UNL     1     -33.420  15.892  -6.209  1.00 20.00    -0.165 SA
HETATM    7  H21 UNL     1     -35.703  15.811  -3.575  1.00 20.00     0.316 HD
ENDROOT
BRANCH   4   8
HETATM    8  C6  UNL     1     -33.748  17.003  -2.229  1.00 20.00     0.032 C 
HETATM    9  C5  UNL     1     -35.063  16.886  -1.531  1.00 20.00     0.007 C 
ENDBRANCH   4   8
TORSDOF 1
ENDMDL
MODEL 5
REMARK VINA RESULT:      -3.3     11.350     12.148
REMARK  1 active torsions:
REMARK  status: ('A' for Active; 'I' for Inactive)
REMARK    1  A    between atoms: C4_4  and  C6_6 
ROOT
HETATM    1  C1  UNL     1     -33.795  15.008  -7.123  1.00 20.00     0.280 C 
HETATM    2  C2  UNL     1     -34.435  13.625  -7.126  1.00 20.00     0.104 C 
HETATM    3  C3  UNL     1     -34.959  14.172  -4.497  1.00 20.00     0.109 C 
HETATM    4  C4  UNL     1     -34.260  15.504  -4.785  1.00 20.00     0.229 C 
HETATM    5  N7  UNL     1     -33.229  15.371  -5.823  1.00 20.00     0.089 N 
HETATM    6  S8  UNL     1     -35.823  13.535  -5.962  1.00 20.00    -0.165 SA
HETATM    7  H21 UNL     1     -32.551  14.663  -5.540  1.00 20.00     0.316 HD
ENDROOT
BRANCH   4   8
HETATM    8  C6  UNL     1     -33.590  16.020  -3.508  1.00 20.00     0.032 C 
HETATM    9  C5  UNL     1     -34.599  16.469  -2.503  1.00 20.00     0.007 C 
ENDBRANCH   4   8
TORSDOF 1
ENDMDL
MODEL 6
REMARK VINA RESULT:      -3.3     11.707     12.517
REMARK  1 active torsions:
REMARK  status: ('A' for Active; 'I' for Inactive)
REMARK    1  A    between atoms: C4_4  and  C6_6 
ROOT
HETATM    1  C1  UNL     1     -34.448  13.664  -7.552  1.00 20.00     0.280 C 
HETATM    2  C2  UNL     1     -35.956  13.881  -7.589  1.00 20.00     0.104 C 
HETATM    3  C3  UNL     1     -35.508  15.414  -5.368  1.00 20.00     0.109 C 
HETATM    4  C4  UNL     1     -34.040  15.029  -5.577  1.00 20.00     0.229 C 
HETATM    5  N7  UNL     1     -33.902  13.704  -6.194  1.00 20.00     0.089 N 
HETATM    6  S8  UNL     1     -36.407  15.514  -6.943  1.00 20.00    -0.165 SA
HETATM    7  H21 UNL     1     -34.377  13.009  -5.619  1.00 20.00     0.316 HD
ENDROOT
BRANCH   4   8
HETATM    8  C6  UNL     1     -33.317  15.007  -4.227  1.00 20.00     0.032 C 
HETATM    9  C5  UNL     1     -33.760  16.131  -3.349  1.00 20.00     0.007 C 
ENDBRANCH   4   8
TORSDOF 1
ENDMDL
MODEL 7
REMARK VINA RESULT:      -3.1     11.083     11.724
REMARK  1 active torsions:
REMARK  status: ('A' for Active; 'I' for Inactive)
REMARK    1  A    between atoms: C4_4  and  C6_6 
ROOT
HETATM    1  C1  UNL     1     -33.007  14.648  -4.278  1.00 20.00     0.280 C 
HETATM    2  C2  UNL     1     -33.415  16.064  -3.888  1.00 20.00     0.104 C 
HETATM    3  C3  UNL     1     -35.908  15.263  -4.680  1.00 20.00     0.109 C 
HETATM    4  C4  UNL     1     -35.223  13.925  -4.981  1.00 20.00     0.229 C 
HETATM    5  N7  UNL     1     -33.818  14.103  -5.367  1.00 20.00     0.089 N 
HETATM    6  S8  UNL     1     -35.124  16.119  -3.283  1.00 20.00    -0.165 SA
HETATM    7  H21 UNL     1     -33.762  14.725  -6.174  1.00 20.00     0.316 HD
ENDROOT
BRANCH   4   8
HETATM    8  C6  UNL     1     -35.951  13.223  -6.131  1.00 20.00     0.032 C 
HETATM    9  C5  UNL     1     -35.103  13.155  -7.358  1.00 20.00     0.007 C 
ENDBRANCH   4   8
TORSDOF 1
ENDMDL
MODEL 8
REMARK VINA RESULT:      -3.1     11.407     12.372
REMARK  1 active torsions:
REMARK  status: ('A' for Active; 'I' for Inactive)
REMARK    1  A    between atoms: C4_4  and  C6_6 
ROOT
HETATM    1  C1  UNL     1     -33.668  17.101  -5.663  1.00 20.00     0.280 C 
HETATM    2  C2  UNL     1     -33.261  15.725  -6.176  1.00 20.00     0.104 C 
HETATM    3  C3  UNL     1     -34.528  14.821  -3.926  1.00 20.00     0.109 C 
HETATM    4  C4  UNL     1     -34.801  16.305  -3.659  1.00 20.00     0.229 C 
HETATM    5  N7  UNL     1     -33.740  17.164  -4.202  1.00 20.00     0.089 N 
HETATM    6  S8  UNL     1     -34.469  14.457  -5.705  1.00 20.00    -0.165 SA
HETATM    7  H21 UNL     1     -32.842  16.887  -3.807  1.00 20.00     0.316 HD
ENDROOT
BRANCH   4   8
HETATM    8  C6  UNL     1     -34.889  16.547  -2.150  1.00 20.00     0.032 C 
HETATM    9  C5  UNL     1     -33.706  17.306  -1.646  1.00 20.00     0.007 C 
ENDBRANCH   4   8
TORSDOF 1
ENDMDL
MODEL 9
REMARK VINA RESULT:      -3.1     11.245     12.159
REMARK  1 active torsions:
REMARK  status: ('A' for Active; 'I' for Inactive)
REMARK    1  A    between atoms: C4_4  and  C6_6 
ROOT
HETATM    1  C1  UNL     1     -36.227  16.261  -5.952  1.00 20.00     0.280 C 
HETATM    2  C2  UNL     1     -35.890  14.920  -6.591  1.00 20.00     0.104 C 
HETATM    3  C3  UNL     1     -34.778  14.357  -4.155  1.00 20.00     0.109 C 
HETATM    4  C4  UNL     1     -35.243  15.768  -3.780  1.00 20.00     0.229 C 
HETATM    5  N7  UNL     1     -35.253  16.670  -4.939  1.00 20.00     0.089 N 
HETATM    6  S8  UNL     1     -35.889  13.583  -5.366  1.00 20.00    -0.165 SA
HETATM    7  H21 UNL     1     -34.323  16.698  -5.357  1.00 20.00     0.316 HD
ENDROOT
BRANCH   4   8
HETATM    8  C6  UNL     1     -34.303  16.355  -2.724  1.00 20.00     0.032 C 
HETATM    9  C5  UNL     1     -35.055  16.847  -1.532  1.00 20.00     0.007 C 
ENDBRANCH   4   8
TORSDOF 1
ENDMDL
