MODEL 1
REMARK VINA RESULT:      -5.0      0.000      0.000
REMARK  1 active torsions:
REMARK  status: ('A' for Active; 'I' for Inactive)
REMARK    1  A    between atoms: C1_1  and  C5_5 
ROOT
HETATM    1  C2  UNL     1     -34.691  14.553  -6.984  1.00 20.00     0.022 C 
HETATM    2  C3  UNL     1     -33.931  15.888  -7.064  1.00 20.00     0.011 C 
HETATM    3  C4  UNL     1     -35.948  16.222  -5.808  1.00 20.00     0.031 C 
HETATM    4  C5  UNL     1     -35.406  14.771  -5.648  1.00 20.00     0.057 C 
HETATM    5  C6  UNL     1     -34.412  16.532  -5.744  1.00 20.00    -0.035 C 
HETATM    6  C7  UNL     1     -34.367  15.391  -4.620  1.00 20.00    -0.023 C 
HETATM    7  C8  UNL     1     -33.926  17.927  -5.477  1.00 20.00     0.016 C 
HETATM    8  C9  UNL     1     -33.032  14.648  -4.445  1.00 20.00     0.017 C 
HETATM    9  C10 UNL     1     -34.869  15.748  -3.208  1.00 20.00     0.017 C 
ENDROOT
BRANCH   4  10
HETATM   10  C1  UNL     1     -36.318  13.708  -5.205  1.00 20.00     0.182 C 
HETATM   11  O11 UNL     1     -37.476  14.093  -4.877  1.00 20.00    -0.647 OA
HETATM   12  O12 UNL     1     -35.822  12.547  -5.211  1.00 20.00    -0.647 OA
ENDBRANCH   4  10
TORSDOF 1
ENDMDL
MODEL 2
REMARK VINA RESULT:      -4.7      1.373      2.826
REMARK  1 active torsions:
REMARK  status: ('A' for Active; 'I' for Inactive)
REMARK    1  A    between atoms: C1_1  and  C5_5 
ROOT
HETATM    1  C2  UNL     1     -36.857  14.991  -4.558  1.00 20.00     0.022 C 
HETATM    2  C3  UNL     1     -36.196  15.870  -3.483  1.00 20.00     0.011 C 
HETATM    3  C4  UNL     1     -34.635  14.181  -4.166  1.00 20.00     0.031 C 
HETATM    4  C5  UNL     1     -35.599  14.574  -5.324  1.00 20.00     0.057 C 
HETATM    5  C6  UNL     1     -34.719  15.727  -3.911  1.00 20.00    -0.035 C 
HETATM    6  C7  UNL     1     -34.678  15.854  -5.508  1.00 20.00    -0.023 C 
HETATM    7  C8  UNL     1     -33.710  16.411  -3.036  1.00 20.00     0.016 C 
HETATM    8  C9  UNL     1     -35.336  17.103  -6.117  1.00 20.00     0.017 C 
HETATM    9  C10 UNL     1     -33.319  15.674  -6.212  1.00 20.00     0.017 C 
ENDROOT
BRANCH   4  10
HETATM   10  C1  UNL     1     -35.786  13.647  -6.448  1.00 20.00     0.182 C 
HETATM   11  O11 UNL     1     -35.112  12.580  -6.386  1.00 20.00    -0.647 OA
HETATM   12  O12 UNL     1     -36.598  14.041  -7.330  1.00 20.00    -0.647 OA
ENDBRANCH   4  10
TORSDOF 1
ENDMDL
MODEL 3
REMARK VINA RESULT:      -4.6      1.416      2.540
REMARK  1 active torsions:
REMARK  status: ('A' for Active; 'I' for Inactive)
REMARK    1  A    between atoms: C1_1  and  C5_5 
ROOT
HETATM    1  C2  UNL     1     -36.134  15.615  -6.519  1.00 20.00     0.022 C 
HETATM    2  C3  UNL     1     -36.334  16.415  -5.221  1.00 20.00     0.011 C 
HETATM    3  C4  UNL     1     -35.824  14.140  -4.655  1.00 20.00     0.031 C 
HETATM    4  C5  UNL     1     -35.153  14.562  -5.995  1.00 20.00     0.057 C 
HETATM    5  C6  UNL     1     -35.413  15.607  -4.281  1.00 20.00    -0.035 C 
HETATM    6  C7  UNL     1     -34.069  15.292  -5.095  1.00 20.00    -0.023 C 
HETATM    7  C8  UNL     1     -35.385  16.049  -2.846  1.00 20.00     0.016 C 
HETATM    8  C9  UNL     1     -33.343  16.496  -5.717  1.00 20.00     0.017 C 
HETATM    9  C10 UNL     1     -32.994  14.427  -4.408  1.00 20.00     0.017 C 
ENDROOT
BRANCH   4  10
HETATM   10  C1  UNL     1     -34.728  13.524  -6.943  1.00 20.00     0.182 C 
HETATM   11  O11 UNL     1     -35.101  12.351  -6.662  1.00 20.00    -0.647 OA
HETATM   12  O12 UNL     1     -34.045  13.944  -7.918  1.00 20.00    -0.647 OA
ENDBRANCH   4  10
TORSDOF 1
ENDMDL
MODEL 4
REMARK VINA RESULT:      -4.5      1.189      2.471
REMARK  1 active torsions:
REMARK  status: ('A' for Active; 'I' for Inactive)
REMARK    1  A    between atoms: C1_1  and  C5_5 
ROOT
HETATM    1  C2  UNL     1     -34.112  14.569  -3.884  1.00 20.00     0.022 C 
HETATM    2  C3  UNL     1     -33.704  16.041  -3.697  1.00 20.00     0.011 C 
HETATM    3  C4  UNL     1     -33.522  15.479  -6.022  1.00 20.00     0.031 C 
HETATM    4  C5  UNL     1     -34.640  14.654  -5.318  1.00 20.00     0.057 C 
HETATM    5  C6  UNL     1     -34.104  16.592  -5.083  1.00 20.00    -0.035 C 
HETATM    6  C7  UNL     1     -35.532  15.961  -5.447  1.00 20.00    -0.023 C 
HETATM    7  C8  UNL     1     -33.791  18.040  -5.332  1.00 20.00     0.016 C 
HETATM    8  C9  UNL     1     -36.651  16.146  -4.409  1.00 20.00     0.017 C 
HETATM    9  C10 UNL     1     -36.138  16.293  -6.824  1.00 20.00     0.017 C 
ENDROOT
BRANCH   4  10
HETATM   10  C1  UNL     1     -35.099  13.400  -5.930  1.00 20.00     0.182 C 
HETATM   11  O11 UNL     1     -35.991  12.780  -5.285  1.00 20.00    -0.647 OA
HETATM   12  O12 UNL     1     -34.539  13.108  -7.023  1.00 20.00    -0.647 OA
ENDBRANCH   4  10
TORSDOF 1
ENDMDL
MODEL 5
REMARK VINA RESULT:      -4.4      1.072      2.591
REMARK  1 active torsions:
REMARK  status: ('A' for Active; 'I' for Inactive)
REMARK    1  A    between atoms: C1_1  and  C5_5 
ROOT
HETATM    1  C2  UNL     1     -36.785  15.932  -3.798  1.00 20.00     0.022 C 
HETATM    2  C3  UNL     1     -35.735  17.051  -3.685  1.00 20.00     0.011 C 
HETATM    3  C4  UNL     1     -34.606  14.967  -4.064  1.00 20.00     0.031 C 
HETATM    4  C5  UNL     1     -36.017  14.984  -4.723  1.00 20.00     0.057 C 
HETATM    5  C6  UNL     1     -34.628  16.450  -4.578  1.00 20.00    -0.035 C 
HETATM    6  C7  UNL     1     -35.346  15.845  -5.876  1.00 20.00    -0.023 C 
HETATM    7  C8  UNL     1     -33.356  17.241  -4.673  1.00 20.00     0.016 C 
HETATM    8  C9  UNL     1     -36.265  16.795  -6.660  1.00 20.00     0.017 C 
HETATM    9  C10 UNL     1     -34.470  15.113  -6.912  1.00 20.00     0.017 C 
ENDROOT
BRANCH   4  10
HETATM   10  C1  UNL     1     -36.669  13.710  -5.055  1.00 20.00     0.182 C 
HETATM   11  O11 UNL     1     -37.929  13.754  -5.138  1.00 20.00    -0.647 OA
HETATM   12  O12 UNL     1     -35.881  12.737  -5.213  1.00 20.00    -0.647 OA
ENDBRANCH   4  10
TORSDOF 1
ENDMDL
MODEL 6
REMARK VINA RESULT:      -4.4      1.188      2.172
REMARK  1 active torsions:
REMARK  status: ('A' for Active; 'I' for Inactive)
REMARK    1  A    between atoms: C1_1  and  C5_5 
ROOT
HETATM    1  C2  UNL     1     -36.217  16.182  -5.777  1.00 20.00     0.022 C 
HETATM    2  C3  UNL     1     -35.676  17.230  -4.790  1.00 20.00     0.011 C 
HETATM    3  C4  UNL     1     -35.636  15.077  -3.731  1.00 20.00     0.031 C 
HETATM    4  C5  UNL     1     -35.442  14.962  -5.272  1.00 20.00     0.057 C 
HETATM    5  C6  UNL     1     -34.727  16.333  -3.965  1.00 20.00    -0.035 C 
HETATM    6  C7  UNL     1     -33.940  15.400  -5.003  1.00 20.00    -0.023 C 
HETATM    7  C8  UNL     1     -34.031  16.996  -2.811  1.00 20.00     0.016 C 
HETATM    8  C9  UNL     1     -33.207  16.112  -6.151  1.00 20.00     0.017 C 
HETATM    9  C10 UNL     1     -32.968  14.347  -4.436  1.00 20.00     0.017 C 
ENDROOT
BRANCH   4  10
HETATM   10  C1  UNL     1     -35.717  13.681  -5.936  1.00 20.00     0.182 C 
HETATM   11  O11 UNL     1     -35.975  12.717  -5.163  1.00 20.00    -0.647 OA
HETATM   12  O12 UNL     1     -35.659  13.715  -7.197  1.00 20.00    -0.647 OA
ENDBRANCH   4  10
TORSDOF 1
ENDMDL
MODEL 7
REMARK VINA RESULT:      -4.3      1.170      2.944
REMARK  1 active torsions:
REMARK  status: ('A' for Active; 'I' for Inactive)
REMARK    1  A    between atoms: C1_1  and  C5_5 
ROOT
HETATM    1  C2  UNL     1     -35.479  16.111  -3.629  1.00 20.00     0.022 C 
HETATM    2  C3  UNL     1     -33.977  15.912  -3.363  1.00 20.00     0.011 C 
HETATM    3  C4  UNL     1     -34.910  13.835  -4.120  1.00 20.00     0.031 C 
HETATM    4  C5  UNL     1     -35.665  15.056  -4.723  1.00 20.00     0.057 C 
HETATM    5  C6  UNL     1     -33.688  14.784  -4.379  1.00 20.00    -0.035 C 
HETATM    6  C7  UNL     1     -34.448  15.167  -5.737  1.00 20.00    -0.023 C 
HETATM    7  C8  UNL     1     -32.288  14.241  -4.380  1.00 20.00     0.016 C 
HETATM    8  C9  UNL     1     -34.154  16.558  -6.322  1.00 20.00     0.017 C 
HETATM    9  C10 UNL     1     -34.385  14.166  -6.906  1.00 20.00     0.017 C 
ENDROOT
BRANCH   4  10
HETATM   10  C1  UNL     1     -37.027  14.873  -5.241  1.00 20.00     0.182 C 
HETATM   11  O11 UNL     1     -37.544  13.744  -5.013  1.00 20.00    -0.647 OA
HETATM   12  O12 UNL     1     -37.501  15.874  -5.847  1.00 20.00    -0.647 OA
ENDBRANCH   4  10
TORSDOF 1
ENDMDL
MODEL 8
REMARK VINA RESULT:      -4.3      1.934      3.170
REMARK  1 active torsions:
REMARK  status: ('A' for Active; 'I' for Inactive)
REMARK    1  A    between atoms: C1_1  and  C5_5 
ROOT
HETATM    1  C2  UNL     1     -34.872  14.418  -6.997  1.00 20.00     0.022 C 
HETATM    2  C3  UNL     1     -36.408  14.369  -7.058  1.00 20.00     0.011 C 
HETATM    3  C4  UNL     1     -35.693  13.558  -4.916  1.00 20.00     0.031 C 
HETATM    4  C5  UNL     1     -34.704  14.616  -5.489  1.00 20.00     0.057 C 
HETATM    5  C6  UNL     1     -36.726  14.549  -5.557  1.00 20.00    -0.035 C 
HETATM    6  C7  UNL     1     -35.757  15.700  -5.005  1.00 20.00    -0.023 C 
HETATM    7  C8  UNL     1     -38.178  14.487  -5.179  1.00 20.00     0.016 C 
HETATM    8  C9  UNL     1     -35.776  17.038  -5.763  1.00 20.00     0.017 C 
HETATM    9  C10 UNL     1     -35.816  16.035  -3.502  1.00 20.00     0.017 C 
ENDROOT
BRANCH   4  10
HETATM   10  C1  UNL     1     -33.328  14.662  -4.977  1.00 20.00     0.182 C 
HETATM   11  O11 UNL     1     -32.648  15.661  -5.345  1.00 20.00    -0.647 OA
HETATM   12  O12 UNL     1     -33.007  13.693  -4.233  1.00 20.00    -0.647 OA
ENDBRANCH   4  10
TORSDOF 1
ENDMDL
MODEL 9
REMARK VINA RESULT:      -4.3      1.959      3.223
REMARK  1 active torsions:
REMARK  status: ('A' for Active; 'I' for Inactive)
REMARK    1  A    between atoms: C1_1  and  C5_5 
ROOT
HETATM    1  C2  UNL     1     -35.818  13.617  -4.971  1.00 20.00     0.022 C 
HETATM    2  C3  UNL     1     -36.876  14.063  -5.994  1.00 20.00     0.011 C 
HETATM    3  C4  UNL     1     -35.766  16.008  -5.133  1.00 20.00     0.031 C 
HETATM    4  C5  UNL     1     -34.824  14.768  -5.146  1.00 20.00     0.057 C 
HETATM    5  C6  UNL     1     -36.212  15.365  -6.493  1.00 20.00    -0.035 C 
HETATM    6  C7  UNL     1     -34.654  15.051  -6.699  1.00 20.00    -0.023 C 
HETATM    7  C8  UNL     1     -36.998  16.165  -7.492  1.00 20.00     0.016 C 
HETATM    8  C9  UNL     1     -34.306  13.849  -7.592  1.00 20.00     0.017 C 
HETATM    9  C10 UNL     1     -33.734  16.210  -7.128  1.00 20.00     0.017 C 
ENDROOT
BRANCH   4  10
HETATM   10  C1  UNL     1     -33.640  14.758  -4.277  1.00 20.00     0.182 C 
HETATM   11  O11 UNL     1     -32.946  13.703  -4.322  1.00 20.00    -0.647 OA
HETATM   12  O12 UNL     1     -33.472  15.809  -3.598  1.00 20.00    -0.647 OA
ENDBRANCH   4  10
TORSDOF 1
ENDMDL
