MODEL 1
REMARK VINA RESULT:      -4.5      0.000      0.000
REMARK  0 active torsions:
REMARK  status: ('A' for Active; 'I' for Inactive)
ROOT
HETATM    1  C1  UNL     1     -35.351  13.848  -5.071  1.00 20.00     0.147 C 
HETATM    2  C2  UNL     1     -34.299  14.124  -4.013  1.00 20.00     0.085 C 
HETATM    3  C3  UNL     1     -33.231  15.594  -5.730  1.00 20.00     0.008 C 
HETATM    4  C4  UNL     1     -34.333  15.242  -6.754  1.00 20.00     0.030 C 
HETATM    5  C5  UNL     1     -33.995  15.602  -4.378  1.00 20.00     0.002 C 
HETATM    6  C6  UNL     1     -35.578  15.125  -5.865  1.00 20.00     0.086 C 
HETATM    7  C7  UNL     1     -35.384  16.189  -4.766  1.00 20.00    -0.019 C 
HETATM    8  C8  UNL     1     -36.417  16.158  -3.619  1.00 20.00     0.017 C 
HETATM    9  C9  UNL     1     -35.315  17.648  -5.260  1.00 20.00     0.017 C 
HETATM   10  O10 UNL     1     -35.884  12.764  -5.250  1.00 20.00    -0.296 OA
HETATM   11 BR11 UNL     1     -37.226  15.122  -6.795  1.00 20.00    -0.076 Br
ENDROOT
TORSDOF 0
ENDMDL
MODEL 2
REMARK VINA RESULT:      -4.5      1.461      1.922
REMARK  0 active torsions:
REMARK  status: ('A' for Active; 'I' for Inactive)
ROOT
HETATM    1  C1  UNL     1     -35.613  14.021  -5.079  1.00 20.00     0.147 C 
HETATM    2  C2  UNL     1     -36.124  14.987  -4.025  1.00 20.00     0.085 C 
HETATM    3  C3  UNL     1     -33.750  15.747  -3.843  1.00 20.00     0.008 C 
HETATM    4  C4  UNL     1     -33.311  14.719  -4.911  1.00 20.00     0.030 C 
HETATM    5  C5  UNL     1     -35.165  16.171  -4.322  1.00 20.00     0.002 C 
HETATM    6  C6  UNL     1     -34.511  14.712  -5.867  1.00 20.00     0.086 C 
HETATM    7  C7  UNL     1     -35.025  16.165  -5.873  1.00 20.00    -0.019 C 
HETATM    8  C8  UNL     1     -36.355  16.398  -6.620  1.00 20.00     0.017 C 
HETATM    9  C9  UNL     1     -34.029  17.218  -6.401  1.00 20.00     0.017 C 
HETATM   10  O10 UNL     1     -36.018  12.878  -5.222  1.00 20.00    -0.296 OA
HETATM   11 BR11 UNL     1     -34.191  13.892  -7.543  1.00 20.00    -0.076 Br
ENDROOT
TORSDOF 0
ENDMDL
MODEL 3
REMARK VINA RESULT:      -4.4      1.555      2.394
REMARK  0 active torsions:
REMARK  status: ('A' for Active; 'I' for Inactive)
ROOT
HETATM    1  C1  UNL     1     -35.400  13.746  -5.823  1.00 20.00     0.147 C 
HETATM    2  C2  UNL     1     -34.437  13.557  -6.981  1.00 20.00     0.085 C 
HETATM    3  C3  UNL     1     -35.454  15.640  -7.918  1.00 20.00     0.008 C 
HETATM    4  C4  UNL     1     -36.414  15.745  -6.711  1.00 20.00     0.030 C 
HETATM    5  C5  UNL     1     -34.160  15.053  -7.289  1.00 20.00     0.002 C 
HETATM    6  C6  UNL     1     -35.541  15.237  -5.556  1.00 20.00     0.086 C 
HETATM    7  C7  UNL     1     -34.118  15.728  -5.886  1.00 20.00    -0.019 C 
HETATM    8  C8  UNL     1     -32.999  15.189  -4.969  1.00 20.00     0.017 C 
HETATM    9  C9  UNL     1     -33.942  17.258  -5.948  1.00 20.00     0.017 C 
HETATM   10  O10 UNL     1     -35.973  12.835  -5.245  1.00 20.00    -0.296 OA
HETATM   11 BR11 UNL     1     -36.213  15.606  -3.826  1.00 20.00    -0.076 Br
ENDROOT
TORSDOF 0
ENDMDL
MODEL 4
REMARK VINA RESULT:      -4.4      1.819      3.138
REMARK  0 active torsions:
REMARK  status: ('A' for Active; 'I' for Inactive)
ROOT
HETATM    1  C1  UNL     1     -35.799  13.815  -5.837  1.00 20.00     0.147 C 
HETATM    2  C2  UNL     1     -36.665  14.163  -7.035  1.00 20.00     0.085 C 
HETATM    3  C3  UNL     1     -36.642  16.494  -6.132  1.00 20.00     0.008 C 
HETATM    4  C4  UNL     1     -35.777  16.049  -4.931  1.00 20.00     0.030 C 
HETATM    5  C5  UNL     1     -36.127  15.597  -7.290  1.00 20.00     0.002 C 
HETATM    6  C6  UNL     1     -34.869  14.985  -5.562  1.00 20.00     0.086 C 
HETATM    7  C7  UNL     1     -34.602  15.487  -6.995  1.00 20.00    -0.019 C 
HETATM    8  C8  UNL     1     -33.857  14.501  -7.918  1.00 20.00     0.017 C 
HETATM    9  C9  UNL     1     -33.860  16.836  -7.097  1.00 20.00     0.017 C 
HETATM   10  O10 UNL     1     -35.884  12.774  -5.203  1.00 20.00    -0.296 OA
HETATM   11 BR11 UNL     1     -33.370  14.494  -4.516  1.00 20.00    -0.076 Br
ENDROOT
TORSDOF 0
ENDMDL
MODEL 5
REMARK VINA RESULT:      -4.4      1.762      2.206
REMARK  0 active torsions:
REMARK  status: ('A' for Active; 'I' for Inactive)
ROOT
HETATM    1  C1  UNL     1     -35.294  15.210  -5.953  1.00 20.00     0.147 C 
HETATM    2  C2  UNL     1     -35.412  13.962  -5.096  1.00 20.00     0.085 C 
HETATM    3  C3  UNL     1     -33.038  14.410  -4.454  1.00 20.00     0.008 C 
HETATM    4  C4  UNL     1     -32.998  15.656  -5.368  1.00 20.00     0.030 C 
HETATM    5  C5  UNL     1     -34.498  14.408  -3.924  1.00 20.00     0.002 C 
HETATM    6  C6  UNL     1     -34.420  16.214  -5.218  1.00 20.00     0.086 C 
HETATM    7  C7  UNL     1     -34.810  15.924  -3.755  1.00 20.00    -0.019 C 
HETATM    8  C8  UNL     1     -36.278  16.222  -3.386  1.00 20.00     0.017 C 
HETATM    9  C9  UNL     1     -33.936  16.614  -2.687  1.00 20.00     0.017 C 
HETATM   10  O10 UNL     1     -35.802  15.341  -7.055  1.00 20.00    -0.296 OA
HETATM   11 BR11 UNL     1     -34.653  17.983  -5.850  1.00 20.00    -0.076 Br
ENDROOT
TORSDOF 0
ENDMDL
MODEL 6
REMARK VINA RESULT:      -4.2      1.684      1.909
REMARK  0 active torsions:
REMARK  status: ('A' for Active; 'I' for Inactive)
ROOT
HETATM    1  C1  UNL     1     -33.764  14.595  -4.567  1.00 20.00     0.147 C 
HETATM    2  C2  UNL     1     -34.056  15.666  -3.531  1.00 20.00     0.085 C 
HETATM    3  C3  UNL     1     -33.781  17.290  -5.411  1.00 20.00     0.008 C 
HETATM    4  C4  UNL     1     -33.472  16.139  -6.395  1.00 20.00     0.030 C 
HETATM    5  C5  UNL     1     -34.821  16.660  -4.445  1.00 20.00     0.002 C 
HETATM    6  C6  UNL     1     -34.391  15.021  -5.885  1.00 20.00     0.086 C 
HETATM    7  C7  UNL     1     -35.658  15.743  -5.385  1.00 20.00    -0.019 C 
HETATM    8  C8  UNL     1     -36.680  14.856  -4.643  1.00 20.00     0.017 C 
HETATM    9  C9  UNL     1     -36.444  16.522  -6.459  1.00 20.00     0.017 C 
HETATM   10  O10 UNL     1     -33.107  13.588  -4.353  1.00 20.00    -0.296 OA
HETATM   11 BR11 UNL     1     -34.625  13.573  -7.082  1.00 20.00    -0.076 Br
ENDROOT
TORSDOF 0
ENDMDL
MODEL 7
REMARK VINA RESULT:      -4.2      1.481      2.048
REMARK  0 active torsions:
REMARK  status: ('A' for Active; 'I' for Inactive)
ROOT
HETATM    1  C1  UNL     1     -36.750  14.108  -5.477  1.00 20.00     0.147 C 
HETATM    2  C2  UNL     1     -35.414  13.760  -4.846  1.00 20.00     0.085 C 
HETATM    3  C3  UNL     1     -34.611  13.422  -7.189  1.00 20.00     0.008 C 
HETATM    4  C4  UNL     1     -36.010  13.768  -7.746  1.00 20.00     0.030 C 
HETATM    5  C5  UNL     1     -34.488  14.345  -5.946  1.00 20.00     0.002 C 
HETATM    6  C6  UNL     1     -36.487  14.856  -6.774  1.00 20.00     0.086 C 
HETATM    7  C7  UNL     1     -35.215  15.644  -6.403  1.00 20.00    -0.019 C 
HETATM    8  C8  UNL     1     -35.384  16.691  -5.282  1.00 20.00     0.017 C 
HETATM    9  C9  UNL     1     -34.512  16.359  -7.575  1.00 20.00     0.017 C 
HETATM   10  O10 UNL     1     -37.835  13.796  -5.011  1.00 20.00    -0.296 OA
HETATM   11 BR11 UNL     1     -37.989  15.848  -7.360  1.00 20.00    -0.076 Br
ENDROOT
TORSDOF 0
ENDMDL
MODEL 8
REMARK VINA RESULT:      -4.1      1.908      3.138
REMARK  0 active torsions:
REMARK  status: ('A' for Active; 'I' for Inactive)
ROOT
HETATM    1  C1  UNL     1     -34.000  16.432  -6.168  1.00 20.00     0.147 C 
HETATM    2  C2  UNL     1     -32.923  15.633  -5.456  1.00 20.00     0.085 C 
HETATM    3  C3  UNL     1     -34.602  15.365  -3.623  1.00 20.00     0.008 C 
HETATM    4  C4  UNL     1     -35.633  16.208  -4.408  1.00 20.00     0.030 C 
HETATM    5  C5  UNL     1     -33.842  14.604  -4.743  1.00 20.00     0.002 C 
HETATM    6  C6  UNL     1     -35.348  15.800  -5.859  1.00 20.00     0.086 C 
HETATM    7  C7  UNL     1     -34.961  14.310  -5.786  1.00 20.00    -0.019 C 
HETATM    8  C8  UNL     1     -34.441  13.691  -7.100  1.00 20.00     0.017 C 
HETATM    9  C9  UNL     1     -36.058  13.365  -5.255  1.00 20.00     0.017 C 
HETATM   10  O10 UNL     1     -33.788  17.429  -6.841  1.00 20.00    -0.296 OA
HETATM   11 BR11 UNL     1     -36.686  16.294  -7.104  1.00 20.00    -0.076 Br
ENDROOT
TORSDOF 0
ENDMDL
MODEL 9
REMARK VINA RESULT:      -4.1      1.847      2.644
REMARK  0 active torsions:
REMARK  status: ('A' for Active; 'I' for Inactive)
ROOT
HETATM    1  C1  UNL     1     -35.029  16.224  -3.166  1.00 20.00     0.147 C 
HETATM    2  C2  UNL     1     -33.620  16.755  -3.360  1.00 20.00     0.085 C 
HETATM    3  C3  UNL     1     -33.132  14.538  -4.405  1.00 20.00     0.008 C 
HETATM    4  C4  UNL     1     -34.583  14.069  -4.151  1.00 20.00     0.030 C 
HETATM    5  C5  UNL     1     -33.298  16.052  -4.706  1.00 20.00     0.002 C 
HETATM    6  C6  UNL     1     -35.384  15.360  -4.366  1.00 20.00     0.086 C 
HETATM    7  C7  UNL     1     -34.641  16.106  -5.492  1.00 20.00    -0.019 C 
HETATM    8  C8  UNL     1     -35.138  17.539  -5.781  1.00 20.00     0.017 C 
HETATM    9  C9  UNL     1     -34.587  15.374  -6.849  1.00 20.00     0.017 C 
HETATM   10  O10 UNL     1     -35.722  16.446  -2.186  1.00 20.00    -0.296 OA
HETATM   11 BR11 UNL     1     -37.251  15.117  -4.562  1.00 20.00    -0.076 Br
ENDROOT
TORSDOF 0
ENDMDL
