MODEL 1
REMARK VINA RESULT:      -4.4      0.000      0.000
REMARK  1 active torsions:
REMARK  status: ('A' for Active; 'I' for Inactive)
REMARK    1  A    between atoms: C3_3  and  O10_10 
ROOT
HETATM    1  C1  UNL     1     -34.520  13.862  -6.529  1.00 20.00     0.041 C 
HETATM    2  C2  UNL     1     -35.635  15.601  -5.180  1.00 20.00     0.020 C 
HETATM    3  C3  UNL     1     -35.944  13.429  -6.177  1.00 20.00     0.126 C 
HETATM    4  C4  UNL     1     -34.242  15.112  -5.659  1.00 20.00    -0.045 C 
HETATM    5  C5  UNL     1     -36.688  14.754  -5.927  1.00 20.00    -0.021 C 
HETATM    6  C6  UNL     1     -33.521  16.192  -6.475  1.00 20.00     0.015 C 
HETATM    7  C7  UNL     1     -33.363  14.749  -4.450  1.00 20.00     0.015 C 
HETATM    8  C8  UNL     1     -37.956  14.590  -5.080  1.00 20.00     0.017 C 
HETATM    9  C9  UNL     1     -37.080  15.420  -7.259  1.00 20.00     0.017 C 
ENDROOT
BRANCH   3  10
HETATM   10  O10 UNL     1     -35.884  12.618  -5.008  1.00 20.00    -0.395 OA
HETATM   11  H28 UNL     1     -35.723  13.212  -4.255  1.00 20.00     0.210 HD
ENDBRANCH   3  10
TORSDOF 1
ENDMDL
MODEL 2
REMARK VINA RESULT:      -4.2      1.382      2.050
REMARK  1 active torsions:
REMARK  status: ('A' for Active; 'I' for Inactive)
REMARK    1  A    between atoms: C3_3  and  O10_10 
ROOT
HETATM    1  C1  UNL     1     -34.998  13.733  -4.419  1.00 20.00     0.041 C 
HETATM    2  C2  UNL     1     -35.253  15.635  -5.970  1.00 20.00     0.020 C 
HETATM    3  C3  UNL     1     -36.028  13.401  -5.501  1.00 20.00     0.126 C 
HETATM    4  C4  UNL     1     -34.722  15.249  -4.564  1.00 20.00    -0.045 C 
HETATM    5  C5  UNL     1     -35.644  14.319  -6.677  1.00 20.00    -0.021 C 
HETATM    6  C6  UNL     1     -33.222  15.543  -4.434  1.00 20.00     0.015 C 
HETATM    7  C7  UNL     1     -35.468  16.043  -3.479  1.00 20.00     0.015 C 
HETATM    8  C8  UNL     1     -36.793  14.552  -7.667  1.00 20.00     0.017 C 
HETATM    9  C9  UNL     1     -34.447  13.740  -7.454  1.00 20.00     0.017 C 
ENDROOT
BRANCH   3  10
HETATM   10  O10 UNL     1     -37.321  13.699  -4.987  1.00 20.00    -0.395 OA
HETATM   11  H28 UNL     1     -37.505  14.632  -5.194  1.00 20.00     0.210 HD
ENDBRANCH   3  10
TORSDOF 1
ENDMDL
MODEL 3
REMARK VINA RESULT:      -4.1      1.158      3.141
REMARK  1 active torsions:
REMARK  status: ('A' for Active; 'I' for Inactive)
REMARK    1  A    between atoms: C3_3  and  O10_10 
ROOT
HETATM    1  C1  UNL     1     -36.243  14.969  -4.342  1.00 20.00     0.041 C 
HETATM    2  C2  UNL     1     -36.600  14.957  -6.784  1.00 20.00     0.020 C 
HETATM    3  C3  UNL     1     -35.313  13.954  -5.009  1.00 20.00     0.126 C 
HETATM    4  C4  UNL     1     -37.246  15.394  -5.442  1.00 20.00    -0.045 C 
HETATM    5  C5  UNL     1     -35.173  14.468  -6.455  1.00 20.00    -0.021 C 
HETATM    6  C6  UNL     1     -37.482  16.910  -5.404  1.00 20.00     0.015 C 
HETATM    7  C7  UNL     1     -38.598  14.687  -5.249  1.00 20.00     0.015 C 
HETATM    8  C8  UNL     1     -34.725  13.386  -7.445  1.00 20.00     0.017 C 
HETATM    9  C9  UNL     1     -34.167  15.633  -6.524  1.00 20.00     0.017 C 
ENDROOT
BRANCH   3  10
HETATM   10  O10 UNL     1     -35.939  12.676  -4.953  1.00 20.00    -0.395 OA
HETATM   11  H28 UNL     1     -35.865  12.360  -4.036  1.00 20.00     0.210 HD
ENDBRANCH   3  10
TORSDOF 1
ENDMDL
MODEL 4
REMARK VINA RESULT:      -4.0      1.542      3.043
REMARK  1 active torsions:
REMARK  status: ('A' for Active; 'I' for Inactive)
REMARK    1  A    between atoms: C3_3  and  O10_10 
ROOT
HETATM    1  C1  UNL     1     -35.436  13.503  -5.265  1.00 20.00     0.041 C 
HETATM    2  C2  UNL     1     -34.863  15.848  -5.774  1.00 20.00     0.020 C 
HETATM    3  C3  UNL     1     -34.516  14.071  -4.183  1.00 20.00     0.126 C 
HETATM    4  C4  UNL     1     -35.422  14.547  -6.408  1.00 20.00    -0.045 C 
HETATM    5  C5  UNL     1     -34.747  15.592  -4.256  1.00 20.00    -0.021 C 
HETATM    6  C6  UNL     1     -36.835  14.760  -6.965  1.00 20.00     0.015 C 
HETATM    7  C7  UNL     1     -34.512  14.082  -7.557  1.00 20.00     0.015 C 
HETATM    8  C8  UNL     1     -33.600  16.412  -3.651  1.00 20.00     0.017 C 
HETATM    9  C9  UNL     1     -36.051  15.982  -3.535  1.00 20.00     0.017 C 
ENDROOT
BRANCH   3  10
HETATM   10  O10 UNL     1     -33.177  13.716  -4.510  1.00 20.00    -0.395 OA
HETATM   11  H28 UNL     1     -33.091  13.773  -5.477  1.00 20.00     0.210 HD
ENDBRANCH   3  10
TORSDOF 1
ENDMDL
MODEL 5
REMARK VINA RESULT:      -3.9      9.554     10.895
REMARK  1 active torsions:
REMARK  status: ('A' for Active; 'I' for Inactive)
REMARK    1  A    between atoms: C3_3  and  O10_10 
ROOT
HETATM    1  C1  UNL     1     -31.398   8.440   1.568  1.00 20.00     0.041 C 
HETATM    2  C2  UNL     1     -33.759   8.638   2.257  1.00 20.00     0.020 C 
HETATM    3  C3  UNL     1     -31.604   7.802   2.942  1.00 20.00     0.126 C 
HETATM    4  C4  UNL     1     -32.707   9.210   1.270  1.00 20.00    -0.045 C 
HETATM    5  C5  UNL     1     -33.100   7.434   2.964  1.00 20.00    -0.021 C 
HETATM    6  C6  UNL     1     -33.139   9.004  -0.188  1.00 20.00     0.015 C 
HETATM    7  C7  UNL     1     -32.518  10.717   1.511  1.00 20.00     0.015 C 
HETATM    8  C8  UNL     1     -33.663   7.257   4.379  1.00 20.00     0.017 C 
HETATM    9  C9  UNL     1     -33.353   6.134   2.177  1.00 20.00     0.017 C 
ENDROOT
BRANCH   3  10
HETATM   10  O10 UNL     1     -31.276   8.770   3.933  1.00 20.00    -0.395 OA
HETATM   11  H28 UNL     1     -32.041   9.365   4.018  1.00 20.00     0.210 HD
ENDBRANCH   3  10
TORSDOF 1
ENDMDL
MODEL 6
REMARK VINA RESULT:      -3.9      3.409      4.641
REMARK  1 active torsions:
REMARK  status: ('A' for Active; 'I' for Inactive)
REMARK    1  A    between atoms: C3_3  and  O10_10 
ROOT
HETATM    1  C1  UNL     1     -34.765  18.335  -3.314  1.00 20.00     0.041 C 
HETATM    2  C2  UNL     1     -33.690  16.116  -3.201  1.00 20.00     0.020 C 
HETATM    3  C3  UNL     1     -34.210  17.944  -4.685  1.00 20.00     0.126 C 
HETATM    4  C4  UNL     1     -34.185  17.297  -2.323  1.00 20.00    -0.045 C 
HETATM    5  C5  UNL     1     -34.160  16.405  -4.644  1.00 20.00    -0.021 C 
HETATM    6  C6  UNL     1     -35.258  16.840  -1.327  1.00 20.00     0.015 C 
HETATM    7  C7  UNL     1     -33.012  17.897  -1.531  1.00 20.00     0.015 C 
HETATM    8  C8  UNL     1     -33.188  15.799  -5.664  1.00 20.00     0.017 C 
HETATM    9  C9  UNL     1     -35.557  15.807  -4.893  1.00 20.00     0.017 C 
ENDROOT
BRANCH   3  10
HETATM   10  O10 UNL     1     -32.914  18.519  -4.819  1.00 20.00    -0.395 OA
HETATM   11  H28 UNL     1     -32.384  17.909  -5.360  1.00 20.00     0.210 HD
ENDBRANCH   3  10
TORSDOF 1
ENDMDL
MODEL 7
REMARK VINA RESULT:      -3.9      1.808      2.344
REMARK  1 active torsions:
REMARK  status: ('A' for Active; 'I' for Inactive)
REMARK    1  A    between atoms: C3_3  and  O10_10 
ROOT
HETATM    1  C1  UNL     1     -33.361  16.186  -5.243  1.00 20.00     0.041 C 
HETATM    2  C2  UNL     1     -35.536  15.648  -4.209  1.00 20.00     0.020 C 
HETATM    3  C3  UNL     1     -33.783  14.761  -5.607  1.00 20.00     0.126 C 
HETATM    4  C4  UNL     1     -34.341  16.636  -4.133  1.00 20.00    -0.045 C 
HETATM    5  C5  UNL     1     -35.317  14.778  -5.465  1.00 20.00    -0.021 C 
HETATM    6  C6  UNL     1     -34.798  18.082  -4.365  1.00 20.00     0.015 C 
HETATM    7  C7  UNL     1     -33.672  16.554  -2.751  1.00 20.00     0.015 C 
HETATM    8  C8  UNL     1     -35.926  13.383  -5.276  1.00 20.00     0.017 C 
HETATM    9  C9  UNL     1     -35.972  15.427  -6.699  1.00 20.00     0.017 C 
ENDROOT
BRANCH   3  10
HETATM   10  O10 UNL     1     -33.170  13.868  -4.684  1.00 20.00    -0.395 OA
HETATM   11  H28 UNL     1     -32.764  13.153  -5.203  1.00 20.00     0.210 HD
ENDBRANCH   3  10
TORSDOF 1
ENDMDL
MODEL 8
REMARK VINA RESULT:      -3.9      2.185      3.438
REMARK  1 active torsions:
REMARK  status: ('A' for Active; 'I' for Inactive)
REMARK    1  A    between atoms: C3_3  and  O10_10 
ROOT
HETATM    1  C1  UNL     1     -35.973  15.978  -5.469  1.00 20.00     0.041 C 
HETATM    2  C2  UNL     1     -34.425  15.000  -3.815  1.00 20.00     0.020 C 
HETATM    3  C3  UNL     1     -36.130  16.677  -4.118  1.00 20.00     0.126 C 
HETATM    4  C4  UNL     1     -35.093  14.736  -5.191  1.00 20.00    -0.045 C 
HETATM    5  C5  UNL     1     -34.775  16.451  -3.419  1.00 20.00    -0.021 C 
HETATM    6  C6  UNL     1     -34.043  14.556  -6.295  1.00 20.00     0.015 C 
HETATM    7  C7  UNL     1     -35.953  13.463  -5.127  1.00 20.00     0.015 C 
HETATM    8  C8  UNL     1     -34.845  16.598  -1.894  1.00 20.00     0.017 C 
HETATM    9  C9  UNL     1     -33.716  17.433  -3.952  1.00 20.00     0.017 C 
ENDROOT
BRANCH   3  10
HETATM   10  O10 UNL     1     -37.204  16.056  -3.420  1.00 20.00    -0.395 OA
HETATM   11  H28 UNL     1     -37.715  15.547  -4.072  1.00 20.00     0.210 HD
ENDBRANCH   3  10
TORSDOF 1
ENDMDL
MODEL 9
REMARK VINA RESULT:      -3.9      1.708      2.258
REMARK  1 active torsions:
REMARK  status: ('A' for Active; 'I' for Inactive)
REMARK    1  A    between atoms: C3_3  and  O10_10 
ROOT
HETATM    1  C1  UNL     1     -33.261  15.922  -5.803  1.00 20.00     0.041 C 
HETATM    2  C2  UNL     1     -35.075  14.614  -4.761  1.00 20.00     0.020 C 
HETATM    3  C3  UNL     1     -34.188  15.351  -6.877  1.00 20.00     0.126 C 
HETATM    4  C4  UNL     1     -33.672  15.217  -4.487  1.00 20.00    -0.045 C 
HETATM    5  C5  UNL     1     -35.525  15.135  -6.143  1.00 20.00    -0.021 C 
HETATM    6  C6  UNL     1     -33.712  16.218  -3.325  1.00 20.00     0.015 C 
HETATM    7  C7  UNL     1     -32.675  14.102  -4.133  1.00 20.00     0.015 C 
HETATM    8  C8  UNL     1     -36.443  14.121  -6.836  1.00 20.00     0.017 C 
HETATM    9  C9  UNL     1     -36.291  16.464  -6.002  1.00 20.00     0.017 C 
ENDROOT
BRANCH   3  10
HETATM   10  O10 UNL     1     -33.627  14.128  -7.341  1.00 20.00    -0.395 OA
HETATM   11  H28 UNL     1     -32.791  14.345  -7.787  1.00 20.00     0.210 HD
ENDBRANCH   3  10
TORSDOF 1
ENDMDL
