MODEL 1
REMARK VINA RESULT:      -5.0      0.000      0.000
REMARK  3 active torsions:
REMARK  status: ('A' for Active; 'I' for Inactive)
REMARK    1  A    between atoms: C1_1  and  C6_6 
REMARK    2  A    between atoms: C1_1  and  O8_8 
REMARK    3  A    between atoms: C4_4  and  C6_6 
ROOT
HETATM    1  C6  UNL     1     -33.665   6.322   3.346  1.00 20.00     0.115 C 
ENDROOT
BRANCH   1   2
HETATM    2  C1  UNL     1     -34.386   6.099   4.664  1.00 20.00     0.139 C 
HETATM    3  O7  UNL     1     -34.192   6.734   5.689  1.00 20.00    -0.650 OA
BRANCH   2   4
HETATM    4  O8  UNL     1     -35.286   5.088   4.561  1.00 20.00    -0.776 OA
HETATM    5  H18 UNL     1     -35.316   4.715   3.654  1.00 20.00     0.167 HD
ENDBRANCH   2   4
ENDBRANCH   1   2
BRANCH   1   6
HETATM    6  C4  UNL     1     -33.157   7.714   3.189  1.00 20.00    -0.001 A 
HETATM    7  C2  UNL     1     -31.708   8.026   3.455  1.00 20.00     0.010 A 
HETATM    8  C3  UNL     1     -32.238   8.059   2.046  1.00 20.00    -0.014 A 
HETATM    9  C5  UNL     1     -32.388   9.358   1.332  1.00 20.00     0.010 C 
ENDBRANCH   1   6
TORSDOF 3
ENDMDL
MODEL 2
REMARK VINA RESULT:      -4.9      2.487      4.166
REMARK  3 active torsions:
REMARK  status: ('A' for Active; 'I' for Inactive)
REMARK    1  A    between atoms: C1_1  and  C6_6 
REMARK    2  A    between atoms: C1_1  and  O8_8 
REMARK    3  A    between atoms: C4_4  and  C6_6 
ROOT
HETATM    1  C6  UNL     1     -32.912   6.598   2.796  1.00 20.00     0.115 C 
ENDROOT
BRANCH   1   2
HETATM    2  C1  UNL     1     -32.206   7.942   2.739  1.00 20.00     0.139 C 
HETATM    3  O7  UNL     1     -31.398   8.348   3.559  1.00 20.00    -0.650 OA
BRANCH   2   4
HETATM    4  O8  UNL     1     -32.591   8.648   1.646  1.00 20.00    -0.776 OA
HETATM    5  H18 UNL     1     -32.592   9.615   1.815  1.00 20.00     0.167 HD
ENDBRANCH   2   4
ENDBRANCH   1   2
BRANCH   1   6
HETATM    6  C4  UNL     1     -33.920   6.517   3.891  1.00 20.00    -0.001 A 
HETATM    7  C2  UNL     1     -35.320   6.047   3.598  1.00 20.00     0.010 A 
HETATM    8  C3  UNL     1     -34.384   5.174   4.392  1.00 20.00    -0.014 A 
HETATM    9  C5  UNL     1     -34.616   4.959   5.848  1.00 20.00     0.010 C 
ENDBRANCH   1   6
TORSDOF 3
ENDMDL
MODEL 3
REMARK VINA RESULT:      -4.7      1.106      1.402
REMARK  3 active torsions:
REMARK  status: ('A' for Active; 'I' for Inactive)
REMARK    1  A    between atoms: C1_1  and  C6_6 
REMARK    2  A    between atoms: C1_1  and  O8_8 
REMARK    3  A    between atoms: C4_4  and  C6_6 
ROOT
HETATM    1  C6  UNL     1     -34.072   7.103   4.854  1.00 20.00     0.115 C 
ENDROOT
BRANCH   1   2
HETATM    2  C1  UNL     1     -34.651   5.712   5.053  1.00 20.00     0.139 C 
HETATM    3  O7  UNL     1     -34.270   4.904   5.886  1.00 20.00    -0.650 OA
BRANCH   2   4
HETATM    4  O8  UNL     1     -35.659   5.475   4.177  1.00 20.00    -0.776 OA
HETATM    5  H18 UNL     1     -36.348   6.173   4.213  1.00 20.00     0.167 HD
ENDBRANCH   2   4
ENDBRANCH   1   2
BRANCH   1   6
HETATM    6  C4  UNL     1     -32.881   7.114   3.958  1.00 20.00    -0.001 A 
HETATM    7  C2  UNL     1     -32.856   6.254   2.722  1.00 20.00     0.010 A 
HETATM    8  C3  UNL     1     -32.969   7.751   2.595  1.00 20.00    -0.014 A 
HETATM    9  C5  UNL     1     -31.824   8.545   2.066  1.00 20.00     0.010 C 
ENDBRANCH   1   6
TORSDOF 3
ENDMDL
MODEL 4
REMARK VINA RESULT:      -4.6      3.379      4.529
REMARK  3 active torsions:
REMARK  status: ('A' for Active; 'I' for Inactive)
REMARK    1  A    between atoms: C1_1  and  C6_6 
REMARK    2  A    between atoms: C1_1  and  O8_8 
REMARK    3  A    between atoms: C4_4  and  C6_6 
ROOT
HETATM    1  C6  UNL     1     -32.010   8.559   1.752  1.00 20.00     0.115 C 
ENDROOT
BRANCH   1   2
HETATM    2  C1  UNL     1     -32.604   9.540   0.756  1.00 20.00     0.139 C 
HETATM    3  O7  UNL     1     -32.981   9.259  -0.371  1.00 20.00    -0.650 OA
BRANCH   2   4
HETATM    4  O8  UNL     1     -32.664  10.791   1.281  1.00 20.00    -0.776 OA
HETATM    5  H18 UNL     1     -33.566  11.172   1.217  1.00 20.00     0.167 HD
ENDBRANCH   2   4
ENDBRANCH   1   2
BRANCH   1   6
HETATM    6  C4  UNL     1     -33.045   7.841   2.549  1.00 20.00    -0.001 A 
HETATM    7  C2  UNL     1     -32.952   6.351   2.743  1.00 20.00     0.010 A 
HETATM    8  C3  UNL     1     -32.699   7.278   3.903  1.00 20.00    -0.014 A 
HETATM    9  C5  UNL     1     -33.681   7.363   5.020  1.00 20.00     0.010 C 
ENDBRANCH   1   6
TORSDOF 3
ENDMDL
MODEL 5
REMARK VINA RESULT:      -4.6      2.979      4.285
REMARK  3 active torsions:
REMARK  status: ('A' for Active; 'I' for Inactive)
REMARK    1  A    between atoms: C1_1  and  C6_6 
REMARK    2  A    between atoms: C1_1  and  O8_8 
REMARK    3  A    between atoms: C4_4  and  C6_6 
ROOT
HETATM    1  C6  UNL     1     -32.223   7.902   2.771  1.00 20.00     0.115 C 
ENDROOT
BRANCH   1   2
HETATM    2  C1  UNL     1     -32.171   8.875   1.606  1.00 20.00     0.139 C 
HETATM    3  O7  UNL     1     -32.909   9.838   1.460  1.00 20.00    -0.650 OA
BRANCH   2   4
HETATM    4  O8  UNL     1     -31.189   8.538   0.732  1.00 20.00    -0.776 OA
HETATM    5  H18 UNL     1     -31.535   8.415  -0.178  1.00 20.00     0.167 HD
ENDBRANCH   2   4
ENDBRANCH   1   2
BRANCH   1   6
HETATM    6  C4  UNL     1     -33.330   6.911   2.652  1.00 20.00    -0.001 A 
HETATM    7  C2  UNL     1     -33.032   5.435   2.689  1.00 20.00     0.010 A 
HETATM    8  C3  UNL     1     -33.739   6.090   3.847  1.00 20.00    -0.014 A 
HETATM    9  C5  UNL     1     -35.180   5.806   4.100  1.00 20.00     0.010 C 
ENDBRANCH   1   6
TORSDOF 3
ENDMDL
MODEL 6
REMARK VINA RESULT:      -4.5      1.630      2.682
REMARK  3 active torsions:
REMARK  status: ('A' for Active; 'I' for Inactive)
REMARK    1  A    between atoms: C1_1  and  C6_6 
REMARK    2  A    between atoms: C1_1  and  O8_8 
REMARK    3  A    between atoms: C4_4  and  C6_6 
ROOT
HETATM    1  C6  UNL     1     -31.902   8.258   2.743  1.00 20.00     0.115 C 
ENDROOT
BRANCH   1   2
HETATM    2  C1  UNL     1     -32.700   7.414   3.723  1.00 20.00     0.139 C 
HETATM    3  O7  UNL     1     -33.415   6.471   3.421  1.00 20.00    -0.650 OA
BRANCH   2   4
HETATM    4  O8  UNL     1     -32.517   7.845   4.997  1.00 20.00    -0.776 OA
HETATM    5  H18 UNL     1     -33.060   8.639   5.197  1.00 20.00     0.167 HD
ENDBRANCH   2   4
ENDBRANCH   1   2
BRANCH   1   6
HETATM    6  C4  UNL     1     -32.763   8.990   1.771  1.00 20.00    -0.001 A 
HETATM    7  C2  UNL     1     -32.478  10.431   1.443  1.00 20.00     0.010 A 
HETATM    8  C3  UNL     1     -32.222   9.361   0.415  1.00 20.00    -0.014 A 
HETATM    9  C5  UNL     1     -33.093   9.258  -0.790  1.00 20.00     0.010 C 
ENDBRANCH   1   6
TORSDOF 3
ENDMDL
MODEL 7
REMARK VINA RESULT:      -4.2     10.967     11.369
REMARK  3 active torsions:
REMARK  status: ('A' for Active; 'I' for Inactive)
REMARK    1  A    between atoms: C1_1  and  C6_6 
REMARK    2  A    between atoms: C1_1  and  O8_8 
REMARK    3  A    between atoms: C4_4  and  C6_6 
ROOT
HETATM    1  C6  UNL     1     -35.825  15.090  -5.025  1.00 20.00     0.115 C 
ENDROOT
BRANCH   1   2
HETATM    2  C1  UNL     1     -36.690  13.841  -5.029  1.00 20.00     0.139 C 
HETATM    3  O7  UNL     1     -37.911  13.830  -5.016  1.00 20.00    -0.650 OA
BRANCH   2   4
HETATM    4  O8  UNL     1     -35.925  12.720  -5.049  1.00 20.00    -0.776 OA
HETATM    5  H18 UNL     1     -35.048  12.882  -5.460  1.00 20.00     0.167 HD
ENDBRANCH   2   4
ENDBRANCH   1   2
BRANCH   1   6
HETATM    6  C4  UNL     1     -34.865  15.129  -3.886  1.00 20.00    -0.001 A 
HETATM    7  C2  UNL     1     -33.382  15.080  -4.144  1.00 20.00     0.010 A 
HETATM    8  C3  UNL     1     -34.019  16.354  -3.653  1.00 20.00    -0.014 A 
HETATM    9  C5  UNL     1     -33.762  16.832  -2.266  1.00 20.00     0.010 C 
ENDBRANCH   1   6
TORSDOF 3
ENDMDL
MODEL 8
REMARK VINA RESULT:      -4.1     11.039     11.387
REMARK  3 active torsions:
REMARK  status: ('A' for Active; 'I' for Inactive)
REMARK    1  A    between atoms: C1_1  and  C6_6 
REMARK    2  A    between atoms: C1_1  and  O8_8 
REMARK    3  A    between atoms: C4_4  and  C6_6 
ROOT
HETATM    1  C6  UNL     1     -35.896  15.127  -4.896  1.00 20.00     0.115 C 
ENDROOT
BRANCH   1   2
HETATM    2  C1  UNL     1     -36.494  13.743  -5.084  1.00 20.00     0.139 C 
HETATM    3  O7  UNL     1     -35.856  12.720  -5.276  1.00 20.00    -0.650 OA
BRANCH   2   4
HETATM    4  O8  UNL     1     -37.849  13.785  -5.013  1.00 20.00    -0.776 OA
HETATM    5  H18 UNL     1     -38.257  13.962  -5.888  1.00 20.00     0.167 HD
ENDBRANCH   2   4
ENDBRANCH   1   2
BRANCH   1   6
HETATM    6  C4  UNL     1     -34.849  15.168  -3.836  1.00 20.00    -0.001 A 
HETATM    7  C2  UNL     1     -33.391  15.115  -4.210  1.00 20.00     0.010 A 
HETATM    8  C3  UNL     1     -33.985  16.392  -3.676  1.00 20.00    -0.014 A 
HETATM    9  C5  UNL     1     -33.619  16.876  -2.315  1.00 20.00     0.010 C 
ENDBRANCH   1   6
TORSDOF 3
ENDMDL
MODEL 9
REMARK VINA RESULT:      -4.0     11.005     11.429
REMARK  3 active torsions:
REMARK  status: ('A' for Active; 'I' for Inactive)
REMARK    1  A    between atoms: C1_1  and  C6_6 
REMARK    2  A    between atoms: C1_1  and  O8_8 
REMARK    3  A    between atoms: C4_4  and  C6_6 
ROOT
HETATM    1  C6  UNL     1     -35.471  15.144  -4.673  1.00 20.00     0.115 C 
ENDROOT
BRANCH   1   2
HETATM    2  C1  UNL     1     -35.128  13.755  -5.182  1.00 20.00     0.139 C 
HETATM    3  O7  UNL     1     -35.892  12.802  -5.199  1.00 20.00    -0.650 OA
BRANCH   2   4
HETATM    4  O8  UNL     1     -33.845  13.701  -5.623  1.00 20.00    -0.776 OA
HETATM    5  H18 UNL     1     -33.242  14.233  -5.061  1.00 20.00     0.167 HD
ENDBRANCH   2   4
ENDBRANCH   1   2
BRANCH   1   6
HETATM    6  C4  UNL     1     -34.825  15.460  -3.368  1.00 20.00    -0.001 A 
HETATM    7  C2  UNL     1     -33.705  16.466  -3.301  1.00 20.00     0.010 A 
HETATM    8  C3  UNL     1     -35.053  16.800  -2.717  1.00 20.00    -0.014 A 
HETATM    9  C5  UNL     1     -35.227  16.895  -1.241  1.00 20.00     0.010 C 
ENDBRANCH   1   6
TORSDOF 3
ENDMDL
