MODEL 1
REMARK VINA RESULT:      -6.0      0.000      0.000
REMARK  3 active torsions:
REMARK  status: ('A' for Active; 'I' for Inactive)
REMARK    1  A    between atoms: C1_1  and  C4_4 
REMARK    2  A    between atoms: C2_2  and  C9_9 
REMARK    3  A    between atoms: C9_9  and  N10_10 
ROOT
HETATM    1  C5  UNL     1     -34.204   5.224   5.810  1.00 20.00     0.032 C 
HETATM    2  C6  UNL     1     -34.746   4.729   4.478  1.00 20.00     0.032 C 
HETATM    3  C7  UNL     1     -34.160   6.740   5.687  1.00 20.00     0.273 C 
HETATM    4  C8  UNL     1     -34.986   5.984   3.651  1.00 20.00     0.273 C 
HETATM    5  N10 UNL     1     -34.156   7.038   4.249  1.00 20.00     0.099 N 
ENDROOT
BRANCH   5   6
HETATM    6  C9  UNL     1     -32.782   6.970   3.718  1.00 20.00     0.366 C 
BRANCH   6   7
HETATM    7  C2  UNL     1     -32.602   7.910   2.609  1.00 20.00    -0.072 C 
HETATM    8  C1  UNL     1     -32.459   8.683   1.700  1.00 20.00    -0.078 C 
BRANCH   8   9
HETATM    9  C4  UNL     1     -32.297   9.596   0.624  1.00 20.00     0.054 C 
HETATM   10  C3  UNL     1     -33.047   9.523  -0.480  1.00 20.00     0.020 C 
ENDBRANCH   8   9
ENDBRANCH   6   7
ENDBRANCH   5   6
TORSDOF 3
ENDMDL
MODEL 2
REMARK VINA RESULT:      -5.5      0.961      1.174
REMARK  3 active torsions:
REMARK  status: ('A' for Active; 'I' for Inactive)
REMARK    1  A    between atoms: C1_1  and  C4_4 
REMARK    2  A    between atoms: C2_2  and  C9_9 
REMARK    3  A    between atoms: C9_9  and  N10_10 
ROOT
HETATM    1  C5  UNL     1     -34.054   6.505   5.967  1.00 20.00     0.032 C 
HETATM    2  C6  UNL     1     -34.366   5.031   5.752  1.00 20.00     0.032 C 
HETATM    3  C7  UNL     1     -34.491   7.199   4.685  1.00 20.00     0.273 C 
HETATM    4  C8  UNL     1     -34.965   4.947   4.355  1.00 20.00     0.273 C 
HETATM    5  N10 UNL     1     -34.534   6.160   3.647  1.00 20.00     0.099 N 
ENDROOT
BRANCH   5   6
HETATM    6  C9  UNL     1     -33.193   5.963   3.067  1.00 20.00     0.366 C 
BRANCH   6   7
HETATM    7  C2  UNL     1     -32.729   7.180   2.395  1.00 20.00    -0.072 C 
HETATM    8  C1  UNL     1     -32.349   8.176   1.840  1.00 20.00    -0.078 C 
BRANCH   8   9
HETATM    9  C4  UNL     1     -31.901   9.349   1.177  1.00 20.00     0.054 C 
HETATM   10  C3  UNL     1     -32.701  10.402   0.990  1.00 20.00     0.020 C 
ENDBRANCH   8   9
ENDBRANCH   6   7
ENDBRANCH   5   6
TORSDOF 3
ENDMDL
MODEL 3
REMARK VINA RESULT:      -4.7      1.545      5.308
REMARK  3 active torsions:
REMARK  status: ('A' for Active; 'I' for Inactive)
REMARK    1  A    between atoms: C1_1  and  C4_4 
REMARK    2  A    between atoms: C2_2  and  C9_9 
REMARK    3  A    between atoms: C9_9  and  N10_10 
ROOT
HETATM    1  C5  UNL     1     -32.934  10.462   1.401  1.00 20.00     0.032 C 
HETATM    2  C6  UNL     1     -32.417   9.904   0.083  1.00 20.00     0.032 C 
HETATM    3  C7  UNL     1     -32.217   9.668   2.483  1.00 20.00     0.273 C 
HETATM    4  C8  UNL     1     -31.428   8.814   0.470  1.00 20.00     0.273 C 
HETATM    5  N10 UNL     1     -31.759   8.425   1.848  1.00 20.00     0.099 N 
ENDROOT
BRANCH   5   6
HETATM    6  C9  UNL     1     -32.840   7.424   1.849  1.00 20.00     0.366 C 
BRANCH   6   7
HETATM    7  C2  UNL     1     -33.293   7.143   3.214  1.00 20.00    -0.072 C 
HETATM    8  C1  UNL     1     -33.665   6.909   4.332  1.00 20.00    -0.078 C 
BRANCH   8   9
HETATM    9  C4  UNL     1     -34.107   6.625   5.652  1.00 20.00     0.054 C 
HETATM   10  C3  UNL     1     -34.644   5.445   5.976  1.00 20.00     0.020 C 
ENDBRANCH   8   9
ENDBRANCH   6   7
ENDBRANCH   5   6
TORSDOF 3
ENDMDL
MODEL 4
REMARK VINA RESULT:      -4.1     11.029     11.693
REMARK  3 active torsions:
REMARK  status: ('A' for Active; 'I' for Inactive)
REMARK    1  A    between atoms: C1_1  and  C4_4 
REMARK    2  A    between atoms: C2_2  and  C9_9 
REMARK    3  A    between atoms: C9_9  and  N10_10 
ROOT
HETATM    1  C5  UNL     1     -34.233  14.522  -6.625  1.00 20.00     0.032 C 
HETATM    2  C6  UNL     1     -35.585  13.838  -6.772  1.00 20.00     0.032 C 
HETATM    3  C7  UNL     1     -33.879  14.398  -5.151  1.00 20.00     0.273 C 
HETATM    4  C8  UNL     1     -35.944  13.356  -5.374  1.00 20.00     0.273 C 
HETATM    5  N10 UNL     1     -35.142  14.159  -4.440  1.00 20.00     0.099 N 
ENDROOT
BRANCH   5   6
HETATM    6  C9  UNL     1     -35.818  15.438  -4.156  1.00 20.00     0.366 C 
BRANCH   6   7
HETATM    7  C2  UNL     1     -35.138  16.161  -3.079  1.00 20.00    -0.072 C 
HETATM    8  C1  UNL     1     -34.582  16.750  -2.192  1.00 20.00    -0.078 C 
BRANCH   8   9
HETATM    9  C4  UNL     1     -33.926  17.442  -1.139  1.00 20.00     0.054 C 
HETATM   10  C3  UNL     1     -32.766  18.076  -1.327  1.00 20.00     0.020 C 
ENDBRANCH   8   9
ENDBRANCH   6   7
ENDBRANCH   5   6
TORSDOF 3
ENDMDL
MODEL 5
REMARK VINA RESULT:      -4.0     11.350     12.241
REMARK  3 active torsions:
REMARK  status: ('A' for Active; 'I' for Inactive)
REMARK    1  A    between atoms: C1_1  and  C4_4 
REMARK    2  A    between atoms: C2_2  and  C9_9 
REMARK    3  A    between atoms: C9_9  and  N10_10 
ROOT
HETATM    1  C5  UNL     1     -35.479  13.617  -6.259  1.00 20.00     0.032 C 
HETATM    2  C6  UNL     1     -34.437  13.596  -7.367  1.00 20.00     0.032 C 
HETATM    3  C7  UNL     1     -35.523  15.060  -5.777  1.00 20.00     0.273 C 
HETATM    4  C8  UNL     1     -33.929  15.027  -7.469  1.00 20.00     0.273 C 
HETATM    5  N10 UNL     1     -34.253  15.672  -6.189  1.00 20.00     0.099 N 
ENDROOT
BRANCH   5   6
HETATM    6  C9  UNL     1     -33.203  15.387  -5.193  1.00 20.00     0.366 C 
BRANCH   6   7
HETATM    7  C2  UNL     1     -33.530  15.991  -3.899  1.00 20.00    -0.072 C 
HETATM    8  C1  UNL     1     -33.797  16.491  -2.840  1.00 20.00    -0.078 C 
BRANCH   8   9
HETATM    9  C4  UNL     1     -34.110  17.088  -1.590  1.00 20.00     0.054 C 
HETATM   10  C3  UNL     1     -35.345  17.052  -1.081  1.00 20.00     0.020 C 
ENDBRANCH   8   9
ENDBRANCH   6   7
ENDBRANCH   5   6
TORSDOF 3
ENDMDL
MODEL 6
REMARK VINA RESULT:      -3.9     11.225     12.323
REMARK  3 active torsions:
REMARK  status: ('A' for Active; 'I' for Inactive)
REMARK    1  A    between atoms: C1_1  and  C4_4 
REMARK    2  A    between atoms: C2_2  and  C9_9 
REMARK    3  A    between atoms: C9_9  and  N10_10 
ROOT
HETATM    1  C5  UNL     1     -33.811  16.312  -6.871  1.00 20.00     0.032 C 
HETATM    2  C6  UNL     1     -34.578  15.105  -7.392  1.00 20.00     0.032 C 
HETATM    3  C7  UNL     1     -33.124  15.832  -5.601  1.00 20.00     0.273 C 
HETATM    4  C8  UNL     1     -34.298  13.990  -6.395  1.00 20.00     0.273 C 
HETATM    5  N10 UNL     1     -33.864  14.645  -5.153  1.00 20.00     0.099 N 
ENDROOT
BRANCH   5   6
HETATM    6  C9  UNL     1     -35.035  15.047  -4.352  1.00 20.00     0.366 C 
BRANCH   6   7
HETATM    7  C2  UNL     1     -34.636  15.911  -3.238  1.00 20.00    -0.072 C 
HETATM    8  C1  UNL     1     -34.304  16.620  -2.327  1.00 20.00    -0.078 C 
BRANCH   8   9
HETATM    9  C4  UNL     1     -33.906  17.461  -1.254  1.00 20.00     0.054 C 
HETATM   10  C3  UNL     1     -32.749  18.129  -1.274  1.00 20.00     0.020 C 
ENDBRANCH   8   9
ENDBRANCH   6   7
ENDBRANCH   5   6
TORSDOF 3
ENDMDL
MODEL 7
REMARK VINA RESULT:      -3.8     10.522     11.878
REMARK  3 active torsions:
REMARK  status: ('A' for Active; 'I' for Inactive)
REMARK    1  A    between atoms: C1_1  and  C4_4 
REMARK    2  A    between atoms: C2_2  and  C9_9 
REMARK    3  A    between atoms: C9_9  and  N10_10 
ROOT
HETATM    1  C5  UNL     1     -34.374  15.445  -6.175  1.00 20.00     0.032 C 
HETATM    2  C6  UNL     1     -35.123  14.302  -5.504  1.00 20.00     0.032 C 
HETATM    3  C7  UNL     1     -33.244  15.799  -5.220  1.00 20.00     0.273 C 
HETATM    4  C8  UNL     1     -34.389  14.056  -4.194  1.00 20.00     0.273 C 
HETATM    5  N10 UNL     1     -33.640  15.286  -3.902  1.00 20.00     0.099 N 
ENDROOT
BRANCH   5   6
HETATM    6  C9  UNL     1     -34.508  16.260  -3.215  1.00 20.00     0.366 C 
BRANCH   6   7
HETATM    7  C2  UNL     1     -33.739  17.067  -2.264  1.00 20.00    -0.072 C 
HETATM    8  C1  UNL     1     -33.104  17.727  -1.487  1.00 20.00    -0.078 C 
BRANCH   8   9
HETATM    9  C4  UNL     1     -32.348  18.507  -0.572  1.00 20.00     0.054 C 
HETATM   10  C3  UNL     1     -32.827  18.849   0.627  1.00 20.00     0.020 C 
ENDBRANCH   8   9
ENDBRANCH   6   7
ENDBRANCH   5   6
TORSDOF 3
ENDMDL
MODEL 8
REMARK VINA RESULT:      -3.8      9.468     10.901
REMARK  3 active torsions:
REMARK  status: ('A' for Active; 'I' for Inactive)
REMARK    1  A    between atoms: C1_1  and  C4_4 
REMARK    2  A    between atoms: C2_2  and  C9_9 
REMARK    3  A    between atoms: C9_9  and  N10_10 
ROOT
HETATM    1  C5  UNL     1     -42.662   7.310   0.662  1.00 20.00     0.032 C 
HETATM    2  C6  UNL     1     -41.419   7.213  -0.212  1.00 20.00     0.032 C 
HETATM    3  C7  UNL     1     -43.049   5.871   0.970  1.00 20.00     0.273 C 
HETATM    4  C8  UNL     1     -41.153   5.723  -0.366  1.00 20.00     0.273 C 
HETATM    5  N10 UNL     1     -42.421   5.043  -0.067  1.00 20.00     0.099 N 
ENDROOT
BRANCH   5   6
HETATM    6  C9  UNL     1     -43.272   4.999  -1.270  1.00 20.00     0.366 C 
BRANCH   6   7
HETATM    7  C2  UNL     1     -42.772   4.011  -2.230  1.00 20.00    -0.072 C 
HETATM    8  C1  UNL     1     -42.360   3.200  -3.013  1.00 20.00    -0.078 C 
BRANCH   8   9
HETATM    9  C4  UNL     1     -41.866   2.238  -3.934  1.00 20.00     0.054 C 
HETATM   10  C3  UNL     1     -42.183   0.943  -3.838  1.00 20.00     0.020 C 
ENDBRANCH   8   9
ENDBRANCH   6   7
ENDBRANCH   5   6
TORSDOF 3
ENDMDL
MODEL 9
REMARK VINA RESULT:      -3.7     10.828     11.853
REMARK  3 active torsions:
REMARK  status: ('A' for Active; 'I' for Inactive)
REMARK    1  A    between atoms: C1_1  and  C4_4 
REMARK    2  A    between atoms: C2_2  and  C9_9 
REMARK    3  A    between atoms: C9_9  and  N10_10 
ROOT
HETATM    1  C5  UNL     1     -34.412  14.533  -4.128  1.00 20.00     0.032 C 
HETATM    2  C6  UNL     1     -33.273  15.063  -4.985  1.00 20.00     0.032 C 
HETATM    3  C7  UNL     1     -35.202  15.763  -3.705  1.00 20.00     0.273 C 
HETATM    4  C8  UNL     1     -33.460  16.573  -5.014  1.00 20.00     0.273 C 
HETATM    5  N10 UNL     1     -34.293  16.908  -3.851  1.00 20.00     0.099 N 
ENDROOT
BRANCH   5   6
HETATM    6  C9  UNL     1     -33.455  17.050  -2.646  1.00 20.00     0.366 C 
BRANCH   6   7
HETATM    7  C2  UNL     1     -34.282  17.254  -1.454  1.00 20.00    -0.072 C 
HETATM    8  C1  UNL     1     -34.960  17.417  -0.476  1.00 20.00    -0.078 C 
BRANCH   8   9
HETATM    9  C4  UNL     1     -35.765  17.603   0.680  1.00 20.00     0.054 C 
HETATM   10  C3  UNL     1     -35.289  18.184   1.784  1.00 20.00     0.020 C 
ENDBRANCH   8   9
ENDBRANCH   6   7
ENDBRANCH   5   6
TORSDOF 3
ENDMDL
