MODEL 1
REMARK VINA RESULT:      -5.6      0.000      0.000
REMARK  0 active torsions:
REMARK  status: ('A' for Active; 'I' for Inactive)
ROOT
HETATM    1  C1  UNL     1     -32.488   7.783   2.656  1.00 20.00     0.124 C 
HETATM    2  C2  UNL     1     -33.277   7.491   4.899  1.00 20.00     0.021 C 
HETATM    3  C3  UNL     1     -33.292   7.106   3.612  1.00 20.00     0.145 C 
HETATM    4  C4  UNL     1     -34.057   6.778   5.959  1.00 20.00     0.033 C 
HETATM    5  C5  UNL     1     -34.596   5.449   5.441  1.00 20.00     0.031 C 
HETATM    6  C6  UNL     1     -35.092   5.615   4.012  1.00 20.00     0.176 C 
HETATM    7  N7  UNL     1     -31.832   8.336   1.875  1.00 20.00    -0.189 NA
HETATM    8  O8  UNL     1     -34.052   6.057   3.131  1.00 20.00    -0.341 OA
ENDROOT
TORSDOF 0
ENDMDL
MODEL 2
REMARK VINA RESULT:      -3.9     11.658     11.920
REMARK  0 active torsions:
REMARK  status: ('A' for Active; 'I' for Inactive)
ROOT
HETATM    1  C1  UNL     1     -35.511  13.795  -4.957  1.00 20.00     0.124 C 
HETATM    2  C2  UNL     1     -34.137  15.333  -3.737  1.00 20.00     0.021 C 
HETATM    3  C3  UNL     1     -35.363  14.921  -4.105  1.00 20.00     0.145 C 
HETATM    4  C4  UNL     1     -33.924  16.475  -2.794  1.00 20.00     0.033 C 
HETATM    5  C5  UNL     1     -35.230  16.880  -2.120  1.00 20.00     0.031 C 
HETATM    6  C6  UNL     1     -36.367  16.837  -3.130  1.00 20.00     0.176 C 
HETATM    7  N7  UNL     1     -35.633  12.875  -5.655  1.00 20.00    -0.189 NA
HETATM    8  O8  UNL     1     -36.534  15.529  -3.694  1.00 20.00    -0.341 OA
ENDROOT
TORSDOF 0
ENDMDL
MODEL 3
REMARK VINA RESULT:      -3.8     11.777     12.697
REMARK  0 active torsions:
REMARK  status: ('A' for Active; 'I' for Inactive)
ROOT
HETATM    1  C1  UNL     1     -36.952  14.252  -5.113  1.00 20.00     0.124 C 
HETATM    2  C2  UNL     1     -34.695  14.160  -4.313  1.00 20.00     0.021 C 
HETATM    3  C3  UNL     1     -35.577  14.592  -5.231  1.00 20.00     0.145 C 
HETATM    4  C4  UNL     1     -33.246  14.535  -4.353  1.00 20.00     0.033 C 
HETATM    5  C5  UNL     1     -32.999  15.657  -5.356  1.00 20.00     0.031 C 
HETATM    6  C6  UNL     1     -33.834  15.424  -6.607  1.00 20.00     0.176 C 
HETATM    7  N7  UNL     1     -38.074  13.974  -5.018  1.00 20.00    -0.189 NA
HETATM    8  O8  UNL     1     -35.237  15.377  -6.315  1.00 20.00    -0.341 OA
ENDROOT
TORSDOF 0
ENDMDL
MODEL 4
REMARK VINA RESULT:      -3.7      2.450      3.737
REMARK  0 active torsions:
REMARK  status: ('A' for Active; 'I' for Inactive)
ROOT
HETATM    1  C1  UNL     1     -34.462   5.313   4.331  1.00 20.00     0.124 C 
HETATM    2  C2  UNL     1     -33.373   6.663   2.678  1.00 20.00     0.021 C 
HETATM    3  C3  UNL     1     -33.609   6.392   3.972  1.00 20.00     0.145 C 
HETATM    4  C4  UNL     1     -32.437   7.747   2.243  1.00 20.00     0.033 C 
HETATM    5  C5  UNL     1     -31.614   8.264   3.417  1.00 20.00     0.031 C 
HETATM    6  C6  UNL     1     -32.491   8.369   4.656  1.00 20.00     0.176 C 
HETATM    7  N7  UNL     1     -35.159   4.433   4.624  1.00 20.00    -0.189 NA
HETATM    8  O8  UNL     1     -33.058   7.103   5.021  1.00 20.00    -0.341 OA
ENDROOT
TORSDOF 0
ENDMDL
MODEL 5
REMARK VINA RESULT:      -3.6     11.750     12.654
REMARK  0 active torsions:
REMARK  status: ('A' for Active; 'I' for Inactive)
ROOT
HETATM    1  C1  UNL     1     -35.394  13.887  -5.022  1.00 20.00     0.124 C 
HETATM    2  C2  UNL     1     -34.405  15.368  -3.418  1.00 20.00     0.021 C 
HETATM    3  C3  UNL     1     -34.752  15.111  -4.691  1.00 20.00     0.145 C 
HETATM    4  C4  UNL     1     -33.781  16.663  -3.002  1.00 20.00     0.033 C 
HETATM    5  C5  UNL     1     -33.872  17.698  -4.118  1.00 20.00     0.031 C 
HETATM    6  C6  UNL     1     -33.598  17.035  -5.460  1.00 20.00     0.176 C 
HETATM    7  N7  UNL     1     -35.917  12.888  -5.293  1.00 20.00    -0.189 NA
HETATM    8  O8  UNL     1     -34.531  15.982  -5.739  1.00 20.00    -0.341 OA
ENDROOT
TORSDOF 0
ENDMDL
MODEL 6
REMARK VINA RESULT:      -3.6     11.728     11.871
REMARK  0 active torsions:
REMARK  status: ('A' for Active; 'I' for Inactive)
ROOT
HETATM    1  C1  UNL     1     -34.389  14.580  -4.769  1.00 20.00     0.124 C 
HETATM    2  C2  UNL     1     -33.629  16.118  -3.096  1.00 20.00     0.021 C 
HETATM    3  C3  UNL     1     -34.649  15.520  -3.736  1.00 20.00     0.145 C 
HETATM    4  C4  UNL     1     -33.843  17.070  -1.961  1.00 20.00     0.033 C 
HETATM    5  C5  UNL     1     -35.286  17.026  -1.473  1.00 20.00     0.031 C 
HETATM    6  C6  UNL     1     -36.230  16.925  -2.663  1.00 20.00     0.176 C 
HETATM    7  N7  UNL     1     -34.177  13.813  -5.614  1.00 20.00    -0.189 NA
HETATM    8  O8  UNL     1     -35.980  15.752  -3.448  1.00 20.00    -0.341 OA
ENDROOT
TORSDOF 0
ENDMDL
MODEL 7
REMARK VINA RESULT:      -3.5     11.585     12.601
REMARK  0 active torsions:
REMARK  status: ('A' for Active; 'I' for Inactive)
ROOT
HETATM    1  C1  UNL     1     -36.952  14.305  -5.015  1.00 20.00     0.124 C 
HETATM    2  C2  UNL     1     -35.358  16.084  -5.199  1.00 20.00     0.021 C 
HETATM    3  C3  UNL     1     -35.615  14.784  -4.977  1.00 20.00     0.145 C 
HETATM    4  C4  UNL     1     -33.965  16.632  -5.231  1.00 20.00     0.033 C 
HETATM    5  C5  UNL     1     -32.935  15.508  -5.271  1.00 20.00     0.031 C 
HETATM    6  C6  UNL     1     -33.365  14.381  -4.345  1.00 20.00     0.176 C 
HETATM    7  N7  UNL     1     -38.044  13.914  -5.046  1.00 20.00    -0.189 NA
HETATM    8  O8  UNL     1     -34.641  13.840  -4.713  1.00 20.00    -0.341 OA
ENDROOT
TORSDOF 0
ENDMDL
MODEL 8
REMARK VINA RESULT:      -3.5     11.783     12.158
REMARK  0 active torsions:
REMARK  status: ('A' for Active; 'I' for Inactive)
ROOT
HETATM    1  C1  UNL     1     -37.223  14.441  -4.800  1.00 20.00     0.124 C 
HETATM    2  C2  UNL     1     -35.783  15.794  -3.445  1.00 20.00     0.021 C 
HETATM    3  C3  UNL     1     -35.926  14.868  -4.408  1.00 20.00     0.145 C 
HETATM    4  C4  UNL     1     -34.444  16.324  -3.034  1.00 20.00     0.033 C 
HETATM    5  C5  UNL     1     -33.362  15.902  -4.021  1.00 20.00     0.031 C 
HETATM    6  C6  UNL     1     -33.590  14.460  -4.451  1.00 20.00     0.176 C 
HETATM    7  N7  UNL     1     -38.282  14.092  -5.119  1.00 20.00    -0.189 NA
HETATM    8  O8  UNL     1     -34.868  14.282  -5.076  1.00 20.00    -0.341 OA
ENDROOT
TORSDOF 0
ENDMDL
MODEL 9
REMARK VINA RESULT:      -3.3     11.680     11.884
REMARK  0 active torsions:
REMARK  status: ('A' for Active; 'I' for Inactive)
ROOT
HETATM    1  C1  UNL     1     -33.826  16.236  -3.125  1.00 20.00     0.124 C 
HETATM    2  C2  UNL     1     -33.205  17.816  -1.435  1.00 20.00     0.021 C 
HETATM    3  C3  UNL     1     -34.107  16.953  -1.931  1.00 20.00     0.145 C 
HETATM    4  C4  UNL     1     -33.422  18.553  -0.149  1.00 20.00     0.033 C 
HETATM    5  C5  UNL     1     -34.611  17.982   0.615  1.00 20.00     0.031 C 
HETATM    6  C6  UNL     1     -35.736  17.650  -0.354  1.00 20.00     0.176 C 
HETATM    7  N7  UNL     1     -33.598  15.652  -4.101  1.00 20.00    -0.189 NA
HETATM    8  O8  UNL     1     -35.329  16.693  -1.341  1.00 20.00    -0.341 OA
ENDROOT
TORSDOF 0
ENDMDL
