MODEL 1
REMARK VINA RESULT:      -5.1      0.000      0.000
REMARK  1 active torsions:
REMARK  status: ('A' for Active; 'I' for Inactive)
REMARK    1  A    between atoms: C8_8  and  N10_10 
ROOT
HETATM    1  C1  UNL     1     -32.550  10.070   1.088  1.00 20.00     0.013 C 
HETATM    2  C2  UNL     1     -32.372   9.047   1.690  1.00 20.00    -0.087 C 
HETATM    3  C8  UNL     1     -32.148   7.798   2.423  1.00 20.00     0.365 C 
ENDROOT
BRANCH   3   4
HETATM    4  N10 UNL     1     -33.295   7.486   3.273  1.00 20.00     0.102 N 
HETATM    5  C5  UNL     1     -32.890   7.379   4.679  1.00 20.00     0.303 C 
HETATM    6  C3  UNL     1     -34.092   7.045   5.571  1.00 20.00     0.302 C 
HETATM    7  N9  UNL     1     -34.830   5.848   5.150  1.00 20.00     0.087 N 
HETATM    8  C4  UNL     1     -35.156   5.923   3.720  1.00 20.00     0.302 C 
HETATM    9  C7  UNL     1     -34.120   4.617   5.489  1.00 20.00     0.310 C 
HETATM   10  C6  UNL     1     -33.955   6.254   2.826  1.00 20.00     0.303 C 
ENDBRANCH   3   4
TORSDOF 1
ENDMDL
MODEL 2
REMARK VINA RESULT:      -4.0     11.062     12.154
REMARK  1 active torsions:
REMARK  status: ('A' for Active; 'I' for Inactive)
REMARK    1  A    between atoms: C8_8  and  N10_10 
ROOT
HETATM    1  C1  UNL     1     -35.177  17.018  -1.152  1.00 20.00     0.013 C 
HETATM    2  C2  UNL     1     -34.634  16.620  -2.147  1.00 20.00    -0.087 C 
HETATM    3  C8  UNL     1     -33.967  16.136  -3.357  1.00 20.00     0.365 C 
ENDROOT
BRANCH   3   4
HETATM    4  N10 UNL     1     -34.939  15.568  -4.289  1.00 20.00     0.102 N 
HETATM    5  C5  UNL     1     -34.881  14.102  -4.277  1.00 20.00     0.303 C 
HETATM    6  C3  UNL     1     -35.896  13.506  -5.260  1.00 20.00     0.302 C 
HETATM    7  N9  UNL     1     -35.770  14.018  -6.629  1.00 20.00     0.087 N 
HETATM    8  C4  UNL     1     -35.740  15.487  -6.626  1.00 20.00     0.302 C 
HETATM    9  C7  UNL     1     -34.620  13.447  -7.327  1.00 20.00     0.310 C 
HETATM   10  C6  UNL     1     -34.724  16.085  -5.646  1.00 20.00     0.303 C 
ENDBRANCH   3   4
TORSDOF 1
ENDMDL
MODEL 3
REMARK VINA RESULT:      -3.9     11.171     11.887
REMARK  1 active torsions:
REMARK  status: ('A' for Active; 'I' for Inactive)
REMARK    1  A    between atoms: C8_8  and  N10_10 
ROOT
HETATM    1  C1  UNL     1     -34.442  17.355  -1.057  1.00 20.00     0.013 C 
HETATM    2  C2  UNL     1     -34.240  16.793  -2.098  1.00 20.00    -0.087 C 
HETATM    3  C8  UNL     1     -33.988  16.108  -3.369  1.00 20.00     0.365 C 
ENDROOT
BRANCH   3   4
HETATM    4  N10 UNL     1     -35.106  15.234  -3.714  1.00 20.00     0.102 N 
HETATM    5  C5  UNL     1     -34.740  14.324  -4.805  1.00 20.00     0.303 C 
HETATM    6  C3  UNL     1     -35.916  13.410  -5.173  1.00 20.00     0.302 C 
HETATM    7  N9  UNL     1     -37.153  14.131  -5.492  1.00 20.00     0.087 N 
HETATM    8  C4  UNL     1     -37.466  15.104  -4.437  1.00 20.00     0.302 C 
HETATM    9  C7  UNL     1     -37.103  14.752  -6.814  1.00 20.00     0.310 C 
HETATM   10  C6  UNL     1     -36.293  16.021  -4.070  1.00 20.00     0.303 C 
ENDBRANCH   3   4
TORSDOF 1
ENDMDL
MODEL 4
REMARK VINA RESULT:      -3.8      1.319      4.469
REMARK  1 active torsions:
REMARK  status: ('A' for Active; 'I' for Inactive)
REMARK    1  A    between atoms: C8_8  and  N10_10 
ROOT
HETATM    1  C1  UNL     1     -34.781   4.873   5.892  1.00 20.00     0.013 C 
HETATM    2  C2  UNL     1     -34.299   5.961   5.727  1.00 20.00    -0.087 C 
HETATM    3  C8  UNL     1     -33.713   7.289   5.530  1.00 20.00     0.365 C 
ENDROOT
BRANCH   3   4
HETATM    4  N10 UNL     1     -32.861   7.306   4.343  1.00 20.00     0.102 N 
HETATM    5  C5  UNL     1     -32.023   8.509   4.319  1.00 20.00     0.303 C 
HETATM    6  C3  UNL     1     -31.133   8.531   3.069  1.00 20.00     0.302 C 
HETATM    7  N9  UNL     1     -31.872   8.389   1.810  1.00 20.00     0.087 N 
HETATM    8  C4  UNL     1     -32.776   7.233   1.874  1.00 20.00     0.302 C 
HETATM    9  C7  UNL     1     -32.575   9.616   1.443  1.00 20.00     0.310 C 
HETATM   10  C6  UNL     1     -33.669   7.210   3.120  1.00 20.00     0.303 C 
ENDBRANCH   3   4
TORSDOF 1
ENDMDL
MODEL 5
REMARK VINA RESULT:      -3.8     11.190     12.109
REMARK  1 active torsions:
REMARK  status: ('A' for Active; 'I' for Inactive)
REMARK    1  A    between atoms: C8_8  and  N10_10 
ROOT
HETATM    1  C1  UNL     1     -35.132  16.733  -1.800  1.00 20.00     0.013 C 
HETATM    2  C2  UNL     1     -34.461  16.390  -2.735  1.00 20.00    -0.087 C 
HETATM    3  C8  UNL     1     -33.637  15.974  -3.873  1.00 20.00     0.365 C 
ENDROOT
BRANCH   3   4
HETATM    4  N10 UNL     1     -34.458  15.326  -4.893  1.00 20.00     0.102 N 
HETATM    5  C5  UNL     1     -35.488  16.242  -5.395  1.00 20.00     0.303 C 
HETATM    6  C3  UNL     1     -36.354  15.560  -6.462  1.00 20.00     0.302 C 
HETATM    7  N9  UNL     1     -36.954  14.295  -6.021  1.00 20.00     0.087 N 
HETATM    8  C4  UNL     1     -35.930  13.417  -5.439  1.00 20.00     0.302 C 
HETATM    9  C7  UNL     1     -38.078  14.506  -5.112  1.00 20.00     0.310 C 
HETATM   10  C6  UNL     1     -35.065  14.096  -4.371  1.00 20.00     0.303 C 
ENDBRANCH   3   4
TORSDOF 1
ENDMDL
MODEL 6
REMARK VINA RESULT:      -3.7     11.383     12.320
REMARK  1 active torsions:
REMARK  status: ('A' for Active; 'I' for Inactive)
REMARK    1  A    between atoms: C8_8  and  N10_10 
ROOT
HETATM    1  C1  UNL     1     -32.933  17.890  -1.350  1.00 20.00     0.013 C 
HETATM    2  C2  UNL     1     -33.808  17.244  -1.859  1.00 20.00    -0.087 C 
HETATM    3  C8  UNL     1     -34.879  16.459  -2.476  1.00 20.00     0.365 C 
ENDROOT
BRANCH   3   4
HETATM    4  N10 UNL     1     -34.360  15.658  -3.582  1.00 20.00     0.102 N 
HETATM    5  C5  UNL     1     -33.654  16.502  -4.552  1.00 20.00     0.303 C 
HETATM    6  C3  UNL     1     -33.114  15.662  -5.717  1.00 20.00     0.302 C 
HETATM    7  N9  UNL     1     -34.135  14.847  -6.386  1.00 20.00     0.087 N 
HETATM    8  C4  UNL     1     -34.897  14.071  -5.399  1.00 20.00     0.302 C 
HETATM    9  C7  UNL     1     -35.004  15.648  -7.245  1.00 20.00     0.310 C 
HETATM   10  C6  UNL     1     -35.440  14.908  -4.235  1.00 20.00     0.303 C 
ENDBRANCH   3   4
TORSDOF 1
ENDMDL
MODEL 7
REMARK VINA RESULT:      -3.7     11.334     11.965
REMARK  1 active torsions:
REMARK  status: ('A' for Active; 'I' for Inactive)
REMARK    1  A    between atoms: C8_8  and  N10_10 
ROOT
HETATM    1  C1  UNL     1     -32.850  17.939  -1.282  1.00 20.00     0.013 C 
HETATM    2  C2  UNL     1     -33.876  17.383  -1.565  1.00 20.00    -0.087 C 
HETATM    3  C8  UNL     1     -35.129  16.705  -1.904  1.00 20.00     0.365 C 
ENDROOT
BRANCH   3   4
HETATM    4  N10 UNL     1     -35.201  16.441  -3.339  1.00 20.00     0.102 N 
HETATM    5  C5  UNL     1     -36.554  16.029  -3.729  1.00 20.00     0.303 C 
HETATM    6  C3  UNL     1     -36.627  15.745  -5.235  1.00 20.00     0.302 C 
HETATM    7  N9  UNL     1     -35.634  14.773  -5.706  1.00 20.00     0.087 N 
HETATM    8  C4  UNL     1     -34.292  15.144  -5.237  1.00 20.00     0.302 C 
HETATM    9  C7  UNL     1     -35.986  13.404  -5.337  1.00 20.00     0.310 C 
HETATM   10  C6  UNL     1     -34.215  15.426  -3.732  1.00 20.00     0.303 C 
ENDBRANCH   3   4
TORSDOF 1
ENDMDL
MODEL 8
REMARK VINA RESULT:      -3.5     11.261     12.639
REMARK  1 active torsions:
REMARK  status: ('A' for Active; 'I' for Inactive)
REMARK    1  A    between atoms: C8_8  and  N10_10 
ROOT
HETATM    1  C1  UNL     1     -38.165  14.795  -5.221  1.00 20.00     0.013 C 
HETATM    2  C2  UNL     1     -37.163  14.136  -5.263  1.00 20.00    -0.087 C 
HETATM    3  C8  UNL     1     -35.942  13.327  -5.315  1.00 20.00     0.365 C 
ENDROOT
BRANCH   3   4
HETATM    4  N10 UNL     1     -34.757  14.175  -5.218  1.00 20.00     0.102 N 
HETATM    5  C5  UNL     1     -34.787  14.977  -3.989  1.00 20.00     0.303 C 
HETATM    6  C3  UNL     1     -33.546  15.873  -3.890  1.00 20.00     0.302 C 
HETATM    7  N9  UNL     1     -33.335  16.729  -5.063  1.00 20.00     0.087 N 
HETATM    8  C4  UNL     1     -33.394  15.932  -6.296  1.00 20.00     0.302 C 
HETATM    9  C7  UNL     1     -34.261  17.859  -5.093  1.00 20.00     0.310 C 
HETATM   10  C6  UNL     1     -34.635  15.038  -6.399  1.00 20.00     0.303 C 
ENDBRANCH   3   4
TORSDOF 1
ENDMDL
MODEL 9
REMARK VINA RESULT:      -3.4     11.164     12.489
REMARK  1 active torsions:
REMARK  status: ('A' for Active; 'I' for Inactive)
REMARK    1  A    between atoms: C8_8  and  N10_10 
ROOT
HETATM    1  C1  UNL     1     -34.450  13.637  -7.530  1.00 20.00     0.013 C 
HETATM    2  C2  UNL     1     -35.165  13.580  -6.566  1.00 20.00    -0.087 C 
HETATM    3  C8  UNL     1     -36.037  13.506  -5.392  1.00 20.00     0.365 C 
ENDROOT
BRANCH   3   4
HETATM    4  N10 UNL     1     -35.869  14.686  -4.548  1.00 20.00     0.102 N 
HETATM    5  C5  UNL     1     -36.210  15.908  -5.285  1.00 20.00     0.303 C 
HETATM    6  C3  UNL     1     -36.026  17.149  -4.402  1.00 20.00     0.302 C 
HETATM    7  N9  UNL     1     -34.691  17.261  -3.802  1.00 20.00     0.087 N 
HETATM    8  C4  UNL     1     -34.320  16.002  -3.142  1.00 20.00     0.302 C 
HETATM    9  C7  UNL     1     -33.687  17.689  -4.773  1.00 20.00     0.310 C 
HETATM   10  C6  UNL     1     -34.499  14.761  -4.024  1.00 20.00     0.303 C 
ENDBRANCH   3   4
TORSDOF 1
ENDMDL
