MODEL 1
REMARK VINA RESULT:      -5.6      0.000      0.000
REMARK  0 active torsions:
REMARK  status: ('A' for Active; 'I' for Inactive)
ROOT
HETATM    1  C1  UNL     1     -32.265   8.414   4.524  1.00 20.00     0.011 A 
HETATM    2  C2  UNL     1     -31.675   8.832   3.330  1.00 20.00     0.024 A 
HETATM    3  C3  UNL     1     -32.841   7.085   2.139  1.00 20.00     0.031 A 
HETATM    4  C4  UNL     1     -33.143   7.322   4.535  1.00 20.00    -0.024 A 
HETATM    5  C5  UNL     1     -33.447   6.664   3.329  1.00 20.00    -0.047 A 
HETATM    6  C6  UNL     1     -31.961   8.167   2.140  1.00 20.00     0.034 A 
HETATM    7  C7  UNL     1     -34.370   5.473   3.327  1.00 20.00     0.069 C 
HETATM    8  C8  UNL     1     -33.805   6.902   5.824  1.00 20.00     0.308 C 
HETATM    9  C9  UNL     1     -35.214   5.381   4.600  1.00 20.00     0.274 C 
HETATM   10  N10 UNL     1     -34.368   5.547   5.781  1.00 20.00     0.087 N 
HETATM   11 CL11 UNL     1     -31.226   8.680   0.671  1.00 20.00    -0.084 Cl
HETATM   12  H21 UNL     1     -33.608   4.868   5.749  1.00 20.00     0.316 HD
ENDROOT
TORSDOF 0
ENDMDL
MODEL 2
REMARK VINA RESULT:      -5.0      1.142      2.264
REMARK  0 active torsions:
REMARK  status: ('A' for Active; 'I' for Inactive)
ROOT
HETATM    1  C1  UNL     1     -33.315   5.711   2.192  1.00 20.00     0.011 A 
HETATM    2  C2  UNL     1     -32.774   6.890   1.678  1.00 20.00     0.024 A 
HETATM    3  C3  UNL     1     -33.133   7.984   3.801  1.00 20.00     0.031 A 
HETATM    4  C4  UNL     1     -33.777   5.662   3.514  1.00 20.00    -0.024 A 
HETATM    5  C5  UNL     1     -33.668   6.802   4.330  1.00 20.00    -0.047 A 
HETATM    6  C6  UNL     1     -32.686   8.025   2.480  1.00 20.00     0.034 A 
HETATM    7  C7  UNL     1     -34.181   6.773   5.746  1.00 20.00     0.069 C 
HETATM    8  C8  UNL     1     -34.324   4.371   4.072  1.00 20.00     0.308 C 
HETATM    9  C9  UNL     1     -34.380   5.349   6.271  1.00 20.00     0.274 C 
HETATM   10  N10 UNL     1     -35.117   4.549   5.295  1.00 20.00     0.087 N 
HETATM   11 CL11 UNL     1     -32.026   9.481   1.842  1.00 20.00    -0.084 Cl
HETATM   12  H21 UNL     1     -35.991   5.021   5.063  1.00 20.00     0.316 HD
ENDROOT
TORSDOF 0
ENDMDL
MODEL 3
REMARK VINA RESULT:      -4.7     11.474     11.904
REMARK  0 active torsions:
REMARK  status: ('A' for Active; 'I' for Inactive)
ROOT
HETATM    1  C1  UNL     1     -35.518  17.041  -0.883  1.00 20.00     0.011 A 
HETATM    2  C2  UNL     1     -35.149  16.619  -2.160  1.00 20.00     0.024 A 
HETATM    3  C3  UNL     1     -32.981  17.643  -1.876  1.00 20.00     0.031 A 
HETATM    4  C4  UNL     1     -34.622  17.775  -0.094  1.00 20.00    -0.024 A 
HETATM    5  C5  UNL     1     -33.337  18.063  -0.588  1.00 20.00    -0.047 A 
HETATM    6  C6  UNL     1     -33.884  16.922  -2.657  1.00 20.00     0.034 A 
HETATM    7  C7  UNL     1     -32.370  18.871   0.237  1.00 20.00     0.069 C 
HETATM    8  C8  UNL     1     -35.017  18.194   1.301  1.00 20.00     0.308 C 
HETATM    9  C9  UNL     1     -32.760  18.924   1.716  1.00 20.00     0.274 C 
HETATM   10  N10 UNL     1     -34.176  19.263   1.854  1.00 20.00     0.087 N 
HETATM   11 CL11 UNL     1     -33.434  16.407  -4.237  1.00 20.00    -0.084 Cl
HETATM   12  H21 UNL     1     -34.365  20.131   1.354  1.00 20.00     0.316 HD
ENDROOT
TORSDOF 0
ENDMDL
MODEL 4
REMARK VINA RESULT:      -4.7     11.371     11.758
REMARK  0 active torsions:
REMARK  status: ('A' for Active; 'I' for Inactive)
ROOT
HETATM    1  C1  UNL     1     -32.913  17.830  -1.642  1.00 20.00     0.011 A 
HETATM    2  C2  UNL     1     -33.483  17.081  -2.672  1.00 20.00     0.024 A 
HETATM    3  C3  UNL     1     -35.491  16.801  -1.360  1.00 20.00     0.031 A 
HETATM    4  C4  UNL     1     -33.625  18.064  -0.459  1.00 20.00    -0.024 A 
HETATM    5  C5  UNL     1     -34.932  17.560  -0.324  1.00 20.00    -0.047 A 
HETATM    6  C6  UNL     1     -34.769  16.565  -2.529  1.00 20.00     0.034 A 
HETATM    7  C7  UNL     1     -35.703  17.782   0.951  1.00 20.00     0.069 C 
HETATM    8  C8  UNL     1     -33.015  18.908   0.633  1.00 20.00     0.308 C 
HETATM    9  C9  UNL     1     -35.119  18.913   1.802  1.00 20.00     0.274 C 
HETATM   10  N10 UNL     1     -33.673  18.750   1.935  1.00 20.00     0.087 N 
HETATM   11 CL11 UNL     1     -35.468  15.634  -3.798  1.00 20.00    -0.084 Cl
HETATM   12  H21 UNL     1     -33.470  17.821   2.303  1.00 20.00     0.316 HD
ENDROOT
TORSDOF 0
ENDMDL
MODEL 5
REMARK VINA RESULT:      -4.6     11.394     11.683
REMARK  0 active torsions:
REMARK  status: ('A' for Active; 'I' for Inactive)
ROOT
HETATM    1  C1  UNL     1     -32.714  18.676   0.194  1.00 20.00     0.011 A 
HETATM    2  C2  UNL     1     -32.638  18.084  -1.068  1.00 20.00     0.024 A 
HETATM    3  C3  UNL     1     -34.910  17.297  -0.839  1.00 20.00     0.031 A 
HETATM    4  C4  UNL     1     -33.888  18.576   0.953  1.00 20.00    -0.024 A 
HETATM    5  C5  UNL     1     -35.000  17.896   0.424  1.00 20.00    -0.047 A 
HETATM    6  C6  UNL     1     -33.734  17.394  -1.582  1.00 20.00     0.034 A 
HETATM    7  C7  UNL     1     -36.261  17.759   1.237  1.00 20.00     0.069 C 
HETATM    8  C8  UNL     1     -33.973  19.252   2.299  1.00 20.00     0.308 C 
HETATM    9  C9  UNL     1     -36.327  18.759   2.394  1.00 20.00     0.274 C 
HETATM   10  N10 UNL     1     -35.069  18.753   3.138  1.00 20.00     0.087 N 
HETATM   11 CL11 UNL     1     -33.635  16.658  -3.135  1.00 20.00    -0.084 Cl
HETATM   12  H21 UNL     1     -34.858  17.802   3.437  1.00 20.00     0.316 HD
ENDROOT
TORSDOF 0
ENDMDL
MODEL 6
REMARK VINA RESULT:      -4.5     11.538     11.824
REMARK  0 active torsions:
REMARK  status: ('A' for Active; 'I' for Inactive)
ROOT
HETATM    1  C1  UNL     1     -36.140  16.448  -2.657  1.00 20.00     0.011 A 
HETATM    2  C2  UNL     1     -35.508  17.297  -1.748  1.00 20.00     0.024 A 
HETATM    3  C3  UNL     1     -33.356  16.639  -2.625  1.00 20.00     0.031 A 
HETATM    4  C4  UNL     1     -35.383  15.681  -3.553  1.00 20.00    -0.024 A 
HETATM    5  C5  UNL     1     -33.981  15.792  -3.548  1.00 20.00    -0.047 A 
HETATM    6  C6  UNL     1     -34.118  17.390  -1.730  1.00 20.00     0.034 A 
HETATM    7  C7  UNL     1     -33.151  14.957  -4.489  1.00 20.00     0.069 C 
HETATM    8  C8  UNL     1     -36.077  14.795  -4.558  1.00 20.00     0.308 C 
HETATM    9  C9  UNL     1     -33.970  14.388  -5.650  1.00 20.00     0.274 C 
HETATM   10  N10 UNL     1     -35.200  13.777  -5.148  1.00 20.00     0.087 N 
HETATM   11 CL11 UNL     1     -33.341  18.433  -0.602  1.00 20.00    -0.084 Cl
HETATM   12  H21 UNL     1     -34.966  13.082  -4.439  1.00 20.00     0.316 HD
ENDROOT
TORSDOF 0
ENDMDL
MODEL 7
REMARK VINA RESULT:      -4.5     11.635     12.030
REMARK  0 active torsions:
REMARK  status: ('A' for Active; 'I' for Inactive)
ROOT
HETATM    1  C1  UNL     1     -35.645  17.091  -1.109  1.00 20.00     0.011 A 
HETATM    2  C2  UNL     1     -34.749  17.751  -0.267  1.00 20.00     0.024 A 
HETATM    3  C3  UNL     1     -33.022  17.550  -1.943  1.00 20.00     0.031 A 
HETATM    4  C4  UNL     1     -35.234  16.649  -2.373  1.00 20.00    -0.024 A 
HETATM    5  C5  UNL     1     -33.917  16.896  -2.800  1.00 20.00    -0.047 A 
HETATM    6  C6  UNL     1     -33.439  17.977  -0.682  1.00 20.00     0.034 A 
HETATM    7  C7  UNL     1     -33.451  16.406  -4.146  1.00 20.00     0.069 C 
HETATM    8  C8  UNL     1     -36.221  15.971  -3.291  1.00 20.00     0.308 C 
HETATM    9  C9  UNL     1     -34.613  16.060  -5.080  1.00 20.00     0.274 C 
HETATM   10  N10 UNL     1     -35.589  15.223  -4.384  1.00 20.00     0.087 N 
HETATM   11 CL11 UNL     1     -32.334  18.785   0.361  1.00 20.00    -0.084 Cl
HETATM   12  H21 UNL     1     -35.118  14.403  -4.002  1.00 20.00     0.316 HD
ENDROOT
TORSDOF 0
ENDMDL
MODEL 8
REMARK VINA RESULT:      -4.5     11.699     12.145
REMARK  0 active torsions:
REMARK  status: ('A' for Active; 'I' for Inactive)
ROOT
HETATM    1  C1  UNL     1     -33.016  17.810  -2.020  1.00 20.00     0.011 A 
HETATM    2  C2  UNL     1     -33.393  18.107  -0.710  1.00 20.00     0.024 A 
HETATM    3  C3  UNL     1     -35.508  16.996  -1.062  1.00 20.00     0.031 A 
HETATM    4  C4  UNL     1     -33.887  17.108  -2.865  1.00 20.00    -0.024 A 
HETATM    5  C5  UNL     1     -35.135  16.683  -2.375  1.00 20.00    -0.047 A 
HETATM    6  C6  UNL     1     -34.638  17.704  -0.233  1.00 20.00     0.034 A 
HETATM    7  C7  UNL     1     -36.093  15.948  -3.278  1.00 20.00     0.069 C 
HETATM    8  C8  UNL     1     -33.454  16.758  -4.267  1.00 20.00     0.308 C 
HETATM    9  C9  UNL     1     -35.408  15.372  -4.519  1.00 20.00     0.274 C 
HETATM   10  N10 UNL     1     -34.568  16.389  -5.150  1.00 20.00     0.087 N 
HETATM   11 CL11 UNL     1     -35.104  18.079   1.381  1.00 20.00    -0.084 Cl
HETATM   12  H21 UNL     1     -35.130  17.217  -5.345  1.00 20.00     0.316 HD
ENDROOT
TORSDOF 0
ENDMDL
MODEL 9
REMARK VINA RESULT:      -4.5     11.427     12.060
REMARK  0 active torsions:
REMARK  status: ('A' for Active; 'I' for Inactive)
ROOT
HETATM    1  C1  UNL     1     -34.327  14.539  -4.506  1.00 20.00     0.011 A 
HETATM    2  C2  UNL     1     -33.696  15.338  -3.551  1.00 20.00     0.024 A 
HETATM    3  C3  UNL     1     -35.796  16.430  -3.073  1.00 20.00     0.031 A 
HETATM    4  C4  UNL     1     -35.698  14.685  -4.757  1.00 20.00    -0.024 A 
HETATM    5  C5  UNL     1     -36.441  15.626  -4.021  1.00 20.00    -0.047 A 
HETATM    6  C6  UNL     1     -34.429  16.284  -2.839  1.00 20.00     0.034 A 
HETATM    7  C7  UNL     1     -37.911  15.812  -4.295  1.00 20.00     0.069 C 
HETATM    8  C8  UNL     1     -36.378  13.790  -5.763  1.00 20.00     0.308 C 
HETATM    9  C9  UNL     1     -38.520  14.637  -5.063  1.00 20.00     0.274 C 
HETATM   10  N10 UNL     1     -37.682  14.294  -6.211  1.00 20.00     0.087 N 
HETATM   11 CL11 UNL     1     -33.647  17.274  -1.667  1.00 20.00    -0.084 Cl
HETATM   12  H21 UNL     1     -37.542  15.124  -6.786  1.00 20.00     0.316 HD
ENDROOT
TORSDOF 0
ENDMDL
