MODEL 1
REMARK VINA RESULT:      -5.1      0.000      0.000
REMARK  2 active torsions:
REMARK  status: ('A' for Active; 'I' for Inactive)
REMARK    1  A    between atoms: C2_2  and  C3_3 
REMARK    2  A    between atoms: C3_3  and  O10_10 
ROOT
HETATM    1  C1  UNL     1     -33.216   7.080   3.882  1.00 20.00    -0.067 C 
HETATM    2  C2  UNL     1     -33.984   6.484   4.799  1.00 20.00     0.014 C 
HETATM    3  C4  UNL     1     -32.287   8.228   4.163  1.00 20.00     0.035 C 
HETATM    4  C5  UNL     1     -33.163   6.696   2.431  1.00 20.00     0.035 C 
HETATM    5  C6  UNL     1     -31.911   8.714   2.769  1.00 20.00     0.005 C 
HETATM    6  C7  UNL     1     -31.941   7.451   1.920  1.00 20.00     0.005 C 
HETATM    7  C8  UNL     1     -34.002   6.903   6.238  1.00 20.00     0.056 C 
ENDROOT
BRANCH   2   8
HETATM    8  C3  UNL     1     -34.845   5.360   4.343  1.00 20.00     0.171 C 
HETATM    9  O9  UNL     1     -34.580   4.174   4.456  1.00 20.00    -0.646 OA
BRANCH   8  10
HETATM   10  O10 UNL     1     -35.983   5.827   3.776  1.00 20.00    -0.773 OA
HETATM   11  H22 UNL     1     -36.631   5.109   3.610  1.00 20.00     0.167 HD
ENDBRANCH   8  10
ENDBRANCH   2   8
TORSDOF 2
ENDMDL
MODEL 2
REMARK VINA RESULT:      -5.1      0.291      1.054
REMARK  2 active torsions:
REMARK  status: ('A' for Active; 'I' for Inactive)
REMARK    1  A    between atoms: C2_2  and  C3_3 
REMARK    2  A    between atoms: C3_3  and  O10_10 
ROOT
HETATM    1  C1  UNL     1     -33.093   7.312   3.803  1.00 20.00    -0.067 C 
HETATM    2  C2  UNL     1     -33.890   6.719   4.697  1.00 20.00     0.014 C 
HETATM    3  C4  UNL     1     -32.074   8.366   4.134  1.00 20.00     0.035 C 
HETATM    4  C5  UNL     1     -33.094   7.017   2.330  1.00 20.00     0.035 C 
HETATM    5  C6  UNL     1     -31.684   8.908   2.765  1.00 20.00     0.005 C 
HETATM    6  C7  UNL     1     -31.825   7.707   1.840  1.00 20.00     0.005 C 
HETATM    7  C8  UNL     1     -33.852   7.048   6.159  1.00 20.00     0.056 C 
ENDROOT
BRANCH   2   8
HETATM    8  C3  UNL     1     -34.842   5.695   4.191  1.00 20.00     0.171 C 
HETATM    9  O9  UNL     1     -35.902   5.929   3.631  1.00 20.00    -0.646 OA
BRANCH   8  10
HETATM   10  O10 UNL     1     -34.379   4.447   4.433  1.00 20.00    -0.773 OA
HETATM   11  H22 UNL     1     -33.425   4.361   4.219  1.00 20.00     0.167 HD
ENDBRANCH   8  10
ENDBRANCH   2   8
TORSDOF 2
ENDMDL
MODEL 3
REMARK VINA RESULT:      -4.8      2.391      4.166
REMARK  2 active torsions:
REMARK  status: ('A' for Active; 'I' for Inactive)
REMARK    1  A    between atoms: C2_2  and  C3_3 
REMARK    2  A    between atoms: C3_3  and  O10_10 
ROOT
HETATM    1  C1  UNL     1     -33.568   6.461   4.086  1.00 20.00    -0.067 C 
HETATM    2  C2  UNL     1     -33.033   6.535   2.863  1.00 20.00     0.014 C 
HETATM    3  C4  UNL     1     -34.229   5.237   4.656  1.00 20.00     0.035 C 
HETATM    4  C5  UNL     1     -33.591   7.589   5.078  1.00 20.00     0.035 C 
HETATM    5  C6  UNL     1     -34.920   5.770   5.904  1.00 20.00     0.005 C 
HETATM    6  C7  UNL     1     -34.012   6.901   6.371  1.00 20.00     0.005 C 
HETATM    7  C8  UNL     1     -33.034   5.380   1.908  1.00 20.00     0.056 C 
ENDROOT
BRANCH   2   8
HETATM    8  C3  UNL     1     -32.419   7.829   2.463  1.00 20.00     0.171 C 
HETATM    9  O9  UNL     1     -32.866   8.596   1.625  1.00 20.00    -0.646 OA
BRANCH   8  10
HETATM   10  O10 UNL     1     -31.280   8.055   3.159  1.00 20.00    -0.773 OA
HETATM   11  H22 UNL     1     -31.356   8.840   3.742  1.00 20.00     0.167 HD
ENDBRANCH   8  10
ENDBRANCH   2   8
TORSDOF 2
ENDMDL
MODEL 4
REMARK VINA RESULT:      -4.6     11.220     12.045
REMARK  2 active torsions:
REMARK  status: ('A' for Active; 'I' for Inactive)
REMARK    1  A    between atoms: C2_2  and  C3_3 
REMARK    2  A    between atoms: C3_3  and  O10_10 
ROOT
HETATM    1  C1  UNL     1     -34.987  15.551  -3.596  1.00 20.00    -0.067 C 
HETATM    2  C2  UNL     1     -34.464  14.626  -4.406  1.00 20.00     0.014 C 
HETATM    3  C4  UNL     1     -34.209  16.325  -2.569  1.00 20.00     0.035 C 
HETATM    4  C5  UNL     1     -36.433  15.959  -3.586  1.00 20.00     0.035 C 
HETATM    5  C6  UNL     1     -35.301  16.986  -1.737  1.00 20.00     0.005 C 
HETATM    6  C7  UNL     1     -36.428  17.223  -2.733  1.00 20.00     0.005 C 
HETATM    7  C8  UNL     1     -33.012  14.253  -4.378  1.00 20.00     0.056 C 
ENDROOT
BRANCH   2   8
HETATM    8  C3  UNL     1     -35.384  13.957  -5.364  1.00 20.00     0.171 C 
HETATM    9  O9  UNL     1     -35.700  14.390  -6.461  1.00 20.00    -0.646 OA
BRANCH   8  10
HETATM   10  O10 UNL     1     -35.834  12.785  -4.858  1.00 20.00    -0.773 OA
HETATM   11  H22 UNL     1     -36.620  12.911  -4.285  1.00 20.00     0.167 HD
ENDBRANCH   8  10
ENDBRANCH   2   8
TORSDOF 2
ENDMDL
MODEL 5
REMARK VINA RESULT:      -4.6     11.663     12.231
REMARK  2 active torsions:
REMARK  status: ('A' for Active; 'I' for Inactive)
REMARK    1  A    between atoms: C2_2  and  C3_3 
REMARK    2  A    between atoms: C3_3  and  O10_10 
ROOT
HETATM    1  C1  UNL     1     -34.548  16.091  -3.087  1.00 20.00    -0.067 C 
HETATM    2  C2  UNL     1     -34.492  15.205  -4.086  1.00 20.00     0.014 C 
HETATM    3  C4  UNL     1     -35.794  16.431  -2.318  1.00 20.00     0.035 C 
HETATM    4  C5  UNL     1     -33.377  16.884  -2.580  1.00 20.00     0.035 C 
HETATM    5  C6  UNL     1     -35.388  17.677  -1.541  1.00 20.00     0.005 C 
HETATM    6  C7  UNL     1     -33.902  17.478  -1.278  1.00 20.00     0.005 C 
HETATM    7  C8  UNL     1     -35.690  14.438  -4.557  1.00 20.00     0.056 C 
ENDROOT
BRANCH   2   8
HETATM    8  C3  UNL     1     -33.172  14.994  -4.738  1.00 20.00     0.171 C 
HETATM    9  O9  UNL     1     -32.632  15.770  -5.511  1.00 20.00    -0.646 OA
BRANCH   8  10
HETATM   10  O10 UNL     1     -32.632  13.812  -4.359  1.00 20.00    -0.773 OA
HETATM   11  H22 UNL     1     -31.870  13.558  -4.923  1.00 20.00     0.167 HD
ENDBRANCH   8  10
ENDBRANCH   2   8
TORSDOF 2
ENDMDL
MODEL 6
REMARK VINA RESULT:      -4.4     11.471     12.260
REMARK  2 active torsions:
REMARK  status: ('A' for Active; 'I' for Inactive)
REMARK    1  A    between atoms: C2_2  and  C3_3 
REMARK    2  A    between atoms: C3_3  and  O10_10 
ROOT
HETATM    1  C1  UNL     1     -35.403  14.996  -4.454  1.00 20.00    -0.067 C 
HETATM    2  C2  UNL     1     -34.211  15.309  -3.936  1.00 20.00     0.014 C 
HETATM    3  C4  UNL     1     -36.703  15.630  -4.046  1.00 20.00     0.035 C 
HETATM    4  C5  UNL     1     -35.626  13.963  -5.521  1.00 20.00     0.035 C 
HETATM    5  C6  UNL     1     -37.744  14.722  -4.688  1.00 20.00     0.005 C 
HETATM    6  C7  UNL     1     -37.064  14.223  -5.956  1.00 20.00     0.005 C 
HETATM    7  C8  UNL     1     -34.038  16.349  -2.871  1.00 20.00     0.056 C 
ENDROOT
BRANCH   2   8
HETATM    8  C3  UNL     1     -33.026  14.578  -4.459  1.00 20.00     0.171 C 
HETATM    9  O9  UNL     1     -32.644  13.483  -4.077  1.00 20.00    -0.646 OA
BRANCH   8  10
HETATM   10  O10 UNL     1     -32.412  15.292  -5.432  1.00 20.00    -0.773 OA
HETATM   11  H22 UNL     1     -32.802  15.120  -6.315  1.00 20.00     0.167 HD
ENDBRANCH   8  10
ENDBRANCH   2   8
TORSDOF 2
ENDMDL
MODEL 7
REMARK VINA RESULT:      -4.4     11.473     12.271
REMARK  2 active torsions:
REMARK  status: ('A' for Active; 'I' for Inactive)
REMARK    1  A    between atoms: C2_2  and  C3_3 
REMARK    2  A    between atoms: C3_3  and  O10_10 
ROOT
HETATM    1  C1  UNL     1     -34.762  15.483  -4.293  1.00 20.00    -0.067 C 
HETATM    2  C2  UNL     1     -34.975  14.732  -5.378  1.00 20.00     0.014 C 
HETATM    3  C4  UNL     1     -33.576  16.385  -4.099  1.00 20.00     0.035 C 
HETATM    4  C5  UNL     1     -35.675  15.540  -3.101  1.00 20.00     0.035 C 
HETATM    5  C6  UNL     1     -33.657  16.746  -2.621  1.00 20.00     0.005 C 
HETATM    6  C7  UNL     1     -35.150  16.742  -2.324  1.00 20.00     0.005 C 
HETATM    7  C8  UNL     1     -34.034  14.709  -6.544  1.00 20.00     0.056 C 
ENDROOT
BRANCH   2   8
HETATM    8  C3  UNL     1     -36.204  13.896  -5.400  1.00 20.00     0.171 C 
HETATM    9  O9  UNL     1     -37.314  14.277  -5.741  1.00 20.00    -0.646 OA
BRANCH   8  10
HETATM   10  O10 UNL     1     -35.935  12.635  -4.988  1.00 20.00    -0.773 OA
HETATM   11  H22 UNL     1     -35.369  12.153  -5.628  1.00 20.00     0.167 HD
ENDBRANCH   8  10
ENDBRANCH   2   8
TORSDOF 2
ENDMDL
MODEL 8
REMARK VINA RESULT:      -4.4      2.436      3.756
REMARK  2 active torsions:
REMARK  status: ('A' for Active; 'I' for Inactive)
REMARK    1  A    between atoms: C2_2  and  C3_3 
REMARK    2  A    between atoms: C3_3  and  O10_10 
ROOT
HETATM    1  C1  UNL     1     -33.390   7.144   4.059  1.00 20.00    -0.067 C 
HETATM    2  C2  UNL     1     -32.487   8.052   3.677  1.00 20.00     0.014 C 
HETATM    3  C4  UNL     1     -33.723   6.821   5.489  1.00 20.00     0.035 C 
HETATM    4  C5  UNL     1     -34.211   6.307   3.120  1.00 20.00     0.035 C 
HETATM    5  C6  UNL     1     -34.548   5.546   5.369  1.00 20.00     0.005 C 
HETATM    6  C7  UNL     1     -35.266   5.697   4.035  1.00 20.00     0.005 C 
HETATM    7  C8  UNL     1     -31.691   8.863   4.653  1.00 20.00     0.056 C 
ENDROOT
BRANCH   2   8
HETATM    8  C3  UNL     1     -32.285   8.241   2.216  1.00 20.00     0.171 C 
HETATM    9  O9  UNL     1     -31.559   7.562   1.507  1.00 20.00    -0.646 OA
BRANCH   8  10
HETATM   10  O10 UNL     1     -33.022   9.281   1.760  1.00 20.00    -0.773 OA
HETATM   11  H22 UNL     1     -33.213   9.934   2.466  1.00 20.00     0.167 HD
ENDBRANCH   8  10
ENDBRANCH   2   8
TORSDOF 2
ENDMDL
MODEL 9
REMARK VINA RESULT:      -4.4      1.468      2.332
REMARK  2 active torsions:
REMARK  status: ('A' for Active; 'I' for Inactive)
REMARK    1  A    between atoms: C2_2  and  C3_3 
REMARK    2  A    between atoms: C3_3  and  O10_10 
ROOT
HETATM    1  C1  UNL     1     -33.252   7.296   3.481  1.00 20.00    -0.067 C 
HETATM    2  C2  UNL     1     -34.202   6.598   4.111  1.00 20.00     0.014 C 
HETATM    3  C4  UNL     1     -33.196   7.513   1.995  1.00 20.00     0.035 C 
HETATM    4  C5  UNL     1     -32.095   7.972   4.160  1.00 20.00     0.035 C 
HETATM    5  C6  UNL     1     -31.798   8.079   1.782  1.00 20.00     0.005 C 
HETATM    6  C7  UNL     1     -31.520   8.858   3.061  1.00 20.00     0.005 C 
HETATM    7  C8  UNL     1     -35.338   5.942   3.388  1.00 20.00     0.056 C 
ENDROOT
BRANCH   2   8
HETATM    8  C3  UNL     1     -34.099   6.486   5.590  1.00 20.00     0.171 C 
HETATM    9  O9  UNL     1     -33.887   7.411   6.358  1.00 20.00    -0.646 OA
BRANCH   8  10
HETATM   10  O10 UNL     1     -34.275   5.204   5.988  1.00 20.00    -0.773 OA
HETATM   11  H22 UNL     1     -34.243   4.577   5.234  1.00 20.00     0.167 HD
ENDBRANCH   8  10
ENDBRANCH   2   8
TORSDOF 2
ENDMDL
