MODEL 1
REMARK VINA RESULT:      -4.2      0.000      0.000
REMARK  1 active torsions:
REMARK  status: ('A' for Active; 'I' for Inactive)
REMARK    1  A    between atoms: C6_6  and  N8_8 
ROOT
HETATM    1  C1  UNL     1     -34.322   4.706   3.972  1.00 20.00     0.137 A 
HETATM    2  C2  UNL     1     -33.714   5.543   3.067  1.00 20.00     0.113 A 
HETATM    3  C3  UNL     1     -33.954   6.515   5.029  1.00 20.00     0.203 A 
HETATM    4  N7  UNL     1     -34.470   5.317   5.191  1.00 20.00    -0.231 NA
HETATM    5  N8  UNL     1     -33.484   6.698   3.758  1.00 20.00    -0.327 N 
HETATM    6 CL9  UNL     1     -33.851   7.744   6.197  1.00 20.00    -0.043 Cl
ENDROOT
BRANCH   5   7
HETATM    7  C6  UNL     1     -32.846   7.900   3.204  1.00 20.00     0.083 C 
HETATM    8  C4  UNL     1     -32.836   7.889   1.675  1.00 20.00     0.032 C 
HETATM    9  C5  UNL     1     -31.444   8.118   3.777  1.00 20.00     0.032 C 
ENDBRANCH   5   7
TORSDOF 1
ENDMDL
MODEL 2
REMARK VINA RESULT:      -4.1      1.813      2.451
REMARK  1 active torsions:
REMARK  status: ('A' for Active; 'I' for Inactive)
REMARK    1  A    between atoms: C6_6  and  N8_8 
ROOT
HETATM    1  C1  UNL     1     -34.574   6.095   5.410  1.00 20.00     0.137 A 
HETATM    2  C2  UNL     1     -33.800   7.144   4.973  1.00 20.00     0.113 A 
HETATM    3  C3  UNL     1     -33.670   5.421   3.605  1.00 20.00     0.203 A 
HETATM    4  N7  UNL     1     -34.488   5.026   4.555  1.00 20.00    -0.231 NA
HETATM    5  N8  UNL     1     -33.227   6.698   3.815  1.00 20.00    -0.327 N 
HETATM    6 CL9  UNL     1     -33.169   4.521   2.254  1.00 20.00    -0.043 Cl
ENDROOT
BRANCH   5   7
HETATM    7  C6  UNL     1     -32.307   7.475   2.976  1.00 20.00     0.083 C 
HETATM    8  C4  UNL     1     -31.400   8.383   3.808  1.00 20.00     0.032 C 
HETATM    9  C5  UNL     1     -33.047   8.260   1.890  1.00 20.00     0.032 C 
ENDBRANCH   5   7
TORSDOF 1
ENDMDL
MODEL 3
REMARK VINA RESULT:      -3.9      1.250      3.089
REMARK  1 active torsions:
REMARK  status: ('A' for Active; 'I' for Inactive)
REMARK    1  A    between atoms: C6_6  and  N8_8 
ROOT
HETATM    1  C1  UNL     1     -31.704   8.284   2.952  1.00 20.00     0.137 A 
HETATM    2  C2  UNL     1     -32.465   7.310   2.349  1.00 20.00     0.113 A 
HETATM    3  C3  UNL     1     -32.926   7.478   4.497  1.00 20.00     0.203 A 
HETATM    4  N7  UNL     1     -31.996   8.383   4.289  1.00 20.00    -0.231 NA
HETATM    5  N8  UNL     1     -33.242   6.802   3.351  1.00 20.00    -0.327 N 
HETATM    6 CL9  UNL     1     -33.687   7.123   5.974  1.00 20.00    -0.043 Cl
ENDROOT
BRANCH   5   7
HETATM    7  C6  UNL     1     -34.228   5.726   3.190  1.00 20.00     0.083 C 
HETATM    8  C4  UNL     1     -35.603   6.123   3.732  1.00 20.00     0.032 C 
HETATM    9  C5  UNL     1     -33.741   4.408   3.798  1.00 20.00     0.032 C 
ENDBRANCH   5   7
TORSDOF 1
ENDMDL
MODEL 4
REMARK VINA RESULT:      -3.8      1.764      2.489
REMARK  1 active torsions:
REMARK  status: ('A' for Active; 'I' for Inactive)
REMARK    1  A    between atoms: C6_6  and  N8_8 
ROOT
HETATM    1  C1  UNL     1     -33.634   7.537   6.152  1.00 20.00     0.137 A 
HETATM    2  C2  UNL     1     -33.181   7.734   4.869  1.00 20.00     0.113 A 
HETATM    3  C3  UNL     1     -34.363   5.881   5.032  1.00 20.00     0.203 A 
HETATM    4  N7  UNL     1     -34.368   6.383   6.247  1.00 20.00    -0.231 NA
HETATM    5  N8  UNL     1     -33.655   6.665   4.162  1.00 20.00    -0.327 N 
HETATM    6 CL9  UNL     1     -35.110   4.444   4.521  1.00 20.00    -0.043 Cl
ENDROOT
BRANCH   5   7
HETATM    7  C6  UNL     1     -33.427   6.432   2.731  1.00 20.00     0.083 C 
HETATM    8  C4  UNL     1     -32.876   5.031   2.459  1.00 20.00     0.032 C 
HETATM    9  C5  UNL     1     -32.545   7.516   2.108  1.00 20.00     0.032 C 
ENDBRANCH   5   7
TORSDOF 1
ENDMDL
MODEL 5
REMARK VINA RESULT:      -3.7     11.444     11.932
REMARK  1 active torsions:
REMARK  status: ('A' for Active; 'I' for Inactive)
REMARK    1  A    between atoms: C6_6  and  N8_8 
ROOT
HETATM    1  C1  UNL     1     -36.263  14.231  -4.909  1.00 20.00     0.137 A 
HETATM    2  C2  UNL     1     -36.152  15.322  -4.079  1.00 20.00     0.113 A 
HETATM    3  C3  UNL     1     -34.218  14.295  -4.324  1.00 20.00     0.203 A 
HETATM    4  N7  UNL     1     -35.056  13.596  -5.057  1.00 20.00    -0.231 NA
HETATM    5  N8  UNL     1     -34.837  15.350  -3.713  1.00 20.00    -0.327 N 
HETATM    6 CL9  UNL     1     -32.561  13.992  -4.106  1.00 20.00    -0.043 Cl
ENDROOT
BRANCH   5   7
HETATM    7  C6  UNL     1     -34.231  16.348  -2.821  1.00 20.00     0.083 C 
HETATM    8  C4  UNL     1     -35.192  16.785  -1.714  1.00 20.00     0.032 C 
HETATM    9  C5  UNL     1     -33.679  17.547  -3.595  1.00 20.00     0.032 C 
ENDBRANCH   5   7
TORSDOF 1
ENDMDL
MODEL 6
REMARK VINA RESULT:      -3.6     11.518     12.202
REMARK  1 active torsions:
REMARK  status: ('A' for Active; 'I' for Inactive)
REMARK    1  A    between atoms: C6_6  and  N8_8 
ROOT
HETATM    1  C1  UNL     1     -36.619  13.640  -5.175  1.00 20.00     0.137 A 
HETATM    2  C2  UNL     1     -36.721  14.927  -4.702  1.00 20.00     0.113 A 
HETATM    3  C3  UNL     1     -34.650  14.183  -4.576  1.00 20.00     0.203 A 
HETATM    4  N7  UNL     1     -35.328  13.183  -5.093  1.00 20.00    -0.231 NA
HETATM    5  N8  UNL     1     -35.452  15.262  -4.322  1.00 20.00    -0.327 N 
HETATM    6 CL9  UNL     1     -32.988  14.214  -4.230  1.00 20.00    -0.043 Cl
ENDROOT
BRANCH   5   7
HETATM    7  C6  UNL     1     -35.057  16.555  -3.749  1.00 20.00     0.083 C 
HETATM    8  C4  UNL     1     -35.070  16.531  -2.219  1.00 20.00     0.032 C 
HETATM    9  C5  UNL     1     -35.897  17.707  -4.302  1.00 20.00     0.032 C 
ENDBRANCH   5   7
TORSDOF 1
ENDMDL
MODEL 7
REMARK VINA RESULT:      -3.5     12.194     13.133
REMARK  1 active torsions:
REMARK  status: ('A' for Active; 'I' for Inactive)
REMARK    1  A    between atoms: C6_6  and  N8_8 
ROOT
HETATM    1  C1  UNL     1     -33.860  17.477  -5.993  1.00 20.00     0.137 A 
HETATM    2  C2  UNL     1     -34.095  17.857  -4.693  1.00 20.00     0.113 A 
HETATM    3  C3  UNL     1     -33.315  15.799  -4.803  1.00 20.00     0.203 A 
HETATM    4  N7  UNL     1     -33.375  16.195  -6.055  1.00 20.00    -0.231 NA
HETATM    5  N8  UNL     1     -33.742  16.772  -3.942  1.00 20.00    -0.327 N 
HETATM    6 CL9  UNL     1     -32.792  14.284  -4.239  1.00 20.00    -0.043 Cl
ENDROOT
BRANCH   5   7
HETATM    7  C6  UNL     1     -33.819  16.699  -2.477  1.00 20.00     0.083 C 
HETATM    8  C4  UNL     1     -35.266  16.674  -1.981  1.00 20.00     0.032 C 
HETATM    9  C5  UNL     1     -33.012  17.812  -1.805  1.00 20.00     0.032 C 
ENDBRANCH   5   7
TORSDOF 1
ENDMDL
MODEL 8
REMARK VINA RESULT:      -3.5     11.819     12.244
REMARK  1 active torsions:
REMARK  status: ('A' for Active; 'I' for Inactive)
REMARK    1  A    between atoms: C6_6  and  N8_8 
ROOT
HETATM    1  C1  UNL     1     -33.048  14.708  -4.547  1.00 20.00     0.137 A 
HETATM    2  C2  UNL     1     -33.567  15.679  -3.722  1.00 20.00     0.113 A 
HETATM    3  C3  UNL     1     -35.161  14.470  -4.646  1.00 20.00     0.203 A 
HETATM    4  N7  UNL     1     -34.045  13.960  -5.119  1.00 20.00    -0.231 NA
HETATM    5  N8  UNL     1     -34.921  15.514  -3.796  1.00 20.00    -0.327 N 
HETATM    6 CL9  UNL     1     -36.742  13.960  -4.999  1.00 20.00    -0.043 Cl
ENDROOT
BRANCH   5   7
HETATM    7  C6  UNL     1     -35.910  16.328  -3.078  1.00 20.00     0.083 C 
HETATM    8  C4  UNL     1     -36.406  17.503  -3.923  1.00 20.00     0.032 C 
HETATM    9  C5  UNL     1     -35.389  16.792  -1.717  1.00 20.00     0.032 C 
ENDBRANCH   5   7
TORSDOF 1
ENDMDL
MODEL 9
REMARK VINA RESULT:      -3.5      2.013      3.819
REMARK  1 active torsions:
REMARK  status: ('A' for Active; 'I' for Inactive)
REMARK    1  A    between atoms: C6_6  and  N8_8 
ROOT
HETATM    1  C1  UNL     1     -31.812   8.128   3.360  1.00 20.00     0.137 A 
HETATM    2  C2  UNL     1     -32.506   7.655   4.449  1.00 20.00     0.113 A 
HETATM    3  C3  UNL     1     -33.337   6.876   2.562  1.00 20.00     0.203 A 
HETATM    4  N7  UNL     1     -32.335   7.640   2.189  1.00 20.00    -0.231 NA
HETATM    5  N8  UNL     1     -33.480   6.854   3.922  1.00 20.00    -0.327 N 
HETATM    6 CL9  UNL     1     -34.377   5.995   1.548  1.00 20.00    -0.043 Cl
ENDROOT
BRANCH   5   7
HETATM    7  C6  UNL     1     -34.481   6.119   4.705  1.00 20.00     0.083 C 
HETATM    8  C4  UNL     1     -34.423   6.476   6.191  1.00 20.00     0.032 C 
HETATM    9  C5  UNL     1     -34.384   4.608   4.483  1.00 20.00     0.032 C 
ENDBRANCH   5   7
TORSDOF 1
ENDMDL
