MODEL 1
REMARK VINA RESULT:      -5.9      0.000      0.000
REMARK  1 active torsions:
REMARK  status: ('A' for Active; 'I' for Inactive)
REMARK    1  A    between atoms: C5_5  and  O7_7 
ROOT
HETATM    1  C1  UNL     1     -33.625   7.646   4.479  1.00 20.00     0.037 C 
HETATM    2  C2  UNL     1     -33.306   5.983   2.601  1.00 20.00     0.037 C 
HETATM    3  C3  UNL     1     -34.052   6.517   5.410  1.00 20.00     0.081 C 
HETATM    4  C4  UNL     1     -33.733   4.850   3.529  1.00 20.00     0.081 C 
HETATM    5  C5  UNL     1     -32.689   7.145   3.379  1.00 20.00     0.118 C 
HETATM    6  C6  UNL     1     -34.645   5.351   4.635  1.00 20.00     0.243 C 
HETATM    7  F8  UNL     1     -34.921   4.335   5.490  1.00 20.00    -0.206 F 
HETATM    8  F9  UNL     1     -35.833   5.734   4.096  1.00 20.00    -0.206 F 
ENDROOT
BRANCH   5   9
HETATM    9  O7  UNL     1     -32.414   8.223   2.492  1.00 20.00    -0.396 OA
HETATM   10  H19 UNL     1     -31.462   8.200   2.312  1.00 20.00     0.210 HD
ENDBRANCH   5   9
TORSDOF 1
ENDMDL
MODEL 2
REMARK VINA RESULT:      -5.5      2.709      3.642
REMARK  1 active torsions:
REMARK  status: ('A' for Active; 'I' for Inactive)
REMARK    1  A    between atoms: C5_5  and  O7_7 
ROOT
HETATM    1  C1  UNL     1     -33.839   5.293   3.086  1.00 20.00     0.037 C 
HETATM    2  C2  UNL     1     -34.391   6.339   5.320  1.00 20.00     0.037 C 
HETATM    3  C3  UNL     1     -32.657   6.244   2.929  1.00 20.00     0.081 C 
HETATM    4  C4  UNL     1     -33.212   7.293   5.168  1.00 20.00     0.081 C 
HETATM    5  C5  UNL     1     -34.162   5.034   4.557  1.00 20.00     0.118 C 
HETATM    6  C6  UNL     1     -32.875   7.533   3.706  1.00 20.00     0.243 C 
HETATM    7  F8  UNL     1     -31.764   8.306   3.618  1.00 20.00    -0.206 F 
HETATM    8  F9  UNL     1     -33.881   8.238   3.125  1.00 20.00    -0.206 F 
ENDROOT
BRANCH   5   9
HETATM    9  O7  UNL     1     -35.331   4.226   4.629  1.00 20.00    -0.396 OA
HETATM   10  H19 UNL     1     -35.710   4.205   3.737  1.00 20.00     0.210 HD
ENDBRANCH   5   9
TORSDOF 1
ENDMDL
MODEL 3
REMARK VINA RESULT:      -5.4      2.117      2.855
REMARK  1 active torsions:
REMARK  status: ('A' for Active; 'I' for Inactive)
REMARK    1  A    between atoms: C5_5  and  O7_7 
ROOT
HETATM    1  C1  UNL     1     -32.577   7.519   4.071  1.00 20.00     0.037 C 
HETATM    2  C2  UNL     1     -34.362   6.098   5.160  1.00 20.00     0.037 C 
HETATM    3  C3  UNL     1     -33.174   7.222   2.699  1.00 20.00     0.081 C 
HETATM    4  C4  UNL     1     -34.963   5.799   3.791  1.00 20.00     0.081 C 
HETATM    5  C5  UNL     1     -33.633   7.442   5.173  1.00 20.00     0.118 C 
HETATM    6  C6  UNL     1     -33.918   5.897   2.692  1.00 20.00     0.243 C 
HETATM    7  F8  UNL     1     -34.513   5.720   1.486  1.00 20.00    -0.206 F 
HETATM    8  F9  UNL     1     -33.024   4.884   2.833  1.00 20.00    -0.206 F 
ENDROOT
BRANCH   5   9
HETATM    9  O7  UNL     1     -32.991   7.626   6.430  1.00 20.00    -0.396 OA
HETATM   10  H19 UNL     1     -33.136   8.551   6.683  1.00 20.00     0.210 HD
ENDBRANCH   5   9
TORSDOF 1
ENDMDL
MODEL 4
REMARK VINA RESULT:      -5.3      1.201      2.100
REMARK  1 active torsions:
REMARK  status: ('A' for Active; 'I' for Inactive)
REMARK    1  A    between atoms: C5_5  and  O7_7 
ROOT
HETATM    1  C1  UNL     1     -33.989   5.905   3.102  1.00 20.00     0.037 C 
HETATM    2  C2  UNL     1     -32.905   7.502   4.735  1.00 20.00     0.037 C 
HETATM    3  C3  UNL     1     -35.006   5.504   4.165  1.00 20.00     0.081 C 
HETATM    4  C4  UNL     1     -33.920   7.105   5.801  1.00 20.00     0.081 C 
HETATM    5  C5  UNL     1     -33.471   7.325   3.325  1.00 20.00     0.118 C 
HETATM    6  C6  UNL     1     -34.452   5.701   5.567  1.00 20.00     0.243 C 
HETATM    7  F8  UNL     1     -35.420   5.426   6.477  1.00 20.00    -0.206 F 
HETATM    8  F9  UNL     1     -33.455   4.803   5.781  1.00 20.00    -0.206 F 
ENDROOT
BRANCH   5   9
HETATM    9  O7  UNL     1     -32.456   7.595   2.365  1.00 20.00    -0.396 OA
HETATM   10  H19 UNL     1     -32.507   8.541   2.164  1.00 20.00     0.210 HD
ENDBRANCH   5   9
TORSDOF 1
ENDMDL
MODEL 5
REMARK VINA RESULT:      -5.3      2.789      3.427
REMARK  1 active torsions:
REMARK  status: ('A' for Active; 'I' for Inactive)
REMARK    1  A    between atoms: C5_5  and  O7_7 
ROOT
HETATM    1  C1  UNL     1     -33.976   6.767   5.357  1.00 20.00     0.037 C 
HETATM    2  C2  UNL     1     -34.025   5.003   3.546  1.00 20.00     0.037 C 
HETATM    3  C3  UNL     1     -33.746   7.846   4.303  1.00 20.00     0.081 C 
HETATM    4  C4  UNL     1     -33.795   6.078   2.489  1.00 20.00     0.081 C 
HETATM    5  C5  UNL     1     -34.729   5.569   4.780  1.00 20.00     0.118 C 
HETATM    6  C6  UNL     1     -33.066   7.279   3.067  1.00 20.00     0.243 C 
HETATM    7  F8  UNL     1     -32.969   8.247   2.122  1.00 20.00    -0.206 F 
HETATM    8  F9  UNL     1     -31.794   6.921   3.384  1.00 20.00    -0.206 F 
ENDROOT
BRANCH   5   9
HETATM    9  O7  UNL     1     -34.818   4.563   5.783  1.00 20.00    -0.396 OA
HETATM   10  H19 UNL     1     -35.588   4.783   6.329  1.00 20.00     0.210 HD
ENDBRANCH   5   9
TORSDOF 1
ENDMDL
MODEL 6
REMARK VINA RESULT:      -5.3      2.085      2.731
REMARK  1 active torsions:
REMARK  status: ('A' for Active; 'I' for Inactive)
REMARK    1  A    between atoms: C5_5  and  O7_7 
ROOT
HETATM    1  C1  UNL     1     -34.606   5.585   5.202  1.00 20.00     0.037 C 
HETATM    2  C2  UNL     1     -33.200   7.423   4.185  1.00 20.00     0.037 C 
HETATM    3  C3  UNL     1     -34.088   4.605   4.155  1.00 20.00     0.081 C 
HETATM    4  C4  UNL     1     -32.679   6.448   3.136  1.00 20.00     0.081 C 
HETATM    5  C5  UNL     1     -33.601   6.704   5.473  1.00 20.00     0.118 C 
HETATM    6  C6  UNL     1     -33.668   5.323   2.883  1.00 20.00     0.243 C 
HETATM    7  F8  UNL     1     -33.126   4.429   2.018  1.00 20.00    -0.206 F 
HETATM    8  F9  UNL     1     -34.772   5.827   2.272  1.00 20.00    -0.206 F 
ENDROOT
BRANCH   5   9
HETATM    9  O7  UNL     1     -34.188   7.632   6.377  1.00 20.00    -0.396 OA
HETATM   10  H19 UNL     1     -34.982   7.208   6.736  1.00 20.00     0.210 HD
ENDBRANCH   5   9
TORSDOF 1
ENDMDL
MODEL 7
REMARK VINA RESULT:      -4.4      1.807      2.328
REMARK  1 active torsions:
REMARK  status: ('A' for Active; 'I' for Inactive)
REMARK    1  A    between atoms: C5_5  and  O7_7 
ROOT
HETATM    1  C1  UNL     1     -33.213   6.213   2.854  1.00 20.00     0.037 C 
HETATM    2  C2  UNL     1     -34.022   4.064   3.912  1.00 20.00     0.037 C 
HETATM    3  C3  UNL     1     -33.400   6.940   4.181  1.00 20.00     0.081 C 
HETATM    4  C4  UNL     1     -34.211   4.786   5.241  1.00 20.00     0.081 C 
HETATM    5  C5  UNL     1     -32.936   4.724   3.062  1.00 20.00     0.118 C 
HETATM    6  C6  UNL     1     -34.463   6.270   5.036  1.00 20.00     0.243 C 
HETATM    7  F8  UNL     1     -34.529   6.889   6.242  1.00 20.00    -0.206 F 
HETATM    8  F9  UNL     1     -35.677   6.441   4.450  1.00 20.00    -0.206 F 
ENDROOT
BRANCH   5   9
HETATM    9  O7  UNL     1     -32.875   4.092   1.788  1.00 20.00    -0.396 OA
HETATM   10  H19 UNL     1     -32.088   4.441   1.342  1.00 20.00     0.210 HD
ENDBRANCH   5   9
TORSDOF 1
ENDMDL
MODEL 8
REMARK VINA RESULT:      -4.4      1.986      2.728
REMARK  1 active torsions:
REMARK  status: ('A' for Active; 'I' for Inactive)
REMARK    1  A    between atoms: C5_5  and  O7_7 
ROOT
HETATM    1  C1  UNL     1     -34.060   4.465   4.309  1.00 20.00     0.037 C 
HETATM    2  C2  UNL     1     -33.043   6.577   3.362  1.00 20.00     0.037 C 
HETATM    3  C3  UNL     1     -34.768   5.284   5.383  1.00 20.00     0.081 C 
HETATM    4  C4  UNL     1     -33.748   7.400   4.434  1.00 20.00     0.081 C 
HETATM    5  C5  UNL     1     -33.807   5.290   3.048  1.00 20.00     0.118 C 
HETATM    6  C6  UNL     1     -34.021   6.574   5.680  1.00 20.00     0.243 C 
HETATM    7  F8  UNL     1     -34.732   7.313   6.567  1.00 20.00    -0.206 F 
HETATM    8  F9  UNL     1     -32.841   6.276   6.286  1.00 20.00    -0.206 F 
ENDROOT
BRANCH   5   9
HETATM    9  O7  UNL     1     -33.057   4.500   2.132  1.00 20.00    -0.396 OA
HETATM   10  H19 UNL     1     -32.164   4.420   2.500  1.00 20.00     0.210 HD
ENDBRANCH   5   9
TORSDOF 1
ENDMDL
MODEL 9
REMARK VINA RESULT:      -4.3     12.355     13.297
REMARK  1 active torsions:
REMARK  status: ('A' for Active; 'I' for Inactive)
REMARK    1  A    between atoms: C5_5  and  O7_7 
ROOT
HETATM    1  C1  UNL     1     -34.321  14.136  -4.027  1.00 20.00     0.037 C 
HETATM    2  C2  UNL     1     -35.337  14.683  -6.277  1.00 20.00     0.037 C 
HETATM    3  C3  UNL     1     -33.811  15.568  -3.906  1.00 20.00     0.081 C 
HETATM    4  C4  UNL     1     -34.829  16.116  -6.161  1.00 20.00     0.081 C 
HETATM    5  C5  UNL     1     -35.572  14.056  -4.902  1.00 20.00     0.118 C 
HETATM    6  C6  UNL     1     -33.599  16.200  -5.273  1.00 20.00     0.243 C 
HETATM    7  F8  UNL     1     -33.239  17.498  -5.119  1.00 20.00    -0.206 F 
HETATM    8  F9  UNL     1     -32.558  15.583  -5.891  1.00 20.00    -0.206 F 
ENDROOT
BRANCH   5   9
HETATM    9  O7  UNL     1     -35.932  12.688  -5.056  1.00 20.00    -0.396 OA
HETATM   10  H19 UNL     1     -36.664  12.522  -4.443  1.00 20.00     0.210 HD
ENDBRANCH   5   9
TORSDOF 1
ENDMDL
