MODEL 1
REMARK VINA RESULT:      -5.7      0.000      0.000
REMARK  3 active torsions:
REMARK  status: ('A' for Active; 'I' for Inactive)
REMARK    1  A    between atoms: C1_1  and  C3_3 
REMARK    2  A    between atoms: C2_2  and  C5_5 
REMARK    3  A    between atoms: C4_4  and  C7_7 
ROOT
HETATM    1  C1  UNL     1     -32.566   7.299   3.617  1.00 20.00     0.000 C 
HETATM    2  C2  UNL     1     -31.848   8.248   2.997  1.00 20.00    -0.000 C 
ENDROOT
BRANCH   1   3
HETATM    3  C3  UNL     1     -33.538   6.472   2.934  1.00 20.00     0.003 C 
HETATM    4  C4  UNL     1     -34.481   5.780   3.582  1.00 20.00     0.041 C 
BRANCH   4   5
HETATM    5  C7  UNL     1     -34.539   5.855   5.056  1.00 20.00     0.258 C 
HETATM    6  O9  UNL     1     -34.582   4.851   5.755  1.00 20.00    -0.302 OA
ENDBRANCH   4   5
ENDBRANCH   1   3
BRANCH   2   7
HETATM    7  C5  UNL     1     -31.976   8.538   1.586  1.00 20.00    -0.004 C 
HETATM    8  C6  UNL     1     -32.741   9.529   1.107  1.00 20.00    -0.031 C 
HETATM    9  C8  UNL     1     -32.882   9.839  -0.347  1.00 20.00     0.036 C 
ENDBRANCH   2   7
TORSDOF 3
ENDMDL
MODEL 2
REMARK VINA RESULT:      -5.6      0.998      1.009
REMARK  3 active torsions:
REMARK  status: ('A' for Active; 'I' for Inactive)
REMARK    1  A    between atoms: C1_1  and  C3_3 
REMARK    2  A    between atoms: C2_2  and  C5_5 
REMARK    3  A    between atoms: C4_4  and  C7_7 
ROOT
HETATM    1  C1  UNL     1     -33.112   7.135   4.126  1.00 20.00     0.000 C 
HETATM    2  C2  UNL     1     -32.177   7.706   3.351  1.00 20.00    -0.000 C 
ENDROOT
BRANCH   1   3
HETATM    3  C3  UNL     1     -34.468   6.898   3.681  1.00 20.00     0.003 C 
HETATM    4  C4  UNL     1     -35.155   5.797   4.008  1.00 20.00     0.041 C 
BRANCH   4   5
HETATM    5  C7  UNL     1     -34.508   4.777   4.857  1.00 20.00     0.258 C 
HETATM    6  O9  UNL     1     -34.198   3.674   4.423  1.00 20.00    -0.302 OA
ENDBRANCH   4   5
ENDBRANCH   1   3
BRANCH   2   7
HETATM    7  C5  UNL     1     -32.435   8.141   1.996  1.00 20.00    -0.004 C 
HETATM    8  C6  UNL     1     -32.398   9.427   1.619  1.00 20.00    -0.031 C 
HETATM    9  C8  UNL     1     -32.661   9.890   0.224  1.00 20.00     0.036 C 
ENDBRANCH   2   7
TORSDOF 3
ENDMDL
MODEL 3
REMARK VINA RESULT:      -5.6      1.075      1.248
REMARK  3 active torsions:
REMARK  status: ('A' for Active; 'I' for Inactive)
REMARK    1  A    between atoms: C1_1  and  C3_3 
REMARK    2  A    between atoms: C2_2  and  C5_5 
REMARK    3  A    between atoms: C4_4  and  C7_7 
ROOT
HETATM    1  C1  UNL     1     -32.949   5.900   3.026  1.00 20.00     0.000 C 
HETATM    2  C2  UNL     1     -32.181   6.958   2.723  1.00 20.00    -0.000 C 
ENDROOT
BRANCH   1   3
HETATM    3  C3  UNL     1     -34.395   5.938   2.993  1.00 20.00     0.003 C 
HETATM    4  C4  UNL     1     -35.145   5.875   4.099  1.00 20.00     0.041 C 
BRANCH   4   5
HETATM    5  C7  UNL     1     -34.478   5.762   5.411  1.00 20.00     0.258 C 
HETATM    6  O9  UNL     1     -34.194   6.747   6.081  1.00 20.00    -0.302 OA
ENDBRANCH   4   5
ENDBRANCH   1   3
BRANCH   2   7
HETATM    7  C5  UNL     1     -32.725   8.241   2.336  1.00 20.00    -0.004 C 
HETATM    8  C6  UNL     1     -32.161   9.026   1.407  1.00 20.00    -0.031 C 
HETATM    9  C8  UNL     1     -32.713  10.352   0.997  1.00 20.00     0.036 C 
ENDBRANCH   2   7
TORSDOF 3
ENDMDL
MODEL 4
REMARK VINA RESULT:      -5.1      2.729      4.980
REMARK  3 active torsions:
REMARK  status: ('A' for Active; 'I' for Inactive)
REMARK    1  A    between atoms: C1_1  and  C3_3 
REMARK    2  A    between atoms: C2_2  and  C5_5 
REMARK    3  A    between atoms: C4_4  and  C7_7 
ROOT
HETATM    1  C1  UNL     1     -31.628   8.423   2.046  1.00 20.00     0.000 C 
HETATM    2  C2  UNL     1     -32.030   7.256   2.571  1.00 20.00    -0.000 C 
ENDROOT
BRANCH   1   3
HETATM    3  C3  UNL     1     -32.403   9.641   2.142  1.00 20.00     0.003 C 
HETATM    4  C4  UNL     1     -32.925  10.253   1.074  1.00 20.00     0.041 C 
BRANCH   4   5
HETATM    5  C7  UNL     1     -32.705   9.668  -0.264  1.00 20.00     0.258 C 
HETATM    6  O9  UNL     1     -33.570   9.017  -0.837  1.00 20.00    -0.302 OA
ENDBRANCH   4   5
ENDBRANCH   1   3
BRANCH   2   7
HETATM    7  C5  UNL     1     -33.278   7.101   3.285  1.00 20.00    -0.004 C 
HETATM    8  C6  UNL     1     -33.905   5.924   3.419  1.00 20.00    -0.031 C 
HETATM    9  C8  UNL     1     -35.193   5.750   4.154  1.00 20.00     0.036 C 
ENDBRANCH   2   7
TORSDOF 3
ENDMDL
MODEL 5
REMARK VINA RESULT:      -4.9      2.584      4.805
REMARK  3 active torsions:
REMARK  status: ('A' for Active; 'I' for Inactive)
REMARK    1  A    between atoms: C1_1  and  C3_3 
REMARK    2  A    between atoms: C2_2  and  C5_5 
REMARK    3  A    between atoms: C4_4  and  C7_7 
ROOT
HETATM    1  C1  UNL     1     -31.428   8.504   2.766  1.00 20.00     0.000 C 
HETATM    2  C2  UNL     1     -32.144   7.919   3.739  1.00 20.00    -0.000 C 
ENDROOT
BRANCH   1   3
HETATM    3  C3  UNL     1     -31.658   8.258   1.360  1.00 20.00     0.003 C 
HETATM    4  C4  UNL     1     -32.173   9.181   0.539  1.00 20.00     0.041 C 
BRANCH   4   5
HETATM    5  C7  UNL     1     -32.523  10.508   1.084  1.00 20.00     0.258 C 
HETATM    6  O9  UNL     1     -33.647  10.762   1.499  1.00 20.00    -0.302 OA
ENDBRANCH   4   5
ENDBRANCH   1   3
BRANCH   2   7
HETATM    7  C5  UNL     1     -33.215   6.985   3.475  1.00 20.00    -0.004 C 
HETATM    8  C6  UNL     1     -34.060   6.550   4.421  1.00 20.00    -0.031 C 
HETATM    9  C8  UNL     1     -35.171   5.587   4.162  1.00 20.00     0.036 C 
ENDBRANCH   2   7
TORSDOF 3
ENDMDL
MODEL 6
REMARK VINA RESULT:      -4.8      2.709      5.275
REMARK  3 active torsions:
REMARK  status: ('A' for Active; 'I' for Inactive)
REMARK    1  A    between atoms: C1_1  and  C3_3 
REMARK    2  A    between atoms: C2_2  and  C5_5 
REMARK    3  A    between atoms: C4_4  and  C7_7 
ROOT
HETATM    1  C1  UNL     1     -33.006   6.776   2.074  1.00 20.00     0.000 C 
HETATM    2  C2  UNL     1     -34.006   6.030   2.567  1.00 20.00    -0.000 C 
ENDROOT
BRANCH   1   3
HETATM    3  C3  UNL     1     -32.221   7.680   2.886  1.00 20.00     0.003 C 
HETATM    4  C4  UNL     1     -31.801   8.871   2.443  1.00 20.00     0.041 C 
BRANCH   4   5
HETATM    5  C7  UNL     1     -32.150   9.287   1.070  1.00 20.00     0.258 C 
HETATM    6  O9  UNL     1     -32.603  10.398   0.825  1.00 20.00    -0.302 OA
ENDBRANCH   4   5
ENDBRANCH   1   3
BRANCH   2   7
HETATM    7  C5  UNL     1     -34.397   6.058   3.959  1.00 20.00    -0.004 C 
HETATM    8  C6  UNL     1     -34.394   4.971   4.744  1.00 20.00    -0.031 C 
HETATM    9  C8  UNL     1     -34.794   4.985   6.182  1.00 20.00     0.036 C 
ENDBRANCH   2   7
TORSDOF 3
ENDMDL
MODEL 7
REMARK VINA RESULT:      -4.6      2.859      5.078
REMARK  3 active torsions:
REMARK  status: ('A' for Active; 'I' for Inactive)
REMARK    1  A    between atoms: C1_1  and  C3_3 
REMARK    2  A    between atoms: C2_2  and  C5_5 
REMARK    3  A    between atoms: C4_4  and  C7_7 
ROOT
HETATM    1  C1  UNL     1     -31.961   8.404   3.962  1.00 20.00     0.000 C 
HETATM    2  C2  UNL     1     -32.914   7.940   4.785  1.00 20.00    -0.000 C 
ENDROOT
BRANCH   1   3
HETATM    3  C3  UNL     1     -31.667   7.807   2.678  1.00 20.00     0.003 C 
HETATM    4  C4  UNL     1     -31.878   8.443   1.520  1.00 20.00     0.041 C 
BRANCH   4   5
HETATM    5  C7  UNL     1     -32.433   9.811   1.545  1.00 20.00     0.258 C 
HETATM    6  O9  UNL     1     -32.676  10.431   0.517  1.00 20.00    -0.302 OA
ENDBRANCH   4   5
ENDBRANCH   1   3
BRANCH   2   7
HETATM    7  C5  UNL     1     -33.741   6.797   4.467  1.00 20.00    -0.004 C 
HETATM    8  C6  UNL     1     -34.156   5.914   5.386  1.00 20.00    -0.031 C 
HETATM    9  C8  UNL     1     -35.011   4.730   5.071  1.00 20.00     0.036 C 
ENDBRANCH   2   7
TORSDOF 3
ENDMDL
MODEL 8
REMARK VINA RESULT:      -4.5     10.543     11.016
REMARK  3 active torsions:
REMARK  status: ('A' for Active; 'I' for Inactive)
REMARK    1  A    between atoms: C1_1  and  C3_3 
REMARK    2  A    between atoms: C2_2  and  C5_5 
REMARK    3  A    between atoms: C4_4  and  C7_7 
ROOT
HETATM    1  C1  UNL     1     -35.133  15.948  -3.048  1.00 20.00     0.000 C 
HETATM    2  C2  UNL     1     -34.933  16.864  -2.087  1.00 20.00    -0.000 C 
ENDROOT
BRANCH   1   3
HETATM    3  C3  UNL     1     -34.053  15.316  -3.773  1.00 20.00     0.003 C 
HETATM    4  C4  UNL     1     -34.251  14.313  -4.636  1.00 20.00     0.041 C 
BRANCH   4   5
HETATM    5  C7  UNL     1     -35.626  13.825  -4.863  1.00 20.00     0.258 C 
HETATM    6  O9  UNL     1     -35.854  12.688  -5.258  1.00 20.00    -0.302 OA
ENDBRANCH   4   5
ENDBRANCH   1   3
BRANCH   2   7
HETATM    7  C5  UNL     1     -33.618  17.307  -1.684  1.00 20.00    -0.004 C 
HETATM    8  C6  UNL     1     -33.407  18.136  -0.651  1.00 20.00    -0.031 C 
HETATM    9  C8  UNL     1     -32.054  18.601  -0.223  1.00 20.00     0.036 C 
ENDBRANCH   2   7
TORSDOF 3
ENDMDL
MODEL 9
REMARK VINA RESULT:      -4.3      1.699      2.574
REMARK  3 active torsions:
REMARK  status: ('A' for Active; 'I' for Inactive)
REMARK    1  A    between atoms: C1_1  and  C3_3 
REMARK    2  A    between atoms: C2_2  and  C5_5 
REMARK    3  A    between atoms: C4_4  and  C7_7 
ROOT
HETATM    1  C1  UNL     1     -33.990   6.481   5.741  1.00 20.00     0.000 C 
HETATM    2  C2  UNL     1     -33.096   7.394   5.330  1.00 20.00    -0.000 C 
ENDROOT
BRANCH   1   3
HETATM    3  C3  UNL     1     -35.085   6.021   4.915  1.00 20.00     0.003 C 
HETATM    4  C4  UNL     1     -34.946   5.055   4.001  1.00 20.00     0.041 C 
BRANCH   4   5
HETATM    5  C7  UNL     1     -33.622   4.426   3.821  1.00 20.00     0.258 C 
HETATM    6  O9  UNL     1     -32.983   4.547   2.783  1.00 20.00    -0.302 OA
ENDBRANCH   4   5
ENDBRANCH   1   3
BRANCH   2   7
HETATM    7  C5  UNL     1     -33.142   8.008   4.021  1.00 20.00    -0.004 C 
HETATM    8  C6  UNL     1     -32.165   7.874   3.113  1.00 20.00    -0.031 C 
HETATM    9  C8  UNL     1     -32.200   8.501   1.759  1.00 20.00     0.036 C 
ENDBRANCH   2   7
TORSDOF 3
ENDMDL
