MODEL 1
REMARK VINA RESULT:      -6.1      0.000      0.000
REMARK  3 active torsions:
REMARK  status: ('A' for Active; 'I' for Inactive)
REMARK    1  A    between atoms: C1_1  and  C3_3 
REMARK    2  A    between atoms: C2_2  and  C5_5 
REMARK    3  A    between atoms: C4_4  and  C7_7 
ROOT
HETATM    1  C1  UNL     1     -33.154   7.266   3.409  1.00 20.00     0.000 C 
HETATM    2  C2  UNL     1     -32.208   8.120   2.989  1.00 20.00    -0.000 C 
ENDROOT
BRANCH   1   3
HETATM    3  C3  UNL     1     -33.594   7.189   4.785  1.00 20.00     0.003 C 
HETATM    4  C4  UNL     1     -34.370   6.198   5.240  1.00 20.00     0.041 C 
BRANCH   4   5
HETATM    5  C7  UNL     1     -34.800   5.138   4.308  1.00 20.00     0.258 C 
HETATM    6  O9  UNL     1     -34.473   3.968   4.464  1.00 20.00    -0.302 OA
ENDBRANCH   4   5
ENDBRANCH   1   3
BRANCH   2   7
HETATM    7  C5  UNL     1     -31.768   8.195   1.613  1.00 20.00    -0.004 C 
HETATM    8  C6  UNL     1     -32.028   9.242   0.816  1.00 20.00    -0.031 C 
HETATM    9  C8  UNL     1     -32.798  10.445   1.253  1.00 20.00     0.036 C 
ENDBRANCH   2   7
TORSDOF 3
ENDMDL
MODEL 2
REMARK VINA RESULT:      -5.8      2.624      5.033
REMARK  3 active torsions:
REMARK  status: ('A' for Active; 'I' for Inactive)
REMARK    1  A    between atoms: C1_1  and  C3_3 
REMARK    2  A    between atoms: C2_2  and  C5_5 
REMARK    3  A    between atoms: C4_4  and  C7_7 
ROOT
HETATM    1  C1  UNL     1     -32.996   7.719   2.443  1.00 20.00     0.000 C 
HETATM    2  C2  UNL     1     -33.027   6.482   2.962  1.00 20.00    -0.000 C 
ENDROOT
BRANCH   1   3
HETATM    3  C3  UNL     1     -31.786   8.333   1.940  1.00 20.00     0.003 C 
HETATM    4  C4  UNL     1     -31.788   9.207   0.926  1.00 20.00     0.041 C 
BRANCH   4   5
HETATM    5  C7  UNL     1     -33.071   9.565   0.290  1.00 20.00     0.258 C 
HETATM    6  O9  UNL     1     -33.394   9.126  -0.807  1.00 20.00    -0.302 OA
ENDBRANCH   4   5
ENDBRANCH   1   3
BRANCH   2   7
HETATM    7  C5  UNL     1     -34.237   5.870   3.466  1.00 20.00    -0.004 C 
HETATM    8  C6  UNL     1     -34.667   6.023   4.727  1.00 20.00    -0.031 C 
HETATM    9  C8  UNL     1     -33.951   6.838   5.753  1.00 20.00     0.036 C 
ENDBRANCH   2   7
TORSDOF 3
ENDMDL
MODEL 3
REMARK VINA RESULT:      -5.7      1.301      1.612
REMARK  3 active torsions:
REMARK  status: ('A' for Active; 'I' for Inactive)
REMARK    1  A    between atoms: C1_1  and  C3_3 
REMARK    2  A    between atoms: C2_2  and  C5_5 
REMARK    3  A    between atoms: C4_4  and  C7_7 
ROOT
HETATM    1  C1  UNL     1     -33.100   7.092   2.896  1.00 20.00     0.000 C 
HETATM    2  C2  UNL     1     -32.410   7.761   1.960  1.00 20.00    -0.000 C 
ENDROOT
BRANCH   1   3
HETATM    3  C3  UNL     1     -33.273   5.656   2.875  1.00 20.00     0.003 C 
HETATM    4  C4  UNL     1     -34.066   5.011   3.740  1.00 20.00     0.041 C 
BRANCH   4   5
HETATM    5  C7  UNL     1     -34.796   5.789   4.759  1.00 20.00     0.258 C 
HETATM    6  O9  UNL     1     -34.435   5.822   5.929  1.00 20.00    -0.302 OA
ENDBRANCH   4   5
ENDBRANCH   1   3
BRANCH   2   7
HETATM    7  C5  UNL     1     -32.239   9.197   1.982  1.00 20.00    -0.004 C 
HETATM    8  C6  UNL     1     -32.544   9.988   0.942  1.00 20.00    -0.031 C 
HETATM    9  C8  UNL     1     -33.090   9.482  -0.352  1.00 20.00     0.036 C 
ENDBRANCH   2   7
TORSDOF 3
ENDMDL
MODEL 4
REMARK VINA RESULT:      -5.5      2.711      5.331
REMARK  3 active torsions:
REMARK  status: ('A' for Active; 'I' for Inactive)
REMARK    1  A    between atoms: C1_1  and  C3_3 
REMARK    2  A    between atoms: C2_2  and  C5_5 
REMARK    3  A    between atoms: C4_4  and  C7_7 
ROOT
HETATM    1  C1  UNL     1     -32.745   7.970   2.937  1.00 20.00     0.000 C 
HETATM    2  C2  UNL     1     -33.187   6.815   3.456  1.00 20.00    -0.000 C 
ENDROOT
BRANCH   1   3
HETATM    3  C3  UNL     1     -31.798   8.034   1.844  1.00 20.00     0.003 C 
HETATM    4  C4  UNL     1     -31.829   9.000   0.918  1.00 20.00     0.041 C 
BRANCH   4   5
HETATM    5  C7  UNL     1     -32.868  10.045   1.006  1.00 20.00     0.258 C 
HETATM    6  O9  UNL     1     -32.651  11.129   1.533  1.00 20.00    -0.302 OA
ENDBRANCH   4   5
ENDBRANCH   1   3
BRANCH   2   7
HETATM    7  C5  UNL     1     -34.132   6.752   4.549  1.00 20.00    -0.004 C 
HETATM    8  C6  UNL     1     -34.664   5.604   4.994  1.00 20.00    -0.031 C 
HETATM    9  C8  UNL     1     -34.344   4.264   4.417  1.00 20.00     0.036 C 
ENDBRANCH   2   7
TORSDOF 3
ENDMDL
MODEL 5
REMARK VINA RESULT:      -4.9      1.782      2.338
REMARK  3 active torsions:
REMARK  status: ('A' for Active; 'I' for Inactive)
REMARK    1  A    between atoms: C1_1  and  C3_3 
REMARK    2  A    between atoms: C2_2  and  C5_5 
REMARK    3  A    between atoms: C4_4  and  C7_7 
ROOT
HETATM    1  C1  UNL     1     -34.281   5.890   3.315  1.00 20.00     0.000 C 
HETATM    2  C2  UNL     1     -33.068   6.151   2.805  1.00 20.00    -0.000 C 
ENDROOT
BRANCH   1   3
HETATM    3  C3  UNL     1     -34.519   4.845   4.288  1.00 20.00     0.003 C 
HETATM    4  C4  UNL     1     -34.623   5.089   5.600  1.00 20.00     0.041 C 
BRANCH   4   5
HETATM    5  C7  UNL     1     -34.490   6.477   6.083  1.00 20.00     0.258 C 
HETATM    6  O9  UNL     1     -33.409   7.052   6.111  1.00 20.00    -0.302 OA
ENDBRANCH   4   5
ENDBRANCH   1   3
BRANCH   2   7
HETATM    7  C5  UNL     1     -32.831   7.196   1.832  1.00 20.00    -0.004 C 
HETATM    8  C6  UNL     1     -32.076   8.275   2.084  1.00 20.00    -0.031 C 
HETATM    9  C8  UNL     1     -31.395   8.524   3.390  1.00 20.00     0.036 C 
ENDBRANCH   2   7
TORSDOF 3
ENDMDL
MODEL 6
REMARK VINA RESULT:      -4.8      2.170      4.771
REMARK  3 active torsions:
REMARK  status: ('A' for Active; 'I' for Inactive)
REMARK    1  A    between atoms: C1_1  and  C3_3 
REMARK    2  A    between atoms: C2_2  and  C5_5 
REMARK    3  A    between atoms: C4_4  and  C7_7 
ROOT
HETATM    1  C1  UNL     1     -33.176   6.290   2.870  1.00 20.00     0.000 C 
HETATM    2  C2  UNL     1     -34.417   5.973   3.270  1.00 20.00    -0.000 C 
ENDROOT
BRANCH   1   3
HETATM    3  C3  UNL     1     -32.901   7.313   1.884  1.00 20.00     0.003 C 
HETATM    4  C4  UNL     1     -32.011   8.292   2.088  1.00 20.00     0.041 C 
BRANCH   4   5
HETATM    5  C7  UNL     1     -31.276   8.337   3.367  1.00 20.00     0.258 C 
HETATM    6  O9  UNL     1     -31.847   8.514   4.436  1.00 20.00    -0.302 OA
ENDBRANCH   4   5
ENDBRANCH   1   3
BRANCH   2   7
HETATM    7  C5  UNL     1     -34.690   4.949   4.254  1.00 20.00    -0.004 C 
HETATM    8  C6  UNL     1     -34.620   5.166   5.576  1.00 20.00    -0.031 C 
HETATM    9  C8  UNL     1     -34.252   6.480   6.183  1.00 20.00     0.036 C 
ENDBRANCH   2   7
TORSDOF 3
ENDMDL
MODEL 7
REMARK VINA RESULT:      -4.4     10.815     11.222
REMARK  3 active torsions:
REMARK  status: ('A' for Active; 'I' for Inactive)
REMARK    1  A    between atoms: C1_1  and  C3_3 
REMARK    2  A    between atoms: C2_2  and  C5_5 
REMARK    3  A    between atoms: C4_4  and  C7_7 
ROOT
HETATM    1  C1  UNL     1     -34.229  15.792  -3.216  1.00 20.00     0.000 C 
HETATM    2  C2  UNL     1     -33.726  16.797  -2.484  1.00 20.00    -0.000 C 
ENDROOT
BRANCH   1   3
HETATM    3  C3  UNL     1     -33.582  15.281  -4.405  1.00 20.00     0.003 C 
HETATM    4  C4  UNL     1     -34.150  14.364  -5.199  1.00 20.00     0.041 C 
BRANCH   4   5
HETATM    5  C7  UNL     1     -35.489  13.849  -4.854  1.00 20.00     0.258 C 
HETATM    6  O9  UNL     1     -35.861  12.733  -5.197  1.00 20.00    -0.302 OA
ENDBRANCH   4   5
ENDBRANCH   1   3
BRANCH   2   7
HETATM    7  C5  UNL     1     -34.374  17.308  -1.295  1.00 20.00    -0.004 C 
HETATM    8  C6  UNL     1     -33.756  18.098  -0.405  1.00 20.00    -0.031 C 
HETATM    9  C8  UNL     1     -32.335  18.540  -0.534  1.00 20.00     0.036 C 
ENDBRANCH   2   7
TORSDOF 3
ENDMDL
MODEL 8
REMARK VINA RESULT:      -4.1     10.725     11.277
REMARK  3 active torsions:
REMARK  status: ('A' for Active; 'I' for Inactive)
REMARK    1  A    between atoms: C1_1  and  C3_3 
REMARK    2  A    between atoms: C2_2  and  C5_5 
REMARK    3  A    between atoms: C4_4  and  C7_7 
ROOT
HETATM    1  C1  UNL     1     -33.675  16.711  -2.720  1.00 20.00     0.000 C 
HETATM    2  C2  UNL     1     -33.669  17.388  -1.563  1.00 20.00    -0.000 C 
ENDROOT
BRANCH   1   3
HETATM    3  C3  UNL     1     -34.776  15.869  -3.138  1.00 20.00     0.003 C 
HETATM    4  C4  UNL     1     -34.623  14.852  -3.995  1.00 20.00     0.041 C 
BRANCH   4   5
HETATM    5  C7  UNL     1     -33.281  14.571  -4.541  1.00 20.00     0.258 C 
HETATM    6  O9  UNL     1     -32.619  13.609  -4.170  1.00 20.00    -0.302 OA
ENDBRANCH   4   5
ENDBRANCH   1   3
BRANCH   2   7
HETATM    7  C5  UNL     1     -32.567  18.228  -1.146  1.00 20.00    -0.004 C 
HETATM    8  C6  UNL     1     -32.495  18.795   0.067  1.00 20.00    -0.031 C 
HETATM    9  C8  UNL     1     -33.537  18.628   1.124  1.00 20.00     0.036 C 
ENDBRANCH   2   7
TORSDOF 3
ENDMDL
MODEL 9
REMARK VINA RESULT:      -4.1     10.889     11.403
REMARK  3 active torsions:
REMARK  status: ('A' for Active; 'I' for Inactive)
REMARK    1  A    between atoms: C1_1  and  C3_3 
REMARK    2  A    between atoms: C2_2  and  C5_5 
REMARK    3  A    between atoms: C4_4  and  C7_7 
ROOT
HETATM    1  C1  UNL     1     -33.524  15.393  -4.024  1.00 20.00     0.000 C 
HETATM    2  C2  UNL     1     -33.614  16.628  -3.509  1.00 20.00    -0.000 C 
ENDROOT
BRANCH   1   3
HETATM    3  C3  UNL     1     -33.554  15.126  -5.446  1.00 20.00     0.003 C 
HETATM    4  C4  UNL     1     -34.519  14.399  -6.024  1.00 20.00     0.041 C 
BRANCH   4   5
HETATM    5  C7  UNL     1     -35.598  13.844  -5.185  1.00 20.00     0.258 C 
HETATM    6  O9  UNL     1     -35.893  12.656  -5.212  1.00 20.00    -0.302 OA
ENDBRANCH   4   5
ENDBRANCH   1   3
BRANCH   2   7
HETATM    7  C5  UNL     1     -33.585  16.894  -2.088  1.00 20.00    -0.004 C 
HETATM    8  C6  UNL     1     -34.688  17.134  -1.364  1.00 20.00    -0.031 C 
HETATM    9  C8  UNL     1     -36.067  17.157  -1.937  1.00 20.00     0.036 C 
ENDBRANCH   2   7
TORSDOF 3
ENDMDL
