MODEL 1
REMARK VINA RESULT:      -6.5      0.000      0.000
REMARK  3 active torsions:
REMARK  status: ('A' for Active; 'I' for Inactive)
REMARK    1  A    between atoms: C1_1  and  C3_3 
REMARK    2  A    between atoms: C2_2  and  C5_5 
REMARK    3  A    between atoms: C4_4  and  C7_7 
ROOT
HETATM    1  C1  UNL     1     -32.899   7.462   3.544  1.00 20.00     0.000 C 
HETATM    2  C2  UNL     1     -31.909   8.237   3.074  1.00 20.00    -0.000 C 
ENDROOT
BRANCH   1   3
HETATM    3  C3  UNL     1     -33.249   7.390   4.946  1.00 20.00     0.004 C 
HETATM    4  C4  UNL     1     -34.138   6.510   5.424  1.00 20.00     0.049 C 
BRANCH   4   5
HETATM    5  C7  UNL     1     -34.819   5.548   4.513  1.00 20.00     0.145 C 
HETATM    6  C9  UNL     1     -34.312   4.131   4.532  1.00 20.00     0.096 C 
HETATM    7  O10 UNL     1     -35.764   5.877   3.800  1.00 20.00    -0.294 OA
ENDBRANCH   4   5
ENDBRANCH   1   3
BRANCH   2   8
HETATM    8  C5  UNL     1     -31.565   8.303   1.671  1.00 20.00    -0.004 C 
HETATM    9  C6  UNL     1     -31.939   9.247   0.793  1.00 20.00    -0.031 C 
HETATM   10  C8  UNL     1     -32.787  10.455   1.030  1.00 20.00     0.036 C 
ENDBRANCH   2   8
TORSDOF 3
ENDMDL
MODEL 2
REMARK VINA RESULT:      -6.1      2.122      5.205
REMARK  3 active torsions:
REMARK  status: ('A' for Active; 'I' for Inactive)
REMARK    1  A    between atoms: C1_1  and  C3_3 
REMARK    2  A    between atoms: C2_2  and  C5_5 
REMARK    3  A    between atoms: C4_4  and  C7_7 
ROOT
HETATM    1  C1  UNL     1     -32.983   7.519   2.626  1.00 20.00     0.000 C 
HETATM    2  C2  UNL     1     -33.285   6.227   2.827  1.00 20.00    -0.000 C 
ENDROOT
BRANCH   1   3
HETATM    3  C3  UNL     1     -31.670   7.970   2.218  1.00 20.00     0.004 C 
HETATM    4  C4  UNL     1     -31.488   8.969   1.345  1.00 20.00     0.049 C 
BRANCH   4   5
HETATM    5  C7  UNL     1     -32.656   9.672   0.744  1.00 20.00     0.145 C 
HETATM    6  C9  UNL     1     -33.077   9.224  -0.630  1.00 20.00     0.096 C 
HETATM    7  O10 UNL     1     -33.269  10.554   1.342  1.00 20.00    -0.294 OA
ENDBRANCH   4   5
ENDBRANCH   1   3
BRANCH   2   8
HETATM    8  C5  UNL     1     -34.600   5.785   3.236  1.00 20.00    -0.004 C 
HETATM    9  C6  UNL     1     -35.048   5.643   4.494  1.00 20.00    -0.031 C 
HETATM   10  C8  UNL     1     -34.321   5.901   5.774  1.00 20.00     0.036 C 
ENDBRANCH   2   8
TORSDOF 3
ENDMDL
MODEL 3
REMARK VINA RESULT:      -5.9      2.131      5.171
REMARK  3 active torsions:
REMARK  status: ('A' for Active; 'I' for Inactive)
REMARK    1  A    between atoms: C1_1  and  C3_3 
REMARK    2  A    between atoms: C2_2  and  C5_5 
REMARK    3  A    between atoms: C4_4  and  C7_7 
ROOT
HETATM    1  C1  UNL     1     -32.845   7.496   2.599  1.00 20.00     0.000 C 
HETATM    2  C2  UNL     1     -33.151   6.218   2.870  1.00 20.00    -0.000 C 
ENDROOT
BRANCH   1   3
HETATM    3  C3  UNL     1     -31.568   7.905   2.053  1.00 20.00     0.004 C 
HETATM    4  C4  UNL     1     -31.455   8.840   1.101  1.00 20.00     0.049 C 
BRANCH   4   5
HETATM    5  C7  UNL     1     -32.665   9.512   0.551  1.00 20.00     0.145 C 
HETATM    6  C9  UNL     1     -33.199  10.681   1.335  1.00 20.00     0.096 C 
HETATM    7  O10 UNL     1     -33.191   9.157  -0.501  1.00 20.00    -0.294 OA
ENDBRANCH   4   5
ENDBRANCH   1   3
BRANCH   2   8
HETATM    8  C5  UNL     1     -34.429   5.819   3.416  1.00 20.00    -0.004 C 
HETATM    9  C6  UNL     1     -34.846   5.966   4.684  1.00 20.00    -0.031 C 
HETATM   10  C8  UNL     1     -34.115   6.572   5.838  1.00 20.00     0.036 C 
ENDBRANCH   2   8
TORSDOF 3
ENDMDL
MODEL 4
REMARK VINA RESULT:      -5.4      1.439      2.029
REMARK  3 active torsions:
REMARK  status: ('A' for Active; 'I' for Inactive)
REMARK    1  A    between atoms: C1_1  and  C3_3 
REMARK    2  A    between atoms: C2_2  and  C5_5 
REMARK    3  A    between atoms: C4_4  and  C7_7 
ROOT
HETATM    1  C1  UNL     1     -33.508   6.346   2.843  1.00 20.00     0.000 C 
HETATM    2  C2  UNL     1     -33.208   7.614   2.519  1.00 20.00    -0.000 C 
ENDROOT
BRANCH   1   3
HETATM    3  C3  UNL     1     -34.852   5.904   3.141  1.00 20.00     0.004 C 
HETATM    4  C4  UNL     1     -35.254   5.599   4.382  1.00 20.00     0.049 C 
BRANCH   4   5
HETATM    5  C7  UNL     1     -34.313   5.705   5.531  1.00 20.00     0.145 C 
HETATM    6  C9  UNL     1     -33.952   7.096   5.979  1.00 20.00     0.096 C 
HETATM    7  O10 UNL     1     -33.869   4.715   6.109  1.00 20.00    -0.294 OA
ENDBRANCH   4   5
ENDBRANCH   1   3
BRANCH   2   8
HETATM    8  C5  UNL     1     -31.860   8.048   2.223  1.00 20.00    -0.004 C 
HETATM    9  C6  UNL     1     -31.475   8.850   1.218  1.00 20.00    -0.031 C 
HETATM   10  C8  UNL     1     -32.319   9.494   0.166  1.00 20.00     0.036 C 
ENDBRANCH   2   8
TORSDOF 3
ENDMDL
MODEL 5
REMARK VINA RESULT:      -4.6     10.887     11.585
REMARK  3 active torsions:
REMARK  status: ('A' for Active; 'I' for Inactive)
REMARK    1  A    between atoms: C1_1  and  C3_3 
REMARK    2  A    between atoms: C2_2  and  C5_5 
REMARK    3  A    between atoms: C4_4  and  C7_7 
ROOT
HETATM    1  C1  UNL     1     -34.138  15.157  -3.833  1.00 20.00     0.000 C 
HETATM    2  C2  UNL     1     -34.246  16.400  -3.339  1.00 20.00    -0.000 C 
ENDROOT
BRANCH   1   3
HETATM    3  C3  UNL     1     -33.624  14.874  -5.156  1.00 20.00     0.004 C 
HETATM    4  C4  UNL     1     -34.329  14.204  -6.077  1.00 20.00     0.049 C 
BRANCH   4   5
HETATM    5  C7  UNL     1     -35.700  13.710  -5.771  1.00 20.00     0.145 C 
HETATM    6  C9  UNL     1     -36.844  14.580  -6.221  1.00 20.00     0.096 C 
HETATM    7  O10 UNL     1     -35.900  12.637  -5.207  1.00 20.00    -0.294 OA
ENDBRANCH   4   5
ENDBRANCH   1   3
BRANCH   2   8
HETATM    8  C5  UNL     1     -34.761  16.673  -2.015  1.00 20.00    -0.004 C 
HETATM    9  C6  UNL     1     -34.178  17.416  -1.061  1.00 20.00    -0.031 C 
HETATM   10  C8  UNL     1     -32.873  18.143  -1.116  1.00 20.00     0.036 C 
ENDBRANCH   2   8
TORSDOF 3
ENDMDL
MODEL 6
REMARK VINA RESULT:      -4.4     10.960     11.616
REMARK  3 active torsions:
REMARK  status: ('A' for Active; 'I' for Inactive)
REMARK    1  A    between atoms: C1_1  and  C3_3 
REMARK    2  A    between atoms: C2_2  and  C5_5 
REMARK    3  A    between atoms: C4_4  and  C7_7 
ROOT
HETATM    1  C1  UNL     1     -33.763  16.805  -2.682  1.00 20.00     0.000 C 
HETATM    2  C2  UNL     1     -33.651  17.368  -1.469  1.00 20.00    -0.000 C 
ENDROOT
BRANCH   1   3
HETATM    3  C3  UNL     1     -34.865  15.945  -3.056  1.00 20.00     0.004 C 
HETATM    4  C4  UNL     1     -34.743  14.966  -3.962  1.00 20.00     0.049 C 
BRANCH   4   5
HETATM    5  C7  UNL     1     -33.439  14.716  -4.637  1.00 20.00     0.145 C 
HETATM    6  C9  UNL     1     -33.099  15.615  -5.796  1.00 20.00     0.096 C 
HETATM    7  O10 UNL     1     -32.661  13.844  -4.258  1.00 20.00    -0.294 OA
ENDBRANCH   4   5
ENDBRANCH   1   3
BRANCH   2   8
HETATM    8  C5  UNL     1     -32.546  18.226  -1.104  1.00 20.00    -0.004 C 
HETATM    9  C6  UNL     1     -32.338  18.809   0.087  1.00 20.00    -0.031 C 
HETATM   10  C8  UNL     1     -33.175  18.724   1.323  1.00 20.00     0.036 C 
ENDBRANCH   2   8
TORSDOF 3
ENDMDL
MODEL 7
REMARK VINA RESULT:      -4.1      2.003      4.791
REMARK  3 active torsions:
REMARK  status: ('A' for Active; 'I' for Inactive)
REMARK    1  A    between atoms: C1_1  and  C3_3 
REMARK    2  A    between atoms: C2_2  and  C5_5 
REMARK    3  A    between atoms: C4_4  and  C7_7 
ROOT
HETATM    1  C1  UNL     1     -33.083   7.433   4.453  1.00 20.00     0.000 C 
HETATM    2  C2  UNL     1     -33.425   7.012   5.681  1.00 20.00    -0.000 C 
ENDROOT
BRANCH   1   3
HETATM    3  C3  UNL     1     -31.911   8.241   4.193  1.00 20.00     0.004 C 
HETATM    4  C4  UNL     1     -31.574   8.649   2.962  1.00 20.00     0.049 C 
BRANCH   4   5
HETATM    5  C7  UNL     1     -32.408   8.279   1.786  1.00 20.00     0.145 C 
HETATM    6  C9  UNL     1     -33.019   6.903   1.800  1.00 20.00     0.096 C 
HETATM    7  O10 UNL     1     -32.618   9.058   0.860  1.00 20.00    -0.294 OA
ENDBRANCH   4   5
ENDBRANCH   1   3
BRANCH   2   8
HETATM    8  C5  UNL     1     -34.599   6.205   5.933  1.00 20.00    -0.004 C 
HETATM    9  C6  UNL     1     -34.888   5.011   5.391  1.00 20.00    -0.031 C 
HETATM   10  C8  UNL     1     -34.088   4.217   4.410  1.00 20.00     0.036 C 
ENDBRANCH   2   8
TORSDOF 3
ENDMDL
MODEL 8
REMARK VINA RESULT:      -4.1     10.794     11.418
REMARK  3 active torsions:
REMARK  status: ('A' for Active; 'I' for Inactive)
REMARK    1  A    between atoms: C1_1  and  C3_3 
REMARK    2  A    between atoms: C2_2  and  C5_5 
REMARK    3  A    between atoms: C4_4  and  C7_7 
ROOT
HETATM    1  C1  UNL     1     -34.614  16.525  -2.139  1.00 20.00     0.000 C 
HETATM    2  C2  UNL     1     -34.665  17.412  -1.133  1.00 20.00    -0.000 C 
ENDROOT
BRANCH   1   3
HETATM    3  C3  UNL     1     -33.608  16.565  -3.179  1.00 20.00     0.004 C 
HETATM    4  C4  UNL     1     -33.602  15.713  -4.212  1.00 20.00     0.049 C 
BRANCH   4   5
HETATM    5  C7  UNL     1     -34.652  14.664  -4.335  1.00 20.00     0.145 C 
HETATM    6  C9  UNL     1     -35.957  15.089  -4.955  1.00 20.00     0.096 C 
HETATM    7  O10 UNL     1     -34.464  13.503  -3.979  1.00 20.00    -0.294 OA
ENDBRANCH   4   5
ENDBRANCH   1   3
BRANCH   2   8
HETATM    8  C5  UNL     1     -35.674  17.364  -0.098  1.00 20.00    -0.004 C 
HETATM    9  C6  UNL     1     -35.547  17.780   1.172  1.00 20.00    -0.031 C 
HETATM   10  C8  UNL     1     -34.355  18.392   1.835  1.00 20.00     0.036 C 
ENDBRANCH   2   8
TORSDOF 3
ENDMDL
MODEL 9
REMARK VINA RESULT:      -4.1      1.948      4.985
REMARK  3 active torsions:
REMARK  status: ('A' for Active; 'I' for Inactive)
REMARK    1  A    between atoms: C1_1  and  C3_3 
REMARK    2  A    between atoms: C2_2  and  C5_5 
REMARK    3  A    between atoms: C4_4  and  C7_7 
ROOT
HETATM    1  C1  UNL     1     -33.706   6.529   3.037  1.00 20.00     0.000 C 
HETATM    2  C2  UNL     1     -34.031   5.390   3.667  1.00 20.00    -0.000 C 
ENDROOT
BRANCH   1   3
HETATM    3  C3  UNL     1     -33.048   6.559   1.749  1.00 20.00     0.004 C 
HETATM    4  C4  UNL     1     -32.277   7.582   1.355  1.00 20.00     0.049 C 
BRANCH   4   5
HETATM    5  C7  UNL     1     -32.061   8.755   2.245  1.00 20.00     0.145 C 
HETATM    6  C9  UNL     1     -32.593  10.077   1.757  1.00 20.00     0.096 C 
HETATM    7  O10 UNL     1     -31.506   8.657   3.337  1.00 20.00    -0.294 OA
ENDBRANCH   4   5
ENDBRANCH   1   3
BRANCH   2   8
HETATM    8  C5  UNL     1     -34.689   5.369   4.955  1.00 20.00    -0.004 C 
HETATM    9  C6  UNL     1     -34.505   6.230   5.969  1.00 20.00    -0.031 C 
HETATM   10  C8  UNL     1     -33.594   7.414   6.029  1.00 20.00     0.036 C 
ENDBRANCH   2   8
TORSDOF 3
ENDMDL
