MODEL 1
REMARK VINA RESULT:      -6.0      0.000      0.000
REMARK  1 active torsions:
REMARK  status: ('A' for Active; 'I' for Inactive)
REMARK    1  A    between atoms: C2_2  and  C10_10 
ROOT
HETATM    1  C1  UNL     1     -32.657   8.240   4.204  1.00 20.00    -0.022 C 
HETATM    2  C2  UNL     1     -32.566   8.019   2.880  1.00 20.00    -0.073 C 
HETATM    3  C3  UNL     1     -33.559   5.739   3.235  1.00 20.00     0.134 C 
HETATM    4  C4  UNL     1     -33.300   7.283   5.163  1.00 20.00     0.039 C 
HETATM    5  C5  UNL     1     -33.077   6.767   2.225  1.00 20.00     0.113 C 
HETATM    6  C6  UNL     1     -34.240   6.287   4.480  1.00 20.00     0.055 C 
HETATM    7  C7  UNL     1     -34.659   5.181   5.443  1.00 20.00     0.018 C 
HETATM    8  O11 UNL     1     -33.478   4.534   2.995  1.00 20.00    -0.297 OA
ENDROOT
BRANCH   2   9
HETATM    9  C10 UNL     1     -31.925   9.019   1.962  1.00 20.00     0.006 C 
HETATM   10  C8  UNL     1     -31.416   8.326   0.703  1.00 20.00     0.014 C 
HETATM   11  C9  UNL     1     -32.903  10.136   1.613  1.00 20.00     0.014 C 
ENDBRANCH   2   9
TORSDOF 1
ENDMDL
MODEL 2
REMARK VINA RESULT:      -5.8      1.339      1.993
REMARK  1 active torsions:
REMARK  status: ('A' for Active; 'I' for Inactive)
REMARK    1  A    between atoms: C2_2  and  C10_10 
ROOT
HETATM    1  C1  UNL     1     -33.457   7.007   2.145  1.00 20.00    -0.022 C 
HETATM    2  C2  UNL     1     -32.689   7.940   2.735  1.00 20.00    -0.073 C 
HETATM    3  C3  UNL     1     -33.464   7.100   4.972  1.00 20.00     0.134 C 
HETATM    4  C4  UNL     1     -34.223   5.962   2.899  1.00 20.00     0.039 C 
HETATM    5  C5  UNL     1     -32.542   8.050   4.227  1.00 20.00     0.113 C 
HETATM    6  C6  UNL     1     -33.702   5.745   4.322  1.00 20.00     0.055 C 
HETATM    7  C7  UNL     1     -34.662   4.878   5.130  1.00 20.00     0.018 C 
HETATM    8  O11 UNL     1     -33.905   7.394   6.083  1.00 20.00    -0.297 OA
ENDROOT
BRANCH   2   9
HETATM    9  C10 UNL     1     -31.931   8.954   1.930  1.00 20.00     0.006 C 
HETATM   10  C8  UNL     1     -31.389   8.317   0.655  1.00 20.00     0.014 C 
HETATM   11  C9  UNL     1     -32.812  10.157   1.608  1.00 20.00     0.014 C 
ENDBRANCH   2   9
TORSDOF 1
ENDMDL
MODEL 3
REMARK VINA RESULT:      -5.5      1.696      4.550
REMARK  1 active torsions:
REMARK  status: ('A' for Active; 'I' for Inactive)
REMARK    1  A    between atoms: C2_2  and  C10_10 
ROOT
HETATM    1  C1  UNL     1     -33.971   6.169   2.428  1.00 20.00    -0.022 C 
HETATM    2  C2  UNL     1     -33.925   6.358   3.759  1.00 20.00    -0.073 C 
HETATM    3  C3  UNL     1     -32.100   8.049   3.413  1.00 20.00     0.134 C 
HETATM    4  C4  UNL     1     -33.167   6.969   1.447  1.00 20.00     0.039 C 
HETATM    5  C5  UNL     1     -33.033   7.378   4.408  1.00 20.00     0.113 C 
HETATM    6  C6  UNL     1     -32.664   8.296   2.022  1.00 20.00     0.055 C 
HETATM    7  C7  UNL     1     -31.644   8.944   1.092  1.00 20.00     0.018 C 
HETATM    8  O11 UNL     1     -30.989   8.447   3.763  1.00 20.00    -0.297 OA
ENDROOT
BRANCH   2   9
HETATM    9  C10 UNL     1     -34.764   5.538   4.695  1.00 20.00     0.006 C 
HETATM   10  C8  UNL     1     -34.377   4.066   4.597  1.00 20.00     0.014 C 
HETATM   11  C9  UNL     1     -34.627   6.044   6.127  1.00 20.00     0.014 C 
ENDBRANCH   2   9
TORSDOF 1
ENDMDL
MODEL 4
REMARK VINA RESULT:      -4.9     10.414     11.815
REMARK  1 active torsions:
REMARK  status: ('A' for Active; 'I' for Inactive)
REMARK    1  A    between atoms: C2_2  and  C10_10 
ROOT
HETATM    1  C1  UNL     1     -33.946  16.558  -5.079  1.00 20.00    -0.022 C 
HETATM    2  C2  UNL     1     -34.090  15.926  -3.900  1.00 20.00    -0.073 C 
HETATM    3  C3  UNL     1     -34.850  13.878  -5.141  1.00 20.00     0.134 C 
HETATM    4  C4  UNL     1     -34.136  15.891  -6.408  1.00 20.00     0.039 C 
HETATM    5  C5  UNL     1     -34.490  14.481  -3.793  1.00 20.00     0.113 C 
HETATM    6  C6  UNL     1     -34.042  14.365  -6.334  1.00 20.00     0.055 C 
HETATM    7  C7  UNL     1     -34.499  13.725  -7.641  1.00 20.00     0.018 C 
HETATM    8  O11 UNL     1     -35.687  12.979  -5.224  1.00 20.00    -0.297 OA
ENDROOT
BRANCH   2   9
HETATM    9  C10 UNL     1     -33.872  16.638  -2.597  1.00 20.00     0.006 C 
HETATM   10  C8  UNL     1     -33.317  18.036  -2.848  1.00 20.00     0.014 C 
HETATM   11  C9  UNL     1     -35.167  16.701  -1.793  1.00 20.00     0.014 C 
ENDBRANCH   2   9
TORSDOF 1
ENDMDL
MODEL 5
REMARK VINA RESULT:      -4.8     10.680     11.341
REMARK  1 active torsions:
REMARK  status: ('A' for Active; 'I' for Inactive)
REMARK    1  A    between atoms: C2_2  and  C10_10 
ROOT
HETATM    1  C1  UNL     1     -36.157  16.222  -3.183  1.00 20.00    -0.022 C 
HETATM    2  C2  UNL     1     -34.895  16.514  -2.821  1.00 20.00    -0.073 C 
HETATM    3  C3  UNL     1     -34.088  14.638  -4.282  1.00 20.00     0.134 C 
HETATM    4  C4  UNL     1     -36.509  15.184  -4.205  1.00 20.00     0.039 C 
HETATM    5  C5  UNL     1     -33.699  15.802  -3.387  1.00 20.00     0.113 C 
HETATM    6  C6  UNL     1     -35.340  14.826  -5.126  1.00 20.00     0.055 C 
HETATM    7  C7  UNL     1     -35.662  13.594  -5.965  1.00 20.00     0.018 C 
HETATM    8  O11 UNL     1     -33.363  13.646  -4.376  1.00 20.00    -0.297 OA
ENDROOT
BRANCH   2   9
HETATM    9  C10 UNL     1     -34.598  17.575  -1.801  1.00 20.00     0.006 C 
HETATM   10  C8  UNL     1     -35.326  17.270  -0.496  1.00 20.00     0.014 C 
HETATM   11  C9  UNL     1     -33.095  17.698  -1.572  1.00 20.00     0.014 C 
ENDBRANCH   2   9
TORSDOF 1
ENDMDL
MODEL 6
REMARK VINA RESULT:      -4.7     11.000     11.497
REMARK  1 active torsions:
REMARK  status: ('A' for Active; 'I' for Inactive)
REMARK    1  A    between atoms: C2_2  and  C10_10 
ROOT
HETATM    1  C1  UNL     1     -33.397  15.627  -3.842  1.00 20.00    -0.022 C 
HETATM    2  C2  UNL     1     -34.170  16.292  -2.966  1.00 20.00    -0.073 C 
HETATM    3  C3  UNL     1     -36.199  15.340  -4.101  1.00 20.00     0.134 C 
HETATM    4  C4  UNL     1     -33.933  14.672  -4.866  1.00 20.00     0.039 C 
HETATM    5  C5  UNL     1     -35.668  16.169  -2.943  1.00 20.00     0.113 C 
HETATM    6  C6  UNL     1     -35.338  14.164  -4.537  1.00 20.00     0.055 C 
HETATM    7  C7  UNL     1     -35.941  13.415  -5.721  1.00 20.00     0.018 C 
HETATM    8  O11 UNL     1     -37.310  15.568  -4.580  1.00 20.00    -0.297 OA
ENDROOT
BRANCH   2   9
HETATM    9  C10 UNL     1     -33.579  17.225  -1.950  1.00 20.00     0.006 C 
HETATM   10  C8  UNL     1     -33.172  18.537  -2.614  1.00 20.00     0.014 C 
HETATM   11  C9  UNL     1     -34.560  17.472  -0.809  1.00 20.00     0.014 C 
ENDBRANCH   2   9
TORSDOF 1
ENDMDL
MODEL 7
REMARK VINA RESULT:      -4.7     10.741     11.663
REMARK  1 active torsions:
REMARK  status: ('A' for Active; 'I' for Inactive)
REMARK    1  A    between atoms: C2_2  and  C10_10 
ROOT
HETATM    1  C1  UNL     1     -35.787  16.584  -2.173  1.00 20.00    -0.022 C 
HETATM    2  C2  UNL     1     -34.837  16.285  -3.078  1.00 20.00    -0.073 C 
HETATM    3  C3  UNL     1     -33.272  17.849  -1.888  1.00 20.00     0.134 C 
HETATM    4  C4  UNL     1     -35.550  17.459  -0.979  1.00 20.00     0.039 C 
HETATM    5  C5  UNL     1     -33.437  16.827  -3.000  1.00 20.00     0.113 C 
HETATM    6  C6  UNL     1     -34.069  17.596  -0.617  1.00 20.00     0.055 C 
HETATM    7  C7  UNL     1     -33.860  18.691   0.424  1.00 20.00     0.018 C 
HETATM    8  O11 UNL     1     -32.462  18.770  -1.995  1.00 20.00    -0.297 OA
ENDROOT
BRANCH   2   9
HETATM    9  C10 UNL     1     -35.124  15.390  -4.248  1.00 20.00     0.006 C 
HETATM   10  C8  UNL     1     -34.325  14.096  -4.129  1.00 20.00     0.014 C 
HETATM   11  C9  UNL     1     -36.618  15.101  -4.354  1.00 20.00     0.014 C 
ENDBRANCH   2   9
TORSDOF 1
ENDMDL
MODEL 8
REMARK VINA RESULT:      -4.6     11.179     11.824
REMARK  1 active torsions:
REMARK  status: ('A' for Active; 'I' for Inactive)
REMARK    1  A    between atoms: C2_2  and  C10_10 
ROOT
HETATM    1  C1  UNL     1     -32.008  18.478  -0.140  1.00 20.00    -0.022 C 
HETATM    2  C2  UNL     1     -33.349  18.398  -0.071  1.00 20.00    -0.073 C 
HETATM    3  C3  UNL     1     -33.185  18.510   2.433  1.00 20.00     0.134 C 
HETATM    4  C4  UNL     1     -31.126  18.687   1.055  1.00 20.00     0.039 C 
HETATM    5  C5  UNL     1     -34.106  18.480   1.225  1.00 20.00     0.113 C 
HETATM    6  C6  UNL     1     -31.873  19.262   2.261  1.00 20.00     0.055 C 
HETATM    7  C7  UNL     1     -31.009  19.210   3.516  1.00 20.00     0.018 C 
HETATM    8  O11 UNL     1     -33.542  18.030   3.509  1.00 20.00    -0.297 OA
ENDROOT
BRANCH   2   9
HETATM    9  C10 UNL     1     -34.185  18.203  -1.302  1.00 20.00     0.006 C 
HETATM   10  C8  UNL     1     -33.293  17.921  -2.506  1.00 20.00     0.014 C 
HETATM   11  C9  UNL     1     -35.196  17.080  -1.096  1.00 20.00     0.014 C 
ENDBRANCH   2   9
TORSDOF 1
ENDMDL
MODEL 9
REMARK VINA RESULT:      -4.6     10.719     11.516
REMARK  1 active torsions:
REMARK  status: ('A' for Active; 'I' for Inactive)
REMARK    1  A    between atoms: C2_2  and  C10_10 
ROOT
HETATM    1  C1  UNL     1     -33.381  17.026  -2.471  1.00 20.00    -0.022 C 
HETATM    2  C2  UNL     1     -34.662  16.654  -2.642  1.00 20.00    -0.073 C 
HETATM    3  C3  UNL     1     -35.176  17.520  -0.341  1.00 20.00     0.134 C 
HETATM    4  C4  UNL     1     -32.886  17.773  -1.269  1.00 20.00     0.039 C 
HETATM    5  C5  UNL     1     -35.734  16.925  -1.623  1.00 20.00     0.113 C 
HETATM    6  C6  UNL     1     -34.005  18.478  -0.497  1.00 20.00     0.055 C 
HETATM    7  C7  UNL     1     -33.500  18.996   0.846  1.00 20.00     0.018 C 
HETATM    8  O11 UNL     1     -35.719  17.300   0.742  1.00 20.00    -0.297 OA
ENDROOT
BRANCH   2   9
HETATM    9  C10 UNL     1     -35.107  15.921  -3.874  1.00 20.00     0.006 C 
HETATM   10  C8  UNL     1     -34.360  14.597  -3.997  1.00 20.00     0.014 C 
HETATM   11  C9  UNL     1     -36.615  15.697  -3.854  1.00 20.00     0.014 C 
ENDBRANCH   2   9
TORSDOF 1
ENDMDL
