MODEL 1
REMARK VINA RESULT:      -3.6      0.000      0.000
REMARK  1 active torsions:
REMARK  status: ('A' for Active; 'I' for Inactive)
REMARK    1  A    between atoms: C1_1  and  C2_2 
ROOT
HETATM    1  C1  UNL     1     -34.883   5.470   4.443  1.00 20.00     0.326 C 
HETATM    2  O3  UNL     1     -34.709   4.268   4.576  1.00 20.00    -0.257 OA
HETATM    3  F4  UNL     1     -35.934   5.861   3.707  1.00 20.00    -0.162 F 
ENDROOT
BRANCH   1   4
HETATM    4  C2  UNL     1     -34.020   6.536   5.030  1.00 20.00     0.338 C 
HETATM    5  F5  UNL     1     -34.364   6.798   6.319  1.00 20.00    -0.245 F 
ENDBRANCH   1   4
TORSDOF 1
ENDMDL
MODEL 2
REMARK VINA RESULT:      -3.6      1.513      1.513
REMARK  1 active torsions:
REMARK  status: ('A' for Active; 'I' for Inactive)
REMARK    1  A    between atoms: C1_1  and  C2_2 
ROOT
HETATM    1  C1  UNL     1     -34.646   5.800   4.936  1.00 20.00     0.326 C 
HETATM    2  O3  UNL     1     -35.378   5.665   3.968  1.00 20.00    -0.257 OA
HETATM    3  F4  UNL     1     -34.601   4.791   5.818  1.00 20.00    -0.162 F 
ENDROOT
BRANCH   1   4
HETATM    4  C2  UNL     1     -33.800   6.997   5.217  1.00 20.00     0.338 C 
HETATM    5  F5  UNL     1     -33.991   7.452   6.483  1.00 20.00    -0.245 F 
ENDBRANCH   1   4
TORSDOF 1
ENDMDL
MODEL 3
REMARK VINA RESULT:      -3.5      1.533      2.257
REMARK  1 active torsions:
REMARK  status: ('A' for Active; 'I' for Inactive)
REMARK    1  A    between atoms: C1_1  and  C2_2 
ROOT
HETATM    1  C1  UNL     1     -34.621   4.941   4.603  1.00 20.00     0.326 C 
HETATM    2  O3  UNL     1     -34.372   3.774   4.340  1.00 20.00    -0.257 OA
HETATM    3  F4  UNL     1     -34.915   5.235   5.878  1.00 20.00    -0.162 F 
ENDROOT
BRANCH   1   4
HETATM    4  C2  UNL     1     -34.626   6.063   3.620  1.00 20.00     0.338 C 
HETATM    5  F5  UNL     1     -33.947   5.735   2.490  1.00 20.00    -0.245 F 
ENDBRANCH   1   4
TORSDOF 1
ENDMDL
MODEL 4
REMARK VINA RESULT:      -3.5      1.995      2.607
REMARK  1 active torsions:
REMARK  status: ('A' for Active; 'I' for Inactive)
REMARK    1  A    between atoms: C1_1  and  C2_2 
ROOT
HETATM    1  C1  UNL     1     -33.939   6.810   5.128  1.00 20.00     0.326 C 
HETATM    2  O3  UNL     1     -33.166   7.363   4.361  1.00 20.00    -0.257 OA
HETATM    3  F4  UNL     1     -34.066   7.333   6.357  1.00 20.00    -0.162 F 
ENDROOT
BRANCH   1   4
HETATM    4  C2  UNL     1     -34.750   5.599   4.810  1.00 20.00     0.338 C 
HETATM    5  F5  UNL     1     -34.757   4.721   5.847  1.00 20.00    -0.245 F 
ENDBRANCH   1   4
TORSDOF 1
ENDMDL
MODEL 5
REMARK VINA RESULT:      -3.4      1.720      2.519
REMARK  1 active torsions:
REMARK  status: ('A' for Active; 'I' for Inactive)
REMARK    1  A    between atoms: C1_1  and  C2_2 
ROOT
HETATM    1  C1  UNL     1     -34.439   5.816   5.349  1.00 20.00     0.326 C 
HETATM    2  O3  UNL     1     -34.157   6.812   5.997  1.00 20.00    -0.257 OA
HETATM    3  F4  UNL     1     -34.520   4.653   6.013  1.00 20.00    -0.162 F 
ENDROOT
BRANCH   1   4
HETATM    4  C2  UNL     1     -34.701   5.789   3.881  1.00 20.00     0.338 C 
HETATM    5  F5  UNL     1     -36.013   6.015   3.607  1.00 20.00    -0.245 F 
ENDBRANCH   1   4
TORSDOF 1
ENDMDL
MODEL 6
REMARK VINA RESULT:      -3.4      0.862      2.276
REMARK  1 active torsions:
REMARK  status: ('A' for Active; 'I' for Inactive)
REMARK    1  A    between atoms: C1_1  and  C2_2 
ROOT
HETATM    1  C1  UNL     1     -34.438   5.881   5.388  1.00 20.00     0.326 C 
HETATM    2  O3  UNL     1     -34.509   4.755   5.856  1.00 20.00    -0.257 OA
HETATM    3  F4  UNL     1     -34.261   6.895   6.248  1.00 20.00    -0.162 F 
ENDROOT
BRANCH   1   4
HETATM    4  C2  UNL     1     -34.533   6.220   3.938  1.00 20.00     0.338 C 
HETATM    5  F5  UNL     1     -35.783   5.993   3.457  1.00 20.00    -0.245 F 
ENDBRANCH   1   4
TORSDOF 1
ENDMDL
MODEL 7
REMARK VINA RESULT:      -3.4      1.197      1.197
REMARK  1 active torsions:
REMARK  status: ('A' for Active; 'I' for Inactive)
REMARK    1  A    between atoms: C1_1  and  C2_2 
ROOT
HETATM    1  C1  UNL     1     -34.672   5.878   4.172  1.00 20.00     0.326 C 
HETATM    2  O3  UNL     1     -33.774   6.057   3.364  1.00 20.00    -0.257 OA
HETATM    3  F4  UNL     1     -35.928   5.858   3.702  1.00 20.00    -0.162 F 
ENDROOT
BRANCH   1   4
HETATM    4  C2  UNL     1     -34.485   5.680   5.639  1.00 20.00     0.338 C 
HETATM    5  F5  UNL     1     -34.245   6.859   6.271  1.00 20.00    -0.245 F 
ENDBRANCH   1   4
TORSDOF 1
ENDMDL
MODEL 8
REMARK VINA RESULT:      -3.3      1.970      2.193
REMARK  1 active torsions:
REMARK  status: ('A' for Active; 'I' for Inactive)
REMARK    1  A    between atoms: C1_1  and  C2_2 
ROOT
HETATM    1  C1  UNL     1     -34.753   5.866   4.217  1.00 20.00     0.326 C 
HETATM    2  O3  UNL     1     -33.906   6.703   3.947  1.00 20.00    -0.257 OA
HETATM    3  F4  UNL     1     -35.941   5.975   3.605  1.00 20.00    -0.162 F 
ENDROOT
BRANCH   1   4
HETATM    4  C2  UNL     1     -34.574   4.735   5.174  1.00 20.00     0.338 C 
HETATM    5  F5  UNL     1     -34.093   3.629   4.548  1.00 20.00    -0.245 F 
ENDBRANCH   1   4
TORSDOF 1
ENDMDL
MODEL 9
REMARK VINA RESULT:      -3.3      2.268      2.391
REMARK  1 active torsions:
REMARK  status: ('A' for Active; 'I' for Inactive)
REMARK    1  A    between atoms: C1_1  and  C2_2 
ROOT
HETATM    1  C1  UNL     1     -34.570   4.853   4.595  1.00 20.00     0.326 C 
HETATM    2  O3  UNL     1     -34.642   4.979   5.808  1.00 20.00    -0.257 OA
HETATM    3  F4  UNL     1     -34.260   3.638   4.120  1.00 20.00    -0.162 F 
ENDROOT
BRANCH   1   4
HETATM    4  C2  UNL     1     -34.798   5.942   3.600  1.00 20.00     0.338 C 
HETATM    5  F5  UNL     1     -33.919   5.861   2.567  1.00 20.00    -0.245 F 
ENDBRANCH   1   4
TORSDOF 1
ENDMDL
