MODEL 1
REMARK VINA RESULT:      -4.7      0.000      0.000
REMARK  1 active torsions:
REMARK  status: ('A' for Active; 'I' for Inactive)
REMARK    1  A    between atoms: C4_4  and  O11_11 
ROOT
HETATM    1  C1  UNL     1     -33.896   4.364   3.770  1.00 20.00    -0.021 C 
HETATM    2  C2  UNL     1     -34.203   4.439   5.076  1.00 20.00    -0.025 C 
HETATM    3  C3  UNL     1     -33.401   6.764   3.699  1.00 20.00    -0.043 C 
HETATM    4  C4  UNL     1     -32.519   7.499   3.019  1.00 20.00     0.045 C 
HETATM    5  C5  UNL     1     -33.732   6.888   5.181  1.00 20.00     0.046 C 
HETATM    6  C6  UNL     1     -35.558   5.955   3.972  1.00 20.00     0.022 C 
HETATM    7  C7  UNL     1     -34.303   5.676   3.139  1.00 20.00     0.040 C 
HETATM    8  C8  UNL     1     -34.827   5.801   5.312  1.00 20.00     0.013 C 
HETATM    9  C9  UNL     1     -32.242   7.325   1.558  1.00 20.00     0.076 C 
ENDROOT
BRANCH   4  10
HETATM   10  O11 UNL     1     -31.796   8.488   3.660  1.00 20.00    -0.360 OA
HETATM   11  C10 UNL     1     -31.749   9.685   2.923  1.00 20.00     0.209 C 
ENDBRANCH   4  10
TORSDOF 1
ENDMDL
MODEL 2
REMARK VINA RESULT:      -4.5     11.699     12.505
REMARK  1 active torsions:
REMARK  status: ('A' for Active; 'I' for Inactive)
REMARK    1  A    between atoms: C4_4  and  O11_11 
ROOT
HETATM    1  C1  UNL     1     -35.750  16.590  -2.445  1.00 20.00    -0.021 C 
HETATM    2  C2  UNL     1     -34.441  16.535  -2.148  1.00 20.00    -0.025 C 
HETATM    3  C3  UNL     1     -35.422  15.128  -4.385  1.00 20.00    -0.043 C 
HETATM    4  C4  UNL     1     -36.174  14.189  -4.964  1.00 20.00     0.045 C 
HETATM    5  C5  UNL     1     -33.933  15.032  -4.076  1.00 20.00     0.046 C 
HETATM    6  C6  UNL     1     -34.612  17.300  -4.324  1.00 20.00     0.022 C 
HETATM    7  C7  UNL     1     -35.871  16.512  -3.950  1.00 20.00     0.040 C 
HETATM    8  C8  UNL     1     -33.688  16.432  -3.461  1.00 20.00     0.013 C 
HETATM    9  C9  UNL     1     -37.636  14.348  -5.241  1.00 20.00     0.076 C 
ENDROOT
BRANCH   4  10
HETATM   10  O11 UNL     1     -35.611  12.985  -5.345  1.00 20.00    -0.360 OA
HETATM   11  C10 UNL     1     -35.312  12.941  -6.719  1.00 20.00     0.209 C 
ENDBRANCH   4  10
TORSDOF 1
ENDMDL
MODEL 3
REMARK VINA RESULT:      -4.3     11.316     12.414
REMARK  1 active torsions:
REMARK  status: ('A' for Active; 'I' for Inactive)
REMARK    1  A    between atoms: C4_4  and  O11_11 
ROOT
HETATM    1  C1  UNL     1     -33.947  17.958  -3.517  1.00 20.00    -0.021 C 
HETATM    2  C2  UNL     1     -35.215  18.350  -3.306  1.00 20.00    -0.025 C 
HETATM    3  C3  UNL     1     -34.619  15.601  -3.478  1.00 20.00    -0.043 C 
HETATM    4  C4  UNL     1     -34.192  14.515  -4.125  1.00 20.00     0.045 C 
HETATM    5  C5  UNL     1     -36.070  16.006  -3.248  1.00 20.00     0.046 C 
HETATM    6  C6  UNL     1     -34.649  16.925  -1.574  1.00 20.00     0.022 C 
HETATM    7  C7  UNL     1     -33.758  16.646  -2.790  1.00 20.00     0.040 C 
HETATM    8  C8  UNL     1     -35.868  17.302  -2.425  1.00 20.00     0.013 C 
HETATM    9  C9  UNL     1     -32.747  14.174  -4.316  1.00 20.00     0.076 C 
ENDROOT
BRANCH   4  10
HETATM   10  O11 UNL     1     -35.102  13.626  -4.668  1.00 20.00    -0.360 OA
HETATM   11  C10 UNL     1     -35.216  13.757  -6.064  1.00 20.00     0.209 C 
ENDBRANCH   4  10
TORSDOF 1
ENDMDL
MODEL 4
REMARK VINA RESULT:      -4.3     11.377     12.339
REMARK  1 active torsions:
REMARK  status: ('A' for Active; 'I' for Inactive)
REMARK    1  A    between atoms: C4_4  and  O11_11 
ROOT
HETATM    1  C1  UNL     1     -35.948  15.930  -5.296  1.00 20.00    -0.021 C 
HETATM    2  C2  UNL     1     -34.959  15.605  -6.146  1.00 20.00    -0.025 C 
HETATM    3  C3  UNL     1     -34.386  15.942  -3.406  1.00 20.00    -0.043 C 
HETATM    4  C4  UNL     1     -34.304  16.667  -2.289  1.00 20.00     0.045 C 
HETATM    5  C5  UNL     1     -33.236  15.583  -4.339  1.00 20.00     0.046 C 
HETATM    6  C6  UNL     1     -34.993  13.985  -4.494  1.00 20.00     0.022 C 
HETATM    7  C7  UNL     1     -35.630  15.277  -3.970  1.00 20.00     0.040 C 
HETATM    8  C8  UNL     1     -33.987  14.723  -5.386  1.00 20.00     0.013 C 
HETATM    9  C9  UNL     1     -35.477  16.982  -1.414  1.00 20.00     0.076 C 
ENDROOT
BRANCH   4  10
HETATM   10  O11 UNL     1     -33.086  17.176  -1.878  1.00 20.00    -0.360 OA
HETATM   11  C10 UNL     1     -33.225  18.204  -0.928  1.00 20.00     0.209 C 
ENDBRANCH   4  10
TORSDOF 1
ENDMDL
MODEL 5
REMARK VINA RESULT:      -4.3     11.739     12.795
REMARK  1 active torsions:
REMARK  status: ('A' for Active; 'I' for Inactive)
REMARK    1  A    between atoms: C4_4  and  O11_11 
ROOT
HETATM    1  C1  UNL     1     -33.609  16.405  -5.877  1.00 20.00    -0.021 C 
HETATM    2  C2  UNL     1     -33.576  16.989  -4.667  1.00 20.00    -0.025 C 
HETATM    3  C3  UNL     1     -35.091  14.641  -5.039  1.00 20.00    -0.043 C 
HETATM    4  C4  UNL     1     -36.088  13.943  -5.588  1.00 20.00     0.045 C 
HETATM    5  C5  UNL     1     -35.087  15.279  -3.655  1.00 20.00     0.046 C 
HETATM    6  C6  UNL     1     -32.872  14.803  -4.385  1.00 20.00     0.022 C 
HETATM    7  C7  UNL     1     -33.728  14.915  -5.651  1.00 20.00     0.040 C 
HETATM    8  C8  UNL     1     -33.661  15.882  -3.633  1.00 20.00     0.013 C 
HETATM    9  C9  UNL     1     -36.026  13.341  -6.957  1.00 20.00     0.076 C 
ENDROOT
BRANCH   4  10
HETATM   10  O11 UNL     1     -37.263  13.741  -4.888  1.00 20.00    -0.360 OA
HETATM   11  C10 UNL     1     -38.301  14.586  -5.322  1.00 20.00     0.209 C 
ENDBRANCH   4  10
TORSDOF 1
ENDMDL
MODEL 6
REMARK VINA RESULT:      -4.3     11.456     12.178
REMARK  1 active torsions:
REMARK  status: ('A' for Active; 'I' for Inactive)
REMARK    1  A    between atoms: C4_4  and  O11_11 
ROOT
HETATM    1  C1  UNL     1     -33.246  14.999  -4.097  1.00 20.00    -0.021 C 
HETATM    2  C2  UNL     1     -34.396  14.356  -4.358  1.00 20.00    -0.025 C 
HETATM    3  C3  UNL     1     -34.415  16.610  -2.665  1.00 20.00    -0.043 C 
HETATM    4  C4  UNL     1     -34.075  17.266  -1.554  1.00 20.00     0.045 C 
HETATM    5  C5  UNL     1     -35.739  15.901  -2.929  1.00 20.00     0.046 C 
HETATM    6  C6  UNL     1     -34.703  16.567  -4.966  1.00 20.00     0.022 C 
HETATM    7  C7  UNL     1     -33.582  16.464  -3.927  1.00 20.00     0.040 C 
HETATM    8  C8  UNL     1     -35.499  15.397  -4.374  1.00 20.00     0.013 C 
HETATM    9  C9  UNL     1     -32.755  17.943  -1.359  1.00 20.00     0.076 C 
ENDROOT
BRANCH   4  10
HETATM   10  O11 UNL     1     -34.961  17.349  -0.496  1.00 20.00    -0.360 OA
HETATM   11  C10 UNL     1     -34.518  18.226   0.511  1.00 20.00     0.209 C 
ENDBRANCH   4  10
TORSDOF 1
ENDMDL
MODEL 7
REMARK VINA RESULT:      -4.2     11.749     12.444
REMARK  1 active torsions:
REMARK  status: ('A' for Active; 'I' for Inactive)
REMARK    1  A    between atoms: C4_4  and  O11_11 
ROOT
HETATM    1  C1  UNL     1     -35.607  17.292  -0.385  1.00 20.00    -0.021 C 
HETATM    2  C2  UNL     1     -34.526  17.865   0.170  1.00 20.00    -0.025 C 
HETATM    3  C3  UNL     1     -34.381  16.881  -2.467  1.00 20.00    -0.043 C 
HETATM    4  C4  UNL     1     -34.418  15.904  -3.376  1.00 20.00     0.045 C 
HETATM    5  C5  UNL     1     -33.130  17.514  -1.870  1.00 20.00     0.046 C 
HETATM    6  C6  UNL     1     -34.975  19.017  -1.785  1.00 20.00     0.022 C 
HETATM    7  C7  UNL     1     -35.571  17.607  -1.863  1.00 20.00     0.040 C 
HETATM    8  C8  UNL     1     -33.774  18.573  -0.941  1.00 20.00     0.013 C 
HETATM    9  C9  UNL     1     -35.685  15.326  -3.924  1.00 20.00     0.076 C 
ENDROOT
BRANCH   4  10
HETATM   10  O11 UNL     1     -33.243  15.365  -3.867  1.00 20.00    -0.360 OA
HETATM   11  C10 UNL     1     -33.049  15.649  -5.231  1.00 20.00     0.209 C 
ENDBRANCH   4  10
TORSDOF 1
ENDMDL
MODEL 8
REMARK VINA RESULT:      -4.1     11.599     12.675
REMARK  1 active torsions:
REMARK  status: ('A' for Active; 'I' for Inactive)
REMARK    1  A    between atoms: C4_4  and  O11_11 
ROOT
HETATM    1  C1  UNL     1     -35.216  14.521  -4.810  1.00 20.00    -0.021 C 
HETATM    2  C2  UNL     1     -34.627  14.810  -5.982  1.00 20.00    -0.025 C 
HETATM    3  C3  UNL     1     -34.112  16.426  -3.730  1.00 20.00    -0.043 C 
HETATM    4  C4  UNL     1     -34.478  17.270  -2.764  1.00 20.00     0.045 C 
HETATM    5  C5  UNL     1     -33.433  16.792  -5.045  1.00 20.00     0.046 C 
HETATM    6  C6  UNL     1     -32.939  14.548  -4.422  1.00 20.00     0.022 C 
HETATM    7  C7  UNL     1     -34.249  14.912  -3.716  1.00 20.00     0.040 C 
HETATM    8  C8  UNL     1     -33.259  15.385  -5.667  1.00 20.00     0.013 C 
HETATM    9  C9  UNL     1     -35.142  16.843  -1.493  1.00 20.00     0.076 C 
ENDROOT
BRANCH   4  10
HETATM   10  O11 UNL     1     -34.250  18.627  -2.903  1.00 20.00    -0.360 OA
HETATM   11  C10 UNL     1     -33.186  19.080  -2.102  1.00 20.00     0.209 C 
ENDBRANCH   4  10
TORSDOF 1
ENDMDL
MODEL 9
REMARK VINA RESULT:      -4.0      1.331      2.217
REMARK  1 active torsions:
REMARK  status: ('A' for Active; 'I' for Inactive)
REMARK    1  A    between atoms: C4_4  and  O11_11 
ROOT
HETATM    1  C1  UNL     1     -33.997   6.561   4.973  1.00 20.00    -0.021 C 
HETATM    2  C2  UNL     1     -35.097   5.984   4.462  1.00 20.00    -0.025 C 
HETATM    3  C3  UNL     1     -33.196   7.136   2.728  1.00 20.00    -0.043 C 
HETATM    4  C4  UNL     1     -32.505   8.166   2.236  1.00 20.00     0.045 C 
HETATM    5  C5  UNL     1     -34.436   6.500   2.111  1.00 20.00     0.046 C 
HETATM    6  C6  UNL     1     -33.273   4.946   3.489  1.00 20.00     0.022 C 
HETATM    7  C7  UNL     1     -32.876   6.341   3.983  1.00 20.00     0.040 C 
HETATM    8  C8  UNL     1     -34.704   5.368   3.133  1.00 20.00     0.013 C 
HETATM    9  C9  UNL     1     -31.292   8.743   2.895  1.00 20.00     0.076 C 
ENDROOT
BRANCH   4  10
HETATM   10  O11 UNL     1     -32.897   8.766   1.054  1.00 20.00    -0.360 OA
HETATM   11  C10 UNL     1     -32.614  10.143   1.029  1.00 20.00     0.209 C 
ENDBRANCH   4  10
TORSDOF 1
ENDMDL
