MODEL 1
REMARK VINA RESULT:      -3.5      0.000      0.000
REMARK  0 active torsions:
REMARK  status: ('A' for Active; 'I' for Inactive)
ROOT
HETATM    1  C1  UNL     1     -36.560  14.927  -4.471  1.00 20.00     0.063 C 
HETATM    2  C2  UNL     1     -34.459  15.487  -3.542  1.00 20.00     0.167 C 
HETATM    3  C3  UNL     1     -34.503  14.433  -6.160  1.00 20.00     0.112 C 
HETATM    4  C4  UNL     1     -38.040  15.111  -4.647  1.00 20.00     0.078 C 
HETATM    5  C5  UNL     1     -33.905  16.659  -2.731  1.00 20.00     0.046 C 
HETATM    6  C6  UNL     1     -35.015  15.426  -7.201  1.00 20.00     0.033 C 
HETATM    7  N7  UNL     1     -35.889  15.745  -3.738  1.00 20.00    -0.272 NA
HETATM    8  S8  UNL     1     -35.879  13.568  -5.347  1.00 20.00    -0.100 SA
HETATM    9  S9  UNL     1     -33.372  15.272  -5.003  1.00 20.00    -0.127 SA
ENDROOT
TORSDOF 0
ENDMDL
MODEL 2
REMARK VINA RESULT:      -3.4      2.032      2.657
REMARK  0 active torsions:
REMARK  status: ('A' for Active; 'I' for Inactive)
ROOT
HETATM    1  C1  UNL     1     -34.399  15.214  -4.191  1.00 20.00     0.063 C 
HETATM    2  C2  UNL     1     -33.735  16.838  -2.606  1.00 20.00     0.167 C 
HETATM    3  C3  UNL     1     -33.689  17.563  -5.334  1.00 20.00     0.112 C 
HETATM    4  C4  UNL     1     -35.210  14.032  -4.640  1.00 20.00     0.078 C 
HETATM    5  C5  UNL     1     -34.256  17.312  -1.249  1.00 20.00     0.046 C 
HETATM    6  C6  UNL     1     -35.080  17.789  -5.922  1.00 20.00     0.033 C 
HETATM    7  N7  UNL     1     -34.594  15.727  -3.028  1.00 20.00    -0.272 NA
HETATM    8  S8  UNL     1     -33.241  15.802  -5.370  1.00 20.00    -0.100 SA
HETATM    9  S9  UNL     1     -33.582  18.318  -3.679  1.00 20.00    -0.127 SA
ENDROOT
TORSDOF 0
ENDMDL
MODEL 3
REMARK VINA RESULT:      -3.3      1.466      3.209
REMARK  0 active torsions:
REMARK  status: ('A' for Active; 'I' for Inactive)
ROOT
HETATM    1  C1  UNL     1     -35.098  16.313  -3.381  1.00 20.00     0.063 C 
HETATM    2  C2  UNL     1     -36.230  15.326  -5.207  1.00 20.00     0.167 C 
HETATM    3  C3  UNL     1     -33.407  15.337  -5.256  1.00 20.00     0.112 C 
HETATM    4  C4  UNL     1     -34.957  16.680  -1.931  1.00 20.00     0.078 C 
HETATM    5  C5  UNL     1     -37.428  14.389  -5.368  1.00 20.00     0.046 C 
HETATM    6  C6  UNL     1     -32.783  14.336  -4.286  1.00 20.00     0.033 C 
HETATM    7  N7  UNL     1     -36.098  15.605  -3.773  1.00 20.00    -0.272 NA
HETATM    8  S8  UNL     1     -33.809  16.899  -4.416  1.00 20.00    -0.100 SA
HETATM    9  S9  UNL     1     -34.824  14.575  -6.113  1.00 20.00    -0.127 SA
ENDROOT
TORSDOF 0
ENDMDL
MODEL 4
REMARK VINA RESULT:      -3.3      2.577      4.327
REMARK  0 active torsions:
REMARK  status: ('A' for Active; 'I' for Inactive)
ROOT
HETATM    1  C1  UNL     1     -33.803  17.079  -2.064  1.00 20.00     0.063 C 
HETATM    2  C2  UNL     1     -34.519  15.399  -3.566  1.00 20.00     0.167 C 
HETATM    3  C3  UNL     1     -36.426  17.291  -2.700  1.00 20.00     0.112 C 
HETATM    4  C4  UNL     1     -32.783  18.023  -1.496  1.00 20.00     0.078 C 
HETATM    5  C5  UNL     1     -33.954  14.761  -4.836  1.00 20.00     0.046 C 
HETATM    6  C6  UNL     1     -36.242  18.667  -3.336  1.00 20.00     0.033 C 
HETATM    7  N7  UNL     1     -33.514  16.353  -3.086  1.00 20.00    -0.272 NA
HETATM    8  S8  UNL     1     -35.354  17.093  -1.245  1.00 20.00    -0.100 SA
HETATM    9  S9  UNL     1     -36.210  15.989  -3.957  1.00 20.00    -0.127 SA
ENDROOT
TORSDOF 0
ENDMDL
MODEL 5
REMARK VINA RESULT:      -3.2     12.222     12.962
REMARK  0 active torsions:
REMARK  status: ('A' for Active; 'I' for Inactive)
ROOT
HETATM    1  C1  UNL     1     -33.510   5.559   2.879  1.00 20.00     0.063 C 
HETATM    2  C2  UNL     1     -32.799   7.629   3.774  1.00 20.00     0.167 C 
HETATM    3  C3  UNL     1     -34.638   6.105   5.278  1.00 20.00     0.112 C 
HETATM    4  C4  UNL     1     -33.309   4.306   2.075  1.00 20.00     0.078 C 
HETATM    5  C5  UNL     1     -31.461   8.359   3.900  1.00 20.00     0.046 C 
HETATM    6  C6  UNL     1     -34.008   4.882   5.941  1.00 20.00     0.033 C 
HETATM    7  N7  UNL     1     -32.539   6.388   3.037  1.00 20.00    -0.272 NA
HETATM    8  S8  UNL     1     -35.115   5.745   3.561  1.00 20.00    -0.100 SA
HETATM    9  S9  UNL     1     -33.536   7.546   5.451  1.00 20.00    -0.127 SA
ENDROOT
TORSDOF 0
ENDMDL
MODEL 6
REMARK VINA RESULT:      -3.2      1.776      3.341
REMARK  0 active torsions:
REMARK  status: ('A' for Active; 'I' for Inactive)
ROOT
HETATM    1  C1  UNL     1     -33.627  16.267  -4.199  1.00 20.00     0.063 C 
HETATM    2  C2  UNL     1     -33.696  16.659  -6.530  1.00 20.00     0.167 C 
HETATM    3  C3  UNL     1     -34.620  14.165  -5.586  1.00 20.00     0.112 C 
HETATM    4  C4  UNL     1     -33.696  16.703  -2.764  1.00 20.00     0.078 C 
HETATM    5  C5  UNL     1     -34.107  17.829  -7.426  1.00 20.00     0.046 C 
HETATM    6  C6  UNL     1     -35.978  14.247  -4.893  1.00 20.00     0.033 C 
HETATM    7  N7  UNL     1     -33.839  17.115  -5.143  1.00 20.00    -0.272 NA
HETATM    8  S8  UNL     1     -33.272  14.565  -4.434  1.00 20.00    -0.100 SA
HETATM    9  S9  UNL     1     -34.628  15.185  -7.096  1.00 20.00    -0.127 SA
ENDROOT
TORSDOF 0
ENDMDL
MODEL 7
REMARK VINA RESULT:      -3.1      1.927      3.070
REMARK  0 active torsions:
REMARK  status: ('A' for Active; 'I' for Inactive)
ROOT
HETATM    1  C1  UNL     1     -33.925  15.479  -4.236  1.00 20.00     0.063 C 
HETATM    2  C2  UNL     1     -35.239  16.886  -2.863  1.00 20.00     0.167 C 
HETATM    3  C3  UNL     1     -36.437  15.817  -5.185  1.00 20.00     0.112 C 
HETATM    4  C4  UNL     1     -32.844  14.461  -4.467  1.00 20.00     0.078 C 
HETATM    5  C5  UNL     1     -35.466  17.036  -1.358  1.00 20.00     0.046 C 
HETATM    6  C6  UNL     1     -36.768  14.332  -5.064  1.00 20.00     0.033 C 
HETATM    7  N7  UNL     1     -34.224  15.842  -3.038  1.00 20.00    -0.272 NA
HETATM    8  S8  UNL     1     -34.708  16.064  -5.691  1.00 20.00    -0.100 SA
HETATM    9  S9  UNL     1     -36.885  16.684  -3.645  1.00 20.00    -0.127 SA
ENDROOT
TORSDOF 0
ENDMDL
MODEL 8
REMARK VINA RESULT:      -3.1      2.203      3.277
REMARK  0 active torsions:
REMARK  status: ('A' for Active; 'I' for Inactive)
ROOT
HETATM    1  C1  UNL     1     -35.042  14.362  -6.539  1.00 20.00     0.063 C 
HETATM    2  C2  UNL     1     -34.605  16.686  -6.504  1.00 20.00     0.167 C 
HETATM    3  C3  UNL     1     -34.056  15.206  -4.164  1.00 20.00     0.112 C 
HETATM    4  C4  UNL     1     -35.138  13.026  -7.219  1.00 20.00     0.078 C 
HETATM    5  C5  UNL     1     -33.966  17.688  -7.466  1.00 20.00     0.046 C 
HETATM    6  C6  UNL     1     -32.809  14.333  -4.281  1.00 20.00     0.033 C 
HETATM    7  N7  UNL     1     -34.620  15.389  -7.190  1.00 20.00    -0.272 NA
HETATM    8  S8  UNL     1     -35.513  14.363  -4.850  1.00 20.00    -0.100 SA
HETATM    9  S9  UNL     1     -33.740  16.845  -4.895  1.00 20.00    -0.127 SA
ENDROOT
TORSDOF 0
ENDMDL
MODEL 9
REMARK VINA RESULT:      -3.1      2.172      3.608
REMARK  0 active torsions:
REMARK  status: ('A' for Active; 'I' for Inactive)
ROOT
HETATM    1  C1  UNL     1     -35.042  17.126  -5.816  1.00 20.00     0.063 C 
HETATM    2  C2  UNL     1     -34.043  15.024  -6.233  1.00 20.00     0.167 C 
HETATM    3  C3  UNL     1     -33.626  16.201  -3.702  1.00 20.00     0.112 C 
HETATM    4  C4  UNL     1     -36.126  18.152  -5.983  1.00 20.00     0.078 C 
HETATM    5  C5  UNL     1     -34.490  13.716  -6.888  1.00 20.00     0.046 C 
HETATM    6  C6  UNL     1     -34.857  16.145  -2.801  1.00 20.00     0.033 C 
HETATM    7  N7  UNL     1     -35.155  15.970  -6.370  1.00 20.00    -0.272 NA
HETATM    8  S8  UNL     1     -33.695  17.636  -4.816  1.00 20.00    -0.100 SA
HETATM    9  S9  UNL     1     -33.410  14.610  -4.563  1.00 20.00    -0.127 SA
ENDROOT
TORSDOF 0
ENDMDL
