MODEL 1
REMARK VINA RESULT:      -3.8      0.000      0.000
REMARK  0 active torsions:
REMARK  status: ('A' for Active; 'I' for Inactive)
ROOT
HETATM    1  C1  UNL     1     -32.814   7.506   3.883  1.00 20.00     0.302 C 
HETATM    2  C2  UNL     1     -32.560   6.682   2.641  1.00 20.00     0.201 C 
HETATM    3  C3  UNL     1     -34.219   5.678   3.875  1.00 20.00     0.253 C 
HETATM    4  C4  UNL     1     -34.069   4.207   4.275  1.00 20.00     0.081 C 
HETATM    5  C5  UNL     1     -35.705   6.049   3.794  1.00 20.00     0.081 C 
HETATM    6  C6  UNL     1     -34.042   7.083   5.929  1.00 20.00     0.314 C 
HETATM    7  N7  UNL     1     -33.390   6.501   4.769  1.00 20.00     0.120 N 
HETATM    8  O8  UNL     1     -33.695   5.813   2.533  1.00 20.00    -0.351 OA
ENDROOT
TORSDOF 0
ENDMDL
MODEL 2
REMARK VINA RESULT:      -3.8      1.338      2.539
REMARK  0 active torsions:
REMARK  status: ('A' for Active; 'I' for Inactive)
ROOT
HETATM    1  C1  UNL     1     -32.917   7.644   4.971  1.00 20.00     0.302 C 
HETATM    2  C2  UNL     1     -33.859   7.104   6.024  1.00 20.00     0.201 C 
HETATM    3  C3  UNL     1     -34.279   6.038   4.032  1.00 20.00     0.253 C 
HETATM    4  C4  UNL     1     -35.703   6.033   3.470  1.00 20.00     0.081 C 
HETATM    5  C5  UNL     1     -33.515   4.805   3.531  1.00 20.00     0.081 C 
HETATM    6  C6  UNL     1     -32.847   7.451   2.556  1.00 20.00     0.314 C 
HETATM    7  N7  UNL     1     -33.662   7.344   3.754  1.00 20.00     0.120 N 
HETATM    8  O8  UNL     1     -34.383   5.892   5.468  1.00 20.00    -0.351 OA
ENDROOT
TORSDOF 0
ENDMDL
MODEL 3
REMARK VINA RESULT:      -3.5      1.234      1.692
REMARK  0 active torsions:
REMARK  status: ('A' for Active; 'I' for Inactive)
ROOT
HETATM    1  C1  UNL     1     -33.597   7.169   5.769  1.00 20.00     0.302 C 
HETATM    2  C2  UNL     1     -32.873   7.908   4.665  1.00 20.00     0.201 C 
HETATM    3  C3  UNL     1     -34.003   6.127   3.752  1.00 20.00     0.253 C 
HETATM    4  C4  UNL     1     -33.238   5.116   2.893  1.00 20.00     0.081 C 
HETATM    5  C5  UNL     1     -35.479   6.158   3.334  1.00 20.00     0.081 C 
HETATM    6  C6  UNL     1     -34.690   5.009   5.874  1.00 20.00     0.314 C 
HETATM    7  N7  UNL     1     -33.734   5.845   5.171  1.00 20.00     0.120 N 
HETATM    8  O8  UNL     1     -33.470   7.437   3.450  1.00 20.00    -0.351 OA
ENDROOT
TORSDOF 0
ENDMDL
MODEL 4
REMARK VINA RESULT:      -3.4     12.260     13.125
REMARK  0 active torsions:
REMARK  status: ('A' for Active; 'I' for Inactive)
ROOT
HETATM    1  C1  UNL     1     -33.397  15.974  -5.461  1.00 20.00     0.302 C 
HETATM    2  C2  UNL     1     -33.082  14.878  -4.468  1.00 20.00     0.201 C 
HETATM    3  C3  UNL     1     -34.760  14.158  -5.863  1.00 20.00     0.253 C 
HETATM    4  C4  UNL     1     -36.069  13.643  -5.257  1.00 20.00     0.081 C 
HETATM    5  C5  UNL     1     -34.530  13.513  -7.236  1.00 20.00     0.081 C 
HETATM    6  C6  UNL     1     -35.218  16.319  -7.023  1.00 20.00     0.314 C 
HETATM    7  N7  UNL     1     -34.766  15.629  -5.828  1.00 20.00     0.120 N 
HETATM    8  O8  UNL     1     -33.683  13.697  -5.014  1.00 20.00    -0.351 OA
ENDROOT
TORSDOF 0
ENDMDL
MODEL 5
REMARK VINA RESULT:      -3.3     12.203     13.068
REMARK  0 active torsions:
REMARK  status: ('A' for Active; 'I' for Inactive)
ROOT
HETATM    1  C1  UNL     1     -35.395  14.318  -7.594  1.00 20.00     0.302 C 
HETATM    2  C2  UNL     1     -35.091  12.906  -7.147  1.00 20.00     0.201 C 
HETATM    3  C3  UNL     1     -35.563  14.187  -5.298  1.00 20.00     0.253 C 
HETATM    4  C4  UNL     1     -34.557  14.236  -4.144  1.00 20.00     0.081 C 
HETATM    5  C5  UNL     1     -36.977  14.462  -4.772  1.00 20.00     0.081 C 
HETATM    6  C6  UNL     1     -35.607  16.421  -6.409  1.00 20.00     0.314 C 
HETATM    7  N7  UNL     1     -35.088  15.065  -6.380  1.00 20.00     0.120 N 
HETATM    8  O8  UNL     1     -35.575  12.830  -5.800  1.00 20.00    -0.351 OA
ENDROOT
TORSDOF 0
ENDMDL
MODEL 6
REMARK VINA RESULT:      -3.3     12.027     12.780
REMARK  0 active torsions:
REMARK  status: ('A' for Active; 'I' for Inactive)
ROOT
HETATM    1  C1  UNL     1     -36.152  14.042  -4.954  1.00 20.00     0.302 C 
HETATM    2  C2  UNL     1     -35.644  13.378  -6.214  1.00 20.00     0.201 C 
HETATM    3  C3  UNL     1     -34.013  14.777  -5.400  1.00 20.00     0.253 C 
HETATM    4  C4  UNL     1     -33.415  15.845  -6.320  1.00 20.00     0.081 C 
HETATM    5  C5  UNL     1     -32.994  14.386  -4.321  1.00 20.00     0.081 C 
HETATM    6  C6  UNL     1     -35.359  15.912  -3.633  1.00 20.00     0.314 C 
HETATM    7  N7  UNL     1     -35.324  15.242  -4.921  1.00 20.00     0.120 N 
HETATM    8  O8  UNL     1     -34.227  13.592  -6.202  1.00 20.00    -0.351 OA
ENDROOT
TORSDOF 0
ENDMDL
MODEL 7
REMARK VINA RESULT:      -3.3     12.062     12.782
REMARK  0 active torsions:
REMARK  status: ('A' for Active; 'I' for Inactive)
ROOT
HETATM    1  C1  UNL     1     -35.937  14.760  -6.194  1.00 20.00     0.302 C 
HETATM    2  C2  UNL     1     -35.779  13.371  -5.618  1.00 20.00     0.201 C 
HETATM    3  C3  UNL     1     -34.349  14.798  -4.524  1.00 20.00     0.253 C 
HETATM    4  C4  UNL     1     -32.858  14.455  -4.452  1.00 20.00     0.081 C 
HETATM    5  C5  UNL     1     -34.743  15.670  -3.325  1.00 20.00     0.081 C 
HETATM    6  C6  UNL     1     -34.635  16.794  -5.993  1.00 20.00     0.314 C 
HETATM    7  N7  UNL     1     -34.647  15.348  -5.855  1.00 20.00     0.120 N 
HETATM    8  O8  UNL     1     -35.081  13.559  -4.380  1.00 20.00    -0.351 OA
ENDROOT
TORSDOF 0
ENDMDL
MODEL 8
REMARK VINA RESULT:      -3.1      1.342      2.447
REMARK  0 active torsions:
REMARK  status: ('A' for Active; 'I' for Inactive)
ROOT
HETATM    1  C1  UNL     1     -33.089   4.638   2.838  1.00 20.00     0.302 C 
HETATM    2  C2  UNL     1     -33.631   3.636   3.832  1.00 20.00     0.201 C 
HETATM    3  C3  UNL     1     -34.499   5.707   4.315  1.00 20.00     0.253 C 
HETATM    4  C4  UNL     1     -34.343   6.274   5.729  1.00 20.00     0.081 C 
HETATM    5  C5  UNL     1     -35.747   6.302   3.648  1.00 20.00     0.081 C 
HETATM    6  C6  UNL     1     -33.096   7.061   2.758  1.00 20.00     0.314 C 
HETATM    7  N7  UNL     1     -33.230   5.879   3.591  1.00 20.00     0.120 N 
HETATM    8  O8  UNL     1     -34.749   4.289   4.446  1.00 20.00    -0.351 OA
ENDROOT
TORSDOF 0
ENDMDL
MODEL 9
REMARK VINA RESULT:      -3.0     12.186     13.172
REMARK  0 active torsions:
REMARK  status: ('A' for Active; 'I' for Inactive)
ROOT
HETATM    1  C1  UNL     1     -34.881  15.492  -6.568  1.00 20.00     0.302 C 
HETATM    2  C2  UNL     1     -34.026  16.731  -6.423  1.00 20.00     0.201 C 
HETATM    3  C3  UNL     1     -33.871  15.490  -4.495  1.00 20.00     0.253 C 
HETATM    4  C4  UNL     1     -34.180  16.154  -3.150  1.00 20.00     0.081 C 
HETATM    5  C5  UNL     1     -32.897  14.323  -4.291  1.00 20.00     0.081 C 
HETATM    6  C6  UNL     1     -35.664  13.827  -4.990  1.00 20.00     0.314 C 
HETATM    7  N7  UNL     1     -35.139  15.169  -5.169  1.00 20.00     0.120 N 
HETATM    8  O8  UNL     1     -33.171  16.464  -5.304  1.00 20.00    -0.351 OA
ENDROOT
TORSDOF 0
ENDMDL
