MODEL 1
REMARK VINA RESULT:      -6.2      0.000      0.000
REMARK  1 active torsions:
REMARK  status: ('A' for Active; 'I' for Inactive)
REMARK    1  A    between atoms: C8_8  and  N9_9 
ROOT
HETATM    1  C1  UNL     1     -32.779  10.169   1.086  1.00 20.00     0.013 C 
HETATM    2  C2  UNL     1     -32.509   9.144   1.649  1.00 20.00    -0.087 C 
HETATM    3  C8  UNL     1     -32.173   7.893   2.335  1.00 20.00     0.364 C 
ENDROOT
BRANCH   3   4
HETATM    4  N9  UNL     1     -33.234   7.515   3.267  1.00 20.00     0.099 N 
HETATM    5  C6  UNL     1     -32.755   7.601   4.654  1.00 20.00     0.273 C 
HETATM    6  C4  UNL     1     -33.868   7.255   5.644  1.00 20.00     0.030 C 
HETATM    7  C3  UNL     1     -34.459   5.880   5.358  1.00 20.00     0.003 C 
HETATM    8  C5  UNL     1     -34.876   5.774   3.896  1.00 20.00     0.030 C 
HETATM    9  C7  UNL     1     -33.731   6.166   2.960  1.00 20.00     0.273 C 
ENDBRANCH   3   4
TORSDOF 1
ENDMDL
MODEL 2
REMARK VINA RESULT:      -5.3      0.812      1.808
REMARK  1 active torsions:
REMARK  status: ('A' for Active; 'I' for Inactive)
REMARK    1  A    between atoms: C8_8  and  N9_9 
ROOT
HETATM    1  C1  UNL     1     -32.475   9.097   0.933  1.00 20.00     0.013 C 
HETATM    2  C2  UNL     1     -32.096   8.742   2.016  1.00 20.00    -0.087 C 
HETATM    3  C8  UNL     1     -31.629   8.312   3.336  1.00 20.00     0.364 C 
ENDROOT
BRANCH   3   4
HETATM    4  N9  UNL     1     -32.435   7.197   3.831  1.00 20.00     0.099 N 
HETATM    5  C6  UNL     1     -33.194   6.583   2.732  1.00 20.00     0.273 C 
HETATM    6  C4  UNL     1     -34.005   5.383   3.224  1.00 20.00     0.030 C 
HETATM    7  C3  UNL     1     -34.929   5.772   4.372  1.00 20.00     0.003 C 
HETATM    8  C5  UNL     1     -34.145   6.481   5.470  1.00 20.00     0.030 C 
HETATM    9  C7  UNL     1     -33.330   7.647   4.907  1.00 20.00     0.273 C 
ENDBRANCH   3   4
TORSDOF 1
ENDMDL
MODEL 3
REMARK VINA RESULT:      -4.4      1.301      4.176
REMARK  1 active torsions:
REMARK  status: ('A' for Active; 'I' for Inactive)
REMARK    1  A    between atoms: C8_8  and  N9_9 
ROOT
HETATM    1  C1  UNL     1     -34.012   3.714   4.530  1.00 20.00     0.013 C 
HETATM    2  C2  UNL     1     -34.534   4.765   4.280  1.00 20.00    -0.087 C 
HETATM    3  C8  UNL     1     -35.178   6.046   3.977  1.00 20.00     0.364 C 
ENDROOT
BRANCH   3   4
HETATM    4  N9  UNL     1     -34.177   7.095   3.790  1.00 20.00     0.099 N 
HETATM    5  C6  UNL     1     -33.307   6.779   2.648  1.00 20.00     0.273 C 
HETATM    6  C4  UNL     1     -32.284   7.891   2.409  1.00 20.00     0.030 C 
HETATM    7  C3  UNL     1     -31.460   8.165   3.660  1.00 20.00     0.003 C 
HETATM    8  C5  UNL     1     -32.372   8.410   4.856  1.00 20.00     0.030 C 
HETATM    9  C7  UNL     1     -33.392   7.281   5.019  1.00 20.00     0.273 C 
ENDBRANCH   3   4
TORSDOF 1
ENDMDL
MODEL 4
REMARK VINA RESULT:      -4.0      1.182      4.136
REMARK  1 active torsions:
REMARK  status: ('A' for Active; 'I' for Inactive)
REMARK    1  A    between atoms: C8_8  and  N9_9 
ROOT
HETATM    1  C1  UNL     1     -34.823   4.651   5.687  1.00 20.00     0.013 C 
HETATM    2  C2  UNL     1     -34.353   5.754   5.623  1.00 20.00    -0.087 C 
HETATM    3  C8  UNL     1     -33.781   7.102   5.551  1.00 20.00     0.364 C 
ENDROOT
BRANCH   3   4
HETATM    4  N9  UNL     1     -32.928   7.237   4.371  1.00 20.00     0.099 N 
HETATM    5  C6  UNL     1     -32.109   8.454   4.466  1.00 20.00     0.273 C 
HETATM    6  C4  UNL     1     -31.175   8.585   3.262  1.00 20.00     0.030 C 
HETATM    7  C3  UNL     1     -31.951   8.553   1.951  1.00 20.00     0.003 C 
HETATM    8  C5  UNL     1     -32.859   7.330   1.900  1.00 20.00     0.030 C 
HETATM    9  C7  UNL     1     -33.741   7.238   3.146  1.00 20.00     0.273 C 
ENDBRANCH   3   4
TORSDOF 1
ENDMDL
MODEL 5
REMARK VINA RESULT:      -3.9     10.730     11.731
REMARK  1 active torsions:
REMARK  status: ('A' for Active; 'I' for Inactive)
REMARK    1  A    between atoms: C8_8  and  N9_9 
ROOT
HETATM    1  C1  UNL     1     -35.190  16.790  -1.679  1.00 20.00     0.013 C 
HETATM    2  C2  UNL     1     -34.479  16.463  -2.590  1.00 20.00    -0.087 C 
HETATM    3  C8  UNL     1     -33.608  16.064  -3.698  1.00 20.00     0.364 C 
ENDROOT
BRANCH   3   4
HETATM    4  N9  UNL     1     -34.390  15.473  -4.783  1.00 20.00     0.099 N 
HETATM    5  C6  UNL     1     -34.912  14.158  -4.384  1.00 20.00     0.273 C 
HETATM    6  C4  UNL     1     -35.773  13.547  -5.490  1.00 20.00     0.030 C 
HETATM    7  C3  UNL     1     -35.005  13.451  -6.802  1.00 20.00     0.003 C 
HETATM    8  C5  UNL     1     -34.399  14.802  -7.164  1.00 20.00     0.030 C 
HETATM    9  C7  UNL     1     -33.580  15.374  -6.006  1.00 20.00     0.273 C 
ENDBRANCH   3   4
TORSDOF 1
ENDMDL
MODEL 6
REMARK VINA RESULT:      -3.7     10.833     11.353
REMARK  1 active torsions:
REMARK  status: ('A' for Active; 'I' for Inactive)
REMARK    1  A    between atoms: C8_8  and  N9_9 
ROOT
HETATM    1  C1  UNL     1     -34.117  17.429  -1.103  1.00 20.00     0.013 C 
HETATM    2  C2  UNL     1     -33.991  16.872  -2.159  1.00 20.00    -0.087 C 
HETATM    3  C8  UNL     1     -33.831  16.196  -3.449  1.00 20.00     0.364 C 
ENDROOT
BRANCH   3   4
HETATM    4  N9  UNL     1     -34.977  15.330  -3.723  1.00 20.00     0.099 N 
HETATM    5  C6  UNL     1     -34.674  14.407  -4.826  1.00 20.00     0.273 C 
HETATM    6  C4  UNL     1     -35.846  13.462  -5.092  1.00 20.00     0.030 C 
HETATM    7  C3  UNL     1     -37.131  14.235  -5.368  1.00 20.00     0.003 C 
HETATM    8  C5  UNL     1     -37.392  15.247  -4.259  1.00 20.00     0.030 C 
HETATM    9  C7  UNL     1     -36.171  16.137  -4.018  1.00 20.00     0.273 C 
ENDBRANCH   3   4
TORSDOF 1
ENDMDL
MODEL 7
REMARK VINA RESULT:      -3.7     10.680     11.347
REMARK  1 active torsions:
REMARK  status: ('A' for Active; 'I' for Inactive)
REMARK    1  A    between atoms: C8_8  and  N9_9 
ROOT
HETATM    1  C1  UNL     1     -33.155  14.478  -4.405  1.00 20.00     0.013 C 
HETATM    2  C2  UNL     1     -33.924  15.245  -3.894  1.00 20.00    -0.087 C 
HETATM    3  C8  UNL     1     -34.867  16.180  -3.274  1.00 20.00     0.364 C 
ENDROOT
BRANCH   3   4
HETATM    4  N9  UNL     1     -34.322  16.710  -2.025  1.00 20.00     0.099 N 
HETATM    5  C6  UNL     1     -35.399  17.241  -1.178  1.00 20.00     0.273 C 
HETATM    6  C4  UNL     1     -34.851  17.755   0.154  1.00 20.00     0.030 C 
HETATM    7  C3  UNL     1     -33.763  18.801  -0.061  1.00 20.00     0.003 C 
HETATM    8  C5  UNL     1     -32.693  18.269  -1.007  1.00 20.00     0.030 C 
HETATM    9  C7  UNL     1     -33.309  17.739  -2.303  1.00 20.00     0.273 C 
ENDBRANCH   3   4
TORSDOF 1
ENDMDL
MODEL 8
REMARK VINA RESULT:      -3.6     11.042     11.770
REMARK  1 active torsions:
REMARK  status: ('A' for Active; 'I' for Inactive)
REMARK    1  A    between atoms: C8_8  and  N9_9 
ROOT
HETATM    1  C1  UNL     1     -32.947  17.816  -1.451  1.00 20.00     0.013 C 
HETATM    2  C2  UNL     1     -33.820  17.176  -1.971  1.00 20.00    -0.087 C 
HETATM    3  C8  UNL     1     -34.890  16.398  -2.600  1.00 20.00     0.364 C 
ENDROOT
BRANCH   3   4
HETATM    4  N9  UNL     1     -34.370  15.625  -3.727  1.00 20.00     0.099 N 
HETATM    5  C6  UNL     1     -33.710  16.510  -4.698  1.00 20.00     0.273 C 
HETATM    6  C4  UNL     1     -33.118  15.710  -5.859  1.00 20.00     0.030 C 
HETATM    7  C3  UNL     1     -34.178  14.853  -6.540  1.00 20.00     0.003 C 
HETATM    8  C5  UNL     1     -34.912  13.999  -5.512  1.00 20.00     0.030 C 
HETATM    9  C7  UNL     1     -35.449  14.852  -4.361  1.00 20.00     0.273 C 
ENDBRANCH   3   4
TORSDOF 1
ENDMDL
MODEL 9
REMARK VINA RESULT:      -3.6     10.862     12.035
REMARK  1 active torsions:
REMARK  status: ('A' for Active; 'I' for Inactive)
REMARK    1  A    between atoms: C8_8  and  N9_9 
ROOT
HETATM    1  C1  UNL     1     -38.178  14.704  -5.302  1.00 20.00     0.013 C 
HETATM    2  C2  UNL     1     -37.149  14.085  -5.299  1.00 20.00    -0.087 C 
HETATM    3  C8  UNL     1     -35.897  13.324  -5.296  1.00 20.00     0.364 C 
ENDROOT
BRANCH   3   4
HETATM    4  N9  UNL     1     -34.750  14.219  -5.155  1.00 20.00     0.099 N 
HETATM    5  C6  UNL     1     -34.867  15.017  -3.926  1.00 20.00     0.273 C 
HETATM    6  C4  UNL     1     -33.650  15.923  -3.739  1.00 20.00     0.030 C 
HETATM    7  C3  UNL     1     -33.435  16.821  -4.951  1.00 20.00     0.003 C 
HETATM    8  C5  UNL     1     -33.398  15.991  -6.229  1.00 20.00     0.030 C 
HETATM    9  C7  UNL     1     -34.623  15.082  -6.339  1.00 20.00     0.273 C 
ENDBRANCH   3   4
TORSDOF 1
ENDMDL
