MODEL 1
REMARK VINA RESULT:      -4.3      0.000      0.000
REMARK  2 active torsions:
REMARK  status: ('A' for Active; 'I' for Inactive)
REMARK    1  A    between atoms: C8_8  and  C9_9 
REMARK    2  A    between atoms: C9_9  and  N11_11 
ROOT
HETATM    1  C1  UNL     1     -36.956  14.287  -5.200  1.00 20.00     0.064 C 
HETATM    2  C2  UNL     1     -34.807  14.641  -4.036  1.00 20.00     0.047 C 
HETATM    3  C3  UNL     1     -35.566  16.221  -5.853  1.00 20.00     0.047 C 
HETATM    4  C4  UNL     1     -33.399  15.209  -4.141  1.00 20.00     0.236 C 
HETATM    5  C5  UNL     1     -34.153  16.780  -5.946  1.00 20.00     0.236 C 
HETATM    6  C6  UNL     1     -35.574  14.771  -5.357  1.00 20.00     0.096 C 
HETATM    7  N10 UNL     1     -38.045  13.906  -5.076  1.00 20.00    -0.197 NA
HETATM    8  N11 UNL     1     -33.427  16.636  -4.632  1.00 20.00    -0.071 N 
HETATM    9  H28 UNL     1     -32.415  16.883  -4.840  1.00 20.00     0.279 HD
ENDROOT
BRANCH   8  10
HETATM   10  C9  UNL     1     -33.864  17.628  -3.588  1.00 20.00     0.234 C 
BRANCH  10  11
HETATM   11  C8  UNL     1     -33.384  17.157  -2.224  1.00 20.00     0.023 C 
HETATM   12  C7  UNL     1     -34.501  17.226  -1.194  1.00 20.00     0.007 C 
ENDBRANCH  10  11
ENDBRANCH   8  10
TORSDOF 2
ENDMDL
MODEL 2
REMARK VINA RESULT:      -4.2      1.798      2.278
REMARK  2 active torsions:
REMARK  status: ('A' for Active; 'I' for Inactive)
REMARK    1  A    between atoms: C8_8  and  C9_9 
REMARK    2  A    between atoms: C9_9  and  N11_11 
ROOT
HETATM    1  C1  UNL     1     -35.656  13.883  -4.973  1.00 20.00     0.064 C 
HETATM    2  C2  UNL     1     -34.151  15.409  -3.747  1.00 20.00     0.047 C 
HETATM    3  C3  UNL     1     -36.620  15.902  -3.927  1.00 20.00     0.047 C 
HETATM    4  C4  UNL     1     -33.905  16.844  -3.302  1.00 20.00     0.236 C 
HETATM    5  C5  UNL     1     -36.359  17.334  -3.482  1.00 20.00     0.236 C 
HETATM    6  C6  UNL     1     -35.400  15.292  -4.626  1.00 20.00     0.096 C 
HETATM    7  N10 UNL     1     -35.857  12.774  -5.245  1.00 20.00    -0.197 NA
HETATM    8  N11 UNL     1     -35.124  17.415  -2.619  1.00 20.00    -0.071 N 
HETATM    9  H28 UNL     1     -34.925  18.452  -2.506  1.00 20.00     0.279 HD
ENDROOT
BRANCH   8  10
HETATM   10  C9  UNL     1     -35.330  16.903  -1.218  1.00 20.00     0.234 C 
BRANCH  10  11
HETATM   11  C8  UNL     1     -34.485  17.728  -0.259  1.00 20.00     0.023 C 
HETATM   12  C7  UNL     1     -35.215  17.962   1.054  1.00 20.00     0.007 C 
ENDBRANCH  10  11
ENDBRANCH   8  10
TORSDOF 2
ENDMDL
MODEL 3
REMARK VINA RESULT:      -4.0     10.512     11.487
REMARK  2 active torsions:
REMARK  status: ('A' for Active; 'I' for Inactive)
REMARK    1  A    between atoms: C8_8  and  C9_9 
REMARK    2  A    between atoms: C9_9  and  N11_11 
ROOT
HETATM    1  C1  UNL     1     -32.756   9.203   0.255  1.00 20.00     0.064 C 
HETATM    2  C2  UNL     1     -33.282   7.196   1.594  1.00 20.00     0.047 C 
HETATM    3  C3  UNL     1     -31.976   9.110   2.596  1.00 20.00     0.047 C 
HETATM    4  C4  UNL     1     -32.844   6.304   2.748  1.00 20.00     0.236 C 
HETATM    5  C5  UNL     1     -31.547   8.207   3.744  1.00 20.00     0.236 C 
HETATM    6  C6  UNL     1     -32.267   8.312   1.321  1.00 20.00     0.096 C 
HETATM    7  N10 UNL     1     -33.143   9.904  -0.584  1.00 20.00    -0.197 NA
HETATM    8  N11 UNL     1     -32.565   7.121   3.987  1.00 20.00    -0.071 N 
HETATM    9  H28 UNL     1     -32.106   6.450   4.669  1.00 20.00     0.279 HD
ENDROOT
BRANCH   8  10
HETATM   10  C9  UNL     1     -33.807   7.601   4.688  1.00 20.00     0.234 C 
BRANCH  10  11
HETATM   11  C8  UNL     1     -34.003   6.793   5.961  1.00 20.00     0.023 C 
HETATM   12  C7  UNL     1     -34.634   5.442   5.664  1.00 20.00     0.007 C 
ENDBRANCH  10  11
ENDBRANCH   8  10
TORSDOF 2
ENDMDL
MODEL 4
REMARK VINA RESULT:      -3.9      1.620      2.115
REMARK  2 active torsions:
REMARK  status: ('A' for Active; 'I' for Inactive)
REMARK    1  A    between atoms: C8_8  and  C9_9 
REMARK    2  A    between atoms: C9_9  and  N11_11 
ROOT
HETATM    1  C1  UNL     1     -35.253  13.551  -6.387  1.00 20.00     0.064 C 
HETATM    2  C2  UNL     1     -34.062  15.684  -6.028  1.00 20.00     0.047 C 
HETATM    3  C3  UNL     1     -35.882  14.940  -4.445  1.00 20.00     0.047 C 
HETATM    4  C4  UNL     1     -34.149  17.091  -5.453  1.00 20.00     0.236 C 
HETATM    5  C5  UNL     1     -35.958  16.351  -3.880  1.00 20.00     0.236 C 
HETATM    6  C6  UNL     1     -35.391  14.933  -5.896  1.00 20.00     0.096 C 
HETATM    7  N10 UNL     1     -35.143  12.463  -6.774  1.00 20.00    -0.197 NA
HETATM    8  N11 UNL     1     -34.635  17.063  -4.024  1.00 20.00    -0.071 N 
HETATM    9  H28 UNL     1     -34.830  18.075  -3.772  1.00 20.00     0.279 HD
ENDROOT
BRANCH   8  10
HETATM   10  C9  UNL     1     -33.593  16.609  -3.038  1.00 20.00     0.234 C 
BRANCH  10  11
HETATM   11  C8  UNL     1     -33.907  17.203  -1.674  1.00 20.00     0.023 C 
HETATM   12  C7  UNL     1     -32.801  18.140  -1.214  1.00 20.00     0.007 C 
ENDBRANCH  10  11
ENDBRANCH   8  10
TORSDOF 2
ENDMDL
MODEL 5
REMARK VINA RESULT:      -3.9      1.849      4.715
REMARK  2 active torsions:
REMARK  status: ('A' for Active; 'I' for Inactive)
REMARK    1  A    between atoms: C8_8  and  C9_9 
REMARK    2  A    between atoms: C9_9  and  N11_11 
ROOT
HETATM    1  C1  UNL     1     -33.026  17.971  -1.883  1.00 20.00     0.064 C 
HETATM    2  C2  UNL     1     -35.070  16.631  -2.232  1.00 20.00     0.047 C 
HETATM    3  C3  UNL     1     -33.558  17.205  -4.169  1.00 20.00     0.047 C 
HETATM    4  C4  UNL     1     -36.168  16.243  -3.213  1.00 20.00     0.236 C 
HETATM    5  C5  UNL     1     -34.665  16.813  -5.139  1.00 20.00     0.236 C 
HETATM    6  C6  UNL     1     -34.120  17.677  -2.824  1.00 20.00     0.096 C 
HETATM    7  N10 UNL     1     -32.164  18.202  -1.141  1.00 20.00    -0.197 NA
HETATM    8  N11 UNL     1     -35.581  15.784  -4.526  1.00 20.00    -0.071 N 
HETATM    9  H28 UNL     1     -36.405  15.707  -5.191  1.00 20.00     0.279 HD
ENDROOT
BRANCH   8  10
HETATM   10  C9  UNL     1     -34.990  14.401  -4.475  1.00 20.00     0.234 C 
BRANCH  10  11
HETATM   11  C8  UNL     1     -35.879  13.452  -5.263  1.00 20.00     0.023 C 
HETATM   12  C7  UNL     1     -35.403  13.318  -6.701  1.00 20.00     0.007 C 
ENDBRANCH  10  11
ENDBRANCH   8  10
TORSDOF 2
ENDMDL
MODEL 6
REMARK VINA RESULT:      -3.9      1.866      4.569
REMARK  2 active torsions:
REMARK  status: ('A' for Active; 'I' for Inactive)
REMARK    1  A    between atoms: C8_8  and  C9_9 
REMARK    2  A    between atoms: C9_9  and  N11_11 
ROOT
HETATM    1  C1  UNL     1     -33.635  17.420  -2.640  1.00 20.00     0.064 C 
HETATM    2  C2  UNL     1     -33.749  15.241  -3.794  1.00 20.00     0.047 C 
HETATM    3  C3  UNL     1     -35.797  16.703  -3.592  1.00 20.00     0.047 C 
HETATM    4  C4  UNL     1     -34.637  14.064  -4.173  1.00 20.00     0.236 C 
HETATM    5  C5  UNL     1     -36.672  15.517  -3.972  1.00 20.00     0.236 C 
HETATM    6  C6  UNL     1     -34.493  16.257  -2.922  1.00 20.00     0.096 C 
HETATM    7  N10 UNL     1     -32.958  18.336  -2.418  1.00 20.00    -0.197 NA
HETATM    8  N11 UNL     1     -35.911  14.536  -4.830  1.00 20.00    -0.071 N 
HETATM    9  H28 UNL     1     -36.531  13.677  -4.895  1.00 20.00     0.279 HD
ENDROOT
BRANCH   8  10
HETATM   10  C9  UNL     1     -35.726  14.993  -6.252  1.00 20.00     0.234 C 
BRANCH  10  11
HETATM   11  C8  UNL     1     -35.087  13.870  -7.055  1.00 20.00     0.023 C 
HETATM   12  C7  UNL     1     -33.949  14.390  -7.918  1.00 20.00     0.007 C 
ENDBRANCH  10  11
ENDBRANCH   8  10
TORSDOF 2
ENDMDL
MODEL 7
REMARK VINA RESULT:      -3.9      2.160      4.446
REMARK  2 active torsions:
REMARK  status: ('A' for Active; 'I' for Inactive)
REMARK    1  A    between atoms: C8_8  and  C9_9 
REMARK    2  A    between atoms: C9_9  and  N11_11 
ROOT
HETATM    1  C1  UNL     1     -35.379  17.324  -0.868  1.00 20.00     0.064 C 
HETATM    2  C2  UNL     1     -36.285  16.507  -3.015  1.00 20.00     0.047 C 
HETATM    3  C3  UNL     1     -33.797  16.518  -2.584  1.00 20.00     0.047 C 
HETATM    4  C4  UNL     1     -36.018  16.320  -4.502  1.00 20.00     0.236 C 
HETATM    5  C5  UNL     1     -33.546  16.331  -4.074  1.00 20.00     0.236 C 
HETATM    6  C6  UNL     1     -35.128  17.230  -2.316  1.00 20.00     0.096 C 
HETATM    7  N10 UNL     1     -35.578  17.397   0.273  1.00 20.00    -0.197 NA
HETATM    8  N11 UNL     1     -34.702  15.618  -4.731  1.00 20.00    -0.071 N 
HETATM    9  H28 UNL     1     -34.522  15.690  -5.775  1.00 20.00     0.279 HD
ENDROOT
BRANCH   8  10
HETATM   10  C9  UNL     1     -34.744  14.141  -4.444  1.00 20.00     0.234 C 
BRANCH  10  11
HETATM   11  C8  UNL     1     -35.849  13.505  -5.274  1.00 20.00     0.023 C 
HETATM   12  C7  UNL     1     -35.412  13.317  -6.718  1.00 20.00     0.007 C 
ENDBRANCH  10  11
ENDBRANCH   8  10
TORSDOF 2
ENDMDL
MODEL 8
REMARK VINA RESULT:      -3.8      2.130      4.245
REMARK  2 active torsions:
REMARK  status: ('A' for Active; 'I' for Inactive)
REMARK    1  A    between atoms: C8_8  and  C9_9 
REMARK    2  A    between atoms: C9_9  and  N11_11 
ROOT
HETATM    1  C1  UNL     1     -34.844  16.747  -2.088  1.00 20.00     0.064 C 
HETATM    2  C2  UNL     1     -34.558  17.651  -4.368  1.00 20.00     0.047 C 
HETATM    3  C3  UNL     1     -33.734  15.337  -3.785  1.00 20.00     0.047 C 
HETATM    4  C4  UNL     1     -33.715  17.624  -5.635  1.00 20.00     0.236 C 
HETATM    5  C5  UNL     1     -32.896  15.325  -5.056  1.00 20.00     0.236 C 
HETATM    6  C6  UNL     1     -33.965  16.762  -3.270  1.00 20.00     0.096 C 
HETATM    7  N10 UNL     1     -35.537  16.735  -1.158  1.00 20.00    -0.197 NA
HETATM    8  N11 UNL     1     -33.506  16.208  -6.115  1.00 20.00    -0.071 N 
HETATM    9  H28 UNL     1     -32.776  16.275  -6.883  1.00 20.00     0.279 HD
ENDROOT
BRANCH   8  10
HETATM   10  C9  UNL     1     -34.717  15.609  -6.780  1.00 20.00     0.234 C 
BRANCH  10  11
HETATM   11  C8  UNL     1     -34.292  14.382  -7.571  1.00 20.00     0.023 C 
HETATM   12  C7  UNL     1     -35.114  13.164  -7.180  1.00 20.00     0.007 C 
ENDBRANCH  10  11
ENDBRANCH   8  10
TORSDOF 2
ENDMDL
MODEL 9
REMARK VINA RESULT:      -3.7      2.247      5.204
REMARK  2 active torsions:
REMARK  status: ('A' for Active; 'I' for Inactive)
REMARK    1  A    between atoms: C8_8  and  C9_9 
REMARK    2  A    between atoms: C9_9  and  N11_11 
ROOT
HETATM    1  C1  UNL     1     -32.183  18.516  -0.501  1.00 20.00     0.064 C 
HETATM    2  C2  UNL     1     -34.387  17.428  -0.735  1.00 20.00     0.047 C 
HETATM    3  C3  UNL     1     -33.189  18.363  -2.750  1.00 20.00     0.047 C 
HETATM    4  C4  UNL     1     -35.675  17.358  -1.543  1.00 20.00     0.236 C 
HETATM    5  C5  UNL     1     -34.485  18.287  -3.546  1.00 20.00     0.236 C 
HETATM    6  C6  UNL     1     -33.451  18.527  -1.250  1.00 20.00     0.096 C 
HETATM    7  N10 UNL     1     -31.184  18.507   0.090  1.00 20.00    -0.197 NA
HETATM    8  N11 UNL     1     -35.382  17.197  -3.015  1.00 20.00    -0.071 N 
HETATM    9  H28 UNL     1     -36.314  17.334  -3.505  1.00 20.00     0.279 HD
ENDROOT
BRANCH   8  10
HETATM   10  C9  UNL     1     -34.941  15.810  -3.397  1.00 20.00     0.234 C 
BRANCH  10  11
HETATM   11  C8  UNL     1     -34.468  15.819  -4.842  1.00 20.00     0.023 C 
HETATM   12  C7  UNL     1     -33.080  15.211  -4.970  1.00 20.00     0.007 C 
ENDBRANCH  10  11
ENDBRANCH   8  10
TORSDOF 2
ENDMDL
