MODEL 1
REMARK VINA RESULT:      -4.3      0.000      0.000
REMARK  1 active torsions:
REMARK  status: ('A' for Active; 'I' for Inactive)
REMARK    1  A    between atoms: C9_9  and  N11_11 
ROOT
HETATM    1  C1  UNL     1     -35.508  13.951  -5.529  1.00 20.00     0.102 C 
HETATM    2  C2  UNL     1     -34.463  15.505  -7.918  1.00 20.00     0.007 C 
HETATM    3  C5  UNL     1     -33.663  15.363  -6.603  1.00 20.00     0.058 C 
HETATM    4  C6  UNL     1     -35.662  15.985  -7.069  1.00 20.00     0.058 C 
HETATM    5  C9  UNL     1     -35.017  15.263  -5.864  1.00 20.00     0.246 C 
HETATM    6  N10 UNL     1     -35.903  12.895  -5.260  1.00 20.00    -0.194 NA
ENDROOT
BRANCH   5   7
HETATM    7  N11 UNL     1     -35.009  16.164  -4.705  1.00 20.00     0.112 N 
HETATM    8  C7  UNL     1     -36.289  16.110  -3.997  1.00 20.00     0.275 C 
HETATM    9  C3  UNL     1     -35.951  16.702  -2.637  1.00 20.00     0.032 C 
HETATM   10  C4  UNL     1     -34.455  16.460  -2.457  1.00 20.00     0.032 C 
HETATM   11  C8  UNL     1     -34.015  15.736  -3.720  1.00 20.00     0.275 C 
ENDBRANCH   5   7
TORSDOF 1
ENDMDL
MODEL 2
REMARK VINA RESULT:      -4.1      1.329      3.881
REMARK  1 active torsions:
REMARK  status: ('A' for Active; 'I' for Inactive)
REMARK    1  A    between atoms: C9_9  and  N11_11 
ROOT
HETATM    1  C1  UNL     1     -34.589  14.686  -3.977  1.00 20.00     0.102 C 
HETATM    2  C2  UNL     1     -34.886  16.688  -1.714  1.00 20.00     0.007 C 
HETATM    3  C5  UNL     1     -35.888  16.604  -2.888  1.00 20.00     0.058 C 
HETATM    4  C6  UNL     1     -33.754  16.774  -2.762  1.00 20.00     0.058 C 
HETATM    5  C9  UNL     1     -34.720  16.105  -3.767  1.00 20.00     0.246 C 
HETATM    6  N10 UNL     1     -34.485  13.544  -4.145  1.00 20.00    -0.194 NA
ENDROOT
BRANCH   5   7
HETATM    7  N11 UNL     1     -34.703  16.854  -5.029  1.00 20.00     0.112 N 
HETATM    8  C7  UNL     1     -33.510  16.529  -5.812  1.00 20.00     0.275 C 
HETATM    9  C3  UNL     1     -33.880  17.000  -7.210  1.00 20.00     0.032 C 
HETATM   10  C4  UNL     1     -35.405  16.963  -7.253  1.00 20.00     0.032 C 
HETATM   11  C8  UNL     1     -35.830  16.466  -5.880  1.00 20.00     0.275 C 
ENDBRANCH   5   7
TORSDOF 1
ENDMDL
MODEL 3
REMARK VINA RESULT:      -4.1      2.011      4.444
REMARK  1 active torsions:
REMARK  status: ('A' for Active; 'I' for Inactive)
REMARK    1  A    between atoms: C9_9  and  N11_11 
ROOT
HETATM    1  C1  UNL     1     -35.023  18.038  -3.594  1.00 20.00     0.102 C 
HETATM    2  C2  UNL     1     -34.292  17.794  -0.658  1.00 20.00     0.007 C 
HETATM    3  C5  UNL     1     -33.339  17.355  -1.793  1.00 20.00     0.058 C 
HETATM    4  C6  UNL     1     -35.387  16.928  -1.321  1.00 20.00     0.058 C 
HETATM    5  C9  UNL     1     -34.592  17.047  -2.642  1.00 20.00     0.246 C 
HETATM    6  N10 UNL     1     -35.369  18.836  -4.360  1.00 20.00    -0.194 NA
ENDROOT
BRANCH   5   7
HETATM    7  N11 UNL     1     -34.458  15.718  -3.250  1.00 20.00     0.112 N 
HETATM    8  C7  UNL     1     -35.703  15.318  -3.906  1.00 20.00     0.275 C 
HETATM    9  C3  UNL     1     -35.255  14.199  -4.834  1.00 20.00     0.032 C 
HETATM   10  C4  UNL     1     -33.777  14.470  -5.101  1.00 20.00     0.032 C 
HETATM   11  C8  UNL     1     -33.456  15.733  -4.317  1.00 20.00     0.275 C 
ENDBRANCH   5   7
TORSDOF 1
ENDMDL
MODEL 4
REMARK VINA RESULT:      -4.1      1.435      1.608
REMARK  1 active torsions:
REMARK  status: ('A' for Active; 'I' for Inactive)
REMARK    1  A    between atoms: C9_9  and  N11_11 
ROOT
HETATM    1  C1  UNL     1     -34.526  14.744  -4.382  1.00 20.00     0.102 C 
HETATM    2  C2  UNL     1     -34.573  16.614  -6.772  1.00 20.00     0.007 C 
HETATM    3  C5  UNL     1     -33.552  16.760  -5.622  1.00 20.00     0.058 C 
HETATM    4  C6  UNL     1     -35.688  16.598  -5.703  1.00 20.00     0.058 C 
HETATM    5  C9  UNL     1     -34.617  16.150  -4.683  1.00 20.00     0.246 C 
HETATM    6  N10 UNL     1     -34.453  13.613  -4.139  1.00 20.00    -0.194 NA
ENDROOT
BRANCH   5   7
HETATM    7  N11 UNL     1     -34.726  16.969  -3.470  1.00 20.00     0.112 N 
HETATM    8  C7  UNL     1     -35.843  16.520  -2.638  1.00 20.00     0.275 C 
HETATM    9  C3  UNL     1     -35.526  17.133  -1.282  1.00 20.00     0.032 C 
HETATM   10  C4  UNL     1     -34.013  17.329  -1.277  1.00 20.00     0.032 C 
HETATM   11  C8  UNL     1     -33.540  16.813  -2.627  1.00 20.00     0.275 C 
ENDBRANCH   5   7
TORSDOF 1
ENDMDL
MODEL 5
REMARK VINA RESULT:      -4.0      2.180      3.102
REMARK  1 active torsions:
REMARK  status: ('A' for Active; 'I' for Inactive)
REMARK    1  A    between atoms: C9_9  and  N11_11 
ROOT
HETATM    1  C1  UNL     1     -34.996  17.176  -4.816  1.00 20.00     0.102 C 
HETATM    2  C2  UNL     1     -33.986  14.375  -5.404  1.00 20.00     0.007 C 
HETATM    3  C5  UNL     1     -35.082  14.661  -4.352  1.00 20.00     0.058 C 
HETATM    4  C6  UNL     1     -33.118  15.446  -4.706  1.00 20.00     0.058 C 
HETATM    5  C9  UNL     1     -34.425  16.043  -4.135  1.00 20.00     0.246 C 
HETATM    6  N10 UNL     1     -35.456  18.089  -5.363  1.00 20.00    -0.194 NA
ENDROOT
BRANCH   5   7
HETATM    7  N11 UNL     1     -34.261  16.286  -2.697  1.00 20.00     0.112 N 
HETATM    8  C7  UNL     1     -33.395  17.441  -2.460  1.00 20.00     0.275 C 
HETATM    9  C3  UNL     1     -33.708  17.813  -1.019  1.00 20.00     0.032 C 
HETATM   10  C4  UNL     1     -35.117  17.283  -0.768  1.00 20.00     0.032 C 
HETATM   11  C8  UNL     1     -35.540  16.640  -2.080  1.00 20.00     0.275 C 
ENDBRANCH   5   7
TORSDOF 1
ENDMDL
MODEL 6
REMARK VINA RESULT:      -4.0      1.728      2.708
REMARK  1 active torsions:
REMARK  status: ('A' for Active; 'I' for Inactive)
REMARK    1  A    between atoms: C9_9  and  N11_11 
ROOT
HETATM    1  C1  UNL     1     -35.445  16.617  -5.564  1.00 20.00     0.102 C 
HETATM    2  C2  UNL     1     -35.571  13.606  -5.929  1.00 20.00     0.007 C 
HETATM    3  C5  UNL     1     -36.373  14.346  -4.834  1.00 20.00     0.058 C 
HETATM    4  C6  UNL     1     -34.308  14.333  -5.414  1.00 20.00     0.058 C 
HETATM    5  C9  UNL     1     -35.247  15.404  -4.813  1.00 20.00     0.246 C 
HETATM    6  N10 UNL     1     -35.605  17.593  -6.168  1.00 20.00    -0.194 NA
ENDROOT
BRANCH   5   7
HETATM    7  N11 UNL     1     -34.853  15.671  -3.425  1.00 20.00     0.112 N 
HETATM    8  C7  UNL     1     -33.651  16.505  -3.376  1.00 20.00     0.275 C 
HETATM    9  C3  UNL     1     -33.668  17.046  -1.954  1.00 20.00     0.032 C 
HETATM   10  C4  UNL     1     -35.134  17.006  -1.530  1.00 20.00     0.032 C 
HETATM   11  C8  UNL     1     -35.881  16.450  -2.733  1.00 20.00     0.275 C 
ENDBRANCH   5   7
TORSDOF 1
ENDMDL
MODEL 7
REMARK VINA RESULT:      -3.9      1.474      3.612
REMARK  1 active torsions:
REMARK  status: ('A' for Active; 'I' for Inactive)
REMARK    1  A    between atoms: C9_9  and  N11_11 
ROOT
HETATM    1  C1  UNL     1     -33.585  14.638  -4.226  1.00 20.00     0.102 C 
HETATM    2  C2  UNL     1     -33.624  17.234  -2.653  1.00 20.00     0.007 C 
HETATM    3  C5  UNL     1     -34.811  16.243  -2.654  1.00 20.00     0.058 C 
HETATM    4  C6  UNL     1     -33.664  17.193  -4.197  1.00 20.00     0.058 C 
HETATM    5  C9  UNL     1     -34.382  15.829  -4.079  1.00 20.00     0.246 C 
HETATM    6  N10 UNL     1     -32.943  13.680  -4.343  1.00 20.00    -0.194 NA
ENDROOT
BRANCH   5   7
HETATM    7  N11 UNL     1     -35.556  15.820  -4.960  1.00 20.00     0.112 N 
HETATM    8  C7  UNL     1     -35.156  15.671  -6.359  1.00 20.00     0.275 C 
HETATM    9  C3  UNL     1     -36.443  15.225  -7.037  1.00 20.00     0.032 C 
HETATM   10  C4  UNL     1     -37.265  14.563  -5.935  1.00 20.00     0.032 C 
HETATM   11  C8  UNL     1     -36.404  14.659  -4.684  1.00 20.00     0.275 C 
ENDBRANCH   5   7
TORSDOF 1
ENDMDL
MODEL 8
REMARK VINA RESULT:      -3.9      1.360      2.628
REMARK  1 active torsions:
REMARK  status: ('A' for Active; 'I' for Inactive)
REMARK    1  A    between atoms: C9_9  and  N11_11 
ROOT
HETATM    1  C1  UNL     1     -35.516  13.858  -5.177  1.00 20.00     0.102 C 
HETATM    2  C2  UNL     1     -32.879  15.322  -4.833  1.00 20.00     0.007 C 
HETATM    3  C5  UNL     1     -34.056  15.484  -3.844  1.00 20.00     0.058 C 
HETATM    4  C6  UNL     1     -33.870  15.644  -5.974  1.00 20.00     0.058 C 
HETATM    5  C9  UNL     1     -35.007  15.198  -5.027  1.00 20.00     0.246 C 
HETATM    6  N10 UNL     1     -35.924  12.780  -5.297  1.00 20.00    -0.194 NA
ENDROOT
BRANCH   5   7
HETATM    7  N11 UNL     1     -36.078  16.201  -5.047  1.00 20.00     0.112 N 
HETATM    8  C7  UNL     1     -36.830  16.135  -6.301  1.00 20.00     0.275 C 
HETATM    9  C3  UNL     1     -38.118  16.871  -5.966  1.00 20.00     0.032 C 
HETATM   10  C4  UNL     1     -38.271  16.739  -4.454  1.00 20.00     0.032 C 
HETATM   11  C8  UNL     1     -37.065  15.929  -4.001  1.00 20.00     0.275 C 
ENDBRANCH   5   7
TORSDOF 1
ENDMDL
MODEL 9
REMARK VINA RESULT:      -3.8      1.655      3.957
REMARK  1 active torsions:
REMARK  status: ('A' for Active; 'I' for Inactive)
REMARK    1  A    between atoms: C9_9  and  N11_11 
ROOT
HETATM    1  C1  UNL     1     -35.398  17.483  -4.535  1.00 20.00     0.102 C 
HETATM    2  C2  UNL     1     -34.053  17.030  -1.852  1.00 20.00     0.007 C 
HETATM    3  C5  UNL     1     -33.666  16.237  -3.121  1.00 20.00     0.058 C 
HETATM    4  C6  UNL     1     -35.523  16.640  -2.125  1.00 20.00     0.058 C 
HETATM    5  C9  UNL     1     -35.123  16.420  -3.602  1.00 20.00     0.246 C 
HETATM    6  N10 UNL     1     -35.618  18.339  -5.285  1.00 20.00    -0.194 NA
ENDROOT
BRANCH   5   7
HETATM    7  N11 UNL     1     -35.652  15.131  -4.062  1.00 20.00     0.112 N 
HETATM    8  C7  UNL     1     -37.059  15.252  -4.446  1.00 20.00     0.275 C 
HETATM    9  C3  UNL     1     -37.289  14.013  -5.297  1.00 20.00     0.032 C 
HETATM   10  C4  UNL     1     -35.912  13.642  -5.842  1.00 20.00     0.032 C 
HETATM   11  C8  UNL     1     -34.966  14.691  -5.279  1.00 20.00     0.275 C 
ENDBRANCH   5   7
TORSDOF 1
ENDMDL
