MODEL 1
REMARK VINA RESULT:      -4.7      0.000      0.000
REMARK  5 active torsions:
REMARK  status: ('A' for Active; 'I' for Inactive)
REMARK    1  A    between atoms: C1_1  and  C9_9 
REMARK    2  A    between atoms: C1_1  and  O11_11 
REMARK    3  A    between atoms: C6_6  and  C7_7 
REMARK    4  A    between atoms: C7_7  and  C9_9 
REMARK    5  A    between atoms: C8_8  and  O11_11 
ROOT
HETATM    1  C4  UNL     1     -34.315   6.325   1.346  1.00 20.00     0.025 C 
HETATM    2  C5  UNL     1     -32.919   4.762   2.695  1.00 20.00     0.025 C 
HETATM    3  C9  UNL     1     -33.739   6.064   2.749  1.00 20.00     0.041 C 
ENDROOT
BRANCH   3   4
HETATM    4  C1  UNL     1     -32.817   7.235   3.113  1.00 20.00     0.266 C 
HETATM    5  O10 UNL     1     -32.618   7.629   4.257  1.00 20.00    -0.264 OA
BRANCH   4   6
HETATM    6  O11 UNL     1     -32.247   7.765   1.990  1.00 20.00    -0.321 OA
BRANCH   6   7
HETATM    7  C8  UNL     1     -32.152   9.192   1.957  1.00 20.00     0.174 C 
HETATM    8  C3  UNL     1     -32.514   9.678   0.570  1.00 20.00     0.034 C 
ENDBRANCH   6   7
ENDBRANCH   4   6
ENDBRANCH   3   4
BRANCH   3   9
HETATM    9  C7  UNL     1     -34.903   5.940   3.766  1.00 20.00     0.018 C 
BRANCH   9  10
HETATM   10  C6  UNL     1     -34.837   4.705   4.672  1.00 20.00    -0.003 C 
HETATM   11  C2  UNL     1     -34.547   5.095   6.115  1.00 20.00     0.005 C 
ENDBRANCH   9  10
ENDBRANCH   3   9
TORSDOF 5
ENDMDL
MODEL 2
REMARK VINA RESULT:      -4.6      1.134      1.336
REMARK  5 active torsions:
REMARK  status: ('A' for Active; 'I' for Inactive)
REMARK    1  A    between atoms: C1_1  and  C9_9 
REMARK    2  A    between atoms: C1_1  and  O11_11 
REMARK    3  A    between atoms: C6_6  and  C7_7 
REMARK    4  A    between atoms: C7_7  and  C9_9 
REMARK    5  A    between atoms: C8_8  and  O11_11 
ROOT
HETATM    1  C4  UNL     1     -34.692   7.051   2.942  1.00 20.00     0.025 C 
HETATM    2  C5  UNL     1     -32.869   5.351   2.922  1.00 20.00     0.025 C 
HETATM    3  C9  UNL     1     -33.264   6.750   3.431  1.00 20.00     0.041 C 
ENDROOT
BRANCH   3   4
HETATM    4  C1  UNL     1     -32.320   7.799   2.828  1.00 20.00     0.266 C 
HETATM    5  O10 UNL     1     -31.345   8.266   3.406  1.00 20.00    -0.264 OA
BRANCH   4   6
HETATM    6  O11 UNL     1     -32.715   8.130   1.563  1.00 20.00    -0.321 OA
BRANCH   6   7
HETATM    7  C8  UNL     1     -31.944   9.149   0.919  1.00 20.00     0.174 C 
HETATM    8  C3  UNL     1     -32.678  10.468   1.033  1.00 20.00     0.034 C 
ENDBRANCH   6   7
ENDBRANCH   4   6
ENDBRANCH   3   4
BRANCH   3   9
HETATM    9  C7  UNL     1     -33.231   6.802   4.980  1.00 20.00     0.018 C 
BRANCH   9  10
HETATM   10  C6  UNL     1     -34.522   6.338   5.667  1.00 20.00    -0.003 C 
HETATM   11  C2  UNL     1     -34.560   4.822   5.800  1.00 20.00     0.005 C 
ENDBRANCH   9  10
ENDBRANCH   3   9
TORSDOF 5
ENDMDL
MODEL 3
REMARK VINA RESULT:      -4.6      1.565      4.558
REMARK  5 active torsions:
REMARK  status: ('A' for Active; 'I' for Inactive)
REMARK    1  A    between atoms: C1_1  and  C9_9 
REMARK    2  A    between atoms: C1_1  and  O11_11 
REMARK    3  A    between atoms: C6_6  and  C7_7 
REMARK    4  A    between atoms: C7_7  and  C9_9 
REMARK    5  A    between atoms: C8_8  and  O11_11 
ROOT
HETATM    1  C4  UNL     1     -31.310   8.023   3.445  1.00 20.00     0.025 C 
HETATM    2  C5  UNL     1     -32.542   6.134   2.383  1.00 20.00     0.025 C 
HETATM    3  C9  UNL     1     -32.711   7.483   3.104  1.00 20.00     0.041 C 
ENDROOT
BRANCH   3   4
HETATM    4  C1  UNL     1     -33.474   7.269   4.419  1.00 20.00     0.266 C 
HETATM    5  O10 UNL     1     -33.141   7.748   5.497  1.00 20.00    -0.264 OA
BRANCH   4   6
HETATM    6  O11 UNL     1     -34.571   6.480   4.215  1.00 20.00    -0.321 OA
BRANCH   6   7
HETATM    7  C8  UNL     1     -34.769   5.435   5.171  1.00 20.00     0.174 C 
HETATM    8  C3  UNL     1     -34.362   4.115   4.551  1.00 20.00     0.034 C 
ENDBRANCH   6   7
ENDBRANCH   4   6
ENDBRANCH   3   4
BRANCH   3   9
HETATM    9  C7  UNL     1     -33.447   8.504   2.199  1.00 20.00     0.018 C 
BRANCH   9  10
HETATM   10  C6  UNL     1     -32.526   9.422   1.384  1.00 20.00    -0.003 C 
HETATM   11  C2  UNL     1     -32.917   9.426  -0.088  1.00 20.00     0.005 C 
ENDBRANCH   9  10
ENDBRANCH   3   9
TORSDOF 5
ENDMDL
MODEL 4
REMARK VINA RESULT:      -4.2      1.830      4.130
REMARK  5 active torsions:
REMARK  status: ('A' for Active; 'I' for Inactive)
REMARK    1  A    between atoms: C1_1  and  C9_9 
REMARK    2  A    between atoms: C1_1  and  O11_11 
REMARK    3  A    between atoms: C6_6  and  C7_7 
REMARK    4  A    between atoms: C7_7  and  C9_9 
REMARK    5  A    between atoms: C8_8  and  O11_11 
ROOT
HETATM    1  C4  UNL     1     -32.805   4.344   2.096  1.00 20.00     0.025 C 
HETATM    2  C5  UNL     1     -34.590   6.037   1.697  1.00 20.00     0.025 C 
HETATM    3  C9  UNL     1     -33.555   5.535   2.720  1.00 20.00     0.041 C 
ENDROOT
BRANCH   3   4
HETATM    4  C1  UNL     1     -34.278   5.039   3.979  1.00 20.00     0.266 C 
HETATM    5  O10 UNL     1     -34.316   3.868   4.338  1.00 20.00    -0.264 OA
BRANCH   4   6
HETATM    6  O11 UNL     1     -34.864   6.082   4.639  1.00 20.00    -0.321 OA
BRANCH   6   7
HETATM    7  C8  UNL     1     -34.473   6.249   6.005  1.00 20.00     0.174 C 
HETATM    8  C3  UNL     1     -33.650   7.514   6.130  1.00 20.00     0.034 C 
ENDBRANCH   6   7
ENDBRANCH   4   6
ENDBRANCH   3   4
BRANCH   3   9
HETATM    9  C7  UNL     1     -32.539   6.653   3.070  1.00 20.00     0.018 C 
BRANCH   9  10
HETATM   10  C6  UNL     1     -32.874   8.032   2.488  1.00 20.00    -0.003 C 
HETATM   11  C2  UNL     1     -31.744   8.547   1.608  1.00 20.00     0.005 C 
ENDBRANCH   9  10
ENDBRANCH   3   9
TORSDOF 5
ENDMDL
MODEL 5
REMARK VINA RESULT:      -4.2      1.473      4.688
REMARK  5 active torsions:
REMARK  status: ('A' for Active; 'I' for Inactive)
REMARK    1  A    between atoms: C1_1  and  C9_9 
REMARK    2  A    between atoms: C1_1  and  O11_11 
REMARK    3  A    between atoms: C6_6  and  C7_7 
REMARK    4  A    between atoms: C7_7  and  C9_9 
REMARK    5  A    between atoms: C8_8  and  O11_11 
ROOT
HETATM    1  C4  UNL     1     -33.922   8.656   3.101  1.00 20.00     0.025 C 
HETATM    2  C5  UNL     1     -31.672   7.925   3.885  1.00 20.00     0.025 C 
HETATM    3  C9  UNL     1     -32.752   7.698   2.812  1.00 20.00     0.041 C 
ENDROOT
BRANCH   3   4
HETATM    4  C1  UNL     1     -33.277   6.259   2.912  1.00 20.00     0.266 C 
HETATM    5  O10 UNL     1     -32.630   5.264   2.604  1.00 20.00    -0.264 OA
BRANCH   4   6
HETATM    6  O11 UNL     1     -34.555   6.246   3.395  1.00 20.00    -0.321 OA
BRANCH   6   7
HETATM    7  C8  UNL     1     -34.821   5.285   4.421  1.00 20.00     0.174 C 
HETATM    8  C3  UNL     1     -34.432   5.873   5.760  1.00 20.00     0.034 C 
ENDBRANCH   6   7
ENDBRANCH   4   6
ENDBRANCH   3   4
BRANCH   3   9
HETATM    9  C7  UNL     1     -32.192   7.985   1.396  1.00 20.00     0.018 C 
BRANCH   9  10
HETATM   10  C6  UNL     1     -32.357   9.434   0.921  1.00 20.00    -0.003 C 
HETATM   11  C2  UNL     1     -33.093   9.496  -0.411  1.00 20.00     0.005 C 
ENDBRANCH   9  10
ENDBRANCH   3   9
TORSDOF 5
ENDMDL
MODEL 6
REMARK VINA RESULT:      -4.1      1.249      1.967
REMARK  5 active torsions:
REMARK  status: ('A' for Active; 'I' for Inactive)
REMARK    1  A    between atoms: C1_1  and  C9_9 
REMARK    2  A    between atoms: C1_1  and  O11_11 
REMARK    3  A    between atoms: C6_6  and  C7_7 
REMARK    4  A    between atoms: C7_7  and  C9_9 
REMARK    5  A    between atoms: C8_8  and  O11_11 
ROOT
HETATM    1  C4  UNL     1     -33.198   7.541   5.286  1.00 20.00     0.025 C 
HETATM    2  C5  UNL     1     -34.706   7.673   3.306  1.00 20.00     0.025 C 
HETATM    3  C9  UNL     1     -33.341   7.161   3.802  1.00 20.00     0.041 C 
ENDROOT
BRANCH   3   4
HETATM    4  C1  UNL     1     -32.219   7.855   3.019  1.00 20.00     0.266 C 
HETATM    5  O10 UNL     1     -31.159   8.224   3.511  1.00 20.00    -0.264 OA
BRANCH   4   6
HETATM    6  O11 UNL     1     -32.566   7.997   1.705  1.00 20.00    -0.321 OA
BRANCH   6   7
HETATM    7  C8  UNL     1     -31.919   9.063   1.004  1.00 20.00     0.174 C 
HETATM    8  C3  UNL     1     -32.757  10.317   1.132  1.00 20.00     0.034 C 
ENDBRANCH   6   7
ENDBRANCH   4   6
ENDBRANCH   3   4
BRANCH   3   9
HETATM    9  C7  UNL     1     -33.245   5.620   3.656  1.00 20.00     0.018 C 
BRANCH   9  10
HETATM   10  C6  UNL     1     -34.518   4.857   4.044  1.00 20.00    -0.003 C 
HETATM   11  C2  UNL     1     -34.554   4.572   5.540  1.00 20.00     0.005 C 
ENDBRANCH   9  10
ENDBRANCH   3   9
TORSDOF 5
ENDMDL
MODEL 7
REMARK VINA RESULT:      -4.0     10.832     11.938
REMARK  5 active torsions:
REMARK  status: ('A' for Active; 'I' for Inactive)
REMARK    1  A    between atoms: C1_1  and  C9_9 
REMARK    2  A    between atoms: C1_1  and  O11_11 
REMARK    3  A    between atoms: C6_6  and  C7_7 
REMARK    4  A    between atoms: C7_7  and  C9_9 
REMARK    5  A    between atoms: C8_8  and  O11_11 
ROOT
HETATM    1  C4  UNL     1     -33.192  14.288  -4.309  1.00 20.00     0.025 C 
HETATM    2  C5  UNL     1     -34.065  15.209  -6.454  1.00 20.00     0.025 C 
HETATM    3  C9  UNL     1     -34.397  14.981  -4.968  1.00 20.00     0.041 C 
ENDROOT
BRANCH   3   4
HETATM    4  C1  UNL     1     -35.609  14.046  -4.852  1.00 20.00     0.266 C 
HETATM    5  O10 UNL     1     -35.587  12.850  -5.118  1.00 20.00    -0.264 OA
BRANCH   4   6
HETATM    6  O11 UNL     1     -36.704  14.732  -4.407  1.00 20.00    -0.321 OA
BRANCH   6   7
HETATM    7  C8  UNL     1     -37.914  14.509  -5.137  1.00 20.00     0.174 C 
HETATM    8  C3  UNL     1     -37.860  15.291  -6.432  1.00 20.00     0.034 C 
ENDBRANCH   6   7
ENDBRANCH   4   6
ENDBRANCH   3   4
BRANCH   3   9
HETATM    9  C7  UNL     1     -34.668  16.328  -4.251  1.00 20.00     0.018 C 
BRANCH   9  10
HETATM   10  C6  UNL     1     -34.006  16.469  -2.875  1.00 20.00    -0.003 C 
HETATM   11  C2  UNL     1     -35.044  16.700  -1.785  1.00 20.00     0.005 C 
ENDBRANCH   9  10
ENDBRANCH   3   9
TORSDOF 5
ENDMDL
MODEL 8
REMARK VINA RESULT:      -4.0     11.000     12.014
REMARK  5 active torsions:
REMARK  status: ('A' for Active; 'I' for Inactive)
REMARK    1  A    between atoms: C1_1  and  C9_9 
REMARK    2  A    between atoms: C1_1  and  O11_11 
REMARK    3  A    between atoms: C6_6  and  C7_7 
REMARK    4  A    between atoms: C7_7  and  C9_9 
REMARK    5  A    between atoms: C8_8  and  O11_11 
ROOT
HETATM    1  C4  UNL     1     -32.941  14.476  -4.194  1.00 20.00     0.025 C 
HETATM    2  C5  UNL     1     -33.568  16.651  -5.238  1.00 20.00     0.025 C 
HETATM    3  C9  UNL     1     -34.094  15.476  -4.393  1.00 20.00     0.041 C 
ENDROOT
BRANCH   3   4
HETATM    4  C1  UNL     1     -35.220  14.763  -5.153  1.00 20.00     0.266 C 
HETATM    5  O10 UNL     1     -36.358  15.202  -5.275  1.00 20.00    -0.264 OA
BRANCH   4   6
HETATM    6  O11 UNL     1     -34.774  13.581  -5.676  1.00 20.00    -0.321 OA
BRANCH   6   7
HETATM    7  C8  UNL     1     -35.091  13.353  -7.052  1.00 20.00     0.174 C 
HETATM    8  C3  UNL     1     -34.119  14.127  -7.917  1.00 20.00     0.034 C 
ENDBRANCH   6   7
ENDBRANCH   4   6
ENDBRANCH   3   4
BRANCH   3   9
HETATM    9  C7  UNL     1     -34.588  15.970  -3.009  1.00 20.00     0.018 C 
BRANCH   9  10
HETATM   10  C6  UNL     1     -33.648  16.958  -2.306  1.00 20.00    -0.003 C 
HETATM   11  C2  UNL     1     -34.258  17.468  -1.007  1.00 20.00     0.005 C 
ENDBRANCH   9  10
ENDBRANCH   3   9
TORSDOF 5
ENDMDL
MODEL 9
REMARK VINA RESULT:      -4.0     11.086     12.041
REMARK  5 active torsions:
REMARK  status: ('A' for Active; 'I' for Inactive)
REMARK    1  A    between atoms: C1_1  and  C9_9 
REMARK    2  A    between atoms: C1_1  and  O11_11 
REMARK    3  A    between atoms: C6_6  and  C7_7 
REMARK    4  A    between atoms: C7_7  and  C9_9 
REMARK    5  A    between atoms: C8_8  and  O11_11 
ROOT
HETATM    1  C4  UNL     1     -33.457  16.419  -4.905  1.00 20.00     0.025 C 
HETATM    2  C5  UNL     1     -35.923  16.710  -5.119  1.00 20.00     0.025 C 
HETATM    3  C9  UNL     1     -34.820  15.913  -4.399  1.00 20.00     0.041 C 
ENDROOT
BRANCH   3   4
HETATM    4  C1  UNL     1     -34.943  14.427  -4.762  1.00 20.00     0.266 C 
HETATM    5  O10 UNL     1     -34.453  13.513  -4.109  1.00 20.00    -0.264 OA
BRANCH   4   6
HETATM    6  O11 UNL     1     -35.678  14.270  -5.903  1.00 20.00    -0.321 OA
BRANCH   6   7
HETATM    7  C8  UNL     1     -35.142  13.357  -6.866  1.00 20.00     0.174 C 
HETATM    8  C3  UNL     1     -34.211  14.109  -7.792  1.00 20.00     0.034 C 
ENDBRANCH   6   7
ENDBRANCH   4   6
ENDBRANCH   3   4
BRANCH   3   9
HETATM    9  C7  UNL     1     -34.905  16.117  -2.865  1.00 20.00     0.018 C 
BRANCH   9  10
HETATM   10  C6  UNL     1     -33.750  16.923  -2.258  1.00 20.00    -0.003 C 
HETATM   11  C2  UNL     1     -34.163  17.574  -0.945  1.00 20.00     0.005 C 
ENDBRANCH   9  10
ENDBRANCH   3   9
TORSDOF 5
ENDMDL
