MODEL 1
REMARK VINA RESULT:      -3.9      0.000      0.000
REMARK  1 active torsions:
REMARK  status: ('A' for Active; 'I' for Inactive)
REMARK    1  A    between atoms: C3_3  and  C8_8 
ROOT
HETATM    1  C1  UNL     1     -34.145  16.158  -5.136  1.00 20.00     0.017 C 
HETATM    2  C2  UNL     1     -35.453  15.403  -4.961  1.00 20.00     0.092 C 
HETATM    3  C3  UNL     1     -34.836  17.290  -3.298  1.00 20.00     0.173 C 
HETATM    4  C4  UNL     1     -33.238  15.786  -6.275  1.00 20.00     0.066 C 
HETATM    5  C5  UNL     1     -35.210  13.960  -4.550  1.00 20.00     0.028 C 
HETATM    6  N9  UNL     1     -33.786  17.091  -4.309  1.00 20.00    -0.282 NA
HETATM    7  S10 UNL     1     -36.309  16.299  -3.647  1.00 20.00    -0.131 SA
ENDROOT
BRANCH   3   8
HETATM    8  C8  UNL     1     -34.270  16.928  -1.930  1.00 20.00     0.012 C 
HETATM    9  C6  UNL     1     -33.039  17.776  -1.612  1.00 20.00     0.012 C 
HETATM   10  C7  UNL     1     -35.331  17.099  -0.843  1.00 20.00     0.012 C 
ENDBRANCH   3   8
TORSDOF 1
ENDMDL
MODEL 2
REMARK VINA RESULT:      -3.9      2.343      4.664
REMARK  1 active torsions:
REMARK  status: ('A' for Active; 'I' for Inactive)
REMARK    1  A    between atoms: C3_3  and  C8_8 
ROOT
HETATM    1  C1  UNL     1     -34.999  15.010  -4.165  1.00 20.00     0.017 C 
HETATM    2  C2  UNL     1     -36.367  15.665  -4.259  1.00 20.00     0.092 C 
HETATM    3  C3  UNL     1     -35.942  13.416  -5.473  1.00 20.00     0.173 C 
HETATM    4  C4  UNL     1     -33.922  15.689  -3.367  1.00 20.00     0.066 C 
HETATM    5  C5  UNL     1     -36.312  16.952  -5.067  1.00 20.00     0.028 C 
HETATM    6  N9  UNL     1     -34.736  13.897  -4.780  1.00 20.00    -0.282 NA
HETATM    7  S10 UNL     1     -37.389  14.435  -5.099  1.00 20.00    -0.131 SA
ENDROOT
BRANCH   3   8
HETATM    8  C8  UNL     1     -35.673  13.413  -6.972  1.00 20.00     0.012 C 
HETATM    9  C6  UNL     1     -36.641  14.346  -7.697  1.00 20.00     0.012 C 
HETATM   10  C7  UNL     1     -34.226  13.814  -7.263  1.00 20.00     0.012 C 
ENDBRANCH   3   8
TORSDOF 1
ENDMDL
MODEL 3
REMARK VINA RESULT:      -3.8      1.589      4.332
REMARK  1 active torsions:
REMARK  status: ('A' for Active; 'I' for Inactive)
REMARK    1  A    between atoms: C3_3  and  C8_8 
ROOT
HETATM    1  C1  UNL     1     -34.996  17.317  -1.607  1.00 20.00     0.017 C 
HETATM    2  C2  UNL     1     -33.948  18.350  -1.990  1.00 20.00     0.092 C 
HETATM    3  C3  UNL     1     -34.702  16.587  -3.733  1.00 20.00     0.173 C 
HETATM    4  C4  UNL     1     -35.569  17.345  -0.218  1.00 20.00     0.066 C 
HETATM    5  C5  UNL     1     -32.645  18.123  -1.240  1.00 20.00     0.028 C 
HETATM    6  N9  UNL     1     -35.381  16.400  -2.441  1.00 20.00    -0.282 NA
HETATM    7  S10 UNL     1     -33.709  18.099  -3.763  1.00 20.00    -0.131 SA
ENDROOT
BRANCH   3   8
HETATM    8  C8  UNL     1     -33.822  15.373  -4.000  1.00 20.00     0.012 C 
HETATM    9  C6  UNL     1     -34.670  14.111  -4.150  1.00 20.00     0.012 C 
HETATM   10  C7  UNL     1     -32.963  15.590  -5.246  1.00 20.00     0.012 C 
ENDBRANCH   3   8
TORSDOF 1
ENDMDL
MODEL 4
REMARK VINA RESULT:      -3.8     10.899     11.930
REMARK  1 active torsions:
REMARK  status: ('A' for Active; 'I' for Inactive)
REMARK    1  A    between atoms: C3_3  and  C8_8 
ROOT
HETATM    1  C1  UNL     1     -33.354   7.081   4.645  1.00 20.00     0.017 C 
HETATM    2  C2  UNL     1     -33.962   5.886   3.929  1.00 20.00     0.092 C 
HETATM    3  C3  UNL     1     -32.149   7.303   2.737  1.00 20.00     0.173 C 
HETATM    4  C4  UNL     1     -33.824   7.412   6.033  1.00 20.00     0.066 C 
HETATM    5  C5  UNL     1     -35.422   6.129   3.584  1.00 20.00     0.028 C 
HETATM    6  N9  UNL     1     -32.463   7.833   4.073  1.00 20.00    -0.282 NA
HETATM    7  S10 UNL     1     -32.975   5.723   2.425  1.00 20.00    -0.131 SA
ENDROOT
BRANCH   3   8
HETATM    8  C8  UNL     1     -32.568   8.331   1.695  1.00 20.00     0.012 C 
HETATM    9  C6  UNL     1     -32.844   9.684   2.349  1.00 20.00     0.012 C 
HETATM   10  C7  UNL     1     -31.498   8.471   0.611  1.00 20.00     0.012 C 
ENDBRANCH   3   8
TORSDOF 1
ENDMDL
MODEL 5
REMARK VINA RESULT:      -3.8      1.758      2.596
REMARK  1 active torsions:
REMARK  status: ('A' for Active; 'I' for Inactive)
REMARK    1  A    between atoms: C3_3  and  C8_8 
ROOT
HETATM    1  C1  UNL     1     -35.112  14.538  -4.995  1.00 20.00     0.017 C 
HETATM    2  C2  UNL     1     -34.704  15.446  -6.144  1.00 20.00     0.092 C 
HETATM    3  C3  UNL     1     -33.708  15.845  -3.786  1.00 20.00     0.173 C 
HETATM    4  C4  UNL     1     -36.089  13.428  -5.258  1.00 20.00     0.066 C 
HETATM    5  C5  UNL     1     -35.863  16.315  -6.603  1.00 20.00     0.028 C 
HETATM    6  N9  UNL     1     -34.658  14.721  -3.793  1.00 20.00    -0.282 NA
HETATM    7  S10 UNL     1     -33.383  16.466  -5.454  1.00 20.00    -0.131 SA
ENDROOT
BRANCH   3   8
HETATM    8  C8  UNL     1     -34.275  16.956  -2.911  1.00 20.00     0.012 C 
HETATM    9  C6  UNL     1     -35.538  16.486  -2.191  1.00 20.00     0.012 C 
HETATM   10  C7  UNL     1     -33.233  17.436  -1.902  1.00 20.00     0.012 C 
ENDBRANCH   3   8
TORSDOF 1
ENDMDL
MODEL 6
REMARK VINA RESULT:      -3.7      2.282      3.183
REMARK  1 active torsions:
REMARK  status: ('A' for Active; 'I' for Inactive)
REMARK    1  A    between atoms: C3_3  and  C8_8 
ROOT
HETATM    1  C1  UNL     1     -34.720  14.018  -6.450  1.00 20.00     0.017 C 
HETATM    2  C2  UNL     1     -33.825  15.193  -6.808  1.00 20.00     0.092 C 
HETATM    3  C3  UNL     1     -34.086  14.493  -4.326  1.00 20.00     0.173 C 
HETATM    4  C4  UNL     1     -35.436  13.289  -7.552  1.00 20.00     0.066 C 
HETATM    5  C5  UNL     1     -34.635  16.371  -7.322  1.00 20.00     0.028 C 
HETATM    6  N9  UNL     1     -34.900  13.652  -5.218  1.00 20.00    -0.282 NA
HETATM    7  S10 UNL     1     -33.011  15.617  -5.252  1.00 20.00    -0.131 SA
ENDROOT
BRANCH   3   8
HETATM    8  C8  UNL     1     -35.018  15.285  -3.419  1.00 20.00     0.012 C 
HETATM    9  C6  UNL     1     -34.385  16.618  -3.022  1.00 20.00     0.012 C 
HETATM   10  C7  UNL     1     -36.367  15.518  -4.100  1.00 20.00     0.012 C 
ENDBRANCH   3   8
TORSDOF 1
ENDMDL
MODEL 7
REMARK VINA RESULT:      -3.7      2.005      4.126
REMARK  1 active torsions:
REMARK  status: ('A' for Active; 'I' for Inactive)
REMARK    1  A    between atoms: C3_3  and  C8_8 
ROOT
HETATM    1  C1  UNL     1     -33.664  16.946  -4.922  1.00 20.00     0.017 C 
HETATM    2  C2  UNL     1     -33.532  16.119  -3.653  1.00 20.00     0.092 C 
HETATM    3  C3  UNL     1     -33.835  14.923  -5.932  1.00 20.00     0.173 C 
HETATM    4  C4  UNL     1     -33.617  18.444  -4.822  1.00 20.00     0.066 C 
HETATM    5  C5  UNL     1     -34.745  16.289  -2.752  1.00 20.00     0.028 C 
HETATM    6  N9  UNL     1     -33.844  16.386  -6.080  1.00 20.00    -0.282 NA
HETATM    7  S10 UNL     1     -33.419  14.417  -4.245  1.00 20.00    -0.131 SA
ENDROOT
BRANCH   3   8
HETATM    8  C8  UNL     1     -35.207  14.385  -6.319  1.00 20.00     0.012 C 
HETATM    9  C6  UNL     1     -35.114  13.517  -7.573  1.00 20.00     0.012 C 
HETATM   10  C7  UNL     1     -35.823  13.593  -5.166  1.00 20.00     0.012 C 
ENDBRANCH   3   8
TORSDOF 1
ENDMDL
MODEL 8
REMARK VINA RESULT:      -3.7      1.899      2.755
REMARK  1 active torsions:
REMARK  status: ('A' for Active; 'I' for Inactive)
REMARK    1  A    between atoms: C3_3  and  C8_8 
ROOT
HETATM    1  C1  UNL     1     -35.550  14.647  -5.609  1.00 20.00     0.017 C 
HETATM    2  C2  UNL     1     -34.084  14.676  -6.009  1.00 20.00     0.092 C 
HETATM    3  C3  UNL     1     -34.753  15.220  -3.566  1.00 20.00     0.173 C 
HETATM    4  C4  UNL     1     -36.580  14.303  -6.649  1.00 20.00     0.066 C 
HETATM    5  C5  UNL     1     -33.790  15.827  -6.958  1.00 20.00     0.028 C 
HETATM    6  N9  UNL     1     -35.930  14.939  -4.403  1.00 20.00    -0.282 NA
HETATM    7  S10 UNL     1     -33.205  14.905  -4.448  1.00 20.00    -0.131 SA
ENDROOT
BRANCH   3   8
HETATM    8  C8  UNL     1     -34.814  16.672  -3.111  1.00 20.00     0.012 C 
HETATM    9  C6  UNL     1     -35.204  16.762  -1.636  1.00 20.00     0.012 C 
HETATM   10  C7  UNL     1     -33.476  17.371  -3.353  1.00 20.00     0.012 C 
ENDBRANCH   3   8
TORSDOF 1
ENDMDL
MODEL 9
REMARK VINA RESULT:      -3.6      2.159      4.214
REMARK  1 active torsions:
REMARK  status: ('A' for Active; 'I' for Inactive)
REMARK    1  A    between atoms: C3_3  and  C8_8 
ROOT
HETATM    1  C1  UNL     1     -34.549  16.034  -4.141  1.00 20.00     0.017 C 
HETATM    2  C2  UNL     1     -33.224  15.642  -4.775  1.00 20.00     0.092 C 
HETATM    3  C3  UNL     1     -35.360  15.741  -6.238  1.00 20.00     0.173 C 
HETATM    4  C4  UNL     1     -34.585  16.355  -2.673  1.00 20.00     0.066 C 
HETATM    5  C5  UNL     1     -32.746  14.290  -4.271  1.00 20.00     0.028 C 
HETATM    6  N9  UNL     1     -35.647  16.070  -4.832  1.00 20.00    -0.282 NA
HETATM    7  S10 UNL     1     -33.585  15.566  -6.543  1.00 20.00    -0.131 SA
ENDROOT
BRANCH   3   8
HETATM    8  C8  UNL     1     -36.085  14.449  -6.593  1.00 20.00     0.012 C 
HETATM    9  C6  UNL     1     -35.093  13.380  -7.049  1.00 20.00     0.012 C 
HETATM   10  C7  UNL     1     -36.905  13.945  -5.406  1.00 20.00     0.012 C 
ENDBRANCH   3   8
TORSDOF 1
ENDMDL
