MODEL 1
REMARK VINA RESULT:      -4.3      0.000      0.000
REMARK  2 active torsions:
REMARK  status: ('A' for Active; 'I' for Inactive)
REMARK    1  A    between atoms: C1_1  and  C8_8 
REMARK    2  A    between atoms: C9_9  and  N10_10 
ROOT
HETATM    1  C1  UNL     1     -33.220   7.176   3.478  1.00 20.00     0.092 C 
HETATM    2  N10 UNL     1     -33.177   7.548   2.244  1.00 20.00    -0.295 NA
ENDROOT
BRANCH   1   3
HETATM    3  C8  UNL     1     -34.159   6.082   3.968  1.00 20.00    -0.018 C 
HETATM    4  C2  UNL     1     -33.579   4.736   3.518  1.00 20.00     0.020 C 
HETATM    5  C3  UNL     1     -34.190   6.150   5.499  1.00 20.00     0.020 C 
HETATM    6  C4  UNL     1     -35.578   6.245   3.413  1.00 20.00     0.020 C 
ENDBRANCH   1   3
BRANCH   2   7
HETATM    7  C9  UNL     1     -32.206   8.611   2.004  1.00 20.00     0.042 C 
HETATM    8  C5  UNL     1     -32.961   9.931   1.851  1.00 20.00     0.039 C 
HETATM    9  C6  UNL     1     -31.264   8.665   3.208  1.00 20.00     0.039 C 
HETATM   10  C7  UNL     1     -31.429   8.277   0.730  1.00 20.00     0.039 C 
ENDBRANCH   2   7
TORSDOF 2
ENDMDL
MODEL 2
REMARK VINA RESULT:      -4.3      0.091      1.383
REMARK  2 active torsions:
REMARK  status: ('A' for Active; 'I' for Inactive)
REMARK    1  A    between atoms: C1_1  and  C8_8 
REMARK    2  A    between atoms: C9_9  and  N10_10 
ROOT
HETATM    1  C1  UNL     1     -33.266   7.160   3.518  1.00 20.00     0.092 C 
HETATM    2  N10 UNL     1     -33.123   7.444   2.268  1.00 20.00    -0.295 NA
ENDROOT
BRANCH   1   3
HETATM    3  C8  UNL     1     -34.170   6.033   4.000  1.00 20.00    -0.018 C 
HETATM    4  C2  UNL     1     -35.562   6.265   3.400  1.00 20.00     0.020 C 
HETATM    5  C3  UNL     1     -33.588   4.715   3.475  1.00 20.00     0.020 C 
HETATM    6  C4  UNL     1     -34.267   5.983   5.529  1.00 20.00     0.020 C 
ENDBRANCH   1   3
BRANCH   2   7
HETATM    7  C9  UNL     1     -32.211   8.560   2.040  1.00 20.00     0.042 C 
HETATM    8  C5  UNL     1     -33.036   9.840   1.905  1.00 20.00     0.039 C 
HETATM    9  C6  UNL     1     -31.271   8.650   3.242  1.00 20.00     0.039 C 
HETATM   10  C7  UNL     1     -31.421   8.284   0.761  1.00 20.00     0.039 C 
ENDBRANCH   2   7
TORSDOF 2
ENDMDL
MODEL 3
REMARK VINA RESULT:      -4.3      0.030      1.379
REMARK  2 active torsions:
REMARK  status: ('A' for Active; 'I' for Inactive)
REMARK    1  A    between atoms: C1_1  and  C8_8 
REMARK    2  A    between atoms: C9_9  and  N10_10 
ROOT
HETATM    1  C1  UNL     1     -33.225   7.158   3.501  1.00 20.00     0.092 C 
HETATM    2  N10 UNL     1     -33.171   7.527   2.267  1.00 20.00    -0.295 NA
ENDROOT
BRANCH   1   3
HETATM    3  C8  UNL     1     -34.166   6.062   3.985  1.00 20.00    -0.018 C 
HETATM    4  C2  UNL     1     -33.589   4.718   3.524  1.00 20.00     0.020 C 
HETATM    5  C3  UNL     1     -34.195   6.120   5.517  1.00 20.00     0.020 C 
HETATM    6  C4  UNL     1     -35.585   6.233   3.433  1.00 20.00     0.020 C 
ENDBRANCH   1   3
BRANCH   2   7
HETATM    7  C9  UNL     1     -32.200   8.592   2.034  1.00 20.00     0.042 C 
HETATM    8  C5  UNL     1     -31.250   8.650   3.229  1.00 20.00     0.039 C 
HETATM    9  C6  UNL     1     -31.435   8.257   0.753  1.00 20.00     0.039 C 
HETATM   10  C7  UNL     1     -32.958   9.910   1.877  1.00 20.00     0.039 C 
ENDBRANCH   2   7
TORSDOF 2
ENDMDL
MODEL 4
REMARK VINA RESULT:      -4.2      1.223      2.023
REMARK  2 active torsions:
REMARK  status: ('A' for Active; 'I' for Inactive)
REMARK    1  A    between atoms: C1_1  and  C8_8 
REMARK    2  A    between atoms: C9_9  and  N10_10 
ROOT
HETATM    1  C1  UNL     1     -32.854   7.480   2.235  1.00 20.00     0.092 C 
HETATM    2  N10 UNL     1     -33.397   8.594   1.882  1.00 20.00    -0.295 NA
ENDROOT
BRANCH   1   3
HETATM    3  C8  UNL     1     -33.524   6.516   3.206  1.00 20.00    -0.018 C 
HETATM    4  C2  UNL     1     -32.852   5.148   3.042  1.00 20.00     0.020 C 
HETATM    5  C3  UNL     1     -33.286   7.048   4.625  1.00 20.00     0.020 C 
HETATM    6  C4  UNL     1     -35.030   6.387   2.947  1.00 20.00     0.020 C 
ENDBRANCH   1   3
BRANCH   2   7
HETATM    7  C9  UNL     1     -32.576   9.356   0.946  1.00 20.00     0.042 C 
HETATM    8  C5  UNL     1     -31.188   8.717   0.890  1.00 20.00     0.039 C 
HETATM    9  C6  UNL     1     -33.251   9.298  -0.424  1.00 20.00     0.039 C 
HETATM   10  C7  UNL     1     -32.490  10.799   1.442  1.00 20.00     0.039 C 
ENDBRANCH   2   7
TORSDOF 2
ENDMDL
MODEL 5
REMARK VINA RESULT:      -4.2      1.214      4.436
REMARK  2 active torsions:
REMARK  status: ('A' for Active; 'I' for Inactive)
REMARK    1  A    between atoms: C1_1  and  C8_8 
REMARK    2  A    between atoms: C9_9  and  N10_10 
ROOT
HETATM    1  C1  UNL     1     -33.254   8.210   1.731  1.00 20.00     0.092 C 
HETATM    2  N10 UNL     1     -32.603   7.418   2.512  1.00 20.00    -0.295 NA
ENDROOT
BRANCH   1   3
HETATM    3  C8  UNL     1     -32.562   9.260   0.871  1.00 20.00    -0.018 C 
HETATM    4  C2  UNL     1     -31.101   8.829   0.699  1.00 20.00     0.020 C 
HETATM    5  C3  UNL     1     -33.265   9.279  -0.491  1.00 20.00     0.020 C 
HETATM    6  C4  UNL     1     -32.619  10.655   1.503  1.00 20.00     0.020 C 
ENDBRANCH   1   3
BRANCH   2   7
HETATM    7  C9  UNL     1     -33.470   6.496   3.239  1.00 20.00     0.042 C 
HETATM    8  C5  UNL     1     -33.509   6.923   4.706  1.00 20.00     0.039 C 
HETATM    9  C6  UNL     1     -34.865   6.578   2.618  1.00 20.00     0.039 C 
HETATM   10  C7  UNL     1     -32.902   5.085   3.098  1.00 20.00     0.039 C 
ENDBRANCH   2   7
TORSDOF 2
ENDMDL
MODEL 6
REMARK VINA RESULT:      -4.1      1.210      4.430
REMARK  2 active torsions:
REMARK  status: ('A' for Active; 'I' for Inactive)
REMARK    1  A    between atoms: C1_1  and  C8_8 
REMARK    2  A    between atoms: C9_9  and  N10_10 
ROOT
HETATM    1  C1  UNL     1     -33.254   8.252   1.782  1.00 20.00     0.092 C 
HETATM    2  N10 UNL     1     -32.603   7.353   2.438  1.00 20.00    -0.295 NA
ENDROOT
BRANCH   1   3
HETATM    3  C8  UNL     1     -32.561   9.278   0.896  1.00 20.00    -0.018 C 
HETATM    4  C2  UNL     1     -31.105   8.830   0.718  1.00 20.00     0.020 C 
HETATM    5  C3  UNL     1     -33.276   9.279  -0.460  1.00 20.00     0.020 C 
HETATM    6  C4  UNL     1     -32.598  10.686   1.502  1.00 20.00     0.020 C 
ENDBRANCH   1   3
BRANCH   2   7
HETATM    7  C9  UNL     1     -33.472   6.480   3.221  1.00 20.00     0.042 C 
HETATM    8  C5  UNL     1     -34.882   6.548   2.634  1.00 20.00     0.039 C 
HETATM    9  C6  UNL     1     -32.917   5.058   3.123  1.00 20.00     0.039 C 
HETATM   10  C7  UNL     1     -33.462   6.961   4.671  1.00 20.00     0.039 C 
ENDBRANCH   2   7
TORSDOF 2
ENDMDL
MODEL 7
REMARK VINA RESULT:      -4.1      1.188      4.423
REMARK  2 active torsions:
REMARK  status: ('A' for Active; 'I' for Inactive)
REMARK    1  A    between atoms: C1_1  and  C8_8 
REMARK    2  A    between atoms: C9_9  and  N10_10 
ROOT
HETATM    1  C1  UNL     1     -33.194   8.336   1.929  1.00 20.00     0.092 C 
HETATM    2  N10 UNL     1     -32.727   7.157   2.161  1.00 20.00    -0.295 NA
ENDROOT
BRANCH   1   3
HETATM    3  C8  UNL     1     -32.559   9.280   0.916  1.00 20.00    -0.018 C 
HETATM    4  C2  UNL     1     -32.583  10.691   1.517  1.00 20.00     0.020 C 
HETATM    5  C3  UNL     1     -31.110   8.827   0.706  1.00 20.00     0.020 C 
HETATM    6  C4  UNL     1     -33.303   9.276  -0.424  1.00 20.00     0.020 C 
ENDBRANCH   1   3
BRANCH   2   7
HETATM    7  C9  UNL     1     -33.492   6.431   3.170  1.00 20.00     0.042 C 
HETATM    8  C5  UNL     1     -34.968   6.463   2.773  1.00 20.00     0.039 C 
HETATM    9  C6  UNL     1     -32.976   4.993   3.205  1.00 20.00     0.039 C 
HETATM   10  C7  UNL     1     -33.278   7.112   4.521  1.00 20.00     0.039 C 
ENDBRANCH   2   7
TORSDOF 2
ENDMDL
MODEL 8
REMARK VINA RESULT:      -3.9      0.655      4.350
REMARK  2 active torsions:
REMARK  status: ('A' for Active; 'I' for Inactive)
REMARK    1  A    between atoms: C1_1  and  C8_8 
REMARK    2  A    between atoms: C9_9  and  N10_10 
ROOT
HETATM    1  C1  UNL     1     -33.089   7.291   2.618  1.00 20.00     0.092 C 
HETATM    2  N10 UNL     1     -33.344   7.037   3.857  1.00 20.00    -0.295 NA
ENDROOT
BRANCH   1   3
HETATM    3  C8  UNL     1     -32.193   8.446   2.190  1.00 20.00    -0.018 C 
HETATM    4  C2  UNL     1     -33.078   9.688   2.033  1.00 20.00     0.020 C 
HETATM    5  C3  UNL     1     -31.167   8.674   3.306  1.00 20.00     0.020 C 
HETATM    6  C4  UNL     1     -31.467   8.157   0.871  1.00 20.00     0.020 C 
ENDBRANCH   1   3
BRANCH   2   7
HETATM    7  C9  UNL     1     -34.226   5.887   4.031  1.00 20.00     0.042 C 
HETATM    8  C5  UNL     1     -35.579   6.215   3.400  1.00 20.00     0.039 C 
HETATM    9  C6  UNL     1     -33.581   4.691   3.329  1.00 20.00     0.039 C 
HETATM   10  C7  UNL     1     -34.375   5.615   5.527  1.00 20.00     0.039 C 
ENDBRANCH   2   7
TORSDOF 2
ENDMDL
MODEL 9
REMARK VINA RESULT:      -3.9      0.647      4.350
REMARK  2 active torsions:
REMARK  status: ('A' for Active; 'I' for Inactive)
REMARK    1  A    between atoms: C1_1  and  C8_8 
REMARK    2  A    between atoms: C9_9  and  N10_10 
ROOT
HETATM    1  C1  UNL     1     -33.052   7.307   2.618  1.00 20.00     0.092 C 
HETATM    2  N10 UNL     1     -33.346   7.075   3.852  1.00 20.00    -0.295 NA
ENDROOT
BRANCH   1   3
HETATM    3  C8  UNL     1     -32.176   8.478   2.194  1.00 20.00    -0.018 C 
HETATM    4  C2  UNL     1     -31.112   8.679   3.279  1.00 20.00     0.020 C 
HETATM    5  C3  UNL     1     -31.504   8.098   0.869  1.00 20.00     0.020 C 
HETATM    6  C4  UNL     1     -32.982   9.769   2.014  1.00 20.00     0.020 C 
ENDBRANCH   1   3
BRANCH   2   7
HETATM    7  C9  UNL     1     -34.198   5.902   4.023  1.00 20.00     0.042 C 
HETATM    8  C5  UNL     1     -34.363   5.638   5.520  1.00 20.00     0.039 C 
HETATM    9  C6  UNL     1     -35.550   6.209   3.378  1.00 20.00     0.039 C 
HETATM   10  C7  UNL     1     -33.530   4.714   3.331  1.00 20.00     0.039 C 
ENDBRANCH   2   7
TORSDOF 2
ENDMDL
