MODEL 1
REMARK VINA RESULT:      -4.8      0.000      0.000
REMARK  0 active torsions:
REMARK  status: ('A' for Active; 'I' for Inactive)
ROOT
HETATM    1  C1  UNL     1     -32.295   7.532   2.695  1.00 20.00     0.166 A 
HETATM    2  C2  UNL     1     -33.331   7.143   4.545  1.00 20.00     0.048 A 
HETATM    3  C3  UNL     1     -33.912   6.182   3.769  1.00 20.00     0.008 A 
HETATM    4  C4  UNL     1     -33.853   7.136   5.925  1.00 20.00     0.061 C 
HETATM    5  C5  UNL     1     -34.915   5.363   4.476  1.00 20.00     0.048 C 
HETATM    6  C6  UNL     1     -34.634   5.778   5.960  1.00 20.00     0.011 C 
HETATM    7  N7  UNL     1     -32.396   7.935   3.951  1.00 20.00    -0.257 NA
HETATM    8  S8  UNL     1     -33.314   6.206   2.209  1.00 20.00    -0.085 SA
ENDROOT
TORSDOF 0
ENDMDL
MODEL 2
REMARK VINA RESULT:      -4.5      1.509      2.945
REMARK  0 active torsions:
REMARK  status: ('A' for Active; 'I' for Inactive)
ROOT
HETATM    1  C1  UNL     1     -34.452   6.328   5.935  1.00 20.00     0.166 A 
HETATM    2  C2  UNL     1     -33.107   7.291   4.552  1.00 20.00     0.048 A 
HETATM    3  C3  UNL     1     -33.694   6.402   3.696  1.00 20.00     0.008 A 
HETATM    4  C4  UNL     1     -32.096   8.128   3.878  1.00 20.00     0.061 C 
HETATM    5  C5  UNL     1     -33.193   6.480   2.311  1.00 20.00     0.048 C 
HETATM    6  C6  UNL     1     -32.388   7.824   2.369  1.00 20.00     0.011 C 
HETATM    7  N7  UNL     1     -33.525   7.269   5.848  1.00 20.00    -0.257 NA
HETATM    8  S8  UNL     1     -34.832   5.459   4.475  1.00 20.00    -0.085 SA
ENDROOT
TORSDOF 0
ENDMDL
MODEL 3
REMARK VINA RESULT:      -4.4      1.368      1.975
REMARK  0 active torsions:
REMARK  status: ('A' for Active; 'I' for Inactive)
ROOT
HETATM    1  C1  UNL     1     -32.888   6.835   2.138  1.00 20.00     0.166 A 
HETATM    2  C2  UNL     1     -33.885   5.976   3.845  1.00 20.00     0.048 A 
HETATM    3  C3  UNL     1     -33.334   7.071   4.448  1.00 20.00     0.008 A 
HETATM    4  C4  UNL     1     -34.659   5.149   4.791  1.00 20.00     0.061 C 
HETATM    5  C5  UNL     1     -33.635   7.180   5.888  1.00 20.00     0.048 C 
HETATM    6  C6  UNL     1     -34.764   6.103   6.031  1.00 20.00     0.011 C 
HETATM    7  N7  UNL     1     -33.643   5.815   2.515  1.00 20.00    -0.257 NA
HETATM    8  S8  UNL     1     -32.458   7.993   3.365  1.00 20.00    -0.085 SA
ENDROOT
TORSDOF 0
ENDMDL
MODEL 4
REMARK VINA RESULT:      -4.3      1.382      1.757
REMARK  0 active torsions:
REMARK  status: ('A' for Active; 'I' for Inactive)
ROOT
HETATM    1  C1  UNL     1     -32.617   8.216   4.750  1.00 20.00     0.166 A 
HETATM    2  C2  UNL     1     -33.791   6.431   5.037  1.00 20.00     0.048 A 
HETATM    3  C3  UNL     1     -33.438   6.247   3.731  1.00 20.00     0.008 A 
HETATM    4  C4  UNL     1     -34.635   5.333   5.547  1.00 20.00     0.061 C 
HETATM    5  C5  UNL     1     -33.971   5.008   3.132  1.00 20.00     0.048 C 
HETATM    6  C6  UNL     1     -34.477   4.262   4.414  1.00 20.00     0.011 C 
HETATM    7  N7  UNL     1     -33.332   7.558   5.648  1.00 20.00    -0.257 NA
HETATM    8  S8  UNL     1     -32.487   7.500   3.168  1.00 20.00    -0.085 SA
ENDROOT
TORSDOF 0
ENDMDL
MODEL 5
REMARK VINA RESULT:      -4.2      1.886      3.390
REMARK  0 active torsions:
REMARK  status: ('A' for Active; 'I' for Inactive)
ROOT
HETATM    1  C1  UNL     1     -34.925   5.497   4.320  1.00 20.00     0.166 A 
HETATM    2  C2  UNL     1     -33.527   6.777   3.293  1.00 20.00     0.048 A 
HETATM    3  C3  UNL     1     -33.305   7.201   4.572  1.00 20.00     0.008 A 
HETATM    4  C4  UNL     1     -32.687   7.494   2.314  1.00 20.00     0.061 C 
HETATM    5  C5  UNL     1     -32.289   8.265   4.686  1.00 20.00     0.048 C 
HETATM    6  C6  UNL     1     -31.661   8.220   3.250  1.00 20.00     0.011 C 
HETATM    7  N7  UNL     1     -34.456   5.796   3.119  1.00 20.00    -0.257 NA
HETATM    8  S8  UNL     1     -34.266   6.383   5.666  1.00 20.00    -0.085 SA
ENDROOT
TORSDOF 0
ENDMDL
MODEL 6
REMARK VINA RESULT:      -4.1      2.078      3.520
REMARK  0 active torsions:
REMARK  status: ('A' for Active; 'I' for Inactive)
ROOT
HETATM    1  C1  UNL     1     -34.651   5.444   5.731  1.00 20.00     0.166 A 
HETATM    2  C2  UNL     1     -33.967   5.866   3.730  1.00 20.00     0.048 A 
HETATM    3  C3  UNL     1     -33.530   7.002   4.349  1.00 20.00     0.008 A 
HETATM    4  C4  UNL     1     -33.639   5.854   2.291  1.00 20.00     0.061 C 
HETATM    5  C5  UNL     1     -32.838   7.948   3.453  1.00 20.00     0.048 C 
HETATM    6  C6  UNL     1     -32.628   7.046   2.188  1.00 20.00     0.011 C 
HETATM    7  N7  UNL     1     -34.616   4.952   4.503  1.00 20.00    -0.257 NA
HETATM    8  S8  UNL     1     -33.912   7.002   5.976  1.00 20.00    -0.085 SA
ENDROOT
TORSDOF 0
ENDMDL
MODEL 7
REMARK VINA RESULT:      -3.8      1.562      2.066
REMARK  0 active torsions:
REMARK  status: ('A' for Active; 'I' for Inactive)
ROOT
HETATM    1  C1  UNL     1     -33.289   4.762   2.641  1.00 20.00     0.166 A 
HETATM    2  C2  UNL     1     -33.355   6.491   3.928  1.00 20.00     0.048 A 
HETATM    3  C3  UNL     1     -34.054   5.615   4.709  1.00 20.00     0.008 A 
HETATM    4  C4  UNL     1     -33.226   7.819   4.557  1.00 20.00     0.061 C 
HETATM    5  C5  UNL     1     -34.514   6.187   5.989  1.00 20.00     0.048 C 
HETATM    6  C6  UNL     1     -33.692   7.521   6.023  1.00 20.00     0.011 C 
HETATM    7  N7  UNL     1     -32.904   6.025   2.730  1.00 20.00    -0.257 NA
HETATM    8  S8  UNL     1     -34.195   4.119   3.981  1.00 20.00    -0.085 SA
ENDROOT
TORSDOF 0
ENDMDL
MODEL 8
REMARK VINA RESULT:      -3.8     11.909     12.914
REMARK  0 active torsions:
REMARK  status: ('A' for Active; 'I' for Inactive)
ROOT
HETATM    1  C1  UNL     1     -35.242  13.037  -7.260  1.00 20.00     0.166 A 
HETATM    2  C2  UNL     1     -34.672  13.999  -5.417  1.00 20.00     0.048 A 
HETATM    3  C3  UNL     1     -33.975  14.782  -6.291  1.00 20.00     0.008 A 
HETATM    4  C4  UNL     1     -34.478  14.418  -4.015  1.00 20.00     0.061 C 
HETATM    5  C5  UNL     1     -33.197  15.858  -5.647  1.00 20.00     0.048 C 
HETATM    6  C6  UNL     1     -33.788  15.813  -4.196  1.00 20.00     0.011 C 
HETATM    7  N7  UNL     1     -35.410  12.985  -5.949  1.00 20.00    -0.257 NA
HETATM    8  S8  UNL     1     -34.202  14.292  -7.872  1.00 20.00    -0.085 SA
ENDROOT
TORSDOF 0
ENDMDL
MODEL 9
REMARK VINA RESULT:      -3.5     12.249     12.499
REMARK  0 active torsions:
REMARK  status: ('A' for Active; 'I' for Inactive)
ROOT
HETATM    1  C1  UNL     1     -35.574  13.281  -6.417  1.00 20.00     0.166 A 
HETATM    2  C2  UNL     1     -34.238  14.563  -5.313  1.00 20.00     0.048 A 
HETATM    3  C3  UNL     1     -35.407  14.877  -4.680  1.00 20.00     0.008 A 
HETATM    4  C4  UNL     1     -33.090  15.310  -4.765  1.00 20.00     0.061 C 
HETATM    5  C5  UNL     1     -35.260  15.876  -3.605  1.00 20.00     0.048 C 
HETATM    6  C6  UNL     1     -33.701  15.909  -3.452  1.00 20.00     0.011 C 
HETATM    7  N7  UNL     1     -34.306  13.647  -6.318  1.00 20.00    -0.257 NA
HETATM    8  S8  UNL     1     -36.697  14.027  -5.316  1.00 20.00    -0.085 SA
ENDROOT
TORSDOF 0
ENDMDL
