MODEL 1
REMARK VINA RESULT:      -4.0      0.000      0.000
REMARK  0 active torsions:
REMARK  status: ('A' for Active; 'I' for Inactive)
ROOT
HETATM    1  C1  UNL     1     -33.865   5.787   3.410  1.00 20.00     0.048 C 
HETATM    2  C2  UNL     1     -34.881   5.383   4.458  1.00 20.00     0.169 C 
HETATM    3  C3  UNL     1     -33.615   7.147   5.311  1.00 20.00     0.187 C 
HETATM    4  C4  UNL     1     -33.592   7.220   3.798  1.00 20.00     0.108 C 
HETATM    5  O5  UNL     1     -34.548   6.108   5.652  1.00 20.00    -0.390 OA
HETATM    6 CL6  UNL     1     -32.061   7.823   3.161  1.00 20.00    -0.123 Cl
ENDROOT
TORSDOF 0
ENDMDL
MODEL 2
REMARK VINA RESULT:      -3.8      2.457      3.100
REMARK  0 active torsions:
REMARK  status: ('A' for Active; 'I' for Inactive)
ROOT
HETATM    1  C1  UNL     1     -33.510   7.190   4.717  1.00 20.00     0.048 C 
HETATM    2  C2  UNL     1     -32.975   7.620   3.367  1.00 20.00     0.169 C 
HETATM    3  C3  UNL     1     -33.615   5.382   3.218  1.00 20.00     0.187 C 
HETATM    4  C4  UNL     1     -34.409   6.042   4.327  1.00 20.00     0.108 C 
HETATM    5  O5  UNL     1     -32.882   6.433   2.566  1.00 20.00    -0.390 OA
HETATM    6 CL6  UNL     1     -34.750   4.951   5.672  1.00 20.00    -0.123 Cl
ENDROOT
TORSDOF 0
ENDMDL
MODEL 3
REMARK VINA RESULT:      -3.8      1.951      2.267
REMARK  0 active torsions:
REMARK  status: ('A' for Active; 'I' for Inactive)
ROOT
HETATM    1  C1  UNL     1     -33.515   6.060   3.694  1.00 20.00     0.048 C 
HETATM    2  C2  UNL     1     -33.925   4.700   3.170  1.00 20.00     0.169 C 
HETATM    3  C3  UNL     1     -34.486   4.809   5.431  1.00 20.00     0.187 C 
HETATM    4  C4  UNL     1     -34.446   6.217   4.872  1.00 20.00     0.108 C 
HETATM    5  O5  UNL     1     -34.323   3.924   4.310  1.00 20.00    -0.390 OA
HETATM    6 CL6  UNL     1     -33.875   7.407   6.044  1.00 20.00    -0.123 Cl
ENDROOT
TORSDOF 0
ENDMDL
MODEL 4
REMARK VINA RESULT:      -3.8      0.967      1.659
REMARK  0 active torsions:
REMARK  status: ('A' for Active; 'I' for Inactive)
ROOT
HETATM    1  C1  UNL     1     -33.659   7.257   5.090  1.00 20.00     0.048 C 
HETATM    2  C2  UNL     1     -34.442   6.088   5.647  1.00 20.00     0.169 C 
HETATM    3  C3  UNL     1     -34.461   5.934   3.320  1.00 20.00     0.187 C 
HETATM    4  C4  UNL     1     -33.235   6.717   3.745  1.00 20.00     0.108 C 
HETATM    5  O5  UNL     1     -35.064   5.440   4.527  1.00 20.00    -0.390 OA
HETATM    6 CL6  UNL     1     -32.798   7.988   2.602  1.00 20.00    -0.123 Cl
ENDROOT
TORSDOF 0
ENDMDL
MODEL 5
REMARK VINA RESULT:      -3.7      1.597      1.897
REMARK  0 active torsions:
REMARK  status: ('A' for Active; 'I' for Inactive)
ROOT
HETATM    1  C1  UNL     1     -34.350   4.802   4.903  1.00 20.00     0.048 C 
HETATM    2  C2  UNL     1     -34.773   5.867   5.893  1.00 20.00     0.169 C 
HETATM    3  C3  UNL     1     -33.502   6.886   4.223  1.00 20.00     0.187 C 
HETATM    4  C4  UNL     1     -34.126   5.626   3.658  1.00 20.00     0.108 C 
HETATM    5  O5  UNL     1     -34.066   7.064   5.533  1.00 20.00    -0.390 OA
HETATM    6 CL6  UNL     1     -33.094   4.817   2.477  1.00 20.00    -0.123 Cl
ENDROOT
TORSDOF 0
ENDMDL
MODEL 6
REMARK VINA RESULT:      -3.4      2.000      2.335
REMARK  0 active torsions:
REMARK  status: ('A' for Active; 'I' for Inactive)
ROOT
HETATM    1  C1  UNL     1     -34.579   5.142   5.567  1.00 20.00     0.048 C 
HETATM    2  C2  UNL     1     -34.428   4.301   4.317  1.00 20.00     0.169 C 
HETATM    3  C3  UNL     1     -33.820   6.492   3.798  1.00 20.00     0.187 C 
HETATM    4  C4  UNL     1     -33.616   6.270   5.283  1.00 20.00     0.108 C 
HETATM    5  O5  UNL     1     -34.157   5.211   3.241  1.00 20.00    -0.390 OA
HETATM    6 CL6  UNL     1     -33.945   7.711   6.247  1.00 20.00    -0.123 Cl
ENDROOT
TORSDOF 0
ENDMDL
MODEL 7
REMARK VINA RESULT:      -3.4      2.246      2.689
REMARK  0 active torsions:
REMARK  status: ('A' for Active; 'I' for Inactive)
ROOT
HETATM    1  C1  UNL     1     -33.304   6.969   2.769  1.00 20.00     0.048 C 
HETATM    2  C2  UNL     1     -32.095   7.698   3.318  1.00 20.00     0.169 C 
HETATM    3  C3  UNL     1     -33.548   7.261   5.089  1.00 20.00     0.187 C 
HETATM    4  C4  UNL     1     -33.792   6.239   3.997  1.00 20.00     0.108 C 
HETATM    5  O5  UNL     1     -32.394   8.016   4.686  1.00 20.00    -0.390 OA
HETATM    6 CL6  UNL     1     -35.484   5.750   3.876  1.00 20.00    -0.123 Cl
ENDROOT
TORSDOF 0
ENDMDL
MODEL 8
REMARK VINA RESULT:      -3.3      2.186      2.447
REMARK  0 active torsions:
REMARK  status: ('A' for Active; 'I' for Inactive)
ROOT
HETATM    1  C1  UNL     1     -34.665   5.993   3.988  1.00 20.00     0.048 C 
HETATM    2  C2  UNL     1     -34.067   5.797   2.610  1.00 20.00     0.169 C 
HETATM    3  C3  UNL     1     -32.856   7.466   3.699  1.00 20.00     0.187 C 
HETATM    4  C4  UNL     1     -33.489   6.567   4.741  1.00 20.00     0.108 C 
HETATM    5  O5  UNL     1     -33.109   6.850   2.426  1.00 20.00    -0.390 OA
HETATM    6 CL6  UNL     1     -33.969   7.436   6.201  1.00 20.00    -0.123 Cl
ENDROOT
TORSDOF 0
ENDMDL
MODEL 9
REMARK VINA RESULT:      -3.1      2.161      2.497
REMARK  0 active torsions:
REMARK  status: ('A' for Active; 'I' for Inactive)
ROOT
HETATM    1  C1  UNL     1     -33.114   7.059   2.344  1.00 20.00     0.048 C 
HETATM    2  C2  UNL     1     -33.458   7.022   3.818  1.00 20.00     0.169 C 
HETATM    3  C3  UNL     1     -31.620   8.429   3.534  1.00 20.00     0.187 C 
HETATM    4  C4  UNL     1     -32.405   8.388   2.238  1.00 20.00     0.108 C 
HETATM    5  O5  UNL     1     -32.401   7.711   4.503  1.00 20.00    -0.390 OA
HETATM    6 CL6  UNL     1     -31.379   8.505   0.807  1.00 20.00    -0.123 Cl
ENDROOT
TORSDOF 0
ENDMDL
