MODEL 1
REMARK VINA RESULT:      -5.3      0.000      0.000
REMARK  3 active torsions:
REMARK  status: ('A' for Active; 'I' for Inactive)
REMARK    1  A    between atoms: C1_1  and  C6_6 
REMARK    2  A    between atoms: C1_1  and  O9_9 
REMARK    3  A    between atoms: C6_6  and  C7_7 
ROOT
HETATM    1  C2  UNL     1     -32.967   5.137   2.775  1.00 20.00     0.021 C 
HETATM    2  C6  UNL     1     -33.672   6.462   3.071  1.00 20.00     0.085 C 
ENDROOT
BRANCH   2   3
HETATM    3  C1  UNL     1     -32.674   7.604   2.944  1.00 20.00     0.262 C 
HETATM    4  O8  UNL     1     -31.608   7.666   3.544  1.00 20.00    -0.265 OA
BRANCH   3   5
HETATM    5  O9  UNL     1     -33.146   8.533   2.062  1.00 20.00    -0.326 OA
HETATM    6  C5  UNL     1     -32.163   9.130   1.209  1.00 20.00     0.213 C 
ENDBRANCH   3   5
ENDBRANCH   2   3
BRANCH   2   7
HETATM    7  C7  UNL     1     -34.402   6.453   4.435  1.00 20.00    -0.010 C 
HETATM    8  C3  UNL     1     -33.696   7.261   5.528  1.00 20.00     0.010 C 
HETATM    9  C4  UNL     1     -34.656   5.025   4.931  1.00 20.00     0.010 C 
ENDBRANCH   2   7
TORSDOF 3
ENDMDL
MODEL 2
REMARK VINA RESULT:      -5.1      0.769      1.878
REMARK  3 active torsions:
REMARK  status: ('A' for Active; 'I' for Inactive)
REMARK    1  A    between atoms: C1_1  and  C6_6 
REMARK    2  A    between atoms: C1_1  and  O9_9 
REMARK    3  A    between atoms: C6_6  and  C7_7 
ROOT
HETATM    1  C2  UNL     1     -33.610   7.532   5.343  1.00 20.00     0.021 C 
HETATM    2  C6  UNL     1     -32.945   6.865   4.138  1.00 20.00     0.085 C 
ENDROOT
BRANCH   2   3
HETATM    3  C1  UNL     1     -32.207   7.917   3.323  1.00 20.00     0.262 C 
HETATM    4  O8  UNL     1     -31.104   8.367   3.605  1.00 20.00    -0.265 OA
BRANCH   3   5
HETATM    5  O9  UNL     1     -32.957   8.270   2.238  1.00 20.00    -0.326 OA
HETATM    6  C5  UNL     1     -32.303   9.113   1.283  1.00 20.00     0.213 C 
ENDBRANCH   3   5
ENDBRANCH   2   3
BRANCH   2   7
HETATM    7  C7  UNL     1     -33.945   6.043   3.290  1.00 20.00    -0.010 C 
HETATM    8  C3  UNL     1     -35.221   5.644   4.038  1.00 20.00     0.010 C 
HETATM    9  C4  UNL     1     -33.287   4.797   2.690  1.00 20.00     0.010 C 
ENDBRANCH   2   7
TORSDOF 3
ENDMDL
MODEL 3
REMARK VINA RESULT:      -4.9      1.436      2.127
REMARK  3 active torsions:
REMARK  status: ('A' for Active; 'I' for Inactive)
REMARK    1  A    between atoms: C1_1  and  C6_6 
REMARK    2  A    between atoms: C1_1  and  O9_9 
REMARK    3  A    between atoms: C6_6  and  C7_7 
ROOT
HETATM    1  C2  UNL     1     -35.401   6.057   3.385  1.00 20.00     0.021 C 
HETATM    2  C6  UNL     1     -34.051   6.609   3.846  1.00 20.00     0.085 C 
ENDROOT
BRANCH   2   3
HETATM    3  C1  UNL     1     -32.959   6.118   2.906  1.00 20.00     0.262 C 
HETATM    4  O8  UNL     1     -32.909   4.992   2.427  1.00 20.00    -0.265 OA
BRANCH   3   5
HETATM    5  O9  UNL     1     -32.060   7.120   2.680  1.00 20.00    -0.326 OA
HETATM    6  C5  UNL     1     -32.594   8.305   2.082  1.00 20.00     0.213 C 
ENDBRANCH   3   5
ENDBRANCH   2   3
BRANCH   2   7
HETATM    7  C7  UNL     1     -33.755   6.286   5.330  1.00 20.00    -0.010 C 
HETATM    8  C3  UNL     1     -34.658   5.203   5.927  1.00 20.00     0.010 C 
HETATM    9  C4  UNL     1     -33.809   7.544   6.203  1.00 20.00     0.010 C 
ENDBRANCH   2   7
TORSDOF 3
ENDMDL
MODEL 4
REMARK VINA RESULT:      -4.9      1.902      3.877
REMARK  3 active torsions:
REMARK  status: ('A' for Active; 'I' for Inactive)
REMARK    1  A    between atoms: C1_1  and  C6_6 
REMARK    2  A    between atoms: C1_1  and  O9_9 
REMARK    3  A    between atoms: C6_6  and  C7_7 
ROOT
HETATM    1  C2  UNL     1     -33.526   7.512   4.941  1.00 20.00     0.021 C 
HETATM    2  C6  UNL     1     -33.514   7.198   3.444  1.00 20.00     0.085 C 
ENDROOT
BRANCH   2   3
HETATM    3  C1  UNL     1     -33.714   5.702   3.240  1.00 20.00     0.262 C 
HETATM    4  O8  UNL     1     -33.006   4.996   2.533  1.00 20.00    -0.265 OA
BRANCH   3   5
HETATM    5  O9  UNL     1     -34.789   5.278   3.967  1.00 20.00    -0.326 OA
HETATM    6  C5  UNL     1     -34.534   4.200   4.874  1.00 20.00     0.213 C 
ENDBRANCH   3   5
ENDBRANCH   2   3
BRANCH   2   7
HETATM    7  C7  UNL     1     -32.247   7.734   2.737  1.00 20.00    -0.010 C 
HETATM    8  C3  UNL     1     -31.219   8.361   3.684  1.00 20.00     0.010 C 
HETATM    9  C4  UNL     1     -32.598   8.728   1.624  1.00 20.00     0.010 C 
ENDBRANCH   2   7
TORSDOF 3
ENDMDL
MODEL 5
REMARK VINA RESULT:      -4.9      2.041      3.870
REMARK  3 active torsions:
REMARK  status: ('A' for Active; 'I' for Inactive)
REMARK    1  A    between atoms: C1_1  and  C6_6 
REMARK    2  A    between atoms: C1_1  and  O9_9 
REMARK    3  A    between atoms: C6_6  and  C7_7 
ROOT
HETATM    1  C2  UNL     1     -33.525   7.342   5.567  1.00 20.00     0.021 C 
HETATM    2  C6  UNL     1     -33.807   7.317   4.064  1.00 20.00     0.085 C 
ENDROOT
BRANCH   2   3
HETATM    3  C1  UNL     1     -34.613   6.072   3.722  1.00 20.00     0.262 C 
HETATM    4  O8  UNL     1     -35.834   6.037   3.636  1.00 20.00    -0.265 OA
BRANCH   3   5
HETATM    5  O9  UNL     1     -33.770   5.017   3.522  1.00 20.00    -0.326 OA
HETATM    6  C5  UNL     1     -34.031   3.859   4.320  1.00 20.00     0.213 C 
ENDBRANCH   3   5
ENDBRANCH   2   3
BRANCH   2   7
HETATM    7  C7  UNL     1     -32.518   7.447   3.218  1.00 20.00    -0.010 C 
HETATM    8  C3  UNL     1     -31.401   8.247   3.896  1.00 20.00     0.010 C 
HETATM    9  C4  UNL     1     -32.807   8.036   1.833  1.00 20.00     0.010 C 
ENDBRANCH   2   7
TORSDOF 3
ENDMDL
MODEL 6
REMARK VINA RESULT:      -4.8      1.074      1.462
REMARK  3 active torsions:
REMARK  status: ('A' for Active; 'I' for Inactive)
REMARK    1  A    between atoms: C1_1  and  C6_6 
REMARK    2  A    between atoms: C1_1  and  O9_9 
REMARK    3  A    between atoms: C6_6  and  C7_7 
ROOT
HETATM    1  C2  UNL     1     -33.185   4.868   2.875  1.00 20.00     0.021 C 
HETATM    2  C6  UNL     1     -34.109   6.023   3.264  1.00 20.00     0.085 C 
ENDROOT
BRANCH   2   3
HETATM    3  C1  UNL     1     -33.391   7.345   3.028  1.00 20.00     0.262 C 
HETATM    4  O8  UNL     1     -33.953   8.413   2.819  1.00 20.00    -0.265 OA
BRANCH   3   5
HETATM    5  O9  UNL     1     -32.041   7.154   3.092  1.00 20.00    -0.326 OA
HETATM    6  C5  UNL     1     -31.265   8.323   3.375  1.00 20.00     0.213 C 
ENDBRANCH   3   5
ENDBRANCH   2   3
BRANCH   2   7
HETATM    7  C7  UNL     1     -34.652   5.886   4.707  1.00 20.00    -0.010 C 
HETATM    8  C3  UNL     1     -34.000   6.838   5.714  1.00 20.00     0.010 C 
HETATM    9  C4  UNL     1     -34.549   4.445   5.215  1.00 20.00     0.010 C 
ENDBRANCH   2   7
TORSDOF 3
ENDMDL
MODEL 7
REMARK VINA RESULT:      -4.6      1.367      2.242
REMARK  3 active torsions:
REMARK  status: ('A' for Active; 'I' for Inactive)
REMARK    1  A    between atoms: C1_1  and  C6_6 
REMARK    2  A    between atoms: C1_1  and  O9_9 
REMARK    3  A    between atoms: C6_6  and  C7_7 
ROOT
HETATM    1  C2  UNL     1     -31.668   8.312   4.067  1.00 20.00     0.021 C 
HETATM    2  C6  UNL     1     -32.008   7.512   2.809  1.00 20.00     0.085 C 
ENDROOT
BRANCH   2   3
HETATM    3  C1  UNL     1     -31.994   8.439   1.601  1.00 20.00     0.262 C 
HETATM    4  O8  UNL     1     -31.172   8.387   0.695  1.00 20.00    -0.265 OA
BRANCH   3   5
HETATM    5  O9  UNL     1     -33.034   9.319   1.684  1.00 20.00    -0.326 OA
HETATM    6  C5  UNL     1     -32.772  10.633   1.181  1.00 20.00     0.213 C 
ENDBRANCH   3   5
ENDBRANCH   2   3
BRANCH   2   7
HETATM    7  C7  UNL     1     -33.335   6.728   2.947  1.00 20.00    -0.010 C 
HETATM    8  C3  UNL     1     -34.028   6.904   4.302  1.00 20.00     0.010 C 
HETATM    9  C4  UNL     1     -33.145   5.236   2.654  1.00 20.00     0.010 C 
ENDBRANCH   2   7
TORSDOF 3
ENDMDL
MODEL 8
REMARK VINA RESULT:      -4.6      1.650      4.093
REMARK  3 active torsions:
REMARK  status: ('A' for Active; 'I' for Inactive)
REMARK    1  A    between atoms: C1_1  and  C6_6 
REMARK    2  A    between atoms: C1_1  and  O9_9 
REMARK    3  A    between atoms: C6_6  and  C7_7 
ROOT
HETATM    1  C2  UNL     1     -31.295   8.279   3.551  1.00 20.00     0.021 C 
HETATM    2  C6  UNL     1     -32.666   8.240   2.874  1.00 20.00     0.085 C 
ENDROOT
BRANCH   2   3
HETATM    3  C1  UNL     1     -33.254   6.843   3.006  1.00 20.00     0.262 C 
HETATM    4  O8  UNL     1     -32.747   5.828   2.544  1.00 20.00    -0.265 OA
BRANCH   3   5
HETATM    5  O9  UNL     1     -34.418   6.898   3.718  1.00 20.00    -0.326 OA
HETATM    6  C5  UNL     1     -34.891   5.646   4.225  1.00 20.00     0.213 C 
ENDBRANCH   3   5
ENDBRANCH   2   3
BRANCH   2   7
HETATM    7  C7  UNL     1     -32.616   8.733   1.408  1.00 20.00    -0.010 C 
HETATM    8  C3  UNL     1     -31.270   8.501   0.714  1.00 20.00     0.010 C 
HETATM    9  C4  UNL     1     -33.007  10.210   1.294  1.00 20.00     0.010 C 
ENDBRANCH   2   7
TORSDOF 3
ENDMDL
MODEL 9
REMARK VINA RESULT:      -4.5      1.871      3.816
REMARK  3 active torsions:
REMARK  status: ('A' for Active; 'I' for Inactive)
REMARK    1  A    between atoms: C1_1  and  C6_6 
REMARK    2  A    between atoms: C1_1  and  O9_9 
REMARK    3  A    between atoms: C6_6  and  C7_7 
ROOT
HETATM    1  C2  UNL     1     -33.910   6.056   2.328  1.00 20.00     0.021 C 
HETATM    2  C6  UNL     1     -33.112   6.718   3.452  1.00 20.00     0.085 C 
ENDROOT
BRANCH   2   3
HETATM    3  C1  UNL     1     -33.956   6.752   4.718  1.00 20.00     0.262 C 
HETATM    4  O8  UNL     1     -33.808   7.556   5.631  1.00 20.00    -0.265 OA
BRANCH   3   5
HETATM    5  O9  UNL     1     -34.895   5.763   4.673  1.00 20.00    -0.326 OA
HETATM    6  C5  UNL     1     -34.649   4.638   5.523  1.00 20.00     0.213 C 
ENDBRANCH   3   5
ENDBRANCH   2   3
BRANCH   2   7
HETATM    7  C7  UNL     1     -32.574   8.113   3.053  1.00 20.00    -0.010 C 
HETATM    8  C3  UNL     1     -32.564   8.372   1.543  1.00 20.00     0.010 C 
HETATM    9  C4  UNL     1     -31.178   8.367   3.629  1.00 20.00     0.010 C 
ENDBRANCH   2   7
TORSDOF 3
ENDMDL
