MODEL 1
REMARK VINA RESULT:      -4.7      0.000      0.000
REMARK  2 active torsions:
REMARK  status: ('A' for Active; 'I' for Inactive)
REMARK    1  A    between atoms: C2_2  and  C5_5 
REMARK    2  A    between atoms: C5_5  and  C6_6 
ROOT
HETATM    1  C1  UNL     1     -34.545   4.716   4.449  1.00 20.00     0.206 A 
HETATM    2  C2  UNL     1     -34.108   6.150   4.264  1.00 20.00     0.079 A 
HETATM    3  C3  UNL     1     -33.922   7.024   5.461  1.00 20.00     0.048 C 
HETATM    4  O7  UNL     1     -35.467   5.742   4.052  1.00 20.00    -0.375 OA
ENDROOT
BRANCH   2   5
HETATM    5  C5  UNL     1     -33.385   6.554   2.989  1.00 20.00     0.039 C 
BRANCH   5   6
HETATM    6  C6  UNL     1     -32.321   7.615   3.262  1.00 20.00    -0.002 C 
HETATM    7  C4  UNL     1     -31.967   8.386   2.000  1.00 20.00     0.005 C 
ENDBRANCH   5   6
ENDBRANCH   2   5
TORSDOF 2
ENDMDL
MODEL 2
REMARK VINA RESULT:      -4.4      1.689      3.669
REMARK  2 active torsions:
REMARK  status: ('A' for Active; 'I' for Inactive)
REMARK    1  A    between atoms: C2_2  and  C5_5 
REMARK    2  A    between atoms: C5_5  and  C6_6 
ROOT
HETATM    1  C1  UNL     1     -31.824   7.915   3.284  1.00 20.00     0.206 A 
HETATM    2  C2  UNL     1     -32.995   6.962   3.319  1.00 20.00     0.079 A 
HETATM    3  C3  UNL     1     -32.920   5.675   2.564  1.00 20.00     0.048 C 
HETATM    4  O7  UNL     1     -32.995   8.125   2.480  1.00 20.00    -0.375 OA
ENDROOT
BRANCH   2   5
HETATM    5  C5  UNL     1     -33.987   7.036   4.469  1.00 20.00     0.039 C 
BRANCH   5   6
HETATM    6  C6  UNL     1     -34.876   5.796   4.522  1.00 20.00    -0.002 C 
HETATM    7  C4  UNL     1     -34.594   4.961   5.761  1.00 20.00     0.005 C 
ENDBRANCH   5   6
ENDBRANCH   2   5
TORSDOF 2
ENDMDL
MODEL 3
REMARK VINA RESULT:      -4.3      1.592      3.335
REMARK  2 active torsions:
REMARK  status: ('A' for Active; 'I' for Inactive)
REMARK    1  A    between atoms: C2_2  and  C5_5 
REMARK    2  A    between atoms: C5_5  and  C6_6 
ROOT
HETATM    1  C1  UNL     1     -32.892   7.986   2.629  1.00 20.00     0.206 A 
HETATM    2  C2  UNL     1     -33.473   7.156   3.749  1.00 20.00     0.079 A 
HETATM    3  C3  UNL     1     -33.226   7.558   5.167  1.00 20.00     0.048 C 
HETATM    4  O7  UNL     1     -32.288   6.753   3.048  1.00 20.00    -0.375 OA
ENDROOT
BRANCH   2   5
HETATM    5  C5  UNL     1     -34.677   6.269   3.478  1.00 20.00     0.039 C 
BRANCH   5   6
HETATM    6  C6  UNL     1     -34.947   5.320   4.644  1.00 20.00    -0.002 C 
HETATM    7  C4  UNL     1     -34.211   4.001   4.470  1.00 20.00     0.005 C 
ENDBRANCH   5   6
ENDBRANCH   2   5
TORSDOF 2
ENDMDL
MODEL 4
REMARK VINA RESULT:      -4.0      1.204      1.606
REMARK  2 active torsions:
REMARK  status: ('A' for Active; 'I' for Inactive)
REMARK    1  A    between atoms: C2_2  and  C5_5 
REMARK    2  A    between atoms: C5_5  and  C6_6 
ROOT
HETATM    1  C1  UNL     1     -35.345   5.723   3.984  1.00 20.00     0.206 A 
HETATM    2  C2  UNL     1     -33.920   6.028   3.587  1.00 20.00     0.079 A 
HETATM    3  C3  UNL     1     -33.153   5.036   2.774  1.00 20.00     0.048 C 
HETATM    4  O7  UNL     1     -34.252   5.564   4.903  1.00 20.00    -0.375 OA
ENDROOT
BRANCH   2   5
HETATM    5  C5  UNL     1     -33.446   7.472   3.548  1.00 20.00     0.039 C 
BRANCH   5   6
HETATM    6  C6  UNL     1     -32.138   7.611   2.771  1.00 20.00    -0.002 C 
HETATM    7  C4  UNL     1     -32.168   8.814   1.842  1.00 20.00     0.005 C 
ENDBRANCH   5   6
ENDBRANCH   2   5
TORSDOF 2
ENDMDL
MODEL 5
REMARK VINA RESULT:      -3.9      1.339      1.583
REMARK  2 active torsions:
REMARK  status: ('A' for Active; 'I' for Inactive)
REMARK    1  A    between atoms: C2_2  and  C5_5 
REMARK    2  A    between atoms: C5_5  and  C6_6 
ROOT
HETATM    1  C1  UNL     1     -34.356   4.885   5.519  1.00 20.00     0.206 A 
HETATM    2  C2  UNL     1     -34.428   5.366   4.089  1.00 20.00     0.079 A 
HETATM    3  C3  UNL     1     -35.650   6.083   3.614  1.00 20.00     0.048 C 
HETATM    4  O7  UNL     1     -34.661   3.994   4.434  1.00 20.00    -0.375 OA
ENDROOT
BRANCH   2   5
HETATM    5  C5  UNL     1     -33.143   5.591   3.308  1.00 20.00     0.039 C 
BRANCH   5   6
HETATM    6  C6  UNL     1     -33.090   6.996   2.711  1.00 20.00    -0.002 C 
HETATM    7  C4  UNL     1     -31.971   7.820   3.327  1.00 20.00     0.005 C 
ENDBRANCH   5   6
ENDBRANCH   2   5
TORSDOF 2
ENDMDL
MODEL 6
REMARK VINA RESULT:      -3.9      2.223      3.910
REMARK  2 active torsions:
REMARK  status: ('A' for Active; 'I' for Inactive)
REMARK    1  A    between atoms: C2_2  and  C5_5 
REMARK    2  A    between atoms: C5_5  and  C6_6 
ROOT
HETATM    1  C1  UNL     1     -32.510   9.236   1.580  1.00 20.00     0.206 A 
HETATM    2  C2  UNL     1     -32.243   8.108   2.549  1.00 20.00     0.079 A 
HETATM    3  C3  UNL     1     -31.370   8.349   3.737  1.00 20.00     0.048 C 
HETATM    4  O7  UNL     1     -31.552   8.204   1.295  1.00 20.00    -0.375 OA
ENDROOT
BRANCH   2   5
HETATM    5  C5  UNL     1     -33.214   6.941   2.625  1.00 20.00     0.039 C 
BRANCH   5   6
HETATM    6  C6  UNL     1     -33.869   6.848   4.001  1.00 20.00    -0.002 C 
HETATM    7  C4  UNL     1     -34.893   5.725   4.055  1.00 20.00     0.005 C 
ENDBRANCH   5   6
ENDBRANCH   2   5
TORSDOF 2
ENDMDL
MODEL 7
REMARK VINA RESULT:      -3.9      1.349      1.724
REMARK  2 active torsions:
REMARK  status: ('A' for Active; 'I' for Inactive)
REMARK    1  A    between atoms: C2_2  and  C5_5 
REMARK    2  A    between atoms: C5_5  and  C6_6 
ROOT
HETATM    1  C1  UNL     1     -33.175   5.267   2.899  1.00 20.00     0.206 A 
HETATM    2  C2  UNL     1     -33.136   6.712   3.338  1.00 20.00     0.079 A 
HETATM    3  C3  UNL     1     -33.793   7.110   4.620  1.00 20.00     0.048 C 
HETATM    4  O7  UNL     1     -34.054   6.253   2.336  1.00 20.00    -0.375 OA
ENDROOT
BRANCH   2   5
HETATM    5  C5  UNL     1     -32.050   7.629   2.800  1.00 20.00     0.039 C 
BRANCH   5   6
HETATM    6  C6  UNL     1     -32.637   8.747   1.942  1.00 20.00    -0.002 C 
HETATM    7  C4  UNL     1     -31.785   9.010   0.710  1.00 20.00     0.005 C 
ENDBRANCH   5   6
ENDBRANCH   2   5
TORSDOF 2
ENDMDL
MODEL 8
REMARK VINA RESULT:      -3.5      1.534      3.002
REMARK  2 active torsions:
REMARK  status: ('A' for Active; 'I' for Inactive)
REMARK    1  A    between atoms: C2_2  and  C5_5 
REMARK    2  A    between atoms: C5_5  and  C6_6 
ROOT
HETATM    1  C1  UNL     1     -33.286   4.752   2.154  1.00 20.00     0.206 A 
HETATM    2  C2  UNL     1     -33.533   5.980   2.999  1.00 20.00     0.079 A 
HETATM    3  C3  UNL     1     -32.859   7.266   2.644  1.00 20.00     0.048 C 
HETATM    4  O7  UNL     1     -32.627   4.948   3.415  1.00 20.00    -0.375 OA
ENDROOT
BRANCH   2   5
HETATM    5  C5  UNL     1     -34.793   6.066   3.844  1.00 20.00     0.039 C 
BRANCH   5   6
HETATM    6  C6  UNL     1     -34.488   5.856   5.326  1.00 20.00    -0.002 C 
HETATM    7  C4  UNL     1     -33.906   7.111   5.958  1.00 20.00     0.005 C 
ENDBRANCH   5   6
ENDBRANCH   2   5
TORSDOF 2
ENDMDL
MODEL 9
REMARK VINA RESULT:      -3.5      1.658      2.361
REMARK  2 active torsions:
REMARK  status: ('A' for Active; 'I' for Inactive)
REMARK    1  A    between atoms: C2_2  and  C5_5 
REMARK    2  A    between atoms: C5_5  and  C6_6 
ROOT
HETATM    1  C1  UNL     1     -34.241   7.494   4.180  1.00 20.00     0.206 A 
HETATM    2  C2  UNL     1     -32.979   7.074   3.463  1.00 20.00     0.079 A 
HETATM    3  C3  UNL     1     -32.962   5.795   2.692  1.00 20.00     0.048 C 
HETATM    4  O7  UNL     1     -33.139   6.894   4.878  1.00 20.00    -0.375 OA
ENDROOT
BRANCH   2   5
HETATM    5  C5  UNL     1     -31.944   8.124   3.093  1.00 20.00     0.039 C 
BRANCH   5   6
HETATM    6  C6  UNL     1     -31.937   8.397   1.590  1.00 20.00    -0.002 C 
HETATM    7  C4  UNL     1     -32.495   9.776   1.273  1.00 20.00     0.005 C 
ENDBRANCH   5   6
ENDBRANCH   2   5
TORSDOF 2
ENDMDL
