MODEL 1
REMARK VINA RESULT:      -5.6      0.000      0.000
REMARK  2 active torsions:
REMARK  status: ('A' for Active; 'I' for Inactive)
REMARK    1  A    between atoms: C3_3  and  C10_10 
REMARK    2  A    between atoms: C7_7  and  C10_10 
ROOT
HETATM    1  C1  UNL     1     -34.050   5.250   3.694  1.00 20.00    -0.024 C 
HETATM    2  C2  UNL     1     -34.235   5.709   4.945  1.00 20.00    -0.087 C 
HETATM    3  C4  UNL     1     -33.396   6.049   2.604  1.00 20.00     0.032 C 
HETATM    4  C5  UNL     1     -33.763   7.076   5.372  1.00 20.00     0.034 C 
HETATM    5  C6  UNL     1     -32.803   7.735   4.377  1.00 20.00     0.010 C 
HETATM    6  C7  UNL     1     -33.283   7.546   2.934  1.00 20.00    -0.001 C 
HETATM    7  C8  UNL     1     -34.925   4.890   5.995  1.00 20.00     0.043 C 
ENDROOT
BRANCH   6   8
HETATM    8  C10 UNL     1     -32.356   8.251   1.947  1.00 20.00     0.047 C 
HETATM    9  C9  UNL     1     -31.066   8.688   2.629  1.00 20.00     0.017 C 
BRANCH   8  10
HETATM   10  C3  UNL     1     -33.093   9.422   1.328  1.00 20.00     0.235 C 
HETATM   11  O11 UNL     1     -32.606  10.532   1.142  1.00 20.00    -0.306 OA
ENDBRANCH   8  10
ENDBRANCH   6   8
TORSDOF 2
ENDMDL
MODEL 2
REMARK VINA RESULT:      -5.1      2.503      4.666
REMARK  2 active torsions:
REMARK  status: ('A' for Active; 'I' for Inactive)
REMARK    1  A    between atoms: C3_3  and  C10_10 
REMARK    2  A    between atoms: C7_7  and  C10_10 
ROOT
HETATM    1  C1  UNL     1     -33.270   7.425   1.571  1.00 20.00    -0.024 C 
HETATM    2  C2  UNL     1     -32.151   8.087   1.913  1.00 20.00    -0.087 C 
HETATM    3  C4  UNL     1     -34.147   6.708   2.556  1.00 20.00     0.032 C 
HETATM    4  C5  UNL     1     -31.694   8.195   3.346  1.00 20.00     0.034 C 
HETATM    5  C6  UNL     1     -32.757   7.773   4.366  1.00 20.00     0.010 C 
HETATM    6  C7  UNL     1     -33.475   6.494   3.922  1.00 20.00    -0.001 C 
HETATM    7  C8  UNL     1     -31.283   8.760   0.891  1.00 20.00     0.043 C 
ENDROOT
BRANCH   6   8
HETATM    8  C10 UNL     1     -34.496   6.043   4.964  1.00 20.00     0.047 C 
HETATM    9  C9  UNL     1     -34.258   6.742   6.296  1.00 20.00     0.017 C 
BRANCH   8  10
HETATM   10  C3  UNL     1     -34.430   4.535   5.097  1.00 20.00     0.235 C 
HETATM   11  O11 UNL     1     -34.221   3.762   4.168  1.00 20.00    -0.306 OA
ENDBRANCH   8  10
ENDBRANCH   6   8
TORSDOF 2
ENDMDL
MODEL 3
REMARK VINA RESULT:      -5.1      1.036      1.970
REMARK  2 active torsions:
REMARK  status: ('A' for Active; 'I' for Inactive)
REMARK    1  A    between atoms: C3_3  and  C10_10 
REMARK    2  A    between atoms: C7_7  and  C10_10 
ROOT
HETATM    1  C1  UNL     1     -33.488   7.128   5.253  1.00 20.00    -0.024 C 
HETATM    2  C2  UNL     1     -34.019   6.024   4.698  1.00 20.00    -0.087 C 
HETATM    3  C4  UNL     1     -32.744   8.174   4.475  1.00 20.00     0.032 C 
HETATM    4  C5  UNL     1     -33.937   5.758   3.216  1.00 20.00     0.034 C 
HETATM    5  C6  UNL     1     -33.496   6.973   2.394  1.00 20.00     0.010 C 
HETATM    6  C7  UNL     1     -32.332   7.706   3.070  1.00 20.00    -0.001 C 
HETATM    7  C8  UNL     1     -34.725   4.985   5.518  1.00 20.00     0.043 C 
ENDROOT
BRANCH   6   8
HETATM    8  C10 UNL     1     -31.857   8.885   2.224  1.00 20.00     0.047 C 
HETATM    9  C9  UNL     1     -32.924   9.969   2.154  1.00 20.00     0.017 C 
BRANCH   8  10
HETATM   10  C3  UNL     1     -31.473   8.379   0.847  1.00 20.00     0.235 C 
HETATM   11  O11 UNL     1     -31.885   8.851  -0.207  1.00 20.00    -0.306 OA
ENDBRANCH   8  10
ENDBRANCH   6   8
TORSDOF 2
ENDMDL
MODEL 4
REMARK VINA RESULT:      -5.0     10.729     11.476
REMARK  2 active torsions:
REMARK  status: ('A' for Active; 'I' for Inactive)
REMARK    1  A    between atoms: C3_3  and  C10_10 
REMARK    2  A    between atoms: C7_7  and  C10_10 
ROOT
HETATM    1  C1  UNL     1     -33.178  17.433  -1.935  1.00 20.00    -0.024 C 
HETATM    2  C2  UNL     1     -33.995  17.717  -0.905  1.00 20.00    -0.087 C 
HETATM    3  C4  UNL     1     -33.603  16.646  -3.140  1.00 20.00     0.032 C 
HETATM    4  C5  UNL     1     -35.441  17.289  -0.891  1.00 20.00     0.034 C 
HETATM    5  C6  UNL     1     -35.953  16.803  -2.251  1.00 20.00     0.010 C 
HETATM    6  C7  UNL     1     -34.928  15.894  -2.937  1.00 20.00    -0.001 C 
HETATM    7  C8  UNL     1     -33.519  18.476   0.298  1.00 20.00     0.043 C 
ENDROOT
BRANCH   6   8
HETATM    8  C10 UNL     1     -35.462  15.367  -4.267  1.00 20.00     0.047 C 
HETATM    9  C9  UNL     1     -36.984  15.344  -4.272  1.00 20.00     0.017 C 
BRANCH   8  10
HETATM   10  C3  UNL     1     -34.875  13.992  -4.522  1.00 20.00     0.235 C 
HETATM   11  O11 UNL     1     -35.510  13.031  -4.943  1.00 20.00    -0.306 OA
ENDBRANCH   8  10
ENDBRANCH   6   8
TORSDOF 2
ENDMDL
MODEL 5
REMARK VINA RESULT:      -4.7     11.152     11.836
REMARK  2 active torsions:
REMARK  status: ('A' for Active; 'I' for Inactive)
REMARK    1  A    between atoms: C3_3  and  C10_10 
REMARK    2  A    between atoms: C7_7  and  C10_10 
ROOT
HETATM    1  C1  UNL     1     -33.627  16.302  -3.187  1.00 20.00    -0.024 C 
HETATM    2  C2  UNL     1     -34.878  16.307  -2.692  1.00 20.00    -0.087 C 
HETATM    3  C4  UNL     1     -33.256  15.682  -4.503  1.00 20.00     0.032 C 
HETATM    4  C5  UNL     1     -36.037  15.710  -3.448  1.00 20.00     0.034 C 
HETATM    5  C6  UNL     1     -35.724  15.401  -4.916  1.00 20.00     0.010 C 
HETATM    6  C7  UNL     1     -34.344  14.752  -5.062  1.00 20.00    -0.001 C 
HETATM    7  C8  UNL     1     -35.199  16.906  -1.355  1.00 20.00     0.043 C 
ENDROOT
BRANCH   6   8
HETATM    8  C10 UNL     1     -34.054  14.394  -6.518  1.00 20.00     0.047 C 
HETATM    9  C9  UNL     1     -33.982  15.646  -7.382  1.00 20.00     0.017 C 
BRANCH   8  10
HETATM   10  C3  UNL     1     -35.116  13.429  -7.009  1.00 20.00     0.235 C 
HETATM   11  O11 UNL     1     -35.160  12.237  -6.722  1.00 20.00    -0.306 OA
ENDBRANCH   8  10
ENDBRANCH   6   8
TORSDOF 2
ENDMDL
MODEL 6
REMARK VINA RESULT:      -4.6     10.807     11.496
REMARK  2 active torsions:
REMARK  status: ('A' for Active; 'I' for Inactive)
REMARK    1  A    between atoms: C3_3  and  C10_10 
REMARK    2  A    between atoms: C7_7  and  C10_10 
ROOT
HETATM    1  C1  UNL     1     -35.246  17.388  -0.626  1.00 20.00    -0.024 C 
HETATM    2  C2  UNL     1     -34.018  17.920  -0.506  1.00 20.00    -0.087 C 
HETATM    3  C4  UNL     1     -35.725  16.669  -1.854  1.00 20.00     0.032 C 
HETATM    4  C5  UNL     1     -32.989  17.807  -1.602  1.00 20.00     0.034 C 
HETATM    5  C6  UNL     1     -33.353  16.789  -2.688  1.00 20.00     0.010 C 
HETATM    6  C7  UNL     1     -34.830  16.903  -3.081  1.00 20.00    -0.001 C 
HETATM    7  C8  UNL     1     -33.592  18.662   0.726  1.00 20.00     0.043 C 
ENDROOT
BRANCH   6   8
HETATM    8  C10 UNL     1     -35.179  15.926  -4.201  1.00 20.00     0.047 C 
HETATM    9  C9  UNL     1     -36.634  15.485  -4.104  1.00 20.00     0.017 C 
BRANCH   8  10
HETATM   10  C3  UNL     1     -34.227  14.748  -4.142  1.00 20.00     0.235 C 
HETATM   11  O11 UNL     1     -34.575  13.572  -4.110  1.00 20.00    -0.306 OA
ENDBRANCH   8  10
ENDBRANCH   6   8
TORSDOF 2
ENDMDL
MODEL 7
REMARK VINA RESULT:      -4.6     11.168     11.775
REMARK  2 active torsions:
REMARK  status: ('A' for Active; 'I' for Inactive)
REMARK    1  A    between atoms: C3_3  and  C10_10 
REMARK    2  A    between atoms: C7_7  and  C10_10 
ROOT
HETATM    1  C1  UNL     1     -36.092  15.896  -3.293  1.00 20.00    -0.024 C 
HETATM    2  C2  UNL     1     -35.107  16.421  -2.544  1.00 20.00    -0.087 C 
HETATM    3  C4  UNL     1     -35.863  15.227  -4.618  1.00 20.00     0.032 C 
HETATM    4  C5  UNL     1     -33.660  16.350  -2.964  1.00 20.00     0.034 C 
HETATM    5  C6  UNL     1     -33.400  15.377  -4.119  1.00 20.00     0.010 C 
HETATM    6  C7  UNL     1     -34.471  15.508  -5.206  1.00 20.00    -0.001 C 
HETATM    7  C8  UNL     1     -35.384  17.113  -1.242  1.00 20.00     0.043 C 
ENDROOT
BRANCH   6   8
HETATM    8  C10 UNL     1     -34.182  14.576  -6.381  1.00 20.00     0.047 C 
HETATM    9  C9  UNL     1     -34.028  15.365  -7.675  1.00 20.00     0.017 C 
BRANCH   8  10
HETATM   10  C3  UNL     1     -35.288  13.545  -6.476  1.00 20.00     0.235 C 
HETATM   11  O11 UNL     1     -35.108  12.344  -6.651  1.00 20.00    -0.306 OA
ENDBRANCH   8  10
ENDBRANCH   6   8
TORSDOF 2
ENDMDL
MODEL 8
REMARK VINA RESULT:      -4.6     11.143     12.036
REMARK  2 active torsions:
REMARK  status: ('A' for Active; 'I' for Inactive)
REMARK    1  A    between atoms: C3_3  and  C10_10 
REMARK    2  A    between atoms: C7_7  and  C10_10 
ROOT
HETATM    1  C1  UNL     1     -35.194  14.557  -4.948  1.00 20.00    -0.024 C 
HETATM    2  C2  UNL     1     -34.316  14.627  -5.964  1.00 20.00    -0.087 C 
HETATM    3  C4  UNL     1     -35.047  15.326  -3.667  1.00 20.00     0.032 C 
HETATM    4  C5  UNL     1     -33.107  15.527  -5.913  1.00 20.00     0.034 C 
HETATM    5  C6  UNL     1     -33.149  16.553  -4.776  1.00 20.00     0.010 C 
HETATM    6  C7  UNL     1     -33.641  15.916  -3.473  1.00 20.00    -0.001 C 
HETATM    7  C8  UNL     1     -34.482  13.814  -7.214  1.00 20.00     0.043 C 
ENDROOT
BRANCH   6   8
HETATM    8  C10 UNL     1     -33.631  16.925  -2.327  1.00 20.00     0.047 C 
HETATM    9  C9  UNL     1     -34.954  16.905  -1.573  1.00 20.00     0.017 C 
BRANCH   8  10
HETATM   10  C3  UNL     1     -33.320  18.300  -2.884  1.00 20.00     0.235 C 
HETATM   11  O11 UNL     1     -32.585  19.120  -2.345  1.00 20.00    -0.306 OA
ENDBRANCH   8  10
ENDBRANCH   6   8
TORSDOF 2
ENDMDL
MODEL 9
REMARK VINA RESULT:      -4.5     10.794     11.372
REMARK  2 active torsions:
REMARK  status: ('A' for Active; 'I' for Inactive)
REMARK    1  A    between atoms: C3_3  and  C10_10 
REMARK    2  A    between atoms: C7_7  and  C10_10 
ROOT
HETATM    1  C1  UNL     1     -36.518  15.350  -4.171  1.00 20.00    -0.024 C 
HETATM    2  C2  UNL     1     -35.577  14.488  -4.597  1.00 20.00    -0.087 C 
HETATM    3  C4  UNL     1     -36.251  16.456  -3.192  1.00 20.00     0.032 C 
HETATM    4  C5  UNL     1     -34.142  14.586  -4.144  1.00 20.00     0.034 C 
HETATM    5  C6  UNL     1     -33.807  15.903  -3.436  1.00 20.00     0.010 C 
HETATM    6  C7  UNL     1     -34.912  16.301  -2.453  1.00 20.00    -0.001 C 
HETATM    7  C8  UNL     1     -35.895  13.374  -5.550  1.00 20.00     0.043 C 
ENDROOT
BRANCH   6   8
HETATM    8  C10 UNL     1     -34.552  17.584  -1.708  1.00 20.00     0.047 C 
HETATM    9  C9  UNL     1     -33.043  17.721  -1.559  1.00 20.00     0.017 C 
BRANCH   8  10
HETATM   10  C3  UNL     1     -35.256  17.587  -0.365  1.00 20.00     0.235 C 
HETATM   11  O11 UNL     1     -34.740  17.938   0.691  1.00 20.00    -0.306 OA
ENDBRANCH   8  10
ENDBRANCH   6   8
TORSDOF 2
ENDMDL
