MODEL 1
REMARK VINA RESULT:      -4.3      0.000      0.000
REMARK  2 active torsions:
REMARK  status: ('A' for Active; 'I' for Inactive)
REMARK    1  A    between atoms: C1_1  and  O6_6 
REMARK    2  A    between atoms: C4_4  and  O6_6 
ROOT
HETATM    1  O6  UNL     1     -34.057   6.980   3.970  1.00 20.00    -0.301 OA
ENDROOT
BRANCH   1   2
HETATM    2  C1  UNL     1     -34.071   6.715   5.308  1.00 20.00     0.256 C 
HETATM    3  C2  UNL     1     -34.660   5.357   5.540  1.00 20.00     0.126 C 
HETATM    4  O5  UNL     1     -33.673   7.451   6.201  1.00 20.00    -0.266 OA
ENDBRANCH   1   2
BRANCH   1   5
HETATM    5  C4  UNL     1     -32.826   6.745   3.269  1.00 20.00     0.223 C 
HETATM    6  C3  UNL     1     -32.603   7.828   2.225  1.00 20.00     0.057 C 
HETATM    7 CL7  UNL     1     -32.951   5.158   2.465  1.00 20.00    -0.095 Cl
ENDBRANCH   1   5
TORSDOF 2
ENDMDL
MODEL 2
REMARK VINA RESULT:      -4.3      2.259      2.374
REMARK  2 active torsions:
REMARK  status: ('A' for Active; 'I' for Inactive)
REMARK    1  A    between atoms: C1_1  and  O6_6 
REMARK    2  A    between atoms: C4_4  and  O6_6 
ROOT
HETATM    1  O6  UNL     1     -33.436   6.072   3.442  1.00 20.00    -0.301 OA
ENDROOT
BRANCH   1   2
HETATM    2  C1  UNL     1     -34.589   5.464   3.844  1.00 20.00     0.256 C 
HETATM    3  C2  UNL     1     -34.263   4.138   4.461  1.00 20.00     0.126 C 
HETATM    4  O5  UNL     1     -35.724   5.905   3.730  1.00 20.00    -0.266 OA
ENDBRANCH   1   2
BRANCH   1   5
HETATM    5  C4  UNL     1     -33.244   7.439   3.840  1.00 20.00     0.223 C 
HETATM    6  C3  UNL     1     -31.881   7.932   3.382  1.00 20.00     0.057 C 
HETATM    7 CL7  UNL     1     -33.337   7.508   5.620  1.00 20.00    -0.095 Cl
ENDBRANCH   1   5
TORSDOF 2
ENDMDL
MODEL 3
REMARK VINA RESULT:      -4.2      1.916      3.318
REMARK  2 active torsions:
REMARK  status: ('A' for Active; 'I' for Inactive)
REMARK    1  A    between atoms: C1_1  and  O6_6 
REMARK    2  A    between atoms: C4_4  and  O6_6 
ROOT
HETATM    1  O6  UNL     1     -32.865   6.831   3.378  1.00 20.00    -0.301 OA
ENDROOT
BRANCH   1   2
HETATM    2  C1  UNL     1     -32.076   7.896   3.060  1.00 20.00     0.256 C 
HETATM    3  C2  UNL     1     -32.514   8.464   1.744  1.00 20.00     0.126 C 
HETATM    4  O5  UNL     1     -31.149   8.341   3.723  1.00 20.00    -0.266 OA
ENDBRANCH   1   2
BRANCH   1   5
HETATM    5  C4  UNL     1     -34.045   7.097   4.153  1.00 20.00     0.223 C 
HETATM    6  C3  UNL     1     -33.687   7.224   5.625  1.00 20.00     0.057 C 
HETATM    7 CL7  UNL     1     -35.167   5.729   3.926  1.00 20.00    -0.095 Cl
ENDBRANCH   1   5
TORSDOF 2
ENDMDL
MODEL 4
REMARK VINA RESULT:      -4.2      2.203      3.565
REMARK  2 active torsions:
REMARK  status: ('A' for Active; 'I' for Inactive)
REMARK    1  A    between atoms: C1_1  and  O6_6 
REMARK    2  A    between atoms: C4_4  and  O6_6 
ROOT
HETATM    1  O6  UNL     1     -33.474   7.716   3.169  1.00 20.00    -0.301 OA
ENDROOT
BRANCH   1   2
HETATM    2  C1  UNL     1     -32.218   8.149   2.864  1.00 20.00     0.256 C 
HETATM    3  C2  UNL     1     -32.197   8.665   1.457  1.00 20.00     0.126 C 
HETATM    4  O5  UNL     1     -31.242   8.131   3.601  1.00 20.00    -0.266 OA
ENDBRANCH   1   2
BRANCH   1   5
HETATM    5  C4  UNL     1     -33.586   6.649   4.125  1.00 20.00     0.223 C 
HETATM    6  C3  UNL     1     -34.803   5.793   3.814  1.00 20.00     0.057 C 
HETATM    7 CL7  UNL     1     -33.767   7.382   5.741  1.00 20.00    -0.095 Cl
ENDBRANCH   1   5
TORSDOF 2
ENDMDL
MODEL 5
REMARK VINA RESULT:      -4.0      1.774      3.253
REMARK  2 active torsions:
REMARK  status: ('A' for Active; 'I' for Inactive)
REMARK    1  A    between atoms: C1_1  and  O6_6 
REMARK    2  A    between atoms: C4_4  and  O6_6 
ROOT
HETATM    1  O6  UNL     1     -34.556   6.382   3.441  1.00 20.00    -0.301 OA
ENDROOT
BRANCH   1   2
HETATM    2  C1  UNL     1     -33.314   6.114   2.946  1.00 20.00     0.256 C 
HETATM    3  C2  UNL     1     -32.543   7.392   2.817  1.00 20.00     0.126 C 
HETATM    4  O5  UNL     1     -32.872   5.014   2.644  1.00 20.00    -0.266 OA
ENDBRANCH   1   2
BRANCH   1   5
HETATM    5  C4  UNL     1     -34.819   5.989   4.798  1.00 20.00     0.223 C 
HETATM    6  C3  UNL     1     -33.955   6.796   5.754  1.00 20.00     0.057 C 
HETATM    7 CL7  UNL     1     -34.423   4.257   4.951  1.00 20.00    -0.095 Cl
ENDBRANCH   1   5
TORSDOF 2
ENDMDL
MODEL 6
REMARK VINA RESULT:      -3.9      2.216      2.619
REMARK  2 active torsions:
REMARK  status: ('A' for Active; 'I' for Inactive)
REMARK    1  A    between atoms: C1_1  and  O6_6 
REMARK    2  A    between atoms: C4_4  and  O6_6 
ROOT
HETATM    1  O6  UNL     1     -33.592   7.275   3.023  1.00 20.00    -0.301 OA
ENDROOT
BRANCH   1   2
HETATM    2  C1  UNL     1     -33.779   5.937   3.206  1.00 20.00     0.256 C 
HETATM    3  C2  UNL     1     -34.938   5.719   4.130  1.00 20.00     0.126 C 
HETATM    4  O5  UNL     1     -33.120   5.034   2.709  1.00 20.00    -0.266 OA
ENDBRANCH   1   2
BRANCH   1   5
HETATM    5  C4  UNL     1     -32.314   7.695   2.518  1.00 20.00     0.223 C 
HETATM    6  C3  UNL     1     -31.465   8.259   3.646  1.00 20.00     0.057 C 
HETATM    7 CL7  UNL     1     -32.600   8.961   1.294  1.00 20.00    -0.095 Cl
ENDBRANCH   1   5
TORSDOF 2
ENDMDL
MODEL 7
REMARK VINA RESULT:      -3.9      1.780      2.113
REMARK  2 active torsions:
REMARK  status: ('A' for Active; 'I' for Inactive)
REMARK    1  A    between atoms: C1_1  and  O6_6 
REMARK    2  A    between atoms: C4_4  and  O6_6 
ROOT
HETATM    1  O6  UNL     1     -34.816   6.231   3.857  1.00 20.00    -0.301 OA
ENDROOT
BRANCH   1   2
HETATM    2  C1  UNL     1     -34.449   5.860   5.117  1.00 20.00     0.256 C 
HETATM    3  C2  UNL     1     -33.921   7.054   5.853  1.00 20.00     0.126 C 
HETATM    4  O5  UNL     1     -34.527   4.738   5.598  1.00 20.00    -0.266 OA
ENDBRANCH   1   2
BRANCH   1   5
HETATM    5  C4  UNL     1     -33.815   6.139   2.830  1.00 20.00     0.223 C 
HETATM    6  C3  UNL     1     -33.162   4.766   2.855  1.00 20.00     0.057 C 
HETATM    7 CL7  UNL     1     -32.587   7.392   3.151  1.00 20.00    -0.095 Cl
ENDBRANCH   1   5
TORSDOF 2
ENDMDL
MODEL 8
REMARK VINA RESULT:      -3.9      3.346      3.924
REMARK  2 active torsions:
REMARK  status: ('A' for Active; 'I' for Inactive)
REMARK    1  A    between atoms: C1_1  and  O6_6 
REMARK    2  A    between atoms: C4_4  and  O6_6 
ROOT
HETATM    1  O6  UNL     1     -31.842   8.514   1.507  1.00 20.00    -0.301 OA
ENDROOT
BRANCH   1   2
HETATM    2  C1  UNL     1     -31.969   8.019   2.771  1.00 20.00     0.256 C 
HETATM    3  C2  UNL     1     -33.025   6.956   2.786  1.00 20.00     0.126 C 
HETATM    4  O5  UNL     1     -31.335   8.368   3.758  1.00 20.00    -0.266 OA
ENDBRANCH   1   2
BRANCH   1   5
HETATM    5  C4  UNL     1     -32.910   9.341   1.017  1.00 20.00     0.223 C 
HETATM    6  C3  UNL     1     -32.970   9.273  -0.500  1.00 20.00     0.057 C 
HETATM    7 CL7  UNL     1     -32.581  11.017   1.529  1.00 20.00    -0.095 Cl
ENDBRANCH   1   5
TORSDOF 2
ENDMDL
MODEL 9
REMARK VINA RESULT:      -3.9      3.059      3.585
REMARK  2 active torsions:
REMARK  status: ('A' for Active; 'I' for Inactive)
REMARK    1  A    between atoms: C1_1  and  O6_6 
REMARK    2  A    between atoms: C4_4  and  O6_6 
ROOT
HETATM    1  O6  UNL     1     -33.093   8.478   1.882  1.00 20.00    -0.301 OA
ENDROOT
BRANCH   1   2
HETATM    2  C1  UNL     1     -32.347   7.775   2.782  1.00 20.00     0.256 C 
HETATM    3  C2  UNL     1     -32.917   6.398   2.933  1.00 20.00     0.126 C 
HETATM    4  O5  UNL     1     -31.364   8.180   3.387  1.00 20.00    -0.266 OA
ENDBRANCH   1   2
BRANCH   1   5
HETATM    5  C4  UNL     1     -32.389   9.359   0.993  1.00 20.00     0.223 C 
HETATM    6  C3  UNL     1     -32.568  10.802   1.434  1.00 20.00     0.057 C 
HETATM    7 CL7  UNL     1     -33.071   9.144  -0.641  1.00 20.00    -0.095 Cl
ENDBRANCH   1   5
TORSDOF 2
ENDMDL
