MODEL 1
REMARK VINA RESULT:      -4.4      0.000      0.000
REMARK  2 active torsions:
REMARK  status: ('A' for Active; 'I' for Inactive)
REMARK    1  A    between atoms: C2_2  and  C5_5 
REMARK    2  A    between atoms: C5_5  and  C6_6 
ROOT
HETATM    1  C1  UNL     1     -35.345   5.836   3.870  1.00 20.00     0.206 A 
HETATM    2  C2  UNL     1     -33.962   6.391   4.118  1.00 20.00     0.079 A 
HETATM    3  C3  UNL     1     -33.704   7.198   5.350  1.00 20.00     0.048 C 
HETATM    4  O7  UNL     1     -34.282   5.019   4.384  1.00 20.00    -0.375 OA
ENDROOT
BRANCH   2   5
HETATM    5  C5  UNL     1     -33.011   6.584   2.949  1.00 20.00     0.039 C 
BRANCH   5   6
HETATM    6  C6  UNL     1     -32.125   7.813   3.145  1.00 20.00    -0.002 C 
HETATM    7  C4  UNL     1     -32.044   8.650   1.879  1.00 20.00     0.005 C 
ENDBRANCH   5   6
ENDBRANCH   2   5
TORSDOF 2
ENDMDL
MODEL 2
REMARK VINA RESULT:      -4.4      1.764      3.642
REMARK  2 active torsions:
REMARK  status: ('A' for Active; 'I' for Inactive)
REMARK    1  A    between atoms: C2_2  and  C5_5 
REMARK    2  A    between atoms: C5_5  and  C6_6 
ROOT
HETATM    1  C1  UNL     1     -32.727   8.093   2.350  1.00 20.00     0.206 A 
HETATM    2  C2  UNL     1     -33.078   6.870   3.164  1.00 20.00     0.079 A 
HETATM    3  C3  UNL     1     -32.923   5.513   2.557  1.00 20.00     0.048 C 
HETATM    4  O7  UNL     1     -31.837   7.566   3.346  1.00 20.00    -0.375 OA
ENDROOT
BRANCH   2   5
HETATM    5  C5  UNL     1     -34.032   7.001   4.339  1.00 20.00     0.039 C 
BRANCH   5   6
HETATM    6  C6  UNL     1     -34.918   5.764   4.481  1.00 20.00    -0.002 C 
HETATM    7  C4  UNL     1     -34.609   5.002   5.760  1.00 20.00     0.005 C 
ENDBRANCH   5   6
ENDBRANCH   2   5
TORSDOF 2
ENDMDL
MODEL 3
REMARK VINA RESULT:      -4.4      1.100      1.581
REMARK  2 active torsions:
REMARK  status: ('A' for Active; 'I' for Inactive)
REMARK    1  A    between atoms: C2_2  and  C5_5 
REMARK    2  A    between atoms: C5_5  and  C6_6 
ROOT
HETATM    1  C1  UNL     1     -34.667   5.375   5.047  1.00 20.00     0.206 A 
HETATM    2  C2  UNL     1     -34.020   5.941   3.805  1.00 20.00     0.079 A 
HETATM    3  C3  UNL     1     -33.350   5.017   2.839  1.00 20.00     0.048 C 
HETATM    4  O7  UNL     1     -35.438   5.752   3.896  1.00 20.00    -0.375 OA
ENDROOT
BRANCH   2   5
HETATM    5  C5  UNL     1     -33.596   7.400   3.779  1.00 20.00     0.039 C 
BRANCH   5   6
HETATM    6  C6  UNL     1     -32.229   7.574   3.121  1.00 20.00    -0.002 C 
HETATM    7  C4  UNL     1     -32.289   8.552   1.959  1.00 20.00     0.005 C 
ENDBRANCH   5   6
ENDBRANCH   2   5
TORSDOF 2
ENDMDL
MODEL 4
REMARK VINA RESULT:      -4.1      1.779      3.427
REMARK  2 active torsions:
REMARK  status: ('A' for Active; 'I' for Inactive)
REMARK    1  A    between atoms: C2_2  and  C5_5 
REMARK    2  A    between atoms: C5_5  and  C6_6 
ROOT
HETATM    1  C1  UNL     1     -31.784   7.823   2.992  1.00 20.00     0.206 A 
HETATM    2  C2  UNL     1     -33.027   7.270   3.647  1.00 20.00     0.079 A 
HETATM    3  C3  UNL     1     -33.317   7.602   5.076  1.00 20.00     0.048 C 
HETATM    4  O7  UNL     1     -33.079   8.403   2.769  1.00 20.00    -0.375 OA
ENDROOT
BRANCH   2   5
HETATM    5  C5  UNL     1     -33.683   6.023   3.078  1.00 20.00     0.039 C 
BRANCH   5   6
HETATM    6  C6  UNL     1     -34.820   5.531   3.971  1.00 20.00    -0.002 C 
HETATM    7  C4  UNL     1     -34.454   4.233   4.674  1.00 20.00     0.005 C 
ENDBRANCH   5   6
ENDBRANCH   2   5
TORSDOF 2
ENDMDL
MODEL 5
REMARK VINA RESULT:      -3.9      1.583      2.232
REMARK  2 active torsions:
REMARK  status: ('A' for Active; 'I' for Inactive)
REMARK    1  A    between atoms: C2_2  and  C5_5 
REMARK    2  A    between atoms: C5_5  and  C6_6 
ROOT
HETATM    1  C1  UNL     1     -33.374   7.208   4.913  1.00 20.00     0.206 A 
HETATM    2  C2  UNL     1     -32.863   7.152   3.493  1.00 20.00     0.079 A 
HETATM    3  C3  UNL     1     -32.979   5.878   2.720  1.00 20.00     0.048 C 
HETATM    4  O7  UNL     1     -34.127   7.748   3.816  1.00 20.00    -0.375 OA
ENDROOT
BRANCH   2   5
HETATM    5  C5  UNL     1     -31.814   8.150   3.034  1.00 20.00     0.039 C 
BRANCH   5   6
HETATM    6  C6  UNL     1     -31.936   8.443   1.539  1.00 20.00    -0.002 C 
HETATM    7  C4  UNL     1     -32.477   9.841   1.288  1.00 20.00     0.005 C 
ENDBRANCH   5   6
ENDBRANCH   2   5
TORSDOF 2
ENDMDL
MODEL 6
REMARK VINA RESULT:      -3.9      2.050      3.720
REMARK  2 active torsions:
REMARK  status: ('A' for Active; 'I' for Inactive)
REMARK    1  A    between atoms: C2_2  and  C5_5 
REMARK    2  A    between atoms: C5_5  and  C6_6 
ROOT
HETATM    1  C1  UNL     1     -31.752   8.440   1.180  1.00 20.00     0.206 A 
HETATM    2  C2  UNL     1     -32.244   8.006   2.540  1.00 20.00     0.079 A 
HETATM    3  C3  UNL     1     -31.425   8.314   3.752  1.00 20.00     0.048 C 
HETATM    4  O7  UNL     1     -32.768   9.169   1.886  1.00 20.00    -0.375 OA
ENDROOT
BRANCH   2   5
HETATM    5  C5  UNL     1     -33.240   6.862   2.648  1.00 20.00     0.039 C 
BRANCH   5   6
HETATM    6  C6  UNL     1     -33.894   6.818   4.027  1.00 20.00    -0.002 C 
HETATM    7  C4  UNL     1     -34.897   5.680   4.131  1.00 20.00     0.005 C 
ENDBRANCH   5   6
ENDBRANCH   2   5
TORSDOF 2
ENDMDL
MODEL 7
REMARK VINA RESULT:      -3.7      1.821      2.635
REMARK  2 active torsions:
REMARK  status: ('A' for Active; 'I' for Inactive)
REMARK    1  A    between atoms: C2_2  and  C5_5 
REMARK    2  A    between atoms: C5_5  and  C6_6 
ROOT
HETATM    1  C1  UNL     1     -33.476   4.593   3.531  1.00 20.00     0.206 A 
HETATM    2  C2  UNL     1     -34.509   5.301   4.375  1.00 20.00     0.079 A 
HETATM    3  C3  UNL     1     -35.645   6.008   3.708  1.00 20.00     0.048 C 
HETATM    4  O7  UNL     1     -34.529   3.879   4.197  1.00 20.00    -0.375 OA
ENDROOT
BRANCH   2   5
HETATM    5  C5  UNL     1     -34.153   5.738   5.786  1.00 20.00     0.039 C 
BRANCH   5   6
HETATM    6  C6  UNL     1     -34.000   7.255   5.881  1.00 20.00    -0.002 C 
HETATM    7  C4  UNL     1     -32.864   7.756   5.003  1.00 20.00     0.005 C 
ENDBRANCH   5   6
ENDBRANCH   2   5
TORSDOF 2
ENDMDL
MODEL 8
REMARK VINA RESULT:      -3.7      1.443      2.281
REMARK  2 active torsions:
REMARK  status: ('A' for Active; 'I' for Inactive)
REMARK    1  A    between atoms: C2_2  and  C5_5 
REMARK    2  A    between atoms: C5_5  and  C6_6 
ROOT
HETATM    1  C1  UNL     1     -33.754   6.786   3.691  1.00 20.00     0.206 A 
HETATM    2  C2  UNL     1     -32.681   7.523   2.925  1.00 20.00     0.079 A 
HETATM    3  C3  UNL     1     -31.534   8.131   3.665  1.00 20.00     0.048 C 
HETATM    4  O7  UNL     1     -32.714   6.091   2.987  1.00 20.00    -0.375 OA
ENDROOT
BRANCH   2   5
HETATM    5  C5  UNL     1     -32.995   8.085   1.548  1.00 20.00     0.039 C 
BRANCH   5   6
HETATM    6  C6  UNL     1     -31.952   9.110   1.111  1.00 20.00    -0.002 C 
HETATM    7  C4  UNL     1     -32.567  10.488   0.927  1.00 20.00     0.005 C 
ENDBRANCH   5   6
ENDBRANCH   2   5
TORSDOF 2
ENDMDL
MODEL 9
REMARK VINA RESULT:      -3.7      1.240      1.675
REMARK  2 active torsions:
REMARK  status: ('A' for Active; 'I' for Inactive)
REMARK    1  A    between atoms: C2_2  and  C5_5 
REMARK    2  A    between atoms: C5_5  and  C6_6 
ROOT
HETATM    1  C1  UNL     1     -34.405   4.579   5.127  1.00 20.00     0.206 A 
HETATM    2  C2  UNL     1     -34.393   5.648   4.061  1.00 20.00     0.079 A 
HETATM    3  C3  UNL     1     -35.689   6.171   3.529  1.00 20.00     0.048 C 
HETATM    4  O7  UNL     1     -34.169   5.960   5.442  1.00 20.00    -0.375 OA
ENDROOT
BRANCH   2   5
HETATM    5  C5  UNL     1     -33.163   5.821   3.185  1.00 20.00     0.039 C 
BRANCH   5   6
HETATM    6  C6  UNL     1     -33.039   7.253   2.670  1.00 20.00    -0.002 C 
HETATM    7  C4  UNL     1     -31.844   7.965   3.282  1.00 20.00     0.005 C 
ENDBRANCH   5   6
ENDBRANCH   2   5
TORSDOF 2
ENDMDL
