MODEL 1
REMARK VINA RESULT:      -4.5      0.000      0.000
REMARK  3 active torsions:
REMARK  status: ('A' for Active; 'I' for Inactive)
REMARK    1  A    between atoms: C1_1  and  C3_3 
REMARK    2  A    between atoms: C2_2  and  C7_7 
REMARK    3  A    between atoms: C3_3  and  O9_9 
ROOT
HETATM    1  C1  UNL     1     -31.900   7.756   3.393  1.00 20.00     0.078 C 
HETATM    2  C2  UNL     1     -31.646   8.758   2.541  1.00 20.00    -0.017 C 
ENDROOT
BRANCH   1   3
HETATM    3  C3  UNL     1     -33.171   7.007   3.294  1.00 20.00     0.282 C 
HETATM    4  O8  UNL     1     -33.394   6.090   2.520  1.00 20.00    -0.260 OA
BRANCH   3   5
HETATM    5  O9  UNL     1     -34.028   7.527   4.214  1.00 20.00    -0.323 OA
HETATM    6  C6  UNL     1     -33.766   7.163   5.573  1.00 20.00     0.213 C 
ENDBRANCH   3   5
ENDBRANCH   1   3
BRANCH   2   7
HETATM    7  C7  UNL     1     -32.602   9.182   1.453  1.00 20.00    -0.000 C 
HETATM    8  C4  UNL     1     -32.848  10.689   1.525  1.00 20.00     0.013 C 
HETATM    9  C5  UNL     1     -32.050   8.792   0.083  1.00 20.00     0.013 C 
ENDBRANCH   2   7
TORSDOF 3
ENDMDL
MODEL 2
REMARK VINA RESULT:      -4.4      1.557      2.360
REMARK  3 active torsions:
REMARK  status: ('A' for Active; 'I' for Inactive)
REMARK    1  A    between atoms: C1_1  and  C3_3 
REMARK    2  A    between atoms: C2_2  and  C7_7 
REMARK    3  A    between atoms: C3_3  and  O9_9 
ROOT
HETATM    1  C1  UNL     1     -33.486   5.352   3.017  1.00 20.00     0.078 C 
HETATM    2  C2  UNL     1     -32.643   6.260   2.506  1.00 20.00    -0.017 C 
ENDROOT
BRANCH   1   3
HETATM    3  C3  UNL     1     -34.565   5.781   3.934  1.00 20.00     0.282 C 
HETATM    4  O8  UNL     1     -35.674   6.162   3.593  1.00 20.00    -0.260 OA
BRANCH   3   5
HETATM    5  O9  UNL     1     -34.094   5.671   5.206  1.00 20.00    -0.323 OA
HETATM    6  C6  UNL     1     -34.086   6.882   5.966  1.00 20.00     0.213 C 
ENDBRANCH   3   5
ENDBRANCH   1   3
BRANCH   2   7
HETATM    7  C7  UNL     1     -32.729   7.735   2.814  1.00 20.00    -0.000 C 
HETATM    8  C4  UNL     1     -31.580   8.148   3.733  1.00 20.00     0.013 C 
HETATM    9  C5  UNL     1     -32.702   8.547   1.520  1.00 20.00     0.013 C 
ENDBRANCH   2   7
TORSDOF 3
ENDMDL
MODEL 3
REMARK VINA RESULT:      -4.3      1.985      4.367
REMARK  3 active torsions:
REMARK  status: ('A' for Active; 'I' for Inactive)
REMARK    1  A    between atoms: C1_1  and  C3_3 
REMARK    2  A    between atoms: C2_2  and  C7_7 
REMARK    3  A    between atoms: C3_3  and  O9_9 
ROOT
HETATM    1  C1  UNL     1     -34.708   6.248   2.851  1.00 20.00     0.078 C 
HETATM    2  C2  UNL     1     -35.117   6.124   4.121  1.00 20.00    -0.017 C 
ENDROOT
BRANCH   1   3
HETATM    3  C3  UNL     1     -33.265   6.192   2.531  1.00 20.00     0.282 C 
HETATM    4  O8  UNL     1     -32.585   5.179   2.503  1.00 20.00    -0.260 OA
BRANCH   3   5
HETATM    5  O9  UNL     1     -32.849   7.463   2.279  1.00 20.00    -0.323 OA
HETATM    6  C6  UNL     1     -31.814   7.953   3.136  1.00 20.00     0.213 C 
ENDBRANCH   3   5
ENDBRANCH   1   3
BRANCH   2   7
HETATM    7  C7  UNL     1     -34.170   5.923   5.279  1.00 20.00    -0.000 C 
HETATM    8  C4  UNL     1     -33.962   7.242   6.024  1.00 20.00     0.013 C 
HETATM    9  C5  UNL     1     -34.711   4.851   6.224  1.00 20.00     0.013 C 
ENDBRANCH   2   7
TORSDOF 3
ENDMDL
MODEL 4
REMARK VINA RESULT:      -4.3      1.915      4.267
REMARK  3 active torsions:
REMARK  status: ('A' for Active; 'I' for Inactive)
REMARK    1  A    between atoms: C1_1  and  C3_3 
REMARK    2  A    between atoms: C2_2  and  C7_7 
REMARK    3  A    between atoms: C3_3  and  O9_9 
ROOT
HETATM    1  C1  UNL     1     -32.517   6.219   2.608  1.00 20.00     0.078 C 
HETATM    2  C2  UNL     1     -33.439   5.409   3.146  1.00 20.00    -0.017 C 
ENDROOT
BRANCH   1   3
HETATM    3  C3  UNL     1     -32.413   7.623   3.062  1.00 20.00     0.282 C 
HETATM    4  O8  UNL     1     -31.886   7.994   4.099  1.00 20.00    -0.260 OA
BRANCH   3   5
HETATM    5  O9  UNL     1     -33.007   8.406   2.121  1.00 20.00    -0.323 OA
HETATM    6  C6  UNL     1     -32.113   9.095   1.242  1.00 20.00     0.213 C 
ENDBRANCH   3   5
ENDBRANCH   1   3
BRANCH   2   7
HETATM    7  C7  UNL     1     -34.405   5.851   4.219  1.00 20.00    -0.000 C 
HETATM    8  C4  UNL     1     -35.772   6.150   3.605  1.00 20.00     0.013 C 
HETATM    9  C5  UNL     1     -34.522   4.777   5.298  1.00 20.00     0.013 C 
ENDBRANCH   2   7
TORSDOF 3
ENDMDL
MODEL 5
REMARK VINA RESULT:      -4.2      1.945      3.958
REMARK  3 active torsions:
REMARK  status: ('A' for Active; 'I' for Inactive)
REMARK    1  A    between atoms: C1_1  and  C3_3 
REMARK    2  A    between atoms: C2_2  and  C7_7 
REMARK    3  A    between atoms: C3_3  and  O9_9 
ROOT
HETATM    1  C1  UNL     1     -31.917   8.174   3.300  1.00 20.00     0.078 C 
HETATM    2  C2  UNL     1     -32.672   7.169   3.766  1.00 20.00    -0.017 C 
ENDROOT
BRANCH   1   3
HETATM    3  C3  UNL     1     -31.966   8.529   1.865  1.00 20.00     0.282 C 
HETATM    4  O8  UNL     1     -31.248   8.061   0.996  1.00 20.00    -0.260 OA
BRANCH   3   5
HETATM    5  O9  UNL     1     -32.947   9.458   1.704  1.00 20.00    -0.323 OA
HETATM    6  C6  UNL     1     -32.930  10.159   0.457  1.00 20.00     0.213 C 
ENDBRANCH   3   5
ENDBRANCH   1   3
BRANCH   2   7
HETATM    7  C7  UNL     1     -33.596   6.354   2.895  1.00 20.00    -0.000 C 
HETATM    8  C4  UNL     1     -32.950   5.013   2.552  1.00 20.00     0.013 C 
HETATM    9  C5  UNL     1     -34.935   6.142   3.599  1.00 20.00     0.013 C 
ENDBRANCH   2   7
TORSDOF 3
ENDMDL
MODEL 6
REMARK VINA RESULT:      -4.2      1.877      4.137
REMARK  3 active torsions:
REMARK  status: ('A' for Active; 'I' for Inactive)
REMARK    1  A    between atoms: C1_1  and  C3_3 
REMARK    2  A    between atoms: C2_2  and  C7_7 
REMARK    3  A    between atoms: C3_3  and  O9_9 
ROOT
HETATM    1  C1  UNL     1     -31.487   8.743   2.528  1.00 20.00     0.078 C 
HETATM    2  C2  UNL     1     -31.931   7.795   3.364  1.00 20.00    -0.017 C 
ENDROOT
BRANCH   1   3
HETATM    3  C3  UNL     1     -32.421   9.386   1.578  1.00 20.00     0.282 C 
HETATM    4  O8  UNL     1     -33.183  10.301   1.845  1.00 20.00    -0.260 OA
BRANCH   3   5
HETATM    5  O9  UNL     1     -32.269   8.773   0.372  1.00 20.00    -0.323 OA
HETATM    6  C6  UNL     1     -33.118   9.255  -0.673  1.00 20.00     0.213 C 
ENDBRANCH   3   5
ENDBRANCH   1   3
BRANCH   2   7
HETATM    7  C7  UNL     1     -33.366   7.330   3.400  1.00 20.00    -0.000 C 
HETATM    8  C4  UNL     1     -33.514   6.017   2.633  1.00 20.00     0.013 C 
HETATM    9  C5  UNL     1     -33.831   7.163   4.847  1.00 20.00     0.013 C 
ENDBRANCH   2   7
TORSDOF 3
ENDMDL
MODEL 7
REMARK VINA RESULT:      -4.2      1.790      2.644
REMARK  3 active torsions:
REMARK  status: ('A' for Active; 'I' for Inactive)
REMARK    1  A    between atoms: C1_1  and  C3_3 
REMARK    2  A    between atoms: C2_2  and  C7_7 
REMARK    3  A    between atoms: C3_3  and  O9_9 
ROOT
HETATM    1  C1  UNL     1     -34.426   6.359   3.636  1.00 20.00     0.078 C 
HETATM    2  C2  UNL     1     -33.806   7.512   3.351  1.00 20.00    -0.017 C 
ENDROOT
BRANCH   1   3
HETATM    3  C3  UNL     1     -33.736   5.072   3.397  1.00 20.00     0.282 C 
HETATM    4  O8  UNL     1     -32.947   4.849   2.493  1.00 20.00    -0.260 OA
BRANCH   3   5
HETATM    5  O9  UNL     1     -34.142   4.201   4.360  1.00 20.00    -0.323 OA
HETATM    6  C6  UNL     1     -34.584   4.799   5.582  1.00 20.00     0.213 C 
ENDBRANCH   3   5
ENDBRANCH   1   3
BRANCH   2   7
HETATM    7  C7  UNL     1     -32.408   7.584   2.789  1.00 20.00    -0.000 C 
HETATM    8  C4  UNL     1     -32.396   8.428   1.515  1.00 20.00     0.013 C 
HETATM    9  C5  UNL     1     -31.449   8.164   3.828  1.00 20.00     0.013 C 
ENDBRANCH   2   7
TORSDOF 3
ENDMDL
MODEL 8
REMARK VINA RESULT:      -4.1      1.785      4.270
REMARK  3 active torsions:
REMARK  status: ('A' for Active; 'I' for Inactive)
REMARK    1  A    between atoms: C1_1  and  C3_3 
REMARK    2  A    between atoms: C2_2  and  C7_7 
REMARK    3  A    between atoms: C3_3  and  O9_9 
ROOT
HETATM    1  C1  UNL     1     -32.953   7.845   4.476  1.00 20.00     0.078 C 
HETATM    2  C2  UNL     1     -33.757   7.009   5.145  1.00 20.00    -0.017 C 
ENDROOT
BRANCH   1   3
HETATM    3  C3  UNL     1     -32.561   7.536   3.083  1.00 20.00     0.282 C 
HETATM    4  O8  UNL     1     -32.149   6.458   2.687  1.00 20.00    -0.260 OA
BRANCH   3   5
HETATM    5  O9  UNL     1     -32.745   8.664   2.344  1.00 20.00    -0.323 OA
HETATM    6  C6  UNL     1     -31.899   8.792   1.198  1.00 20.00     0.213 C 
ENDBRANCH   3   5
ENDBRANCH   1   3
BRANCH   2   7
HETATM    7  C7  UNL     1     -34.306   5.735   4.551  1.00 20.00    -0.000 C 
HETATM    8  C4  UNL     1     -34.615   4.728   5.658  1.00 20.00     0.013 C 
HETATM    9  C5  UNL     1     -35.560   6.033   3.729  1.00 20.00     0.013 C 
ENDBRANCH   2   7
TORSDOF 3
ENDMDL
MODEL 9
REMARK VINA RESULT:      -4.0      2.348      3.595
REMARK  3 active torsions:
REMARK  status: ('A' for Active; 'I' for Inactive)
REMARK    1  A    between atoms: C1_1  and  C3_3 
REMARK    2  A    between atoms: C2_2  and  C7_7 
REMARK    3  A    between atoms: C3_3  and  O9_9 
ROOT
HETATM    1  C1  UNL     1     -35.358   5.870   4.160  1.00 20.00     0.078 C 
HETATM    2  C2  UNL     1     -34.651   6.155   3.058  1.00 20.00    -0.017 C 
ENDROOT
BRANCH   1   3
HETATM    3  C3  UNL     1     -34.666   5.399   5.379  1.00 20.00     0.282 C 
HETATM    4  O8  UNL     1     -34.228   4.273   5.555  1.00 20.00    -0.260 OA
BRANCH   3   5
HETATM    5  O9  UNL     1     -34.613   6.442   6.251  1.00 20.00    -0.323 OA
HETATM    6  C6  UNL     1     -33.589   7.407   5.994  1.00 20.00     0.213 C 
ENDBRANCH   3   5
ENDBRANCH   1   3
BRANCH   2   7
HETATM    7  C7  UNL     1     -33.149   6.024   2.981  1.00 20.00    -0.000 C 
HETATM    8  C4  UNL     1     -32.769   4.760   2.211  1.00 20.00     0.013 C 
HETATM    9  C5  UNL     1     -32.544   7.261   2.318  1.00 20.00     0.013 C 
ENDBRANCH   2   7
TORSDOF 3
ENDMDL
