MODEL 1
REMARK VINA RESULT:      -5.0      0.000      0.000
REMARK  2 active torsions:
REMARK  status: ('A' for Active; 'I' for Inactive)
REMARK    1  A    between atoms: C2_2  and  C5_5 
REMARK    2  A    between atoms: C5_5  and  C6_6 
ROOT
HETATM    1  C1  UNL     1     -32.912   7.193   2.616  1.00 20.00     0.223 C 
HETATM    2  C2  UNL     1     -33.512   6.101   3.007  1.00 20.00    -0.030 C 
HETATM    3  C3  UNL     1     -32.994   4.737   2.648  1.00 20.00     0.048 C 
HETATM    4  O7  UNL     1     -32.372   8.177   2.264  1.00 20.00    -0.284 OA
ENDROOT
BRANCH   2   5
HETATM    5  C5  UNL     1     -34.770   6.136   3.842  1.00 20.00     0.037 C 
BRANCH   5   6
HETATM    6  C6  UNL     1     -34.485   5.902   5.327  1.00 20.00    -0.000 C 
HETATM    7  C4  UNL     1     -33.872   7.135   5.975  1.00 20.00     0.005 C 
ENDBRANCH   5   6
ENDBRANCH   2   5
TORSDOF 2
ENDMDL
MODEL 2
REMARK VINA RESULT:      -4.9      1.262      2.258
REMARK  2 active torsions:
REMARK  status: ('A' for Active; 'I' for Inactive)
REMARK    1  A    between atoms: C2_2  and  C5_5 
REMARK    2  A    between atoms: C5_5  and  C6_6 
ROOT
HETATM    1  C1  UNL     1     -32.501   7.660   3.489  1.00 20.00     0.223 C 
HETATM    2  C2  UNL     1     -33.466   7.169   4.219  1.00 20.00    -0.030 C 
HETATM    3  C3  UNL     1     -33.559   7.432   5.695  1.00 20.00     0.048 C 
HETATM    4  O7  UNL     1     -31.632   8.102   2.832  1.00 20.00    -0.284 OA
ENDROOT
BRANCH   2   5
HETATM    5  C5  UNL     1     -34.550   6.299   3.627  1.00 20.00     0.037 C 
BRANCH   5   6
HETATM    6  C6  UNL     1     -34.989   5.191   4.587  1.00 20.00    -0.000 C 
HETATM    7  C4  UNL     1     -34.145   3.938   4.410  1.00 20.00     0.005 C 
ENDBRANCH   5   6
ENDBRANCH   2   5
TORSDOF 2
ENDMDL
MODEL 3
REMARK VINA RESULT:      -4.9      2.338      3.662
REMARK  2 active torsions:
REMARK  status: ('A' for Active; 'I' for Inactive)
REMARK    1  A    between atoms: C2_2  and  C5_5 
REMARK    2  A    between atoms: C5_5  and  C6_6 
ROOT
HETATM    1  C1  UNL     1     -34.430   5.216   4.557  1.00 20.00     0.223 C 
HETATM    2  C2  UNL     1     -34.034   6.460   4.608  1.00 20.00    -0.030 C 
HETATM    3  C3  UNL     1     -33.857   7.186   5.911  1.00 20.00     0.048 C 
HETATM    4  O7  UNL     1     -34.786   4.097   4.512  1.00 20.00    -0.284 OA
ENDROOT
BRANCH   2   5
HETATM    5  C5  UNL     1     -33.733   7.253   3.357  1.00 20.00     0.037 C 
BRANCH   5   6
HETATM    6  C6  UNL     1     -32.257   7.643   3.262  1.00 20.00    -0.000 C 
HETATM    7  C4  UNL     1     -31.970   8.423   1.988  1.00 20.00     0.005 C 
ENDBRANCH   5   6
ENDBRANCH   2   5
TORSDOF 2
ENDMDL
MODEL 4
REMARK VINA RESULT:      -4.8      1.932      3.158
REMARK  2 active torsions:
REMARK  status: ('A' for Active; 'I' for Inactive)
REMARK    1  A    between atoms: C2_2  and  C5_5 
REMARK    2  A    between atoms: C5_5  and  C6_6 
ROOT
HETATM    1  C1  UNL     1     -34.052   6.720   5.361  1.00 20.00     0.223 C 
HETATM    2  C2  UNL     1     -34.071   5.912   4.335  1.00 20.00    -0.030 C 
HETATM    3  C3  UNL     1     -34.551   4.493   4.447  1.00 20.00     0.048 C 
HETATM    4  O7  UNL     1     -34.035   7.446   6.286  1.00 20.00    -0.284 OA
ENDROOT
BRANCH   2   5
HETATM    5  C5  UNL     1     -33.604   6.351   2.966  1.00 20.00     0.037 C 
BRANCH   5   6
HETATM    6  C6  UNL     1     -32.396   7.287   3.041  1.00 20.00    -0.000 C 
HETATM    7  C4  UNL     1     -32.442   8.340   1.943  1.00 20.00     0.005 C 
ENDBRANCH   5   6
ENDBRANCH   2   5
TORSDOF 2
ENDMDL
MODEL 5
REMARK VINA RESULT:      -4.6      1.648      3.157
REMARK  2 active torsions:
REMARK  status: ('A' for Active; 'I' for Inactive)
REMARK    1  A    between atoms: C2_2  and  C5_5 
REMARK    2  A    between atoms: C5_5  and  C6_6 
ROOT
HETATM    1  C1  UNL     1     -33.897   6.924   5.644  1.00 20.00     0.223 C 
HETATM    2  C2  UNL     1     -34.472   5.916   5.046  1.00 20.00    -0.030 C 
HETATM    3  C3  UNL     1     -34.686   4.598   5.735  1.00 20.00     0.048 C 
HETATM    4  O7  UNL     1     -33.379   7.831   6.184  1.00 20.00    -0.284 OA
ENDROOT
BRANCH   2   5
HETATM    5  C5  UNL     1     -34.954   6.006   3.616  1.00 20.00     0.037 C 
BRANCH   5   6
HETATM    6  C6  UNL     1     -33.796   6.116   2.622  1.00 20.00    -0.000 C 
HETATM    7  C4  UNL     1     -32.976   4.835   2.583  1.00 20.00     0.005 C 
ENDBRANCH   5   6
ENDBRANCH   2   5
TORSDOF 2
ENDMDL
MODEL 6
REMARK VINA RESULT:      -4.6      2.190      3.715
REMARK  2 active torsions:
REMARK  status: ('A' for Active; 'I' for Inactive)
REMARK    1  A    between atoms: C2_2  and  C5_5 
REMARK    2  A    between atoms: C5_5  and  C6_6 
ROOT
HETATM    1  C1  UNL     1     -33.392   7.332   4.901  1.00 20.00     0.223 C 
HETATM    2  C2  UNL     1     -32.940   7.259   3.678  1.00 20.00    -0.030 C 
HETATM    3  C3  UNL     1     -33.469   6.255   2.693  1.00 20.00     0.048 C 
HETATM    4  O7  UNL     1     -33.798   7.398   6.002  1.00 20.00    -0.284 OA
ENDROOT
BRANCH   2   5
HETATM    5  C5  UNL     1     -31.850   8.176   3.174  1.00 20.00     0.037 C 
BRANCH   5   6
HETATM    6  C6  UNL     1     -31.932   8.393   1.661  1.00 20.00    -0.000 C 
HETATM    7  C4  UNL     1     -32.457   9.782   1.328  1.00 20.00     0.005 C 
ENDBRANCH   5   6
ENDBRANCH   2   5
TORSDOF 2
ENDMDL
MODEL 7
REMARK VINA RESULT:      -4.6      1.906      2.686
REMARK  2 active torsions:
REMARK  status: ('A' for Active; 'I' for Inactive)
REMARK    1  A    between atoms: C2_2  and  C5_5 
REMARK    2  A    between atoms: C5_5  and  C6_6 
ROOT
HETATM    1  C1  UNL     1     -33.300   7.439   5.042  1.00 20.00     0.223 C 
HETATM    2  C2  UNL     1     -33.151   7.198   3.767  1.00 20.00    -0.030 C 
HETATM    3  C3  UNL     1     -32.153   7.943   2.928  1.00 20.00     0.048 C 
HETATM    4  O7  UNL     1     -33.434   7.657   6.190  1.00 20.00    -0.284 OA
ENDROOT
BRANCH   2   5
HETATM    5  C5  UNL     1     -33.979   6.156   3.051  1.00 20.00     0.037 C 
BRANCH   5   6
HETATM    6  C6  UNL     1     -34.982   5.474   3.983  1.00 20.00    -0.000 C 
HETATM    7  C4  UNL     1     -34.424   4.172   4.540  1.00 20.00     0.005 C 
ENDBRANCH   5   6
ENDBRANCH   2   5
TORSDOF 2
ENDMDL
MODEL 8
REMARK VINA RESULT:      -4.6      1.610      2.223
REMARK  2 active torsions:
REMARK  status: ('A' for Active; 'I' for Inactive)
REMARK    1  A    between atoms: C2_2  and  C5_5 
REMARK    2  A    between atoms: C5_5  and  C6_6 
ROOT
HETATM    1  C1  UNL     1     -32.955   5.736   2.832  1.00 20.00     0.223 C 
HETATM    2  C2  UNL     1     -33.031   6.962   3.274  1.00 20.00    -0.030 C 
HETATM    3  C3  UNL     1     -32.058   8.024   2.847  1.00 20.00     0.048 C 
HETATM    4  O7  UNL     1     -32.885   4.632   2.434  1.00 20.00    -0.284 OA
ENDROOT
BRANCH   2   5
HETATM    5  C5  UNL     1     -34.102   7.394   4.249  1.00 20.00     0.037 C 
BRANCH   5   6
HETATM    6  C6  UNL     1     -33.883   6.805   5.644  1.00 20.00    -0.000 C 
HETATM    7  C4  UNL     1     -34.619   5.484   5.810  1.00 20.00     0.005 C 
ENDBRANCH   5   6
ENDBRANCH   2   5
TORSDOF 2
ENDMDL
MODEL 9
REMARK VINA RESULT:      -4.3      2.013      3.767
REMARK  2 active torsions:
REMARK  status: ('A' for Active; 'I' for Inactive)
REMARK    1  A    between atoms: C2_2  and  C5_5 
REMARK    2  A    between atoms: C5_5  and  C6_6 
ROOT
HETATM    1  C1  UNL     1     -33.038   6.108   3.019  1.00 20.00     0.223 C 
HETATM    2  C2  UNL     1     -32.788   7.230   3.638  1.00 20.00    -0.030 C 
HETATM    3  C3  UNL     1     -33.404   7.561   4.968  1.00 20.00     0.048 C 
HETATM    4  O7  UNL     1     -33.263   5.097   2.462  1.00 20.00    -0.284 OA
ENDROOT
BRANCH   2   5
HETATM    5  C5  UNL     1     -31.865   8.275   3.054  1.00 20.00     0.037 C 
BRANCH   5   6
HETATM    6  C6  UNL     1     -32.112   8.493   1.560  1.00 20.00    -0.000 C 
HETATM    7  C4  UNL     1     -32.521   9.930   1.270  1.00 20.00     0.005 C 
ENDBRANCH   5   6
ENDBRANCH   2   5
TORSDOF 2
ENDMDL
