MODEL 1
REMARK VINA RESULT:      -4.9      0.000      0.000
REMARK  4 active torsions:
REMARK  status: ('A' for Active; 'I' for Inactive)
REMARK    1  A    between atoms: C5_5  and  C6_6 
REMARK    2  A    between atoms: C5_5  and  C7_7 
REMARK    3  A    between atoms: C6_6  and  C8_8 
REMARK    4  A    between atoms: C7_7  and  O9_9 
ROOT
HETATM    1  C5  UNL     1     -33.316   7.034   2.270  1.00 20.00     0.032 C 
ENDROOT
BRANCH   1   2
HETATM    2  C6  UNL     1     -33.058   5.998   3.377  1.00 20.00     0.011 C 
BRANCH   2   3
HETATM    3  C8  UNL     1     -34.235   5.757   4.362  1.00 20.00    -0.051 C 
HETATM    4  C2  UNL     1     -34.100   6.637   5.615  1.00 20.00     0.014 C 
HETATM    5  C3  UNL     1     -35.546   6.130   3.643  1.00 20.00     0.014 C 
HETATM    6  C4  UNL     1     -34.314   4.282   4.785  1.00 20.00     0.014 C 
ENDBRANCH   2   3
ENDBRANCH   1   2
BRANCH   1   7
HETATM    7  C7  UNL     1     -32.494   8.311   2.481  1.00 20.00     0.114 C 
HETATM    8  C1  UNL     1     -31.832   8.760   1.184  1.00 20.00     0.039 C 
BRANCH   7   9
HETATM    9  O9  UNL     1     -31.480   8.061   3.450  1.00 20.00    -0.396 OA
HETATM   10  H27 UNL     1     -31.286   7.112   3.411  1.00 20.00     0.210 HD
ENDBRANCH   7   9
ENDBRANCH   1   7
TORSDOF 4
ENDMDL
MODEL 2
REMARK VINA RESULT:      -4.9      0.035      1.439
REMARK  4 active torsions:
REMARK  status: ('A' for Active; 'I' for Inactive)
REMARK    1  A    between atoms: C5_5  and  C6_6 
REMARK    2  A    between atoms: C5_5  and  C7_7 
REMARK    3  A    between atoms: C6_6  and  C8_8 
REMARK    4  A    between atoms: C7_7  and  O9_9 
ROOT
HETATM    1  C5  UNL     1     -33.260   7.004   2.268  1.00 20.00     0.032 C 
ENDROOT
BRANCH   1   2
HETATM    2  C6  UNL     1     -33.034   6.001   3.410  1.00 20.00     0.011 C 
BRANCH   2   3
HETATM    3  C8  UNL     1     -34.251   5.760   4.345  1.00 20.00    -0.051 C 
HETATM    4  C2  UNL     1     -34.313   4.295   4.810  1.00 20.00     0.014 C 
HETATM    5  C3  UNL     1     -34.089   6.659   5.586  1.00 20.00     0.014 C 
HETATM    6  C4  UNL     1     -35.571   6.125   3.648  1.00 20.00     0.014 C 
ENDBRANCH   2   3
ENDBRANCH   1   2
BRANCH   1   7
HETATM    7  C7  UNL     1     -32.482   8.307   2.489  1.00 20.00     0.114 C 
HETATM    8  C1  UNL     1     -31.835   8.789   1.197  1.00 20.00     0.039 C 
BRANCH   7   9
HETATM    9  O9  UNL     1     -31.463   8.085   3.459  1.00 20.00    -0.396 OA
HETATM   10  H27 UNL     1     -31.405   7.126   3.586  1.00 20.00     0.210 HD
ENDBRANCH   7   9
ENDBRANCH   1   7
TORSDOF 4
ENDMDL
MODEL 3
REMARK VINA RESULT:      -4.8      0.069      1.433
REMARK  4 active torsions:
REMARK  status: ('A' for Active; 'I' for Inactive)
REMARK    1  A    between atoms: C5_5  and  C6_6 
REMARK    2  A    between atoms: C5_5  and  C7_7 
REMARK    3  A    between atoms: C6_6  and  C8_8 
REMARK    4  A    between atoms: C7_7  and  O9_9 
ROOT
HETATM    1  C5  UNL     1     -33.281   7.067   2.280  1.00 20.00     0.032 C 
ENDROOT
BRANCH   1   2
HETATM    2  C6  UNL     1     -33.040   6.038   3.396  1.00 20.00     0.011 C 
BRANCH   2   3
HETATM    3  C8  UNL     1     -34.249   5.761   4.330  1.00 20.00    -0.051 C 
HETATM    4  C2  UNL     1     -35.577   6.118   3.642  1.00 20.00     0.014 C 
HETATM    5  C3  UNL     1     -34.262   4.256   4.664  1.00 20.00     0.014 C 
HETATM    6  C4  UNL     1     -34.132   6.550   5.644  1.00 20.00     0.014 C 
ENDBRANCH   2   3
ENDBRANCH   1   2
BRANCH   1   7
HETATM    7  C7  UNL     1     -32.448   8.338   2.485  1.00 20.00     0.114 C 
HETATM    8  C1  UNL     1     -31.771   8.768   1.190  1.00 20.00     0.039 C 
BRANCH   7   9
HETATM    9  O9  UNL     1     -31.446   8.088   3.466  1.00 20.00    -0.396 OA
HETATM   10  H27 UNL     1     -31.283   8.931   3.917  1.00 20.00     0.210 HD
ENDBRANCH   7   9
ENDBRANCH   1   7
TORSDOF 4
ENDMDL
MODEL 4
REMARK VINA RESULT:      -4.4      2.049      4.116
REMARK  4 active torsions:
REMARK  status: ('A' for Active; 'I' for Inactive)
REMARK    1  A    between atoms: C5_5  and  C6_6 
REMARK    2  A    between atoms: C5_5  and  C7_7 
REMARK    3  A    between atoms: C6_6  and  C8_8 
REMARK    4  A    between atoms: C7_7  and  O9_9 
ROOT
HETATM    1  C5  UNL     1     -34.894   6.086   3.488  1.00 20.00     0.032 C 
ENDROOT
BRANCH   1   2
HETATM    2  C6  UNL     1     -34.040   7.314   3.843  1.00 20.00     0.011 C 
BRANCH   2   3
HETATM    3  C8  UNL     1     -32.757   7.511   2.990  1.00 20.00    -0.051 C 
HETATM    4  C2  UNL     1     -31.601   8.059   3.844  1.00 20.00     0.014 C 
HETATM    5  C3  UNL     1     -32.339   6.139   2.427  1.00 20.00     0.014 C 
HETATM    6  C4  UNL     1     -33.012   8.464   1.812  1.00 20.00     0.014 C 
ENDBRANCH   2   3
ENDBRANCH   1   2
BRANCH   1   7
HETATM    7  C7  UNL     1     -35.025   5.120   4.671  1.00 20.00     0.114 C 
HETATM    8  C1  UNL     1     -34.389   5.699   5.929  1.00 20.00     0.039 C 
BRANCH   7   9
HETATM    9  O9  UNL     1     -34.375   3.894   4.351  1.00 20.00    -0.396 OA
HETATM   10  H27 UNL     1     -34.799   3.206   4.887  1.00 20.00     0.210 HD
ENDBRANCH   7   9
ENDBRANCH   1   7
TORSDOF 4
ENDMDL
MODEL 5
REMARK VINA RESULT:      -4.3      1.712      4.634
REMARK  4 active torsions:
REMARK  status: ('A' for Active; 'I' for Inactive)
REMARK    1  A    between atoms: C5_5  and  C6_6 
REMARK    2  A    between atoms: C5_5  and  C7_7 
REMARK    3  A    between atoms: C6_6  and  C8_8 
REMARK    4  A    between atoms: C7_7  and  O9_9 
ROOT
HETATM    1  C5  UNL     1     -32.348   7.776   3.010  1.00 20.00     0.032 C 
ENDROOT
BRANCH   1   2
HETATM    2  C6  UNL     1     -33.211   8.311   1.856  1.00 20.00     0.011 C 
BRANCH   2   3
HETATM    3  C8  UNL     1     -32.493   9.269   0.866  1.00 20.00    -0.051 C 
HETATM    4  C2  UNL     1     -31.049   8.811   0.598  1.00 20.00     0.014 C 
HETATM    5  C3  UNL     1     -33.267   9.250  -0.467  1.00 20.00     0.014 C 
HETATM    6  C4  UNL     1     -32.476  10.711   1.399  1.00 20.00     0.014 C 
ENDBRANCH   2   3
ENDBRANCH   1   2
BRANCH   1   7
HETATM    7  C7  UNL     1     -33.091   6.720   3.837  1.00 20.00     0.114 C 
HETATM    8  C1  UNL     1     -34.150   6.011   3.002  1.00 20.00     0.039 C 
BRANCH   7   9
HETATM    9  O9  UNL     1     -33.728   7.354   4.943  1.00 20.00    -0.396 OA
HETATM   10  H27 UNL     1     -33.799   8.295   4.719  1.00 20.00     0.210 HD
ENDBRANCH   7   9
ENDBRANCH   1   7
TORSDOF 4
ENDMDL
MODEL 6
REMARK VINA RESULT:      -4.2      1.880      4.410
REMARK  4 active torsions:
REMARK  status: ('A' for Active; 'I' for Inactive)
REMARK    1  A    between atoms: C5_5  and  C6_6 
REMARK    2  A    between atoms: C5_5  and  C7_7 
REMARK    3  A    between atoms: C6_6  and  C8_8 
REMARK    4  A    between atoms: C7_7  and  O9_9 
ROOT
HETATM    1  C5  UNL     1     -33.148   6.674   3.193  1.00 20.00     0.032 C 
ENDROOT
BRANCH   1   2
HETATM    2  C6  UNL     1     -33.337   7.656   2.026  1.00 20.00     0.011 C 
BRANCH   2   3
HETATM    3  C8  UNL     1     -32.217   8.718   1.852  1.00 20.00    -0.051 C 
HETATM    4  C2  UNL     1     -32.807  10.133   1.735  1.00 20.00     0.014 C 
HETATM    5  C3  UNL     1     -31.311   8.669   3.098  1.00 20.00     0.014 C 
HETATM    6  C4  UNL     1     -31.357   8.424   0.613  1.00 20.00     0.014 C 
ENDBRANCH   2   3
ENDBRANCH   1   2
BRANCH   1   7
HETATM    7  C7  UNL     1     -34.281   6.785   4.221  1.00 20.00     0.114 C 
HETATM    8  C1  UNL     1     -33.745   7.184   5.591  1.00 20.00     0.039 C 
BRANCH   7   9
HETATM    9  O9  UNL     1     -34.936   5.525   4.335  1.00 20.00    -0.396 OA
HETATM   10  H27 UNL     1     -34.901   5.278   5.272  1.00 20.00     0.210 HD
ENDBRANCH   7   9
ENDBRANCH   1   7
TORSDOF 4
ENDMDL
MODEL 7
REMARK VINA RESULT:      -4.1      1.765      4.332
REMARK  4 active torsions:
REMARK  status: ('A' for Active; 'I' for Inactive)
REMARK    1  A    between atoms: C5_5  and  C6_6 
REMARK    2  A    between atoms: C5_5  and  C7_7 
REMARK    3  A    between atoms: C6_6  and  C8_8 
REMARK    4  A    between atoms: C7_7  and  O9_9 
ROOT
HETATM    1  C5  UNL     1     -33.134   6.402   2.942  1.00 20.00     0.032 C 
ENDROOT
BRANCH   1   2
HETATM    2  C6  UNL     1     -33.402   7.644   2.078  1.00 20.00     0.011 C 
BRANCH   2   3
HETATM    3  C8  UNL     1     -32.218   8.640   1.944  1.00 20.00    -0.051 C 
HETATM    4  C2  UNL     1     -31.377   8.339   0.693  1.00 20.00     0.014 C 
HETATM    5  C3  UNL     1     -32.798  10.062   1.811  1.00 20.00     0.014 C 
HETATM    6  C4  UNL     1     -31.312   8.598   3.185  1.00 20.00     0.014 C 
ENDBRANCH   2   3
ENDBRANCH   1   2
BRANCH   1   7
HETATM    7  C7  UNL     1     -34.255   6.163   3.962  1.00 20.00     0.114 C 
HETATM    8  C1  UNL     1     -33.991   6.920   5.258  1.00 20.00     0.039 C 
BRANCH   7   9
HETATM    9  O9  UNL     1     -34.336   4.771   4.252  1.00 20.00    -0.396 OA
HETATM   10  H27 UNL     1     -33.788   4.318   3.593  1.00 20.00     0.210 HD
ENDBRANCH   7   9
ENDBRANCH   1   7
TORSDOF 4
ENDMDL
MODEL 8
REMARK VINA RESULT:      -3.9     10.961     11.869
REMARK  4 active torsions:
REMARK  status: ('A' for Active; 'I' for Inactive)
REMARK    1  A    between atoms: C5_5  and  C6_6 
REMARK    2  A    between atoms: C5_5  and  C7_7 
REMARK    3  A    between atoms: C6_6  and  C8_8 
REMARK    4  A    between atoms: C7_7  and  O9_9 
ROOT
HETATM    1  C5  UNL     1     -33.443  15.850  -3.848  1.00 20.00     0.032 C 
ENDROOT
BRANCH   1   2
HETATM    2  C6  UNL     1     -34.636  16.083  -2.906  1.00 20.00     0.011 C 
BRANCH   2   3
HETATM    3  C8  UNL     1     -34.564  17.366  -2.033  1.00 20.00    -0.051 C 
HETATM    4  C2  UNL     1     -35.161  18.575  -2.772  1.00 20.00     0.014 C 
HETATM    5  C3  UNL     1     -35.387  17.122  -0.753  1.00 20.00     0.014 C 
HETATM    6  C4  UNL     1     -33.116  17.684  -1.628  1.00 20.00     0.014 C 
ENDBRANCH   2   3
ENDBRANCH   1   2
BRANCH   1   7
HETATM    7  C7  UNL     1     -33.644  14.610  -4.728  1.00 20.00     0.114 C 
HETATM    8  C1  UNL     1     -35.001  13.965  -4.470  1.00 20.00     0.039 C 
BRANCH   7   9
HETATM    9  O9  UNL     1     -32.623  13.660  -4.439  1.00 20.00    -0.396 OA
HETATM   10  H27 UNL     1     -32.560  13.077  -5.211  1.00 20.00     0.210 HD
ENDBRANCH   7   9
ENDBRANCH   1   7
TORSDOF 4
ENDMDL
MODEL 9
REMARK VINA RESULT:      -3.9     10.970     11.885
REMARK  4 active torsions:
REMARK  status: ('A' for Active; 'I' for Inactive)
REMARK    1  A    between atoms: C5_5  and  C6_6 
REMARK    2  A    between atoms: C5_5  and  C7_7 
REMARK    3  A    between atoms: C6_6  and  C8_8 
REMARK    4  A    between atoms: C7_7  and  O9_9 
ROOT
HETATM    1  C5  UNL     1     -33.437  15.823  -3.750  1.00 20.00     0.032 C 
ENDROOT
BRANCH   1   2
HETATM    2  C6  UNL     1     -34.702  16.119  -2.928  1.00 20.00     0.011 C 
BRANCH   2   3
HETATM    3  C8  UNL     1     -34.631  17.369  -2.009  1.00 20.00    -0.051 C 
HETATM    4  C2  UNL     1     -35.388  17.135  -0.691  1.00 20.00     0.014 C 
HETATM    5  C3  UNL     1     -33.149  17.639  -1.680  1.00 20.00     0.014 C 
HETATM    6  C4  UNL     1     -35.207  18.610  -2.710  1.00 20.00     0.014 C 
ENDBRANCH   2   3
ENDBRANCH   1   2
BRANCH   1   7
HETATM    7  C7  UNL     1     -33.635  14.629  -4.692  1.00 20.00     0.114 C 
HETATM    8  C1  UNL     1     -34.997  13.979  -4.480  1.00 20.00     0.039 C 
BRANCH   7   9
HETATM    9  O9  UNL     1     -32.621  13.661  -4.441  1.00 20.00    -0.396 OA
HETATM   10  H27 UNL     1     -32.143  13.537  -5.276  1.00 20.00     0.210 HD
ENDBRANCH   7   9
ENDBRANCH   1   7
TORSDOF 4
ENDMDL
