MODEL 1
REMARK VINA RESULT:      -5.7      0.000      0.000
REMARK  3 active torsions:
REMARK  status: ('A' for Active; 'I' for Inactive)
REMARK    1  A    between atoms: C4_4  and  C6_6 
REMARK    2  A    between atoms: C6_6  and  C8_8 
REMARK    3  A    between atoms: C7_7  and  C8_8 
ROOT
HETATM    1  C1  UNL     1     -34.019   7.093   6.090  1.00 20.00     0.011 C 
HETATM    2  C2  UNL     1     -33.051   7.500   4.990  1.00 20.00     0.016 C 
HETATM    3  C3  UNL     1     -34.503   5.696   5.742  1.00 20.00     0.074 C 
HETATM    4  C4  UNL     1     -33.773   7.250   3.668  1.00 20.00     0.047 C 
HETATM    5  S9  UNL     1     -34.697   5.702   3.938  1.00 20.00    -0.164 SA
ENDROOT
BRANCH   4   6
HETATM    6  C6  UNL     1     -32.820   7.133   2.492  1.00 20.00     0.015 C 
BRANCH   6   7
HETATM    7  C8  UNL     1     -31.879   8.336   2.411  1.00 20.00     0.001 C 
BRANCH   7   8
HETATM    8  C7  UNL     1     -31.952   9.008   1.040  1.00 20.00    -0.005 C 
HETATM    9  C5  UNL     1     -32.762  10.292   1.092  1.00 20.00     0.005 C 
ENDBRANCH   7   8
ENDBRANCH   6   7
ENDBRANCH   4   6
TORSDOF 3
ENDMDL
MODEL 2
REMARK VINA RESULT:      -5.5      1.064      1.213
REMARK  3 active torsions:
REMARK  status: ('A' for Active; 'I' for Inactive)
REMARK    1  A    between atoms: C4_4  and  C6_6 
REMARK    2  A    between atoms: C6_6  and  C8_8 
REMARK    3  A    between atoms: C7_7  and  C8_8 
ROOT
HETATM    1  C1  UNL     1     -34.784   5.787   5.331  1.00 20.00     0.011 C 
HETATM    2  C2  UNL     1     -33.746   6.894   5.233  1.00 20.00     0.016 C 
HETATM    3  C3  UNL     1     -34.321   4.678   4.403  1.00 20.00     0.074 C 
HETATM    4  C4  UNL     1     -33.556   7.174   3.744  1.00 20.00     0.047 C 
HETATM    5  S9  UNL     1     -33.634   5.532   2.957  1.00 20.00    -0.164 SA
ENDROOT
BRANCH   4   6
HETATM    6  C6  UNL     1     -32.243   7.876   3.442  1.00 20.00     0.015 C 
BRANCH   6   7
HETATM    7  C8  UNL     1     -32.067   8.113   1.941  1.00 20.00     0.001 C 
BRANCH   7   8
HETATM    8  C7  UNL     1     -32.487   9.529   1.549  1.00 20.00    -0.005 C 
HETATM    9  C5  UNL     1     -32.837   9.617   0.072  1.00 20.00     0.005 C 
ENDBRANCH   7   8
ENDBRANCH   6   7
ENDBRANCH   4   6
TORSDOF 3
ENDMDL
MODEL 3
REMARK VINA RESULT:      -4.2      1.177      1.575
REMARK  3 active torsions:
REMARK  status: ('A' for Active; 'I' for Inactive)
REMARK    1  A    between atoms: C4_4  and  C6_6 
REMARK    2  A    between atoms: C6_6  and  C8_8 
REMARK    3  A    between atoms: C7_7  and  C8_8 
ROOT
HETATM    1  C1  UNL     1     -34.744   6.150   6.017  1.00 20.00     0.011 C 
HETATM    2  C2  UNL     1     -33.871   6.884   5.010  1.00 20.00     0.016 C 
HETATM    3  C3  UNL     1     -34.444   4.671   5.847  1.00 20.00     0.074 C 
HETATM    4  C4  UNL     1     -34.107   6.207   3.663  1.00 20.00     0.047 C 
HETATM    5  S9  UNL     1     -34.243   4.433   4.060  1.00 20.00    -0.164 SA
ENDROOT
BRANCH   4   6
HETATM    6  C6  UNL     1     -32.989   6.472   2.669  1.00 20.00     0.015 C 
BRANCH   6   7
HETATM    7  C8  UNL     1     -33.119   7.858   2.036  1.00 20.00     0.001 C 
BRANCH   7   8
HETATM    8  C7  UNL     1     -31.822   8.655   2.171  1.00 20.00    -0.005 C 
HETATM    9  C5  UNL     1     -31.165   8.424   3.522  1.00 20.00     0.005 C 
ENDBRANCH   7   8
ENDBRANCH   6   7
ENDBRANCH   4   6
TORSDOF 3
ENDMDL
MODEL 4
REMARK VINA RESULT:      -4.1      1.738      4.437
REMARK  3 active torsions:
REMARK  status: ('A' for Active; 'I' for Inactive)
REMARK    1  A    between atoms: C4_4  and  C6_6 
REMARK    2  A    between atoms: C6_6  and  C8_8 
REMARK    3  A    between atoms: C7_7  and  C8_8 
ROOT
HETATM    1  C1  UNL     1     -31.867   8.399   2.312  1.00 20.00     0.011 C 
HETATM    2  C2  UNL     1     -32.926   7.332   2.084  1.00 20.00     0.016 C 
HETATM    3  C3  UNL     1     -31.377   8.222   3.739  1.00 20.00     0.074 C 
HETATM    4  C4  UNL     1     -33.908   7.446   3.248  1.00 20.00     0.047 C 
HETATM    5  S9  UNL     1     -32.860   7.804   4.696  1.00 20.00    -0.164 SA
ENDROOT
BRANCH   4   6
HETATM    6  C6  UNL     1     -34.727   6.184   3.451  1.00 20.00     0.015 C 
BRANCH   6   7
HETATM    7  C8  UNL     1     -33.856   4.930   3.362  1.00 20.00     0.001 C 
BRANCH   7   8
HETATM    8  C7  UNL     1     -34.065   4.021   4.573  1.00 20.00    -0.005 C 
HETATM    9  C5  UNL     1     -34.660   4.783   5.745  1.00 20.00     0.005 C 
ENDBRANCH   7   8
ENDBRANCH   6   7
ENDBRANCH   4   6
TORSDOF 3
ENDMDL
MODEL 5
REMARK VINA RESULT:      -4.0      1.370      4.532
REMARK  3 active torsions:
REMARK  status: ('A' for Active; 'I' for Inactive)
REMARK    1  A    between atoms: C4_4  and  C6_6 
REMARK    2  A    between atoms: C6_6  and  C8_8 
REMARK    3  A    between atoms: C7_7  and  C8_8 
ROOT
HETATM    1  C1  UNL     1     -31.346   8.563   2.595  1.00 20.00     0.011 C 
HETATM    2  C2  UNL     1     -31.805   8.481   4.043  1.00 20.00     0.016 C 
HETATM    3  C3  UNL     1     -32.593   8.419   1.740  1.00 20.00     0.074 C 
HETATM    4  C4  UNL     1     -32.664   7.224   4.151  1.00 20.00     0.047 C 
HETATM    5  S9  UNL     1     -33.607   7.178   2.592  1.00 20.00    -0.164 SA
ENDROOT
BRANCH   4   6
HETATM    6  C6  UNL     1     -33.584   7.243   5.360  1.00 20.00     0.015 C 
BRANCH   6   7
HETATM    7  C8  UNL     1     -34.783   6.314   5.166  1.00 20.00     0.001 C 
BRANCH   7   8
HETATM    8  C7  UNL     1     -34.459   4.888   5.611  1.00 20.00    -0.005 C 
HETATM    9  C5  UNL     1     -34.222   3.974   4.420  1.00 20.00     0.005 C 
ENDBRANCH   7   8
ENDBRANCH   6   7
ENDBRANCH   4   6
TORSDOF 3
ENDMDL
MODEL 6
REMARK VINA RESULT:      -4.0      1.938      4.834
REMARK  3 active torsions:
REMARK  status: ('A' for Active; 'I' for Inactive)
REMARK    1  A    between atoms: C4_4  and  C6_6 
REMARK    2  A    between atoms: C6_6  and  C8_8 
REMARK    3  A    between atoms: C7_7  and  C8_8 
ROOT
HETATM    1  C1  UNL     1     -32.965  10.487   1.100  1.00 20.00     0.011 C 
HETATM    2  C2  UNL     1     -33.234   9.510   2.234  1.00 20.00     0.016 C 
HETATM    3  C3  UNL     1     -32.519   9.654  -0.089  1.00 20.00     0.074 C 
HETATM    4  C4  UNL     1     -31.995   8.626   2.344  1.00 20.00     0.047 C 
HETATM    5  S9  UNL     1     -31.480   8.345   0.618  1.00 20.00    -0.164 SA
ENDROOT
BRANCH   4   6
HETATM    6  C6  UNL     1     -32.268   7.318   3.065  1.00 20.00     0.015 C 
BRANCH   6   7
HETATM    7  C8  UNL     1     -33.682   7.284   3.647  1.00 20.00     0.001 C 
BRANCH   7   8
HETATM    8  C7  UNL     1     -33.654   7.169   5.171  1.00 20.00    -0.005 C 
HETATM    9  C5  UNL     1     -34.416   5.945   5.650  1.00 20.00     0.005 C 
ENDBRANCH   7   8
ENDBRANCH   6   7
ENDBRANCH   4   6
TORSDOF 3
ENDMDL
MODEL 7
REMARK VINA RESULT:      -3.8     10.755     11.577
REMARK  3 active torsions:
REMARK  status: ('A' for Active; 'I' for Inactive)
REMARK    1  A    between atoms: C4_4  and  C6_6 
REMARK    2  A    between atoms: C6_6  and  C8_8 
REMARK    3  A    between atoms: C7_7  and  C8_8 
ROOT
HETATM    1  C1  UNL     1     -35.822  13.632  -5.088  1.00 20.00     0.011 C 
HETATM    2  C2  UNL     1     -34.665  14.062  -4.199  1.00 20.00     0.016 C 
HETATM    3  C3  UNL     1     -35.940  14.684  -6.178  1.00 20.00     0.074 C 
HETATM    4  C4  UNL     1     -34.926  15.519  -3.828  1.00 20.00     0.047 C 
HETATM    5  S9  UNL     1     -35.609  16.262  -5.346  1.00 20.00    -0.164 SA
ENDROOT
BRANCH   4   6
HETATM    6  C6  UNL     1     -33.671  16.242  -3.369  1.00 20.00     0.015 C 
BRANCH   6   7
HETATM    7  C8  UNL     1     -33.904  16.990  -2.056  1.00 20.00     0.001 C 
BRANCH   7   8
HETATM    8  C7  UNL     1     -35.334  16.799  -1.553  1.00 20.00    -0.005 C 
HETATM    9  C5  UNL     1     -35.524  17.406  -0.173  1.00 20.00     0.005 C 
ENDBRANCH   7   8
ENDBRANCH   6   7
ENDBRANCH   4   6
TORSDOF 3
ENDMDL
MODEL 8
REMARK VINA RESULT:      -3.7     10.893     11.920
REMARK  3 active torsions:
REMARK  status: ('A' for Active; 'I' for Inactive)
REMARK    1  A    between atoms: C4_4  and  C6_6 
REMARK    2  A    between atoms: C6_6  and  C8_8 
REMARK    3  A    between atoms: C7_7  and  C8_8 
ROOT
HETATM    1  C1  UNL     1     -33.684  15.368  -6.626  1.00 20.00     0.011 C 
HETATM    2  C2  UNL     1     -33.443  16.394  -5.530  1.00 20.00     0.016 C 
HETATM    3  C3  UNL     1     -34.901  14.564  -6.203  1.00 20.00     0.074 C 
HETATM    4  C4  UNL     1     -33.428  15.621  -4.214  1.00 20.00     0.047 C 
HETATM    5  S9  UNL     1     -34.730  14.360  -4.409  1.00 20.00    -0.164 SA
ENDROOT
BRANCH   4   6
HETATM    6  C6  UNL     1     -33.686  16.508  -3.008  1.00 20.00     0.015 C 
BRANCH   6   7
HETATM    7  C8  UNL     1     -35.140  16.411  -2.543  1.00 20.00     0.001 C 
BRANCH   7   8
HETATM    8  C7  UNL     1     -35.310  16.972  -1.131  1.00 20.00    -0.005 C 
HETATM    9  C5  UNL     1     -34.105  17.796  -0.710  1.00 20.00     0.005 C 
ENDBRANCH   7   8
ENDBRANCH   6   7
ENDBRANCH   4   6
TORSDOF 3
ENDMDL
MODEL 9
REMARK VINA RESULT:      -3.7     10.845     11.823
REMARK  3 active torsions:
REMARK  status: ('A' for Active; 'I' for Inactive)
REMARK    1  A    between atoms: C4_4  and  C6_6 
REMARK    2  A    between atoms: C6_6  and  C8_8 
REMARK    3  A    between atoms: C7_7  and  C8_8 
ROOT
HETATM    1  C1  UNL     1     -34.158  14.279  -7.217  1.00 20.00     0.011 C 
HETATM    2  C2  UNL     1     -33.945  15.199  -6.026  1.00 20.00     0.016 C 
HETATM    3  C3  UNL     1     -35.583  13.764  -7.114  1.00 20.00     0.074 C 
HETATM    4  C4  UNL     1     -34.387  14.415  -4.793  1.00 20.00     0.047 C 
HETATM    5  S9  UNL     1     -35.857  13.488  -5.342  1.00 20.00    -0.164 SA
ENDROOT
BRANCH   4   6
HETATM    6  C6  UNL     1     -34.703  15.312  -3.609  1.00 20.00     0.015 C 
BRANCH   6   7
HETATM    7  C8  UNL     1     -33.662  16.421  -3.452  1.00 20.00     0.001 C 
BRANCH   7   8
HETATM    8  C7  UNL     1     -33.733  17.058  -2.064  1.00 20.00    -0.005 C 
HETATM    9  C5  UNL     1     -35.132  16.962  -1.478  1.00 20.00     0.005 C 
ENDBRANCH   7   8
ENDBRANCH   6   7
ENDBRANCH   4   6
TORSDOF 3
ENDMDL
