MODEL 1
REMARK VINA RESULT:      -5.1      0.000      0.000
REMARK  3 active torsions:
REMARK  status: ('A' for Active; 'I' for Inactive)
REMARK    1  A    between atoms: C2_2  and  C5_5 
REMARK    2  A    between atoms: C5_5  and  C6_6 
REMARK    3  A    between atoms: C6_6  and  C7_7 
ROOT
HETATM    1  C5  UNL     1     -33.675   7.409   3.716  1.00 20.00     0.034 C 
ENDROOT
BRANCH   1   2
HETATM    2  C2  UNL     1     -32.403   7.365   2.884  1.00 20.00     0.145 A 
HETATM    3  C1  UNL     1     -31.996   8.526   2.020  1.00 20.00     0.200 A 
HETATM    4  O8  UNL     1     -31.388   8.285   3.298  1.00 20.00    -0.381 OA
ENDBRANCH   1   2
BRANCH   1   5
HETATM    5  C6  UNL     1     -34.601   6.236   3.383  1.00 20.00     0.006 C 
BRANCH   5   6
HETATM    6  C7  UNL     1     -34.876   5.312   4.584  1.00 20.00    -0.023 C 
HETATM    7  C3  UNL     1     -34.434   5.999   5.879  1.00 20.00     0.009 C 
HETATM    8  C4  UNL     1     -34.174   3.960   4.453  1.00 20.00     0.009 C 
ENDBRANCH   5   6
ENDBRANCH   1   5
TORSDOF 3
ENDMDL
MODEL 2
REMARK VINA RESULT:      -4.9      1.464      2.004
REMARK  3 active torsions:
REMARK  status: ('A' for Active; 'I' for Inactive)
REMARK    1  A    between atoms: C2_2  and  C5_5 
REMARK    2  A    between atoms: C5_5  and  C6_6 
REMARK    3  A    between atoms: C6_6  and  C7_7 
ROOT
HETATM    1  C5  UNL     1     -32.117   8.079   2.798  1.00 20.00     0.034 C 
ENDROOT
BRANCH   1   2
HETATM    2  C2  UNL     1     -32.594   8.634   1.465  1.00 20.00     0.145 A 
HETATM    3  C1  UNL     1     -32.535  10.107   1.168  1.00 20.00     0.200 A 
HETATM    4  O8  UNL     1     -31.559   9.192   0.647  1.00 20.00    -0.381 OA
ENDBRANCH   1   2
BRANCH   1   5
HETATM    5  C6  UNL     1     -32.817   6.760   3.136  1.00 20.00     0.006 C 
BRANCH   5   6
HETATM    6  C7  UNL     1     -34.039   6.934   4.057  1.00 20.00    -0.023 C 
HETATM    7  C3  UNL     1     -33.575   7.297   5.470  1.00 20.00     0.009 C 
HETATM    8  C4  UNL     1     -34.914   5.680   4.109  1.00 20.00     0.009 C 
ENDBRANCH   5   6
ENDBRANCH   1   5
TORSDOF 3
ENDMDL
MODEL 3
REMARK VINA RESULT:      -4.6      2.013      4.275
REMARK  3 active torsions:
REMARK  status: ('A' for Active; 'I' for Inactive)
REMARK    1  A    between atoms: C2_2  and  C5_5 
REMARK    2  A    between atoms: C5_5  and  C6_6 
REMARK    3  A    between atoms: C6_6  and  C7_7 
ROOT
HETATM    1  C5  UNL     1     -33.645   6.798   4.075  1.00 20.00     0.034 C 
ENDROOT
BRANCH   1   2
HETATM    2  C2  UNL     1     -34.758   5.783   4.285  1.00 20.00     0.145 A 
HETATM    3  C1  UNL     1     -34.452   4.334   4.546  1.00 20.00     0.200 A 
HETATM    4  O8  UNL     1     -34.820   5.231   5.604  1.00 20.00    -0.381 OA
ENDBRANCH   1   2
BRANCH   1   5
HETATM    5  C6  UNL     1     -33.313   6.962   2.589  1.00 20.00     0.006 C 
BRANCH   5   6
HETATM    6  C7  UNL     1     -32.099   7.874   2.329  1.00 20.00    -0.023 C 
HETATM    7  C3  UNL     1     -31.487   8.315   3.662  1.00 20.00     0.009 C 
HETATM    8  C4  UNL     1     -32.460   9.105   1.497  1.00 20.00     0.009 C 
ENDBRANCH   5   6
ENDBRANCH   1   5
TORSDOF 3
ENDMDL
MODEL 4
REMARK VINA RESULT:      -4.5      2.002      4.796
REMARK  3 active torsions:
REMARK  status: ('A' for Active; 'I' for Inactive)
REMARK    1  A    between atoms: C2_2  and  C5_5 
REMARK    2  A    between atoms: C5_5  and  C6_6 
REMARK    3  A    between atoms: C6_6  and  C7_7 
ROOT
HETATM    1  C5  UNL     1     -32.755   8.145   2.660  1.00 20.00     0.034 C 
ENDROOT
BRANCH   1   2
HETATM    2  C2  UNL     1     -32.880   6.662   2.970  1.00 20.00     0.145 A 
HETATM    3  C1  UNL     1     -33.992   6.137   3.835  1.00 20.00     0.200 A 
HETATM    4  O8  UNL     1     -34.033   6.030   2.404  1.00 20.00    -0.381 OA
ENDBRANCH   1   2
BRANCH   1   5
HETATM    5  C6  UNL     1     -31.771   8.394   1.513  1.00 20.00     0.006 C 
BRANCH   5   6
HETATM    6  C7  UNL     1     -32.148   9.600   0.633  1.00 20.00    -0.023 C 
HETATM    7  C3  UNL     1     -32.783  10.694   1.495  1.00 20.00     0.009 C 
HETATM    8  C4  UNL     1     -33.102   9.220  -0.500  1.00 20.00     0.009 C 
ENDBRANCH   5   6
ENDBRANCH   1   5
TORSDOF 3
ENDMDL
MODEL 5
REMARK VINA RESULT:      -4.4      1.597      4.683
REMARK  3 active torsions:
REMARK  status: ('A' for Active; 'I' for Inactive)
REMARK    1  A    between atoms: C2_2  and  C5_5 
REMARK    2  A    between atoms: C5_5  and  C6_6 
REMARK    3  A    between atoms: C6_6  and  C7_7 
ROOT
HETATM    1  C5  UNL     1     -32.744   6.990   3.054  1.00 20.00     0.034 C 
ENDROOT
BRANCH   1   2
HETATM    2  C2  UNL     1     -33.913   7.200   4.005  1.00 20.00     0.145 A 
HETATM    3  C1  UNL     1     -34.332   6.128   4.973  1.00 20.00     0.200 A 
HETATM    4  O8  UNL     1     -33.551   7.259   5.389  1.00 20.00    -0.381 OA
ENDBRANCH   1   2
BRANCH   1   5
HETATM    5  C6  UNL     1     -32.050   8.314   2.723  1.00 20.00     0.006 C 
BRANCH   5   6
HETATM    6  C7  UNL     1     -32.425   8.872   1.337  1.00 20.00    -0.023 C 
HETATM    7  C3  UNL     1     -31.275   8.636   0.355  1.00 20.00     0.009 C 
HETATM    8  C4  UNL     1     -32.766  10.362   1.381  1.00 20.00     0.009 C 
ENDBRANCH   5   6
ENDBRANCH   1   5
TORSDOF 3
ENDMDL
MODEL 6
REMARK VINA RESULT:      -3.8     11.350     12.096
REMARK  3 active torsions:
REMARK  status: ('A' for Active; 'I' for Inactive)
REMARK    1  A    between atoms: C2_2  and  C5_5 
REMARK    2  A    between atoms: C5_5  and  C6_6 
REMARK    3  A    between atoms: C6_6  and  C7_7 
ROOT
HETATM    1  C5  UNL     1     -34.361  14.329  -4.130  1.00 20.00     0.034 C 
ENDROOT
BRANCH   1   2
HETATM    2  C2  UNL     1     -35.624  14.073  -4.937  1.00 20.00     0.145 A 
HETATM    3  C1  UNL     1     -35.559  13.497  -6.325  1.00 20.00     0.200 A 
HETATM    4  O8  UNL     1     -35.901  12.691  -5.188  1.00 20.00    -0.381 OA
ENDBRANCH   1   2
BRANCH   1   5
HETATM    5  C6  UNL     1     -34.135  15.827  -3.909  1.00 20.00     0.006 C 
BRANCH   5   6
HETATM    6  C7  UNL     1     -34.448  16.289  -2.474  1.00 20.00    -0.023 C 
HETATM    7  C3  UNL     1     -35.862  16.875  -2.415  1.00 20.00     0.009 C 
HETATM    8  C4  UNL     1     -33.442  17.320  -1.959  1.00 20.00     0.009 C 
ENDBRANCH   5   6
ENDBRANCH   1   5
TORSDOF 3
ENDMDL
MODEL 7
REMARK VINA RESULT:      -3.6     11.412     12.115
REMARK  3 active torsions:
REMARK  status: ('A' for Active; 'I' for Inactive)
REMARK    1  A    between atoms: C2_2  and  C5_5 
REMARK    2  A    between atoms: C5_5  and  C6_6 
REMARK    3  A    between atoms: C6_6  and  C7_7 
ROOT
HETATM    1  C5  UNL     1     -34.810  15.670  -4.178  1.00 20.00     0.034 C 
ENDROOT
BRANCH   1   2
HETATM    2  C2  UNL     1     -34.859  14.154  -4.298  1.00 20.00     0.145 A 
HETATM    3  C1  UNL     1     -35.851  13.476  -5.202  1.00 20.00     0.200 A 
HETATM    4  O8  UNL     1     -34.476  13.646  -5.581  1.00 20.00    -0.381 OA
ENDBRANCH   1   2
BRANCH   1   5
HETATM    5  C6  UNL     1     -33.740  16.116  -3.178  1.00 20.00     0.006 C 
BRANCH   5   6
HETATM    6  C7  UNL     1     -34.187  17.286  -2.283  1.00 20.00    -0.023 C 
HETATM    7  C3  UNL     1     -32.995  17.808  -1.477  1.00 20.00     0.009 C 
HETATM    8  C4  UNL     1     -35.319  16.894  -1.332  1.00 20.00     0.009 C 
ENDBRANCH   5   6
ENDBRANCH   1   5
TORSDOF 3
ENDMDL
MODEL 8
REMARK VINA RESULT:      -3.5     11.554     12.138
REMARK  3 active torsions:
REMARK  status: ('A' for Active; 'I' for Inactive)
REMARK    1  A    between atoms: C2_2  and  C5_5 
REMARK    2  A    between atoms: C5_5  and  C6_6 
REMARK    3  A    between atoms: C6_6  and  C7_7 
ROOT
HETATM    1  C5  UNL     1     -33.570  15.713  -3.967  1.00 20.00     0.034 C 
ENDROOT
BRANCH   1   2
HETATM    2  C2  UNL     1     -34.826  14.862  -4.073  1.00 20.00     0.145 A 
HETATM    3  C1  UNL     1     -35.141  14.090  -5.324  1.00 20.00     0.200 A 
HETATM    4  O8  UNL     1     -34.585  13.453  -4.163  1.00 20.00    -0.381 OA
ENDBRANCH   1   2
BRANCH   1   5
HETATM    5  C6  UNL     1     -33.866  17.065  -3.312  1.00 20.00     0.006 C 
BRANCH   5   6
HETATM    6  C7  UNL     1     -33.714  17.050  -1.779  1.00 20.00    -0.023 C 
HETATM    7  C3  UNL     1     -35.092  17.154  -1.120  1.00 20.00     0.009 C 
HETATM    8  C4  UNL     1     -32.814  18.177  -1.271  1.00 20.00     0.009 C 
ENDBRANCH   5   6
ENDBRANCH   1   5
TORSDOF 3
ENDMDL
MODEL 9
REMARK VINA RESULT:      -3.5     11.775     12.324
REMARK  3 active torsions:
REMARK  status: ('A' for Active; 'I' for Inactive)
REMARK    1  A    between atoms: C2_2  and  C5_5 
REMARK    2  A    between atoms: C5_5  and  C6_6 
REMARK    3  A    between atoms: C6_6  and  C7_7 
ROOT
HETATM    1  C5  UNL     1     -33.348  18.215  -0.413  1.00 20.00     0.034 C 
ENDROOT
BRANCH   1   2
HETATM    2  C2  UNL     1     -32.131  19.034  -0.012  1.00 20.00     0.145 A 
HETATM    3  C1  UNL     1     -31.352  18.714   1.234  1.00 20.00     0.200 A 
HETATM    4  O8  UNL     1     -30.890  18.322  -0.068  1.00 20.00    -0.381 OA
ENDBRANCH   1   2
BRANCH   1   5
HETATM    5  C6  UNL     1     -33.176  17.605  -1.807  1.00 20.00     0.006 C 
BRANCH   5   6
HETATM    6  C7  UNL     1     -34.498  17.121  -2.432  1.00 20.00    -0.023 C 
HETATM    7  C3  UNL     1     -35.537  16.890  -1.332  1.00 20.00     0.009 C 
HETATM    8  C4  UNL     1     -34.322  15.841  -3.250  1.00 20.00     0.009 C 
ENDBRANCH   5   6
ENDBRANCH   1   5
TORSDOF 3
ENDMDL
