MODEL 1
REMARK VINA RESULT:      -5.6      0.000      0.000
REMARK  2 active torsions:
REMARK  status: ('A' for Active; 'I' for Inactive)
REMARK    1  A    between atoms: C3_3  and  C10_10 
REMARK    2  A    between atoms: C7_7  and  C10_10 
ROOT
HETATM    1  C1  UNL     1     -33.834   5.714   3.260  1.00 20.00    -0.024 C 
HETATM    2  C2  UNL     1     -34.037   5.967   4.564  1.00 20.00    -0.087 C 
HETATM    3  C4  UNL     1     -33.141   6.662   2.327  1.00 20.00     0.032 C 
HETATM    4  C5  UNL     1     -33.547   7.235   5.216  1.00 20.00     0.034 C 
HETATM    5  C6  UNL     1     -32.552   8.025   4.359  1.00 20.00     0.010 C 
HETATM    6  C7  UNL     1     -33.005   8.084   2.897  1.00 20.00    -0.001 C 
HETATM    7  C8  UNL     1     -34.766   5.005   5.456  1.00 20.00     0.043 C 
ENDROOT
BRANCH   6   8
HETATM    8  C10 UNL     1     -32.043   8.917   2.055  1.00 20.00     0.047 C 
HETATM    9  C9  UNL     1     -31.369   8.060   0.991  1.00 20.00     0.017 C 
BRANCH   8  10
HETATM   10  C3  UNL     1     -32.801  10.079   1.446  1.00 20.00     0.235 C 
HETATM   11  O11 UNL     1     -32.866  10.314   0.243  1.00 20.00    -0.306 OA
ENDBRANCH   8  10
ENDBRANCH   6   8
TORSDOF 2
ENDMDL
MODEL 2
REMARK VINA RESULT:      -5.4      0.489      1.585
REMARK  2 active torsions:
REMARK  status: ('A' for Active; 'I' for Inactive)
REMARK    1  A    between atoms: C3_3  and  C10_10 
REMARK    2  A    between atoms: C7_7  and  C10_10 
ROOT
HETATM    1  C1  UNL     1     -33.432   7.152   5.221  1.00 20.00    -0.024 C 
HETATM    2  C2  UNL     1     -34.007   6.053   4.703  1.00 20.00    -0.087 C 
HETATM    3  C4  UNL     1     -32.653   8.144   4.410  1.00 20.00     0.032 C 
HETATM    4  C5  UNL     1     -33.941   5.737   3.230  1.00 20.00     0.034 C 
HETATM    5  C6  UNL     1     -33.457   6.909   2.369  1.00 20.00     0.010 C 
HETATM    6  C7  UNL     1     -32.264   7.618   3.019  1.00 20.00    -0.001 C 
HETATM    7  C8  UNL     1     -34.749   5.067   5.557  1.00 20.00     0.043 C 
ENDROOT
BRANCH   6   8
HETATM    8  C10 UNL     1     -31.747   8.750   2.135  1.00 20.00     0.047 C 
HETATM    9  C9  UNL     1     -31.360   8.232   0.756  1.00 20.00     0.017 C 
BRANCH   8  10
HETATM   10  C3  UNL     1     -32.805   9.833   2.054  1.00 20.00     0.235 C 
HETATM   11  O11 UNL     1     -32.885  10.661   1.153  1.00 20.00    -0.306 OA
ENDBRANCH   8  10
ENDBRANCH   6   8
TORSDOF 2
ENDMDL
MODEL 3
REMARK VINA RESULT:      -5.2      2.555      4.940
REMARK  2 active torsions:
REMARK  status: ('A' for Active; 'I' for Inactive)
REMARK    1  A    between atoms: C3_3  and  C10_10 
REMARK    2  A    between atoms: C7_7  and  C10_10 
ROOT
HETATM    1  C1  UNL     1     -31.704   8.705   2.885  1.00 20.00    -0.024 C 
HETATM    2  C2  UNL     1     -32.181   8.475   1.650  1.00 20.00    -0.087 C 
HETATM    3  C4  UNL     1     -32.173   7.974   4.108  1.00 20.00     0.032 C 
HETATM    4  C5  UNL     1     -33.224   7.421   1.382  1.00 20.00     0.034 C 
HETATM    5  C6  UNL     1     -33.440   6.454   2.551  1.00 20.00     0.010 C 
HETATM    6  C7  UNL     1     -33.485   7.204   3.887  1.00 20.00    -0.001 C 
HETATM    7  C8  UNL     1     -31.708   9.255   0.458  1.00 20.00     0.043 C 
ENDROOT
BRANCH   6   8
HETATM    8  C10 UNL     1     -33.755   6.248   5.046  1.00 20.00     0.047 C 
HETATM    9  C9  UNL     1     -34.125   7.014   6.309  1.00 20.00     0.017 C 
BRANCH   8  10
HETATM   10  C3  UNL     1     -34.843   5.274   4.639  1.00 20.00     0.235 C 
HETATM   11  O11 UNL     1     -34.707   4.056   4.599  1.00 20.00    -0.306 OA
ENDBRANCH   8  10
ENDBRANCH   6   8
TORSDOF 2
ENDMDL
MODEL 4
REMARK VINA RESULT:      -5.0     10.312     11.118
REMARK  2 active torsions:
REMARK  status: ('A' for Active; 'I' for Inactive)
REMARK    1  A    between atoms: C3_3  and  C10_10 
REMARK    2  A    between atoms: C7_7  and  C10_10 
ROOT
HETATM    1  C1  UNL     1     -33.226  17.272  -2.231  1.00 20.00    -0.024 C 
HETATM    2  C2  UNL     1     -34.053  17.533  -1.204  1.00 20.00    -0.087 C 
HETATM    3  C4  UNL     1     -33.628  16.488  -3.444  1.00 20.00     0.032 C 
HETATM    4  C5  UNL     1     -35.490  17.077  -1.202  1.00 20.00     0.034 C 
HETATM    5  C6  UNL     1     -35.985  16.592  -2.569  1.00 20.00     0.010 C 
HETATM    6  C7  UNL     1     -34.939  15.708  -3.255  1.00 20.00    -0.001 C 
HETATM    7  C8  UNL     1     -33.600  18.293   0.008  1.00 20.00     0.043 C 
ENDROOT
BRANCH   6   8
HETATM    8  C10 UNL     1     -35.455  15.181  -4.592  1.00 20.00     0.047 C 
HETATM    9  C9  UNL     1     -34.841  15.951  -5.754  1.00 20.00     0.017 C 
BRANCH   8  10
HETATM   10  C3  UNL     1     -35.162  13.697  -4.681  1.00 20.00     0.235 C 
HETATM   11  O11 UNL     1     -35.926  12.864  -5.157  1.00 20.00    -0.306 OA
ENDBRANCH   8  10
ENDBRANCH   6   8
TORSDOF 2
ENDMDL
MODEL 5
REMARK VINA RESULT:      -4.9     10.207     11.029
REMARK  2 active torsions:
REMARK  status: ('A' for Active; 'I' for Inactive)
REMARK    1  A    between atoms: C3_3  and  C10_10 
REMARK    2  A    between atoms: C7_7  and  C10_10 
ROOT
HETATM    1  C1  UNL     1     -33.194  17.989  -1.227  1.00 20.00    -0.024 C 
HETATM    2  C2  UNL     1     -34.168  17.928  -0.302  1.00 20.00    -0.087 C 
HETATM    3  C4  UNL     1     -33.280  17.324  -2.568  1.00 20.00     0.032 C 
HETATM    4  C5  UNL     1     -35.464  17.201  -0.554  1.00 20.00     0.034 C 
HETATM    5  C6  UNL     1     -35.687  16.830  -2.024  1.00 20.00     0.010 C 
HETATM    6  C7  UNL     1     -34.405  16.280  -2.657  1.00 20.00    -0.001 C 
HETATM    7  C8  UNL     1     -34.027  18.580   1.043  1.00 20.00     0.043 C 
ENDROOT
BRANCH   6   8
HETATM    8  C10 UNL     1     -34.643  15.860  -4.106  1.00 20.00     0.047 C 
HETATM    9  C9  UNL     1     -33.687  16.584  -5.046  1.00 20.00     0.017 C 
BRANCH   8  10
HETATM   10  C3  UNL     1     -34.504  14.355  -4.210  1.00 20.00     0.235 C 
HETATM   11  O11 UNL     1     -33.437  13.760  -4.325  1.00 20.00    -0.306 OA
ENDBRANCH   8  10
ENDBRANCH   6   8
TORSDOF 2
ENDMDL
MODEL 6
REMARK VINA RESULT:      -4.8     10.683     11.201
REMARK  2 active torsions:
REMARK  status: ('A' for Active; 'I' for Inactive)
REMARK    1  A    between atoms: C3_3  and  C10_10 
REMARK    2  A    between atoms: C7_7  and  C10_10 
ROOT
HETATM    1  C1  UNL     1     -35.888  16.739  -2.237  1.00 20.00    -0.024 C 
HETATM    2  C2  UNL     1     -34.620  17.012  -1.885  1.00 20.00    -0.087 C 
HETATM    3  C4  UNL     1     -36.267  16.048  -3.513  1.00 20.00     0.032 C 
HETATM    4  C5  UNL     1     -33.450  16.611  -2.747  1.00 20.00     0.034 C 
HETATM    5  C6  UNL     1     -33.811  15.614  -3.854  1.00 20.00     0.010 C 
HETATM    6  C7  UNL     1     -35.124  16.003  -4.540  1.00 20.00    -0.001 C 
HETATM    7  C8  UNL     1     -34.287  17.737  -0.614  1.00 20.00     0.043 C 
ENDROOT
BRANCH   6   8
HETATM    8  C10 UNL     1     -35.456  15.041  -5.679  1.00 20.00     0.047 C 
HETATM    9  C9  UNL     1     -34.194  14.611  -6.414  1.00 20.00     0.017 C 
BRANCH   8  10
HETATM   10  C3  UNL     1     -36.213  13.855  -5.117  1.00 20.00     0.235 C 
HETATM   11  O11 UNL     1     -35.873  12.684  -5.253  1.00 20.00    -0.306 OA
ENDBRANCH   8  10
ENDBRANCH   6   8
TORSDOF 2
ENDMDL
MODEL 7
REMARK VINA RESULT:      -4.8     10.915     11.383
REMARK  2 active torsions:
REMARK  status: ('A' for Active; 'I' for Inactive)
REMARK    1  A    between atoms: C3_3  and  C10_10 
REMARK    2  A    between atoms: C7_7  and  C10_10 
ROOT
HETATM    1  C1  UNL     1     -33.579  17.054  -2.300  1.00 20.00    -0.024 C 
HETATM    2  C2  UNL     1     -34.890  16.783  -2.172  1.00 20.00    -0.087 C 
HETATM    3  C4  UNL     1     -32.792  17.846  -1.298  1.00 20.00     0.032 C 
HETATM    4  C5  UNL     1     -35.684  17.234  -0.972  1.00 20.00     0.034 C 
HETATM    5  C6  UNL     1     -34.817  17.726   0.192  1.00 20.00     0.010 C 
HETATM    6  C7  UNL     1     -33.677  18.619  -0.307  1.00 20.00    -0.001 C 
HETATM    7  C8  UNL     1     -35.648  16.016  -3.215  1.00 20.00     0.043 C 
ENDROOT
BRANCH   6   8
HETATM    8  C10 UNL     1     -32.847  19.154   0.857  1.00 20.00     0.047 C 
HETATM    9  C9  UNL     1     -33.391  18.655   2.189  1.00 20.00     0.017 C 
BRANCH   8  10
HETATM   10  C3  UNL     1     -31.399  18.754   0.655  1.00 20.00     0.235 C 
HETATM   11  O11 UNL     1     -30.481  19.058   1.409  1.00 20.00    -0.306 OA
ENDBRANCH   8  10
ENDBRANCH   6   8
TORSDOF 2
ENDMDL
MODEL 8
REMARK VINA RESULT:      -4.8     10.473     11.107
REMARK  2 active torsions:
REMARK  status: ('A' for Active; 'I' for Inactive)
REMARK    1  A    between atoms: C3_3  and  C10_10 
REMARK    2  A    between atoms: C7_7  and  C10_10 
ROOT
HETATM    1  C1  UNL     1     -33.238  17.397  -1.935  1.00 20.00    -0.024 C 
HETATM    2  C2  UNL     1     -34.051  17.701  -0.908  1.00 20.00    -0.087 C 
HETATM    3  C4  UNL     1     -33.675  16.614  -3.138  1.00 20.00     0.032 C 
HETATM    4  C5  UNL     1     -35.504  17.300  -0.895  1.00 20.00     0.034 C 
HETATM    5  C6  UNL     1     -36.023  16.818  -2.254  1.00 20.00     0.010 C 
HETATM    6  C7  UNL     1     -35.015  15.887  -2.934  1.00 20.00    -0.001 C 
HETATM    7  C8  UNL     1     -33.563  18.457   0.293  1.00 20.00     0.043 C 
ENDROOT
BRANCH   6   8
HETATM    8  C10 UNL     1     -35.556  15.364  -4.263  1.00 20.00     0.047 C 
HETATM    9  C9  UNL     1     -34.934  14.018  -4.612  1.00 20.00     0.017 C 
BRANCH   8  10
HETATM   10  C3  UNL     1     -37.067  15.284  -4.181  1.00 20.00     0.235 C 
HETATM   11  O11 UNL     1     -37.731  14.311  -4.524  1.00 20.00    -0.306 OA
ENDBRANCH   8  10
ENDBRANCH   6   8
TORSDOF 2
ENDMDL
MODEL 9
REMARK VINA RESULT:      -4.7     10.470     11.095
REMARK  2 active torsions:
REMARK  status: ('A' for Active; 'I' for Inactive)
REMARK    1  A    between atoms: C3_3  and  C10_10 
REMARK    2  A    between atoms: C7_7  and  C10_10 
ROOT
HETATM    1  C1  UNL     1     -36.497  15.412  -4.143  1.00 20.00    -0.024 C 
HETATM    2  C2  UNL     1     -35.587  14.529  -4.588  1.00 20.00    -0.087 C 
HETATM    3  C4  UNL     1     -36.185  16.509  -3.170  1.00 20.00     0.032 C 
HETATM    4  C5  UNL     1     -34.142  14.591  -4.163  1.00 20.00     0.034 C 
HETATM    5  C6  UNL     1     -33.761  15.899  -3.460  1.00 20.00     0.010 C 
HETATM    6  C7  UNL     1     -34.837  16.321  -2.456  1.00 20.00    -0.001 C 
HETATM    7  C8  UNL     1     -35.949  13.423  -5.536  1.00 20.00     0.043 C 
ENDROOT
BRANCH   6   8
HETATM    8  C10 UNL     1     -34.432  17.594  -1.717  1.00 20.00     0.047 C 
HETATM    9  C9  UNL     1     -34.995  17.606  -0.302  1.00 20.00     0.017 C 
BRANCH   8  10
HETATM   10  C3  UNL     1     -32.921  17.707  -1.723  1.00 20.00     0.235 C 
HETATM   11  O11 UNL     1     -32.294  18.686  -1.331  1.00 20.00    -0.306 OA
ENDBRANCH   8  10
ENDBRANCH   6   8
TORSDOF 2
ENDMDL
