MODEL 1
REMARK VINA RESULT:      -5.0      0.000      0.000
REMARK  2 active torsions:
REMARK  status: ('A' for Active; 'I' for Inactive)
REMARK    1  A    between atoms: C3_3  and  C8_8 
REMARK    2  A    between atoms: C4_4  and  O9_9 
ROOT
HETATM    1  C1  UNL     1     -32.655   7.624   3.934  1.00 20.00     0.037 C 
HETATM    2  C2  UNL     1     -33.353   6.628   2.180  1.00 20.00     0.037 C 
HETATM    3  C3  UNL     1     -33.109   6.173   3.639  1.00 20.00    -0.002 C 
HETATM    4  C4  UNL     1     -32.330   7.763   2.429  1.00 20.00     0.118 C 
ENDROOT
BRANCH   3   5
HETATM    5  C8  UNL     1     -34.319   5.673   4.403  1.00 20.00    -0.048 C 
HETATM    6  C5  UNL     1     -34.325   6.289   5.810  1.00 20.00     0.015 C 
HETATM    7  C6  UNL     1     -34.257   4.143   4.514  1.00 20.00     0.015 C 
HETATM    8  C7  UNL     1     -35.598   6.081   3.660  1.00 20.00     0.015 C 
ENDBRANCH   3   5
BRANCH   4   9
HETATM    9  O9  UNL     1     -32.636   9.034   1.835  1.00 20.00    -0.396 OA
HETATM   10  H25 UNL     1     -32.392   9.699   2.491  1.00 20.00     0.210 HD
ENDBRANCH   4   9
TORSDOF 2
ENDMDL
MODEL 2
REMARK VINA RESULT:      -5.0      0.011      1.450
REMARK  2 active torsions:
REMARK  status: ('A' for Active; 'I' for Inactive)
REMARK    1  A    between atoms: C3_3  and  C8_8 
REMARK    2  A    between atoms: C4_4  and  O9_9 
ROOT
HETATM    1  C1  UNL     1     -32.660   7.620   3.933  1.00 20.00     0.037 C 
HETATM    2  C2  UNL     1     -33.361   6.629   2.177  1.00 20.00     0.037 C 
HETATM    3  C3  UNL     1     -33.114   6.169   3.634  1.00 20.00    -0.002 C 
HETATM    4  C4  UNL     1     -32.338   7.763   2.427  1.00 20.00     0.118 C 
ENDROOT
BRANCH   3   5
HETATM    5  C8  UNL     1     -34.321   5.666   4.399  1.00 20.00    -0.048 C 
HETATM    6  C5  UNL     1     -34.259   4.134   4.502  1.00 20.00     0.015 C 
HETATM    7  C6  UNL     1     -35.602   6.078   3.662  1.00 20.00     0.015 C 
HETATM    8  C7  UNL     1     -34.324   6.273   5.809  1.00 20.00     0.015 C 
ENDBRANCH   3   5
BRANCH   4   9
HETATM    9  O9  UNL     1     -32.648   9.036   1.838  1.00 20.00    -0.396 OA
HETATM   10  H25 UNL     1     -33.061   8.841   0.988  1.00 20.00     0.210 HD
ENDBRANCH   4   9
TORSDOF 2
ENDMDL
MODEL 3
REMARK VINA RESULT:      -5.0      0.006      1.447
REMARK  2 active torsions:
REMARK  status: ('A' for Active; 'I' for Inactive)
REMARK    1  A    between atoms: C3_3  and  C8_8 
REMARK    2  A    between atoms: C4_4  and  O9_9 
ROOT
HETATM    1  C1  UNL     1     -32.656   7.630   3.929  1.00 20.00     0.037 C 
HETATM    2  C2  UNL     1     -33.350   6.630   2.177  1.00 20.00     0.037 C 
HETATM    3  C3  UNL     1     -33.107   6.178   3.637  1.00 20.00    -0.002 C 
HETATM    4  C4  UNL     1     -32.329   7.767   2.424  1.00 20.00     0.118 C 
ENDROOT
BRANCH   3   5
HETATM    5  C8  UNL     1     -34.316   5.676   4.400  1.00 20.00    -0.048 C 
HETATM    6  C5  UNL     1     -35.596   6.085   3.656  1.00 20.00     0.015 C 
HETATM    7  C6  UNL     1     -34.323   6.290   5.807  1.00 20.00     0.015 C 
HETATM    8  C7  UNL     1     -34.254   4.146   4.509  1.00 20.00     0.015 C 
ENDBRANCH   3   5
BRANCH   4   9
HETATM    9  O9  UNL     1     -32.638   9.037   1.828  1.00 20.00    -0.396 OA
HETATM   10  H25 UNL     1     -33.598   9.054   1.723  1.00 20.00     0.210 HD
ENDBRANCH   4   9
TORSDOF 2
ENDMDL
MODEL 4
REMARK VINA RESULT:      -4.4      2.381      3.810
REMARK  2 active torsions:
REMARK  status: ('A' for Active; 'I' for Inactive)
REMARK    1  A    between atoms: C3_3  and  C8_8 
REMARK    2  A    between atoms: C4_4  and  O9_9 
ROOT
HETATM    1  C1  UNL     1     -33.614   6.910   5.338  1.00 20.00     0.037 C 
HETATM    2  C2  UNL     1     -34.690   6.048   3.709  1.00 20.00     0.037 C 
HETATM    3  C3  UNL     1     -33.905   7.370   3.887  1.00 20.00    -0.002 C 
HETATM    4  C4  UNL     1     -34.878   6.025   5.245  1.00 20.00     0.118 C 
ENDROOT
BRANCH   3   5
HETATM    5  C8  UNL     1     -32.703   7.570   2.986  1.00 20.00    -0.048 C 
HETATM    6  C5  UNL     1     -32.292   6.221   2.376  1.00 20.00     0.015 C 
HETATM    7  C6  UNL     1     -31.537   8.138   3.806  1.00 20.00     0.015 C 
HETATM    8  C7  UNL     1     -33.064   8.551   1.862  1.00 20.00     0.015 C 
ENDBRANCH   3   5
BRANCH   4   9
HETATM    9  O9  UNL     1     -34.789   4.737   5.875  1.00 20.00    -0.396 OA
HETATM   10  H25 UNL     1     -35.213   4.833   6.737  1.00 20.00     0.210 HD
ENDBRANCH   4   9
TORSDOF 2
ENDMDL
MODEL 5
REMARK VINA RESULT:      -4.4      2.381      3.812
REMARK  2 active torsions:
REMARK  status: ('A' for Active; 'I' for Inactive)
REMARK    1  A    between atoms: C3_3  and  C8_8 
REMARK    2  A    between atoms: C4_4  and  O9_9 
ROOT
HETATM    1  C1  UNL     1     -33.633   6.902   5.328  1.00 20.00     0.037 C 
HETATM    2  C2  UNL     1     -34.689   6.029   3.693  1.00 20.00     0.037 C 
HETATM    3  C3  UNL     1     -33.916   7.357   3.875  1.00 20.00    -0.002 C 
HETATM    4  C4  UNL     1     -34.889   6.007   5.227  1.00 20.00     0.118 C 
ENDROOT
BRANCH   3   5
HETATM    5  C8  UNL     1     -32.709   7.565   2.983  1.00 20.00    -0.048 C 
HETATM    6  C5  UNL     1     -33.067   8.549   1.859  1.00 20.00     0.015 C 
HETATM    7  C6  UNL     1     -32.287   6.222   2.371  1.00 20.00     0.015 C 
HETATM    8  C7  UNL     1     -31.550   8.136   3.812  1.00 20.00     0.015 C 
ENDBRANCH   3   5
BRANCH   4   9
HETATM    9  O9  UNL     1     -34.794   4.720   5.860  1.00 20.00    -0.396 OA
HETATM   10  H25 UNL     1     -34.392   4.133   5.207  1.00 20.00     0.210 HD
ENDBRANCH   4   9
TORSDOF 2
ENDMDL
MODEL 6
REMARK VINA RESULT:      -3.8     11.488     12.451
REMARK  2 active torsions:
REMARK  status: ('A' for Active; 'I' for Inactive)
REMARK    1  A    between atoms: C3_3  and  C8_8 
REMARK    2  A    between atoms: C4_4  and  O9_9 
ROOT
HETATM    1  C1  UNL     1     -35.599  13.601  -5.228  1.00 20.00     0.037 C 
HETATM    2  C2  UNL     1     -34.428  14.420  -6.813  1.00 20.00     0.037 C 
HETATM    3  C3  UNL     1     -35.031  15.013  -5.517  1.00 20.00    -0.002 C 
HETATM    4  C4  UNL     1     -35.520  13.325  -6.747  1.00 20.00     0.118 C 
ENDROOT
BRANCH   3   5
HETATM    5  C8  UNL     1     -34.049  15.569  -4.505  1.00 20.00    -0.048 C 
HETATM    6  C5  UNL     1     -33.446  16.874  -5.044  1.00 20.00     0.015 C 
HETATM    7  C6  UNL     1     -32.929  14.547  -4.265  1.00 20.00     0.015 C 
HETATM    8  C7  UNL     1     -34.778  15.849  -3.184  1.00 20.00     0.015 C 
ENDBRANCH   3   5
BRANCH   4   9
HETATM    9  O9  UNL     1     -35.113  12.000  -7.124  1.00 20.00    -0.396 OA
HETATM   10  H25 UNL     1     -34.575  12.105  -7.919  1.00 20.00     0.210 HD
ENDBRANCH   4   9
TORSDOF 2
ENDMDL
MODEL 7
REMARK VINA RESULT:      -3.8     11.186     12.405
REMARK  2 active torsions:
REMARK  status: ('A' for Active; 'I' for Inactive)
REMARK    1  A    between atoms: C3_3  and  C8_8 
REMARK    2  A    between atoms: C4_4  and  O9_9 
ROOT
HETATM    1  C1  UNL     1     -35.881  15.228  -5.252  1.00 20.00     0.037 C 
HETATM    2  C2  UNL     1     -34.289  14.366  -4.122  1.00 20.00     0.037 C 
HETATM    3  C3  UNL     1     -34.598  15.804  -4.603  1.00 20.00    -0.002 C 
HETATM    4  C4  UNL     1     -35.174  13.854  -5.284  1.00 20.00     0.118 C 
ENDROOT
BRANCH   3   5
HETATM    5  C8  UNL     1     -34.794  16.851  -3.525  1.00 20.00    -0.048 C 
HETATM    6  C5  UNL     1     -34.835  18.245  -4.167  1.00 20.00     0.015 C 
HETATM    7  C6  UNL     1     -33.630  16.781  -2.526  1.00 20.00     0.015 C 
HETATM    8  C7  UNL     1     -36.115  16.587  -2.789  1.00 20.00     0.015 C 
ENDBRANCH   3   5
BRANCH   4   9
HETATM    9  O9  UNL     1     -36.002  12.716  -4.996  1.00 20.00    -0.396 OA
HETATM   10  H25 UNL     1     -35.776  12.049  -5.658  1.00 20.00     0.210 HD
ENDBRANCH   4   9
TORSDOF 2
ENDMDL
MODEL 8
REMARK VINA RESULT:      -3.8     11.425     12.487
REMARK  2 active torsions:
REMARK  status: ('A' for Active; 'I' for Inactive)
REMARK    1  A    between atoms: C3_3  and  C8_8 
REMARK    2  A    between atoms: C4_4  and  O9_9 
ROOT
HETATM    1  C1  UNL     1     -36.399  15.528  -5.561  1.00 20.00     0.037 C 
HETATM    2  C2  UNL     1     -35.765  13.569  -4.999  1.00 20.00     0.037 C 
HETATM    3  C3  UNL     1     -35.019  14.826  -5.508  1.00 20.00    -0.002 C 
HETATM    4  C4  UNL     1     -37.039  14.125  -5.679  1.00 20.00     0.118 C 
ENDROOT
BRANCH   3   5
HETATM    5  C8  UNL     1     -33.988  15.427  -4.573  1.00 20.00    -0.048 C 
HETATM    6  C5  UNL     1     -32.879  14.398  -4.307  1.00 20.00     0.015 C 
HETATM    7  C6  UNL     1     -34.661  15.809  -3.248  1.00 20.00     0.015 C 
HETATM    8  C7  UNL     1     -33.380  16.680  -5.219  1.00 20.00     0.015 C 
ENDBRANCH   3   5
BRANCH   4   9
HETATM    9  O9  UNL     1     -38.271  13.936  -4.966  1.00 20.00    -0.396 OA
HETATM   10  H25 UNL     1     -38.733  14.783  -5.006  1.00 20.00     0.210 HD
ENDBRANCH   4   9
TORSDOF 2
ENDMDL
MODEL 9
REMARK VINA RESULT:      -3.8     11.453     12.513
REMARK  2 active torsions:
REMARK  status: ('A' for Active; 'I' for Inactive)
REMARK    1  A    between atoms: C3_3  and  C8_8 
REMARK    2  A    between atoms: C4_4  and  O9_9 
ROOT
HETATM    1  C1  UNL     1     -36.452  15.594  -5.466  1.00 20.00     0.037 C 
HETATM    2  C2  UNL     1     -35.772  13.614  -5.050  1.00 20.00     0.037 C 
HETATM    3  C3  UNL     1     -35.060  14.916  -5.491  1.00 20.00    -0.002 C 
HETATM    4  C4  UNL     1     -37.071  14.190  -5.663  1.00 20.00     0.118 C 
ENDROOT
BRANCH   3   5
HETATM    5  C8  UNL     1     -34.018  15.472  -4.541  1.00 20.00    -0.048 C 
HETATM    6  C5  UNL     1     -34.684  15.829  -3.204  1.00 20.00     0.015 C 
HETATM    7  C6  UNL     1     -33.389  16.732  -5.153  1.00 20.00     0.015 C 
HETATM    8  C7  UNL     1     -32.927  14.419  -4.304  1.00 20.00     0.015 C 
ENDBRANCH   3   5
BRANCH   4   9
HETATM    9  O9  UNL     1     -38.283  13.932  -4.938  1.00 20.00    -0.396 OA
HETATM   10  H25 UNL     1     -38.372  14.655  -4.304  1.00 20.00     0.210 HD
ENDBRANCH   4   9
TORSDOF 2
ENDMDL
