MODEL 1
REMARK VINA RESULT:      -4.3      0.000      0.000
REMARK  1 active torsions:
REMARK  status: ('A' for Active; 'I' for Inactive)
REMARK    1  A    between atoms: C3_3  and  C8_8 
ROOT
HETATM    1  C1  UNL     1     -32.842   7.650   4.211  1.00 20.00     0.017 C 
HETATM    2  C2  UNL     1     -32.351   7.187   2.848  1.00 20.00     0.092 C 
HETATM    3  C3  UNL     1     -34.563   6.231   3.804  1.00 20.00     0.173 C 
HETATM    4  C4  UNL     1     -32.025   8.654   4.974  1.00 20.00     0.066 C 
HETATM    5  C5  UNL     1     -32.411   8.310   1.827  1.00 20.00     0.028 C 
HETATM    6  N9  UNL     1     -33.956   7.212   4.716  1.00 20.00    -0.282 NA
HETATM    7  S10 UNL     1     -33.491   5.862   2.393  1.00 20.00    -0.131 SA
ENDROOT
BRANCH   3   8
HETATM    8  C8  UNL     1     -34.853   4.958   4.585  1.00 20.00     0.012 C 
HETATM    9  C6  UNL     1     -33.973   3.809   4.093  1.00 20.00     0.012 C 
HETATM   10  C7  UNL     1     -34.648   5.182   6.084  1.00 20.00     0.012 C 
ENDBRANCH   3   8
TORSDOF 1
ENDMDL
MODEL 2
REMARK VINA RESULT:      -4.2      1.200      4.036
REMARK  1 active torsions:
REMARK  status: ('A' for Active; 'I' for Inactive)
REMARK    1  A    between atoms: C3_3  and  C8_8 
ROOT
HETATM    1  C1  UNL     1     -33.630   6.983   4.629  1.00 20.00     0.017 C 
HETATM    2  C2  UNL     1     -34.500   6.015   3.845  1.00 20.00     0.092 C 
HETATM    3  C3  UNL     1     -32.535   7.218   2.658  1.00 20.00     0.173 C 
HETATM    4  C4  UNL     1     -33.936   7.222   6.082  1.00 20.00     0.066 C 
HETATM    5  C5  UNL     1     -34.311   4.586   4.325  1.00 20.00     0.028 C 
HETATM    6  N9  UNL     1     -32.623   7.591   4.078  1.00 20.00    -0.282 NA
HETATM    7  S10 UNL     1     -33.929   6.186   2.141  1.00 20.00    -0.131 SA
ENDROOT
BRANCH   3   8
HETATM    8  C8  UNL     1     -32.492   8.491   1.825  1.00 20.00     0.012 C 
HETATM    9  C6  UNL     1     -32.108   9.692   2.691  1.00 20.00     0.012 C 
HETATM   10  C7  UNL     1     -31.517   8.343   0.657  1.00 20.00     0.012 C 
ENDBRANCH   3   8
TORSDOF 1
ENDMDL
MODEL 3
REMARK VINA RESULT:      -4.0     12.082     12.896
REMARK  1 active torsions:
REMARK  status: ('A' for Active; 'I' for Inactive)
REMARK    1  A    between atoms: C3_3  and  C8_8 
ROOT
HETATM    1  C1  UNL     1     -35.569  14.592  -5.148  1.00 20.00     0.017 C 
HETATM    2  C2  UNL     1     -34.759  14.942  -6.387  1.00 20.00     0.092 C 
HETATM    3  C3  UNL     1     -33.724  15.302  -4.038  1.00 20.00     0.173 C 
HETATM    4  C4  UNL     1     -36.959  14.046  -5.320  1.00 20.00     0.066 C 
HETATM    5  C5  UNL     1     -34.388  13.697  -7.176  1.00 20.00     0.028 C 
HETATM    6  N9  UNL     1     -35.080  14.737  -3.954  1.00 20.00    -0.282 NA
HETATM    7  S10 UNL     1     -33.276  15.739  -5.736  1.00 20.00    -0.131 SA
ENDROOT
BRANCH   3   8
HETATM    8  C8  UNL     1     -33.657  16.534  -3.147  1.00 20.00     0.012 C 
HETATM    9  C6  UNL     1     -33.647  17.811  -3.989  1.00 20.00     0.012 C 
HETATM   10  C7  UNL     1     -34.825  16.556  -2.161  1.00 20.00     0.012 C 
ENDBRANCH   3   8
TORSDOF 1
ENDMDL
MODEL 4
REMARK VINA RESULT:      -3.9     12.102     12.889
REMARK  1 active torsions:
REMARK  status: ('A' for Active; 'I' for Inactive)
REMARK    1  A    between atoms: C3_3  and  C8_8 
ROOT
HETATM    1  C1  UNL     1     -35.034  14.593  -5.031  1.00 20.00     0.017 C 
HETATM    2  C2  UNL     1     -34.755  15.705  -6.030  1.00 20.00     0.092 C 
HETATM    3  C3  UNL     1     -33.799  15.874  -3.627  1.00 20.00     0.173 C 
HETATM    4  C4  UNL     1     -35.865  13.418  -5.466  1.00 20.00     0.066 C 
HETATM    5  C5  UNL     1     -33.851  15.227  -7.154  1.00 20.00     0.028 C 
HETATM    6  N9  UNL     1     -34.556  14.628  -3.824  1.00 20.00    -0.282 NA
HETATM    7  S10 UNL     1     -33.926  16.978  -5.055  1.00 20.00    -0.131 SA
ENDROOT
BRANCH   3   8
HETATM    8  C8  UNL     1     -34.329  16.570  -2.381  1.00 20.00     0.012 C 
HETATM    9  C6  UNL     1     -33.277  17.516  -1.801  1.00 20.00     0.012 C 
HETATM   10  C7  UNL     1     -35.617  17.332  -2.692  1.00 20.00     0.012 C 
ENDBRANCH   3   8
TORSDOF 1
ENDMDL
MODEL 5
REMARK VINA RESULT:      -3.7      1.586      4.228
REMARK  1 active torsions:
REMARK  status: ('A' for Active; 'I' for Inactive)
REMARK    1  A    between atoms: C3_3  and  C8_8 
ROOT
HETATM    1  C1  UNL     1     -33.788   5.314   3.913  1.00 20.00     0.017 C 
HETATM    2  C2  UNL     1     -33.654   5.955   5.285  1.00 20.00     0.092 C 
HETATM    3  C3  UNL     1     -33.504   7.434   3.162  1.00 20.00     0.173 C 
HETATM    4  C4  UNL     1     -34.002   3.829   3.823  1.00 20.00     0.066 C 
HETATM    5  C5  UNL     1     -34.964   5.896   6.054  1.00 20.00     0.028 C 
HETATM    6  N9  UNL     1     -33.740   6.021   2.825  1.00 20.00    -0.282 NA
HETATM    7  S10 UNL     1     -33.210   7.669   4.932  1.00 20.00    -0.131 SA
ENDROOT
BRANCH   3   8
HETATM    8  C8  UNL     1     -32.306   7.928   2.364  1.00 20.00     0.012 C 
HETATM    9  C6  UNL     1     -32.702   9.095   1.459  1.00 20.00     0.012 C 
HETATM   10  C7  UNL     1     -31.167   8.341   3.296  1.00 20.00     0.012 C 
ENDBRANCH   3   8
TORSDOF 1
ENDMDL
MODEL 6
REMARK VINA RESULT:      -3.6     12.112     13.124
REMARK  1 active torsions:
REMARK  status: ('A' for Active; 'I' for Inactive)
REMARK    1  A    between atoms: C3_3  and  C8_8 
ROOT
HETATM    1  C1  UNL     1     -34.238  16.073  -6.019  1.00 20.00     0.017 C 
HETATM    2  C2  UNL     1     -34.104  14.562  -5.907  1.00 20.00     0.092 C 
HETATM    3  C3  UNL     1     -34.981  15.923  -3.883  1.00 20.00     0.173 C 
HETATM    4  C4  UNL     1     -33.853  16.742  -7.309  1.00 20.00     0.066 C 
HETATM    5  C5  UNL     1     -35.099  13.849  -6.807  1.00 20.00     0.028 C 
HETATM    6  N9  UNL     1     -34.693  16.789  -5.037  1.00 20.00    -0.282 NA
HETATM    7  S10 UNL     1     -34.462  14.213  -4.173  1.00 20.00    -0.131 SA
ENDROOT
BRANCH   3   8
HETATM    8  C8  UNL     1     -34.264  16.486  -2.664  1.00 20.00     0.012 C 
HETATM    9  C6  UNL     1     -33.474  17.742  -3.033  1.00 20.00     0.012 C 
HETATM   10  C7  UNL     1     -35.258  16.792  -1.544  1.00 20.00     0.012 C 
ENDBRANCH   3   8
TORSDOF 1
ENDMDL
MODEL 7
REMARK VINA RESULT:      -3.6     11.536     12.542
REMARK  1 active torsions:
REMARK  status: ('A' for Active; 'I' for Inactive)
REMARK    1  A    between atoms: C3_3  and  C8_8 
ROOT
HETATM    1  C1  UNL     1     -33.667  14.507  -4.331  1.00 20.00     0.017 C 
HETATM    2  C2  UNL     1     -33.971  15.995  -4.246  1.00 20.00     0.092 C 
HETATM    3  C3  UNL     1     -35.881  14.328  -4.786  1.00 20.00     0.173 C 
HETATM    4  C4  UNL     1     -32.257  14.039  -4.101  1.00 20.00     0.066 C 
HETATM    5  C5  UNL     1     -33.819  16.511  -2.825  1.00 20.00     0.028 C 
HETATM    6  N9  UNL     1     -34.599  13.637  -4.578  1.00 20.00    -0.282 NA
HETATM    7  S10 UNL     1     -35.689  16.128  -4.783  1.00 20.00    -0.131 SA
ENDROOT
BRANCH   3   8
HETATM    8  C8  UNL     1     -36.468  13.869  -6.113  1.00 20.00     0.012 C 
HETATM    9  C6  UNL     1     -37.136  15.035  -6.842  1.00 20.00     0.012 C 
HETATM   10  C7  UNL     1     -35.390  13.237  -6.994  1.00 20.00     0.012 C 
ENDBRANCH   3   8
TORSDOF 1
ENDMDL
MODEL 8
REMARK VINA RESULT:      -3.6     11.729     12.448
REMARK  1 active torsions:
REMARK  status: ('A' for Active; 'I' for Inactive)
REMARK    1  A    between atoms: C3_3  and  C8_8 
ROOT
HETATM    1  C1  UNL     1     -35.128  17.012  -1.654  1.00 20.00     0.017 C 
HETATM    2  C2  UNL     1     -33.662  16.989  -2.053  1.00 20.00     0.092 C 
HETATM    3  C3  UNL     1     -35.479  16.469  -3.826  1.00 20.00     0.173 C 
HETATM    4  C4  UNL     1     -35.488  17.334  -0.230  1.00 20.00     0.066 C 
HETATM    5  C5  UNL     1     -33.052  18.380  -2.004  1.00 20.00     0.028 C 
HETATM    6  N9  UNL     1     -36.071  16.778  -2.516  1.00 20.00    -0.282 NA
HETATM    7  S10 UNL     1     -33.674  16.368  -3.748  1.00 20.00    -0.131 SA
ENDROOT
BRANCH   3   8
HETATM    8  C8  UNL     1     -36.054  15.149  -4.318  1.00 20.00     0.012 C 
HETATM    9  C6  UNL     1     -36.726  15.325  -5.681  1.00 20.00     0.012 C 
HETATM   10  C7  UNL     1     -34.966  14.078  -4.396  1.00 20.00     0.012 C 
ENDBRANCH   3   8
TORSDOF 1
ENDMDL
MODEL 9
REMARK VINA RESULT:      -3.5     12.471     13.363
REMARK  1 active torsions:
REMARK  status: ('A' for Active; 'I' for Inactive)
REMARK    1  A    between atoms: C3_3  and  C8_8 
ROOT
HETATM    1  C1  UNL     1     -33.835  16.972  -5.031  1.00 20.00     0.017 C 
HETATM    2  C2  UNL     1     -34.513  16.523  -3.747  1.00 20.00     0.092 C 
HETATM    3  C3  UNL     1     -33.670  14.748  -5.437  1.00 20.00     0.173 C 
HETATM    4  C4  UNL     1     -33.672  18.444  -5.290  1.00 20.00     0.066 C 
HETATM    5  C5  UNL     1     -33.664  16.847  -2.529  1.00 20.00     0.028 C 
HETATM    6  N9  UNL     1     -33.379  16.115  -5.894  1.00 20.00    -0.282 NA
HETATM    7  S10 UNL     1     -34.683  14.736  -3.937  1.00 20.00    -0.131 SA
ENDROOT
BRANCH   3   8
HETATM    8  C8  UNL     1     -34.387  14.005  -6.555  1.00 20.00     0.012 C 
HETATM    9  C6  UNL     1     -35.901  14.041  -6.345  1.00 20.00     0.012 C 
HETATM   10  C7  UNL     1     -34.025  14.596  -7.918  1.00 20.00     0.012 C 
ENDBRANCH   3   8
TORSDOF 1
ENDMDL
