MODEL 1
REMARK VINA RESULT:      -4.8      0.000      0.000
REMARK  0 active torsions:
REMARK  status: ('A' for Active; 'I' for Inactive)
ROOT
HETATM    1  C1  UNL     1     -32.436   7.487   3.358  1.00 20.00     0.085 C 
HETATM    2  C2  UNL     1     -33.132   5.253   2.909  1.00 20.00     0.085 C 
HETATM    3  C3  UNL     1     -34.843   6.903   3.857  1.00 20.00     0.030 A 
HETATM    4  C4  UNL     1     -33.405   6.461   3.640  1.00 20.00     0.148 A 
HETATM    5  C5  UNL     1     -34.039   6.382   5.037  1.00 20.00    -0.007 A 
HETATM    6  C6  UNL     1     -36.013   6.167   3.291  1.00 20.00     0.014 C 
HETATM    7  C7  UNL     1     -33.649   7.395   6.092  1.00 20.00     0.018 C 
HETATM    8  C8  UNL     1     -34.367   5.032   5.638  1.00 20.00     0.018 C 
HETATM    9  N9  UNL     1     -31.655   8.314   3.132  1.00 20.00    -0.195 NA
HETATM   10  N10 UNL     1     -32.912   4.278   2.321  1.00 20.00    -0.195 NA
ENDROOT
TORSDOF 0
ENDMDL
MODEL 2
REMARK VINA RESULT:      -4.4     12.037     12.895
REMARK  0 active torsions:
REMARK  status: ('A' for Active; 'I' for Inactive)
ROOT
HETATM    1  C1  UNL     1     -35.403  13.372  -6.147  1.00 20.00     0.085 C 
HETATM    2  C2  UNL     1     -37.201  14.439  -5.002  1.00 20.00     0.085 C 
HETATM    3  C3  UNL     1     -35.234  15.870  -5.799  1.00 20.00     0.030 A 
HETATM    4  C4  UNL     1     -35.820  14.526  -5.395  1.00 20.00     0.148 A 
HETATM    5  C5  UNL     1     -34.811  15.240  -4.483  1.00 20.00    -0.007 A 
HETATM    6  C6  UNL     1     -36.045  17.120  -5.870  1.00 20.00     0.014 C 
HETATM    7  C7  UNL     1     -33.387  14.729  -4.402  1.00 20.00     0.018 C 
HETATM    8  C8  UNL     1     -35.275  15.841  -3.173  1.00 20.00     0.018 C 
HETATM    9  N9  UNL     1     -35.067  12.442  -6.753  1.00 20.00    -0.195 NA
HETATM   10  N10 UNL     1     -38.314  14.368  -4.685  1.00 20.00    -0.195 NA
ENDROOT
TORSDOF 0
ENDMDL
MODEL 3
REMARK VINA RESULT:      -4.3     11.933     13.091
REMARK  0 active torsions:
REMARK  status: ('A' for Active; 'I' for Inactive)
ROOT
HETATM    1  C1  UNL     1     -37.244  14.309  -5.120  1.00 20.00     0.085 C 
HETATM    2  C2  UNL     1     -35.422  13.301  -6.278  1.00 20.00     0.085 C 
HETATM    3  C3  UNL     1     -34.911  14.942  -4.383  1.00 20.00     0.030 A 
HETATM    4  C4  UNL     1     -35.846  14.397  -5.450  1.00 20.00     0.148 A 
HETATM    5  C5  UNL     1     -35.194  15.778  -5.620  1.00 20.00    -0.007 A 
HETATM    6  C6  UNL     1     -33.570  14.351  -4.099  1.00 20.00     0.014 C 
HETATM    7  C7  UNL     1     -36.027  17.027  -5.419  1.00 20.00     0.018 C 
HETATM    8  C8  UNL     1     -34.114  15.977  -6.661  1.00 20.00     0.018 C 
HETATM    9  N9  UNL     1     -38.370  14.239  -4.853  1.00 20.00    -0.195 NA
HETATM   10  N10 UNL     1     -35.080  12.416  -6.946  1.00 20.00    -0.195 NA
ENDROOT
TORSDOF 0
ENDMDL
MODEL 4
REMARK VINA RESULT:      -4.2     11.548     12.866
REMARK  0 active torsions:
REMARK  status: ('A' for Active; 'I' for Inactive)
ROOT
HETATM    1  C1  UNL     1     -35.769  15.934  -3.701  1.00 20.00     0.085 C 
HETATM    2  C2  UNL     1     -35.450  13.913  -4.922  1.00 20.00     0.085 C 
HETATM    3  C3  UNL     1     -33.389  15.256  -4.216  1.00 20.00     0.030 A 
HETATM    4  C4  UNL     1     -34.874  15.171  -4.531  1.00 20.00     0.148 A 
HETATM    5  C5  UNL     1     -33.918  15.903  -5.486  1.00 20.00    -0.007 A 
HETATM    6  C6  UNL     1     -32.486  14.068  -4.233  1.00 20.00     0.014 C 
HETATM    7  C7  UNL     1     -33.918  17.417  -5.527  1.00 20.00     0.018 C 
HETATM    8  C8  UNL     1     -33.593  15.297  -6.834  1.00 20.00     0.018 C 
HETATM    9  N9  UNL     1     -36.490  16.549  -3.033  1.00 20.00    -0.195 NA
HETATM   10  N10 UNL     1     -35.914  12.898  -5.238  1.00 20.00    -0.195 NA
ENDROOT
TORSDOF 0
ENDMDL
MODEL 5
REMARK VINA RESULT:      -4.2      1.601      2.745
REMARK  0 active torsions:
REMARK  status: ('A' for Active; 'I' for Inactive)
ROOT
HETATM    1  C1  UNL     1     -33.807   7.079   5.241  1.00 20.00     0.085 C 
HETATM    2  C2  UNL     1     -32.565   7.361   3.227  1.00 20.00     0.085 C 
HETATM    3  C3  UNL     1     -34.793   6.107   3.127  1.00 20.00     0.030 A 
HETATM    4  C4  UNL     1     -33.582   6.602   3.902  1.00 20.00     0.148 A 
HETATM    5  C5  UNL     1     -33.750   5.106   3.594  1.00 20.00    -0.007 A 
HETATM    6  C6  UNL     1     -35.018   6.422   1.685  1.00 20.00     0.014 C 
HETATM    7  C7  UNL     1     -34.166   4.158   4.700  1.00 20.00     0.018 C 
HETATM    8  C8  UNL     1     -32.838   4.439   2.587  1.00 20.00     0.018 C 
HETATM    9  N9  UNL     1     -33.989   7.464   6.320  1.00 20.00    -0.195 NA
HETATM   10  N10 UNL     1     -31.743   7.972   2.683  1.00 20.00    -0.195 NA
ENDROOT
TORSDOF 0
ENDMDL
MODEL 6
REMARK VINA RESULT:      -4.2     11.705     12.944
REMARK  0 active torsions:
REMARK  status: ('A' for Active; 'I' for Inactive)
ROOT
HETATM    1  C1  UNL     1     -36.799  14.578  -4.666  1.00 20.00     0.085 C 
HETATM    2  C2  UNL     1     -34.454  14.428  -4.268  1.00 20.00     0.085 C 
HETATM    3  C3  UNL     1     -35.752  16.372  -3.225  1.00 20.00     0.030 A 
HETATM    4  C4  UNL     1     -35.607  15.287  -4.281  1.00 20.00     0.148 A 
HETATM    5  C5  UNL     1     -35.451  16.768  -4.661  1.00 20.00    -0.007 A 
HETATM    6  C6  UNL     1     -34.772  16.560  -2.115  1.00 20.00     0.014 C 
HETATM    7  C7  UNL     1     -36.562  17.465  -5.419  1.00 20.00     0.018 C 
HETATM    8  C8  UNL     1     -34.087  17.311  -5.026  1.00 20.00     0.018 C 
HETATM    9  N9  UNL     1     -37.760  14.007  -4.976  1.00 20.00    -0.195 NA
HETATM   10  N10 UNL     1     -33.524  13.736  -4.258  1.00 20.00    -0.195 NA
ENDROOT
TORSDOF 0
ENDMDL
MODEL 7
REMARK VINA RESULT:      -4.1     11.532     12.445
REMARK  0 active torsions:
REMARK  status: ('A' for Active; 'I' for Inactive)
ROOT
HETATM    1  C1  UNL     1     -33.402  14.315  -4.318  1.00 20.00     0.085 C 
HETATM    2  C2  UNL     1     -35.721  14.184  -4.847  1.00 20.00     0.085 C 
HETATM    3  C3  UNL     1     -34.556  16.457  -5.001  1.00 20.00     0.030 A 
HETATM    4  C4  UNL     1     -34.637  15.042  -4.452  1.00 20.00     0.148 A 
HETATM    5  C5  UNL     1     -34.909  16.246  -3.538  1.00 20.00    -0.007 A 
HETATM    6  C6  UNL     1     -35.528  16.999  -5.995  1.00 20.00     0.014 C 
HETATM    7  C7  UNL     1     -33.867  16.662  -2.521  1.00 20.00     0.018 C 
HETATM    8  C8  UNL     1     -36.317  16.519  -3.054  1.00 20.00     0.018 C 
HETATM    9  N9  UNL     1     -32.406  13.730  -4.209  1.00 20.00    -0.195 NA
HETATM   10  N10 UNL     1     -36.597  13.493  -5.165  1.00 20.00    -0.195 NA
ENDROOT
TORSDOF 0
ENDMDL
MODEL 8
REMARK VINA RESULT:      -4.0     12.347     13.686
REMARK  0 active torsions:
REMARK  status: ('A' for Active; 'I' for Inactive)
ROOT
HETATM    1  C1  UNL     1     -35.561  13.883  -5.460  1.00 20.00     0.085 C 
HETATM    2  C2  UNL     1     -36.230  16.158  -5.695  1.00 20.00     0.085 C 
HETATM    3  C3  UNL     1     -33.972  15.438  -6.660  1.00 20.00     0.030 A 
HETATM    4  C4  UNL     1     -35.128  15.235  -5.693  1.00 20.00     0.148 A 
HETATM    5  C5  UNL     1     -33.753  15.688  -5.178  1.00 20.00    -0.007 A 
HETATM    6  C6  UNL     1     -33.946  16.532  -7.675  1.00 20.00     0.014 C 
HETATM    7  C7  UNL     1     -32.867  14.701  -4.447  1.00 20.00     0.018 C 
HETATM    8  C8  UNL     1     -33.570  17.102  -4.669  1.00 20.00     0.018 C 
HETATM    9  N9  UNL     1     -35.911  12.793  -5.271  1.00 20.00    -0.195 NA
HETATM   10  N10 UNL     1     -37.119  16.902  -5.696  1.00 20.00    -0.195 NA
ENDROOT
TORSDOF 0
ENDMDL
MODEL 9
REMARK VINA RESULT:      -3.9     11.459     12.401
REMARK  0 active torsions:
REMARK  status: ('A' for Active; 'I' for Inactive)
ROOT
HETATM    1  C1  UNL     1     -34.512  16.095  -3.005  1.00 20.00     0.085 C 
HETATM    2  C2  UNL     1     -33.386  14.357  -4.184  1.00 20.00     0.085 C 
HETATM    3  C3  UNL     1     -34.984  15.880  -5.478  1.00 20.00     0.030 A 
HETATM    4  C4  UNL     1     -34.506  15.258  -4.176  1.00 20.00     0.148 A 
HETATM    5  C5  UNL     1     -35.841  14.823  -4.801  1.00 20.00    -0.007 A 
HETATM    6  C6  UNL     1     -34.303  15.649  -6.786  1.00 20.00     0.014 C 
HETATM    7  C7  UNL     1     -37.142  15.296  -4.187  1.00 20.00     0.018 C 
HETATM    8  C8  UNL     1     -35.969  13.446  -5.416  1.00 20.00     0.018 C 
HETATM    9  N9  UNL     1     -34.516  16.769  -2.061  1.00 20.00    -0.195 NA
HETATM   10  N10 UNL     1     -32.483  13.629  -4.191  1.00 20.00    -0.195 NA
ENDROOT
TORSDOF 0
ENDMDL
