MODEL 1
REMARK VINA RESULT:      -4.4      0.000      0.000
REMARK  1 active torsions:
REMARK  status: ('A' for Active; 'I' for Inactive)
REMARK    1  A    between atoms: C5_5  and  N10_10 
ROOT
HETATM    1  C1  UNL     1     -35.454  17.124  -3.436  1.00 20.00    -0.026 C 
HETATM    2  C2  UNL     1     -32.975  15.821  -5.677  1.00 20.00    -0.026 C 
HETATM    3  C3  UNL     1     -34.765  16.056  -3.001  1.00 20.00    -0.005 C 
HETATM    4  C4  UNL     1     -34.064  16.365  -6.248  1.00 20.00    -0.005 C 
HETATM    5  C6  UNL     1     -35.979  17.232  -4.848  1.00 20.00     0.056 C 
HETATM    6  C7  UNL     1     -33.057  14.913  -4.473  1.00 20.00     0.056 C 
HETATM    7  C8  UNL     1     -34.476  14.852  -3.876  1.00 20.00     0.113 C 
HETATM    8  C9  UNL     1     -35.471  16.096  -5.755  1.00 20.00     0.113 C 
HETATM    9  N10 UNL     1     -35.445  14.853  -4.976  1.00 20.00    -0.343 N 
ENDROOT
BRANCH   9  10
HETATM   10  C5  UNL     1     -36.256  13.771  -5.262  1.00 20.00     0.352 C 
HETATM   11  O11 UNL     1     -35.948  12.585  -5.237  1.00 20.00    -0.283 OA
ENDBRANCH   9  10
TORSDOF 1
ENDMDL
MODEL 2
REMARK VINA RESULT:      -4.4      0.296      2.824
REMARK  1 active torsions:
REMARK  status: ('A' for Active; 'I' for Inactive)
REMARK    1  A    between atoms: C5_5  and  N10_10 
ROOT
HETATM    1  C1  UNL     1     -33.251  16.151  -5.913  1.00 20.00    -0.026 C 
HETATM    2  C2  UNL     1     -35.480  17.041  -3.247  1.00 20.00    -0.026 C 
HETATM    3  C3  UNL     1     -34.451  16.633  -6.280  1.00 20.00    -0.005 C 
HETATM    4  C4  UNL     1     -34.650  16.012  -3.008  1.00 20.00    -0.005 C 
HETATM    5  C6  UNL     1     -33.085  15.150  -4.794  1.00 20.00     0.056 C 
HETATM    6  C7  UNL     1     -36.210  17.208  -4.559  1.00 20.00     0.056 C 
HETATM    7  C8  UNL     1     -35.746  16.196  -5.625  1.00 20.00     0.113 C 
HETATM    8  C9  UNL     1     -34.393  14.911  -4.017  1.00 20.00     0.113 C 
HETATM    9  N10 UNL     1     -35.508  14.906  -4.970  1.00 20.00    -0.343 N 
ENDROOT
BRANCH   9  10
HETATM   10  C5  UNL     1     -36.275  13.784  -5.222  1.00 20.00     0.352 C 
HETATM   11  O11 UNL     1     -35.898  12.618  -5.251  1.00 20.00    -0.283 OA
ENDBRANCH   9  10
TORSDOF 1
ENDMDL
MODEL 3
REMARK VINA RESULT:      -4.4      0.814      1.614
REMARK  1 active torsions:
REMARK  status: ('A' for Active; 'I' for Inactive)
REMARK    1  A    between atoms: C5_5  and  N10_10 
ROOT
HETATM    1  C1  UNL     1     -33.848  16.027  -3.165  1.00 20.00    -0.026 C 
HETATM    2  C2  UNL     1     -34.460  17.065  -6.543  1.00 20.00    -0.026 C 
HETATM    3  C3  UNL     1     -33.232  15.316  -4.125  1.00 20.00    -0.005 C 
HETATM    4  C4  UNL     1     -35.472  17.240  -5.677  1.00 20.00    -0.005 C 
HETATM    5  C6  UNL     1     -35.289  16.466  -3.279  1.00 20.00     0.056 C 
HETATM    6  C7  UNL     1     -33.622  15.808  -6.572  1.00 20.00     0.056 C 
HETATM    7  C8  UNL     1     -33.931  14.867  -5.392  1.00 20.00     0.113 C 
HETATM    8  C9  UNL     1     -35.884  16.184  -4.671  1.00 20.00     0.113 C 
HETATM    9  N10 UNL     1     -35.376  14.891  -5.143  1.00 20.00    -0.343 N 
ENDROOT
BRANCH   9  10
HETATM   10  C5  UNL     1     -36.190  13.793  -5.345  1.00 20.00     0.352 C 
HETATM   11  O11 UNL     1     -35.878  12.611  -5.256  1.00 20.00    -0.283 OA
ENDBRANCH   9  10
TORSDOF 1
ENDMDL
MODEL 4
REMARK VINA RESULT:      -4.4      0.817      2.363
REMARK  1 active torsions:
REMARK  status: ('A' for Active; 'I' for Inactive)
REMARK    1  A    between atoms: C5_5  and  N10_10 
ROOT
HETATM    1  C1  UNL     1     -34.548  17.057  -6.578  1.00 20.00    -0.026 C 
HETATM    2  C2  UNL     1     -33.924  16.102  -3.177  1.00 20.00    -0.026 C 
HETATM    3  C3  UNL     1     -35.563  17.237  -5.716  1.00 20.00    -0.005 C 
HETATM    4  C4  UNL     1     -33.297  15.379  -4.120  1.00 20.00    -0.005 C 
HETATM    5  C6  UNL     1     -33.693  15.811  -6.578  1.00 20.00     0.056 C 
HETATM    6  C7  UNL     1     -35.370  16.519  -3.300  1.00 20.00     0.056 C 
HETATM    7  C8  UNL     1     -35.960  16.197  -4.686  1.00 20.00     0.113 C 
HETATM    8  C9  UNL     1     -33.989  14.892  -5.378  1.00 20.00     0.113 C 
HETATM    9  N10 UNL     1     -35.435  14.902  -5.127  1.00 20.00    -0.343 N 
ENDROOT
BRANCH   9  10
HETATM   10  C5  UNL     1     -36.231  13.783  -5.284  1.00 20.00     0.352 C 
HETATM   11  O11 UNL     1     -35.876  12.611  -5.264  1.00 20.00    -0.283 OA
ENDBRANCH   9  10
TORSDOF 1
ENDMDL
MODEL 5
REMARK VINA RESULT:      -4.2      1.375      2.205
REMARK  1 active torsions:
REMARK  status: ('A' for Active; 'I' for Inactive)
REMARK    1  A    between atoms: C5_5  and  N10_10 
ROOT
HETATM    1  C1  UNL     1     -35.685  16.980  -6.320  1.00 20.00    -0.026 C 
HETATM    2  C2  UNL     1     -33.401  15.264  -4.152  1.00 20.00    -0.026 C 
HETATM    3  C3  UNL     1     -36.220  16.046  -5.515  1.00 20.00    -0.005 C 
HETATM    4  C4  UNL     1     -32.912  15.648  -5.343  1.00 20.00    -0.005 C 
HETATM    5  C6  UNL     1     -34.387  16.764  -7.063  1.00 20.00     0.056 C 
HETATM    6  C7  UNL     1     -34.769  14.641  -3.997  1.00 20.00     0.056 C 
HETATM    7  C8  UNL     1     -35.588  14.686  -5.301  1.00 20.00     0.113 C 
HETATM    8  C9  UNL     1     -33.674  15.466  -6.641  1.00 20.00     0.113 C 
HETATM    9  N10 UNL     1     -34.686  14.426  -6.427  1.00 20.00    -0.343 N 
ENDROOT
BRANCH   9  10
HETATM   10  C5  UNL     1     -34.774  13.292  -7.212  1.00 20.00     0.352 C 
HETATM   11  O11 UNL     1     -35.112  12.169  -6.859  1.00 20.00    -0.283 OA
ENDBRANCH   9  10
TORSDOF 1
ENDMDL
MODEL 6
REMARK VINA RESULT:      -4.1      1.402      2.909
REMARK  1 active torsions:
REMARK  status: ('A' for Active; 'I' for Inactive)
REMARK    1  A    between atoms: C5_5  and  N10_10 
ROOT
HETATM    1  C1  UNL     1     -34.119  15.302  -7.210  1.00 20.00    -0.026 C 
HETATM    2  C2  UNL     1     -34.244  15.527  -3.632  1.00 20.00    -0.026 C 
HETATM    3  C3  UNL     1     -34.674  16.417  -6.705  1.00 20.00    -0.005 C 
HETATM    4  C4  UNL     1     -34.351  14.293  -4.153  1.00 20.00    -0.005 C 
HETATM    5  C6  UNL     1     -34.406  13.928  -6.652  1.00 20.00     0.056 C 
HETATM    6  C7  UNL     1     -34.966  16.720  -4.213  1.00 20.00     0.056 C 
HETATM    7  C8  UNL     1     -35.657  16.396  -5.552  1.00 20.00     0.113 C 
HETATM    8  C9  UNL     1     -35.227  13.979  -5.350  1.00 20.00     0.113 C 
HETATM    9  N10 UNL     1     -36.225  15.047  -5.469  1.00 20.00    -0.343 N 
ENDROOT
BRANCH   9  10
HETATM   10  C5  UNL     1     -37.585  14.804  -5.490  1.00 20.00     0.352 C 
HETATM   11  O11 UNL     1     -38.174  13.836  -5.021  1.00 20.00    -0.283 OA
ENDBRANCH   9  10
TORSDOF 1
ENDMDL
MODEL 7
REMARK VINA RESULT:      -4.1      1.443      1.912
REMARK  1 active torsions:
REMARK  status: ('A' for Active; 'I' for Inactive)
REMARK    1  A    between atoms: C5_5  and  N10_10 
ROOT
HETATM    1  C1  UNL     1     -33.726  15.660  -3.840  1.00 20.00    -0.026 C 
HETATM    2  C2  UNL     1     -34.561  15.173  -7.293  1.00 20.00    -0.026 C 
HETATM    3  C3  UNL     1     -33.962  14.393  -4.219  1.00 20.00    -0.005 C 
HETATM    4  C4  UNL     1     -34.966  16.330  -6.743  1.00 20.00    -0.005 C 
HETATM    5  C6  UNL     1     -34.584  16.818  -4.294  1.00 20.00     0.056 C 
HETATM    6  C7  UNL     1     -34.681  13.847  -6.579  1.00 20.00     0.056 C 
HETATM    7  C8  UNL     1     -35.124  14.006  -5.112  1.00 20.00     0.113 C 
HETATM    8  C9  UNL     1     -35.606  16.408  -5.371  1.00 20.00     0.113 C 
HETATM    9  N10 UNL     1     -36.124  15.075  -5.040  1.00 20.00    -0.343 N 
ENDROOT
BRANCH   9  10
HETATM   10  C5  UNL     1     -37.444  14.847  -4.700  1.00 20.00     0.352 C 
HETATM   11  O11 UNL     1     -38.124  13.868  -4.984  1.00 20.00    -0.283 OA
ENDBRANCH   9  10
TORSDOF 1
ENDMDL
MODEL 8
REMARK VINA RESULT:      -4.1      1.951      3.417
REMARK  1 active torsions:
REMARK  status: ('A' for Active; 'I' for Inactive)
REMARK    1  A    between atoms: C5_5  and  N10_10 
ROOT
HETATM    1  C1  UNL     1     -34.935  13.379  -7.169  1.00 20.00    -0.026 C 
HETATM    2  C2  UNL     1     -33.234  14.815  -4.357  1.00 20.00    -0.026 C 
HETATM    3  C3  UNL     1     -34.166  14.450  -7.426  1.00 20.00    -0.005 C 
HETATM    4  C4  UNL     1     -34.433  14.262  -4.105  1.00 20.00    -0.005 C 
HETATM    5  C6  UNL     1     -35.846  13.302  -5.966  1.00 20.00     0.056 C 
HETATM    6  C7  UNL     1     -32.977  15.682  -5.567  1.00 20.00     0.056 C 
HETATM    7  C8  UNL     1     -34.163  15.688  -6.551  1.00 20.00     0.113 C 
HETATM    8  C9  UNL     1     -35.641  14.479  -4.994  1.00 20.00     0.113 C 
HETATM    9  N10 UNL     1     -35.409  15.697  -5.779  1.00 20.00    -0.343 N 
ENDROOT
BRANCH   9  10
HETATM   10  C5  UNL     1     -36.285  16.766  -5.781  1.00 20.00     0.352 C 
HETATM   11  O11 UNL     1     -36.450  17.592  -4.891  1.00 20.00    -0.283 OA
ENDBRANCH   9  10
TORSDOF 1
ENDMDL
MODEL 9
REMARK VINA RESULT:      -4.1      1.923      2.960
REMARK  1 active torsions:
REMARK  status: ('A' for Active; 'I' for Inactive)
REMARK    1  A    between atoms: C5_5  and  N10_10 
ROOT
HETATM    1  C1  UNL     1     -33.254  14.826  -4.345  1.00 20.00    -0.026 C 
HETATM    2  C2  UNL     1     -34.876  13.387  -7.203  1.00 20.00    -0.026 C 
HETATM    3  C3  UNL     1     -34.450  14.256  -4.123  1.00 20.00    -0.005 C 
HETATM    4  C4  UNL     1     -34.115  14.470  -7.436  1.00 20.00    -0.005 C 
HETATM    5  C6  UNL     1     -32.982  15.704  -5.545  1.00 20.00     0.056 C 
HETATM    6  C7  UNL     1     -35.812  13.290  -6.020  1.00 20.00     0.056 C 
HETATM    7  C8  UNL     1     -35.642  14.464  -5.037  1.00 20.00     0.113 C 
HETATM    8  C9  UNL     1     -34.146  15.702  -6.553  1.00 20.00     0.113 C 
HETATM    9  N10 UNL     1     -35.410  15.689  -5.808  1.00 20.00    -0.343 N 
ENDROOT
BRANCH   9  10
HETATM   10  C5  UNL     1     -36.310  16.737  -5.839  1.00 20.00     0.352 C 
HETATM   11  O11 UNL     1     -36.754  17.363  -4.883  1.00 20.00    -0.283 OA
ENDBRANCH   9  10
TORSDOF 1
ENDMDL
