MODEL 1
REMARK VINA RESULT:      -5.5      0.000      0.000
REMARK  1 active torsions:
REMARK  status: ('A' for Active; 'I' for Inactive)
REMARK    1  A    between atoms: C5_5  and  C10_10 
ROOT
HETATM    1  C1  UNL     1     -33.624   7.632   4.522  1.00 20.00    -0.018 C 
HETATM    2  C2  UNL     1     -33.860   6.837   5.574  1.00 20.00    -0.025 C 
HETATM    3  C3  UNL     1     -33.461   5.626   3.050  1.00 20.00     0.135 C 
HETATM    4  C4  UNL     1     -34.361   4.909   4.031  1.00 20.00     0.087 C 
HETATM    5  C5  UNL     1     -33.473   7.153   3.104  1.00 20.00     0.081 C 
HETATM    6  C6  UNL     1     -34.038   5.345   5.464  1.00 20.00     0.010 C 
HETATM    7  C7  UNL     1     -35.134   4.858   6.414  1.00 20.00     0.014 C 
HETATM    8  O11 UNL     1     -32.832   4.999   2.197  1.00 20.00    -0.297 OA
ENDROOT
BRANCH   5   9
HETATM    9  C10 UNL     1     -32.202   7.726   2.481  1.00 20.00    -0.008 C 
HETATM   10  C8  UNL     1     -32.545   8.781   1.430  1.00 20.00     0.010 C 
HETATM   11  C9  UNL     1     -31.292   8.318   3.556  1.00 20.00     0.010 C 
ENDBRANCH   5   9
TORSDOF 1
ENDMDL
MODEL 2
REMARK VINA RESULT:      -4.6      1.595      4.326
REMARK  1 active torsions:
REMARK  status: ('A' for Active; 'I' for Inactive)
REMARK    1  A    between atoms: C5_5  and  C10_10 
ROOT
HETATM    1  C1  UNL     1     -34.078   5.909   2.588  1.00 20.00    -0.018 C 
HETATM    2  C2  UNL     1     -32.987   6.504   2.085  1.00 20.00    -0.025 C 
HETATM    3  C3  UNL     1     -33.724   7.103   4.749  1.00 20.00     0.135 C 
HETATM    4  C4  UNL     1     -33.008   8.180   3.965  1.00 20.00     0.087 C 
HETATM    5  C5  UNL     1     -34.648   6.182   3.953  1.00 20.00     0.081 C 
HETATM    6  C6  UNL     1     -32.202   7.558   2.821  1.00 20.00     0.010 C 
HETATM    7  C7  UNL     1     -31.732   8.653   1.861  1.00 20.00     0.014 C 
HETATM    8  O11 UNL     1     -33.629   7.047   5.975  1.00 20.00    -0.297 OA
ENDROOT
BRANCH   5   9
HETATM    9  C10 UNL     1     -34.883   4.873   4.703  1.00 20.00    -0.008 C 
HETATM   10  C8  UNL     1     -33.936   3.785   4.200  1.00 20.00     0.010 C 
HETATM   11  C9  UNL     1     -34.714   5.075   6.209  1.00 20.00     0.010 C 
ENDBRANCH   5   9
TORSDOF 1
ENDMDL
MODEL 3
REMARK VINA RESULT:      -4.6     12.014     12.733
REMARK  1 active torsions:
REMARK  status: ('A' for Active; 'I' for Inactive)
REMARK    1  A    between atoms: C5_5  and  C10_10 
ROOT
HETATM    1  C1  UNL     1     -34.955  16.584  -1.833  1.00 20.00    -0.018 C 
HETATM    2  C2  UNL     1     -35.508  17.158  -0.755  1.00 20.00    -0.025 C 
HETATM    3  C3  UNL     1     -33.091  18.239  -1.749  1.00 20.00     0.135 C 
HETATM    4  C4  UNL     1     -33.351  18.364  -0.265  1.00 20.00     0.087 C 
HETATM    5  C5  UNL     1     -33.635  16.985  -2.433  1.00 20.00     0.081 C 
HETATM    6  C6  UNL     1     -34.853  18.270   0.022  1.00 20.00     0.010 C 
HETATM    7  C7  UNL     1     -35.085  18.094   1.523  1.00 20.00     0.014 C 
HETATM    8  O11 UNL     1     -32.395  19.065  -2.339  1.00 20.00    -0.297 OA
ENDROOT
BRANCH   5   9
HETATM    9  C10 UNL     1     -33.780  17.209  -3.936  1.00 20.00    -0.008 C 
HETATM   10  C8  UNL     1     -33.376  15.956  -4.711  1.00 20.00     0.010 C 
HETATM   11  C9  UNL     1     -35.211  17.616  -4.287  1.00 20.00     0.010 C 
ENDBRANCH   5   9
TORSDOF 1
ENDMDL
MODEL 4
REMARK VINA RESULT:      -4.6      1.187      4.091
REMARK  1 active torsions:
REMARK  status: ('A' for Active; 'I' for Inactive)
REMARK    1  A    between atoms: C5_5  and  C10_10 
ROOT
HETATM    1  C1  UNL     1     -32.266   7.733   4.192  1.00 20.00    -0.018 C 
HETATM    2  C2  UNL     1     -31.952   8.583   3.204  1.00 20.00    -0.025 C 
HETATM    3  C3  UNL     1     -33.785   6.504   2.644  1.00 20.00     0.135 C 
HETATM    4  C4  UNL     1     -32.922   6.998   1.504  1.00 20.00     0.087 C 
HETATM    5  C5  UNL     1     -33.156   6.531   4.036  1.00 20.00     0.081 C 
HETATM    6  C6  UNL     1     -32.433   8.422   1.786  1.00 20.00     0.010 C 
HETATM    7  C7  UNL     1     -31.333   8.799   0.793  1.00 20.00     0.014 C 
HETATM    8  O11 UNL     1     -34.897   6.021   2.430  1.00 20.00    -0.297 OA
ENDROOT
BRANCH   5   9
HETATM    9  C10 UNL     1     -34.234   6.524   5.117  1.00 20.00    -0.008 C 
HETATM   10  C8  UNL     1     -34.484   5.103   5.622  1.00 20.00     0.010 C 
HETATM   11  C9  UNL     1     -33.846   7.441   6.275  1.00 20.00     0.010 C 
ENDBRANCH   5   9
TORSDOF 1
ENDMDL
MODEL 5
REMARK VINA RESULT:      -4.4     11.927     12.649
REMARK  1 active torsions:
REMARK  status: ('A' for Active; 'I' for Inactive)
REMARK    1  A    between atoms: C5_5  and  C10_10 
ROOT
HETATM    1  C1  UNL     1     -35.927  14.735  -4.604  1.00 20.00    -0.018 C 
HETATM    2  C2  UNL     1     -36.153  15.694  -3.696  1.00 20.00    -0.025 C 
HETATM    3  C3  UNL     1     -33.527  15.403  -4.705  1.00 20.00     0.135 C 
HETATM    4  C4  UNL     1     -33.677  15.924  -3.294  1.00 20.00     0.087 C 
HETATM    5  C5  UNL     1     -34.578  14.397  -5.176  1.00 20.00     0.081 C 
HETATM    6  C6  UNL     1     -35.063  16.547  -3.101  1.00 20.00     0.010 C 
HETATM    7  C7  UNL     1     -35.318  16.795  -1.613  1.00 20.00     0.014 C 
HETATM    8  O11 UNL     1     -32.552  15.711  -5.392  1.00 20.00    -0.297 OA
ENDROOT
BRANCH   5   9
HETATM    9  C10 UNL     1     -34.641  14.354  -6.700  1.00 20.00    -0.008 C 
HETATM   10  C8  UNL     1     -35.164  13.002  -7.181  1.00 20.00     0.010 C 
HETATM   11  C9  UNL     1     -35.515  15.487  -7.237  1.00 20.00     0.010 C 
ENDBRANCH   5   9
TORSDOF 1
ENDMDL
MODEL 6
REMARK VINA RESULT:      -4.4     11.888     12.677
REMARK  1 active torsions:
REMARK  status: ('A' for Active; 'I' for Inactive)
REMARK    1  A    between atoms: C5_5  and  C10_10 
ROOT
HETATM    1  C1  UNL     1     -33.500  15.603  -3.820  1.00 20.00    -0.018 C 
HETATM    2  C2  UNL     1     -33.439  15.251  -5.112  1.00 20.00    -0.025 C 
HETATM    3  C3  UNL     1     -35.983  15.773  -3.991  1.00 20.00     0.135 C 
HETATM    4  C4  UNL     1     -35.912  14.769  -5.119  1.00 20.00     0.087 C 
HETATM    5  C5  UNL     1     -34.775  15.833  -3.055  1.00 20.00     0.081 C 
HETATM    6  C6  UNL     1     -34.657  15.007  -5.965  1.00 20.00     0.010 C 
HETATM    7  C7  UNL     1     -34.432  13.823  -6.906  1.00 20.00     0.014 C 
HETATM    8  O11 UNL     1     -37.005  16.430  -3.794  1.00 20.00    -0.297 OA
ENDROOT
BRANCH   5   9
HETATM    9  C10 UNL     1     -34.724  17.173  -2.325  1.00 20.00    -0.008 C 
HETATM   10  C8  UNL     1     -35.338  17.052  -0.932  1.00 20.00     0.010 C 
HETATM   11  C9  UNL     1     -33.286  17.683  -2.232  1.00 20.00     0.010 C 
ENDBRANCH   5   9
TORSDOF 1
ENDMDL
MODEL 7
REMARK VINA RESULT:      -4.3      1.758      2.493
REMARK  1 active torsions:
REMARK  status: ('A' for Active; 'I' for Inactive)
REMARK    1  A    between atoms: C5_5  and  C10_10 
ROOT
HETATM    1  C1  UNL     1     -33.248   6.646   2.351  1.00 20.00    -0.018 C 
HETATM    2  C2  UNL     1     -34.252   6.134   3.076  1.00 20.00    -0.025 C 
HETATM    3  C3  UNL     1     -32.452   7.903   4.352  1.00 20.00     0.135 C 
HETATM    4  C4  UNL     1     -33.100   6.835   5.204  1.00 20.00     0.087 C 
HETATM    5  C5  UNL     1     -32.163   7.532   2.898  1.00 20.00     0.081 C 
HETATM    6  C6  UNL     1     -34.405   6.359   4.558  1.00 20.00     0.010 C 
HETATM    7  C7  UNL     1     -34.895   5.087   5.252  1.00 20.00     0.014 C 
HETATM    8  O11 UNL     1     -32.096   8.974   4.845  1.00 20.00    -0.297 OA
ENDROOT
BRANCH   5   9
HETATM    9  C10 UNL     1     -32.016   8.785   2.039  1.00 20.00    -0.008 C 
HETATM   10  C8  UNL     1     -31.267   8.469   0.745  1.00 20.00     0.010 C 
HETATM   11  C9  UNL     1     -33.384   9.393   1.730  1.00 20.00     0.010 C 
ENDBRANCH   5   9
TORSDOF 1
ENDMDL
MODEL 8
REMARK VINA RESULT:      -4.3     11.616     12.441
REMARK  1 active torsions:
REMARK  status: ('A' for Active; 'I' for Inactive)
REMARK    1  A    between atoms: C5_5  and  C10_10 
ROOT
HETATM    1  C1  UNL     1     -33.521  16.954  -3.269  1.00 20.00    -0.018 C 
HETATM    2  C2  UNL     1     -33.679  17.085  -1.945  1.00 20.00    -0.025 C 
HETATM    3  C3  UNL     1     -35.913  16.281  -3.480  1.00 20.00     0.135 C 
HETATM    4  C4  UNL     1     -36.182  17.072  -2.219  1.00 20.00     0.087 C 
HETATM    5  C5  UNL     1     -34.626  16.615  -4.232  1.00 20.00     0.081 C 
HETATM    6  C6  UNL     1     -35.006  16.940  -1.247  1.00 20.00     0.010 C 
HETATM    7  C7  UNL     1     -35.144  17.968  -0.123  1.00 20.00     0.014 C 
HETATM    8  O11 UNL     1     -36.744  15.481  -3.912  1.00 20.00    -0.297 OA
ENDROOT
BRANCH   5   9
HETATM    9  C10 UNL     1     -34.210  15.456  -5.134  1.00 20.00    -0.008 C 
HETATM   10  C8  UNL     1     -33.417  15.964  -6.337  1.00 20.00     0.010 C 
HETATM   11  C9  UNL     1     -33.392  14.429  -4.351  1.00 20.00     0.010 C 
ENDBRANCH   5   9
TORSDOF 1
ENDMDL
MODEL 9
REMARK VINA RESULT:      -4.3     11.654     12.516
REMARK  1 active torsions:
REMARK  status: ('A' for Active; 'I' for Inactive)
REMARK    1  A    between atoms: C5_5  and  C10_10 
ROOT
HETATM    1  C1  UNL     1     -36.375  16.392  -4.282  1.00 20.00    -0.018 C 
HETATM    2  C2  UNL     1     -37.706  16.250  -4.203  1.00 20.00    -0.025 C 
HETATM    3  C3  UNL     1     -36.180  14.043  -5.097  1.00 20.00     0.135 C 
HETATM    4  C4  UNL     1     -37.590  14.175  -5.626  1.00 20.00     0.087 C 
HETATM    5  C5  UNL     1     -35.433  15.346  -4.814  1.00 20.00     0.081 C 
HETATM    6  C6  UNL     1     -38.439  15.021  -4.673  1.00 20.00     0.010 C 
HETATM    7  C7  UNL     1     -39.757  15.401  -5.349  1.00 20.00     0.014 C 
HETATM    8  O11 UNL     1     -35.645  12.939  -4.995  1.00 20.00    -0.297 OA
ENDROOT
BRANCH   5   9
HETATM    9  C10 UNL     1     -34.289  15.111  -3.831  1.00 20.00    -0.008 C 
HETATM   10  C8  UNL     1     -32.964  14.949  -4.575  1.00 20.00     0.010 C 
HETATM   11  C9  UNL     1     -34.199  16.256  -2.823  1.00 20.00     0.010 C 
ENDBRANCH   5   9
TORSDOF 1
ENDMDL
