MODEL 1
REMARK VINA RESULT:      -5.3      0.000      0.000
REMARK  1 active torsions:
REMARK  status: ('A' for Active; 'I' for Inactive)
REMARK    1  A    between atoms: C7_7  and  C10_10 
ROOT
HETATM    1  C1  UNL     1     -34.367   4.767   5.591  1.00 20.00    -0.004 C 
HETATM    2  C2  UNL     1     -34.055   3.990   4.403  1.00 20.00    -0.004 C 
HETATM    3  C3  UNL     1     -34.353   6.103   5.752  1.00 20.00    -0.017 C 
HETATM    4  C4  UNL     1     -33.677   4.422   3.186  1.00 20.00    -0.017 C 
HETATM    5  C5  UNL     1     -35.014   7.310   3.685  1.00 20.00    -0.021 C 
HETATM    6  C6  UNL     1     -34.725   6.594   2.590  1.00 20.00    -0.021 C 
HETATM    7  C8  UNL     1     -33.944   7.140   4.734  1.00 20.00     0.042 C 
HETATM    8  C9  UNL     1     -33.425   5.849   2.764  1.00 20.00     0.042 C 
HETATM    9  C10 UNL     1     -32.755   6.670   3.880  1.00 20.00     0.077 C 
ENDROOT
BRANCH   9  10
HETATM   10  C7  UNL     1     -31.991   7.845   3.327  1.00 20.00     0.129 C 
HETATM   11  C11 UNL     1     -32.017   8.029   1.834  1.00 20.00     0.091 C 
HETATM   12  O12 UNL     1     -31.378   8.618   4.062  1.00 20.00    -0.298 OA
ENDBRANCH   9  10
TORSDOF 1
ENDMDL
MODEL 2
REMARK VINA RESULT:      -5.2     11.723     13.137
REMARK  1 active torsions:
REMARK  status: ('A' for Active; 'I' for Inactive)
REMARK    1  A    between atoms: C7_7  and  C10_10 
ROOT
HETATM    1  C1  UNL     1     -34.975  17.332  -3.353  1.00 20.00    -0.004 C 
HETATM    2  C2  UNL     1     -34.855  17.939  -4.668  1.00 20.00    -0.004 C 
HETATM    3  C3  UNL     1     -34.837  16.040  -3.004  1.00 20.00    -0.017 C 
HETATM    4  C4  UNL     1     -34.580  17.352  -5.847  1.00 20.00    -0.017 C 
HETATM    5  C5  UNL     1     -33.142  14.865  -4.389  1.00 20.00    -0.021 C 
HETATM    6  C6  UNL     1     -33.033  15.424  -5.602  1.00 20.00    -0.021 C 
HETATM    7  C8  UNL     1     -34.577  14.870  -3.924  1.00 20.00     0.042 C 
HETATM    8  C9  UNL     1     -34.380  15.879  -6.106  1.00 20.00     0.042 C 
HETATM    9  C10 UNL     1     -35.327  15.011  -5.259  1.00 20.00     0.077 C 
ENDROOT
BRANCH   9  10
HETATM   10  C7  UNL     1     -35.563  13.663  -5.888  1.00 20.00     0.129 C 
HETATM   11  C11 UNL     1     -35.454  13.586  -7.387  1.00 20.00     0.091 C 
HETATM   12  O12 UNL     1     -35.829  12.672  -5.209  1.00 20.00    -0.298 OA
ENDBRANCH   9  10
TORSDOF 1
ENDMDL
MODEL 3
REMARK VINA RESULT:      -5.2     11.530     12.808
REMARK  1 active torsions:
REMARK  status: ('A' for Active; 'I' for Inactive)
REMARK    1  A    between atoms: C7_7  and  C10_10 
ROOT
HETATM    1  C1  UNL     1     -33.461  18.452  -0.665  1.00 20.00    -0.004 C 
HETATM    2  C2  UNL     1     -34.644  17.716  -0.250  1.00 20.00    -0.004 C 
HETATM    3  C3  UNL     1     -32.908  18.538  -1.888  1.00 20.00    -0.017 C 
HETATM    4  C4  UNL     1     -35.462  16.945  -0.989  1.00 20.00    -0.017 C 
HETATM    5  C5  UNL     1     -34.605  18.462  -3.699  1.00 20.00    -0.021 C 
HETATM    6  C6  UNL     1     -35.694  17.782  -3.317  1.00 20.00    -0.021 C 
HETATM    7  C8  UNL     1     -33.355  17.828  -3.143  1.00 20.00     0.042 C 
HETATM    8  C9  UNL     1     -35.316  16.605  -2.453  1.00 20.00     0.042 C 
HETATM    9  C10 UNL     1     -33.844  16.400  -2.852  1.00 20.00     0.077 C 
ENDROOT
BRANCH   9  10
HETATM   10  C7  UNL     1     -33.713  15.527  -4.073  1.00 20.00     0.129 C 
HETATM   11  C11 UNL     1     -34.594  14.309  -4.133  1.00 20.00     0.091 C 
HETATM   12  O12 UNL     1     -32.925  15.798  -4.978  1.00 20.00    -0.298 OA
ENDBRANCH   9  10
TORSDOF 1
ENDMDL
MODEL 4
REMARK VINA RESULT:      -5.0     11.999     13.257
REMARK  1 active torsions:
REMARK  status: ('A' for Active; 'I' for Inactive)
REMARK    1  A    between atoms: C7_7  and  C10_10 
ROOT
HETATM    1  C1  UNL     1     -33.410  17.460  -4.705  1.00 20.00    -0.004 C 
HETATM    2  C2  UNL     1     -33.740  16.954  -3.383  1.00 20.00    -0.004 C 
HETATM    3  C3  UNL     1     -33.921  17.103  -5.897  1.00 20.00    -0.017 C 
HETATM    4  C4  UNL     1     -34.632  16.008  -3.040  1.00 20.00    -0.017 C 
HETATM    5  C5  UNL     1     -36.319  16.475  -5.744  1.00 20.00    -0.021 C 
HETATM    6  C6  UNL     1     -36.623  16.006  -4.526  1.00 20.00    -0.021 C 
HETATM    7  C8  UNL     1     -34.943  16.023  -6.164  1.00 20.00     0.042 C 
HETATM    8  C9  UNL     1     -35.488  15.183  -3.970  1.00 20.00     0.042 C 
HETATM    9  C10 UNL     1     -34.736  14.799  -5.256  1.00 20.00     0.077 C 
ENDROOT
BRANCH   9  10
HETATM   10  C7  UNL     1     -35.308  13.558  -5.889  1.00 20.00     0.129 C 
HETATM   11  C11 UNL     1     -35.077  13.381  -7.365  1.00 20.00     0.091 C 
HETATM   12  O12 UNL     1     -35.932  12.727  -5.230  1.00 20.00    -0.298 OA
ENDBRANCH   9  10
TORSDOF 1
ENDMDL
MODEL 5
REMARK VINA RESULT:      -4.9     11.462     13.287
REMARK  1 active torsions:
REMARK  status: ('A' for Active; 'I' for Inactive)
REMARK    1  A    between atoms: C7_7  and  C10_10 
ROOT
HETATM    1  C1  UNL     1     -33.371  15.049  -4.373  1.00 20.00    -0.004 C 
HETATM    2  C2  UNL     1     -33.381  16.093  -5.384  1.00 20.00    -0.004 C 
HETATM    3  C3  UNL     1     -34.256  14.054  -4.180  1.00 20.00    -0.017 C 
HETATM    4  C4  UNL     1     -34.276  16.313  -6.363  1.00 20.00    -0.017 C 
HETATM    5  C5  UNL     1     -35.237  13.238  -6.311  1.00 20.00    -0.021 C 
HETATM    6  C6  UNL     1     -35.247  14.202  -7.242  1.00 20.00    -0.021 C 
HETATM    7  C8  UNL     1     -35.533  13.809  -4.947  1.00 20.00     0.042 C 
HETATM    8  C9  UNL     1     -35.549  15.544  -6.623  1.00 20.00     0.042 C 
HETATM    9  C10 UNL     1     -36.243  15.122  -5.316  1.00 20.00     0.077 C 
ENDROOT
BRANCH   9  10
HETATM   10  C7  UNL     1     -37.720  14.898  -5.514  1.00 20.00     0.129 C 
HETATM   11  C11 UNL     1     -38.430  15.844  -6.444  1.00 20.00     0.091 C 
HETATM   12  O12 UNL     1     -38.315  13.984  -4.946  1.00 20.00    -0.298 OA
ENDBRANCH   9  10
TORSDOF 1
ENDMDL
MODEL 6
REMARK VINA RESULT:      -4.9     11.544     13.379
REMARK  1 active torsions:
REMARK  status: ('A' for Active; 'I' for Inactive)
REMARK    1  A    between atoms: C7_7  and  C10_10 
ROOT
HETATM    1  C1  UNL     1     -33.872  15.573  -7.329  1.00 20.00    -0.004 C 
HETATM    2  C2  UNL     1     -34.126  14.178  -7.649  1.00 20.00    -0.004 C 
HETATM    3  C3  UNL     1     -34.373  16.312  -6.322  1.00 20.00    -0.017 C 
HETATM    4  C4  UNL     1     -34.921  13.297  -7.015  1.00 20.00    -0.017 C 
HETATM    5  C5  UNL     1     -34.753  14.970  -4.267  1.00 20.00    -0.021 C 
HETATM    6  C6  UNL     1     -34.988  13.685  -4.562  1.00 20.00    -0.021 C 
HETATM    7  C8  UNL     1     -35.386  15.879  -5.290  1.00 20.00     0.042 C 
HETATM    8  C9  UNL     1     -35.807  13.564  -5.822  1.00 20.00     0.042 C 
HETATM    9  C10 UNL     1     -36.460  14.956  -5.891  1.00 20.00     0.077 C 
ENDROOT
BRANCH   9  10
HETATM   10  C7  UNL     1     -37.732  15.017  -5.087  1.00 20.00     0.129 C 
HETATM   11  C11 UNL     1     -38.125  16.362  -4.540  1.00 20.00     0.091 C 
HETATM   12  O12 UNL     1     -38.418  14.015  -4.889  1.00 20.00    -0.298 OA
ENDBRANCH   9  10
TORSDOF 1
ENDMDL
MODEL 7
REMARK VINA RESULT:      -4.8     12.107     12.909
REMARK  1 active torsions:
REMARK  status: ('A' for Active; 'I' for Inactive)
REMARK    1  A    between atoms: C7_7  and  C10_10 
ROOT
HETATM    1  C1  UNL     1     -33.800  16.663  -2.432  1.00 20.00    -0.004 C 
HETATM    2  C2  UNL     1     -35.061  17.143  -1.894  1.00 20.00    -0.004 C 
HETATM    3  C3  UNL     1     -33.565  16.035  -3.599  1.00 20.00    -0.017 C 
HETATM    4  C4  UNL     1     -36.292  17.072  -2.434  1.00 20.00    -0.017 C 
HETATM    5  C5  UNL     1     -35.081  16.808  -5.408  1.00 20.00    -0.021 C 
HETATM    6  C6  UNL     1     -36.245  17.250  -4.912  1.00 20.00    -0.021 C 
HETATM    7  C8  UNL     1     -34.585  15.615  -4.630  1.00 20.00     0.042 C 
HETATM    8  C9  UNL     1     -36.679  16.412  -3.735  1.00 20.00     0.042 C 
HETATM    9  C10 UNL     1     -35.887  15.116  -3.981  1.00 20.00     0.077 C 
ENDROOT
BRANCH   9  10
HETATM   10  C7  UNL     1     -36.622  14.177  -4.901  1.00 20.00     0.129 C 
HETATM   11  C11 UNL     1     -35.783  13.356  -5.842  1.00 20.00     0.091 C 
HETATM   12  O12 UNL     1     -37.849  14.086  -4.883  1.00 20.00    -0.298 OA
ENDBRANCH   9  10
TORSDOF 1
ENDMDL
MODEL 8
REMARK VINA RESULT:      -4.8     11.783     12.507
REMARK  1 active torsions:
REMARK  status: ('A' for Active; 'I' for Inactive)
REMARK    1  A    between atoms: C7_7  and  C10_10 
ROOT
HETATM    1  C1  UNL     1     -35.533  14.253  -4.662  1.00 20.00    -0.004 C 
HETATM    2  C2  UNL     1     -34.081  14.315  -4.659  1.00 20.00    -0.004 C 
HETATM    3  C3  UNL     1     -36.416  15.142  -4.170  1.00 20.00    -0.017 C 
HETATM    4  C4  UNL     1     -33.277  15.273  -4.164  1.00 20.00    -0.017 C 
HETATM    5  C5  UNL     1     -35.611  17.483  -4.377  1.00 20.00    -0.021 C 
HETATM    6  C6  UNL     1     -34.272  17.539  -4.372  1.00 20.00    -0.021 C 
HETATM    7  C8  UNL     1     -36.105  16.420  -3.428  1.00 20.00     0.042 C 
HETATM    8  C9  UNL     1     -33.695  16.520  -3.423  1.00 20.00     0.042 C 
HETATM    9  C10 UNL     1     -34.895  16.262  -2.493  1.00 20.00     0.077 C 
ENDROOT
BRANCH   9  10
HETATM   10  C7  UNL     1     -34.952  17.259  -1.366  1.00 20.00     0.129 C 
HETATM   11  C11 UNL     1     -33.636  17.776  -0.851  1.00 20.00     0.091 C 
HETATM   12  O12 UNL     1     -36.023  17.634  -0.890  1.00 20.00    -0.298 OA
ENDBRANCH   9  10
TORSDOF 1
ENDMDL
MODEL 9
REMARK VINA RESULT:      -4.8     11.718     12.993
REMARK  1 active torsions:
REMARK  status: ('A' for Active; 'I' for Inactive)
REMARK    1  A    between atoms: C7_7  and  C10_10 
ROOT
HETATM    1  C1  UNL     1     -35.491  14.727  -7.113  1.00 20.00    -0.004 C 
HETATM    2  C2  UNL     1     -35.849  13.723  -6.125  1.00 20.00    -0.004 C 
HETATM    3  C3  UNL     1     -34.740  15.833  -6.958  1.00 20.00    -0.017 C 
HETATM    4  C4  UNL     1     -35.515  13.662  -4.823  1.00 20.00    -0.017 C 
HETATM    5  C5  UNL     1     -32.921  15.512  -5.298  1.00 20.00    -0.021 C 
HETATM    6  C6  UNL     1     -33.251  14.587  -4.386  1.00 20.00    -0.021 C 
HETATM    7  C8  UNL     1     -34.121  16.342  -5.678  1.00 20.00     0.042 C 
HETATM    8  C9  UNL     1     -34.716  14.675  -4.039  1.00 20.00     0.042 C 
HETATM    9  C10 UNL     1     -35.040  16.118  -4.466  1.00 20.00     0.077 C 
ENDROOT
BRANCH   9  10
HETATM   10  C7  UNL     1     -34.736  17.106  -3.370  1.00 20.00     0.129 C 
HETATM   11  C11 UNL     1     -35.036  16.670  -1.962  1.00 20.00     0.091 C 
HETATM   12  O12 UNL     1     -34.263  18.215  -3.616  1.00 20.00    -0.298 OA
ENDBRANCH   9  10
TORSDOF 1
ENDMDL
