MODEL 1
REMARK VINA RESULT:      -5.2      0.000      0.000
REMARK  1 active torsions:
REMARK  status: ('A' for Active; 'I' for Inactive)
REMARK    1  A    between atoms: C3_3  and  C4_4 
ROOT
HETATM    1  C1  UNL     1     -33.707   6.436   1.964  1.00 20.00    -0.018 A 
HETATM    2  C2  UNL     1     -34.951   6.262   2.440  1.00 20.00    -0.024 A 
HETATM    3  C4  UNL     1     -32.745   6.588   3.118  1.00 20.00     0.082 A 
HETATM    4  C5  UNL     1     -35.040   6.295   3.910  1.00 20.00     0.022 A 
HETATM    5  C6  UNL     1     -33.603   6.506   4.370  1.00 20.00     0.017 A 
HETATM    6  C7  UNL     1     -34.374   5.268   4.801  1.00 20.00    -0.035 A 
HETATM    7  C9  UNL     1     -34.831   5.220   6.239  1.00 20.00     0.016 C 
HETATM    8  C10 UNL     1     -33.998   3.911   4.260  1.00 20.00     0.016 C 
ENDROOT
BRANCH   3   9
HETATM    9  C3  UNL     1     -32.088   7.920   2.958  1.00 20.00     0.131 C 
HETATM   10  C8  UNL     1     -32.308   8.630   1.649  1.00 20.00     0.091 C 
HETATM   11  O11 UNL     1     -31.404   8.413   3.853  1.00 20.00    -0.298 OA
ENDBRANCH   3   9
TORSDOF 1
ENDMDL
MODEL 2
REMARK VINA RESULT:      -5.2      1.553      3.958
REMARK  1 active torsions:
REMARK  status: ('A' for Active; 'I' for Inactive)
REMARK    1  A    between atoms: C3_3  and  C4_4 
ROOT
HETATM    1  C1  UNL     1     -34.431   5.759   3.262  1.00 20.00    -0.018 A 
HETATM    2  C2  UNL     1     -33.366   5.559   2.469  1.00 20.00    -0.024 A 
HETATM    3  C4  UNL     1     -34.184   6.962   4.140  1.00 20.00     0.082 A 
HETATM    4  C5  UNL     1     -32.270   6.520   2.683  1.00 20.00     0.022 A 
HETATM    5  C6  UNL     1     -32.791   7.448   3.774  1.00 20.00     0.017 A 
HETATM    6  C7  UNL     1     -32.407   8.003   2.412  1.00 20.00    -0.035 A 
HETATM    7  C9  UNL     1     -31.127   8.800   2.340  1.00 20.00     0.016 C 
HETATM    8  C10 UNL     1     -33.470   8.518   1.473  1.00 20.00     0.016 C 
ENDROOT
BRANCH   3   9
HETATM    9  C3  UNL     1     -34.274   6.490   5.554  1.00 20.00     0.131 C 
HETATM   10  C8  UNL     1     -34.644   5.045   5.763  1.00 20.00     0.091 C 
HETATM   11  O11 UNL     1     -34.055   7.243   6.501  1.00 20.00    -0.298 OA
ENDBRANCH   3   9
TORSDOF 1
ENDMDL
MODEL 3
REMARK VINA RESULT:      -5.0     11.778     12.615
REMARK  1 active torsions:
REMARK  status: ('A' for Active; 'I' for Inactive)
REMARK    1  A    between atoms: C3_3  and  C4_4 
ROOT
HETATM    1  C1  UNL     1     -33.829  15.271  -6.192  1.00 20.00    -0.018 A 
HETATM    2  C2  UNL     1     -32.989  15.636  -5.209  1.00 20.00    -0.024 A 
HETATM    3  C4  UNL     1     -35.179  14.943  -5.601  1.00 20.00     0.082 A 
HETATM    4  C5  UNL     1     -33.585  15.592  -3.863  1.00 20.00     0.022 A 
HETATM    5  C6  UNL     1     -35.021  15.142  -4.102  1.00 20.00     0.017 A 
HETATM    6  C7  UNL     1     -34.736  16.481  -3.440  1.00 20.00    -0.035 A 
HETATM    7  C9  UNL     1     -35.008  16.578  -1.958  1.00 20.00     0.016 C 
HETATM    8  C10 UNL     1     -35.022  17.768  -4.174  1.00 20.00     0.016 C 
ENDROOT
BRANCH   3   9
HETATM    9  C3  UNL     1     -35.476  13.525  -5.964  1.00 20.00     0.131 C 
HETATM   10  C8  UNL     1     -35.159  13.107  -7.375  1.00 20.00     0.091 C 
HETATM   11  O11 UNL     1     -35.953  12.737  -5.149  1.00 20.00    -0.298 OA
ENDBRANCH   3   9
TORSDOF 1
ENDMDL
MODEL 4
REMARK VINA RESULT:      -4.8     11.613     12.474
REMARK  1 active torsions:
REMARK  status: ('A' for Active; 'I' for Inactive)
REMARK    1  A    between atoms: C3_3  and  C4_4 
ROOT
HETATM    1  C1  UNL     1     -34.172  14.753  -5.822  1.00 20.00    -0.018 A 
HETATM    2  C2  UNL     1     -33.127  14.830  -4.981  1.00 20.00    -0.024 A 
HETATM    3  C4  UNL     1     -35.432  15.154  -5.092  1.00 20.00     0.082 A 
HETATM    4  C5  UNL     1     -33.486  15.245  -3.614  1.00 20.00     0.022 A 
HETATM    5  C6  UNL     1     -34.993  15.462  -3.670  1.00 20.00     0.017 A 
HETATM    6  C7  UNL     1     -34.065  16.605  -3.289  1.00 20.00    -0.035 A 
HETATM    7  C9  UNL     1     -34.056  17.016  -1.836  1.00 20.00     0.016 C 
HETATM    8  C10 UNL     1     -33.866  17.770  -4.228  1.00 20.00     0.016 C 
ENDROOT
BRANCH   3   9
HETATM    9  C3  UNL     1     -36.362  13.987  -5.166  1.00 20.00     0.131 C 
HETATM   10  C8  UNL     1     -37.835  14.296  -5.192  1.00 20.00     0.091 C 
HETATM   11  O11 UNL     1     -35.945  12.831  -5.207  1.00 20.00    -0.298 OA
ENDBRANCH   3   9
TORSDOF 1
ENDMDL
MODEL 5
REMARK VINA RESULT:      -4.8      2.037      4.711
REMARK  1 active torsions:
REMARK  status: ('A' for Active; 'I' for Inactive)
REMARK    1  A    between atoms: C3_3  and  C4_4 
ROOT
HETATM    1  C1  UNL     1     -31.687   8.011   3.601  1.00 20.00    -0.018 A 
HETATM    2  C2  UNL     1     -31.617   9.288   3.189  1.00 20.00    -0.024 A 
HETATM    3  C4  UNL     1     -32.687   7.265   2.752  1.00 20.00     0.082 A 
HETATM    4  C5  UNL     1     -32.527   9.610   2.077  1.00 20.00     0.022 A 
HETATM    5  C6  UNL     1     -33.235   8.294   1.777  1.00 20.00     0.017 A 
HETATM    6  C7  UNL     1     -32.406   8.983   0.704  1.00 20.00    -0.035 A 
HETATM    7  C9  UNL     1     -33.167   9.652  -0.416  1.00 20.00     0.016 C 
HETATM    8  C10 UNL     1     -31.101   8.380   0.246  1.00 20.00     0.016 C 
ENDROOT
BRANCH   3   9
HETATM    9  C3  UNL     1     -33.733   6.741   3.681  1.00 20.00     0.131 C 
HETATM   10  C8  UNL     1     -33.655   7.193   5.114  1.00 20.00     0.091 C 
HETATM   11  O11 UNL     1     -34.617   5.979   3.292  1.00 20.00    -0.298 OA
ENDBRANCH   3   9
TORSDOF 1
ENDMDL
MODEL 6
REMARK VINA RESULT:      -4.7     11.532     12.407
REMARK  1 active torsions:
REMARK  status: ('A' for Active; 'I' for Inactive)
REMARK    1  A    between atoms: C3_3  and  C4_4 
ROOT
HETATM    1  C1  UNL     1     -35.864  16.392  -3.751  1.00 20.00    -0.018 A 
HETATM    2  C2  UNL     1     -35.569  17.699  -3.652  1.00 20.00    -0.024 A 
HETATM    3  C4  UNL     1     -34.734  15.578  -3.167  1.00 20.00     0.082 A 
HETATM    4  C5  UNL     1     -34.255  17.973  -3.047  1.00 20.00     0.022 A 
HETATM    5  C6  UNL     1     -33.695  16.594  -2.722  1.00 20.00     0.017 A 
HETATM    6  C7  UNL     1     -33.914  17.615  -1.616  1.00 20.00    -0.035 A 
HETATM    7  C9  UNL     1     -32.679  18.258  -1.032  1.00 20.00     0.016 C 
HETATM    8  C10 UNL     1     -35.005  17.409  -0.594  1.00 20.00     0.016 C 
ENDROOT
BRANCH   3   9
HETATM    9  C3  UNL     1     -34.237  14.688  -4.258  1.00 20.00     0.131 C 
HETATM   10  C8  UNL     1     -33.023  15.157  -5.014  1.00 20.00     0.091 C 
HETATM   11  O11 UNL     1     -34.790  13.622  -4.523  1.00 20.00    -0.298 OA
ENDBRANCH   3   9
TORSDOF 1
ENDMDL
MODEL 7
REMARK VINA RESULT:      -4.6      1.781      3.052
REMARK  1 active torsions:
REMARK  status: ('A' for Active; 'I' for Inactive)
REMARK    1  A    between atoms: C3_3  and  C4_4 
ROOT
HETATM    1  C1  UNL     1     -31.801   9.143   2.934  1.00 20.00    -0.018 A 
HETATM    2  C2  UNL     1     -31.389   8.090   3.660  1.00 20.00    -0.024 A 
HETATM    3  C4  UNL     1     -32.836   8.686   1.934  1.00 20.00     0.082 A 
HETATM    4  C5  UNL     1     -32.016   6.814   3.277  1.00 20.00     0.022 A 
HETATM    5  C6  UNL     1     -32.969   7.187   2.148  1.00 20.00     0.017 A 
HETATM    6  C7  UNL     1     -33.500   6.548   3.422  1.00 20.00    -0.035 A 
HETATM    7  C9  UNL     1     -33.942   5.107   3.325  1.00 20.00     0.016 C 
HETATM    8  C10 UNL     1     -34.335   7.353   4.387  1.00 20.00     0.016 C 
ENDROOT
BRANCH   3   9
HETATM    9  C3  UNL     1     -32.306   9.027   0.579  1.00 20.00     0.131 C 
HETATM   10  C8  UNL     1     -33.293   9.574  -0.416  1.00 20.00     0.091 C 
HETATM   11  O11 UNL     1     -31.120   8.872   0.293  1.00 20.00    -0.298 OA
ENDBRANCH   3   9
TORSDOF 1
ENDMDL
MODEL 8
REMARK VINA RESULT:      -4.5     11.406     12.375
REMARK  1 active torsions:
REMARK  status: ('A' for Active; 'I' for Inactive)
REMARK    1  A    between atoms: C3_3  and  C4_4 
ROOT
HETATM    1  C1  UNL     1     -34.322  16.416  -4.942  1.00 20.00    -0.018 A 
HETATM    2  C2  UNL     1     -33.549  17.110  -4.089  1.00 20.00    -0.024 A 
HETATM    3  C4  UNL     1     -35.339  15.620  -4.161  1.00 20.00     0.082 A 
HETATM    4  C5  UNL     1     -33.876  16.891  -2.670  1.00 20.00     0.022 A 
HETATM    5  C6  UNL     1     -35.048  15.918  -2.699  1.00 20.00     0.017 A 
HETATM    6  C7  UNL     1     -35.202  17.288  -2.057  1.00 20.00    -0.035 A 
HETATM    7  C9  UNL     1     -35.268  17.328  -0.549  1.00 20.00     0.016 C 
HETATM    8  C10 UNL     1     -36.065  18.341  -2.708  1.00 20.00     0.016 C 
ENDROOT
BRANCH   3   9
HETATM    9  C3  UNL     1     -35.121  14.183  -4.508  1.00 20.00     0.131 C 
HETATM   10  C8  UNL     1     -36.164  13.531  -5.376  1.00 20.00     0.091 C 
HETATM   11  O11 UNL     1     -34.137  13.565  -4.107  1.00 20.00    -0.298 OA
ENDBRANCH   3   9
TORSDOF 1
ENDMDL
MODEL 9
REMARK VINA RESULT:      -4.5     11.511     12.416
REMARK  1 active torsions:
REMARK  status: ('A' for Active; 'I' for Inactive)
REMARK    1  A    between atoms: C3_3  and  C4_4 
ROOT
HETATM    1  C1  UNL     1     -33.349  17.999  -3.239  1.00 20.00    -0.018 A 
HETATM    2  C2  UNL     1     -34.082  17.826  -4.352  1.00 20.00    -0.024 A 
HETATM    3  C4  UNL     1     -33.638  16.879  -2.269  1.00 20.00     0.082 A 
HETATM    4  C5  UNL     1     -34.961  16.644  -4.313  1.00 20.00     0.022 A 
HETATM    5  C6  UNL     1     -34.680  16.011  -2.955  1.00 20.00     0.017 A 
HETATM    6  C7  UNL     1     -34.434  15.226  -4.235  1.00 20.00    -0.035 A 
HETATM    7  C9  UNL     1     -35.414  14.122  -4.552  1.00 20.00     0.016 C 
HETATM    8  C10 UNL     1     -33.026  14.904  -4.671  1.00 20.00     0.016 C 
ENDROOT
BRANCH   3   9
HETATM    9  C3  UNL     1     -34.152  17.513  -1.019  1.00 20.00     0.131 C 
HETATM   10  C8  UNL     1     -35.593  17.252  -0.670  1.00 20.00     0.091 C 
HETATM   11  O11 UNL     1     -33.433  18.213  -0.307  1.00 20.00    -0.298 OA
ENDBRANCH   3   9
TORSDOF 1
ENDMDL
