MODEL 1
REMARK VINA RESULT:      -3.9      0.000      0.000
REMARK  0 active torsions:
REMARK  status: ('A' for Active; 'I' for Inactive)
ROOT
HETATM    1  C1  UNL     1     -33.569  18.278  -0.209  1.00 20.00     0.033 A 
HETATM    2  C2  UNL     1     -32.313  18.276  -0.794  1.00 20.00     0.117 A 
HETATM    3  C3  UNL     1     -31.207  18.709   1.201  1.00 20.00     0.136 A 
HETATM    4  C4  UNL     1     -34.400  18.830   3.368  1.00 20.00     0.070 A 
HETATM    5  C5  UNL     1     -33.634  18.512   1.178  1.00 20.00     0.002 A 
HETATM    6  C6  UNL     1     -32.435  18.726   1.865  1.00 20.00     0.034 A 
HETATM    7  C7  UNL     1     -34.760  18.577   2.066  1.00 20.00     0.029 A 
HETATM    8  N8  UNL     1     -31.159  18.483  -0.130  1.00 20.00    -0.272 NA
HETATM    9  S9  UNL     1     -32.712  18.995   3.544  1.00 20.00    -0.098 SA
HETATM   10 BR10 UNL     1     -36.547  18.336   1.503  1.00 20.00    -0.050 Br
ENDROOT
TORSDOF 0
ENDMDL
MODEL 2
REMARK VINA RESULT:      -3.8      6.403      7.386
REMARK  0 active torsions:
REMARK  status: ('A' for Active; 'I' for Inactive)
ROOT
HETATM    1  C1  UNL     1     -34.954  14.541  -4.157  1.00 20.00     0.033 A 
HETATM    2  C2  UNL     1     -35.573  13.564  -4.919  1.00 20.00     0.117 A 
HETATM    3  C3  UNL     1     -37.599  14.693  -5.011  1.00 20.00     0.136 A 
HETATM    4  C4  UNL     1     -36.426  17.716  -2.914  1.00 20.00     0.070 A 
HETATM    5  C5  UNL     1     -35.723  15.667  -3.804  1.00 20.00     0.002 A 
HETATM    6  C6  UNL     1     -37.049  15.722  -4.244  1.00 20.00     0.034 A 
HETATM    7  C7  UNL     1     -35.382  16.830  -3.036  1.00 20.00     0.029 A 
HETATM    8  N8  UNL     1     -36.851  13.619  -5.343  1.00 20.00    -0.272 NA
HETATM    9  S9  UNL     1     -37.827  17.166  -3.717  1.00 20.00    -0.098 SA
HETATM   10 BR10 UNL     1     -33.677  17.115  -2.274  1.00 20.00    -0.050 Br
ENDROOT
TORSDOF 0
ENDMDL
MODEL 3
REMARK VINA RESULT:      -3.8      2.895      3.564
REMARK  0 active torsions:
REMARK  status: ('A' for Active; 'I' for Inactive)
ROOT
HETATM    1  C1  UNL     1     -32.967  17.791  -1.557  1.00 20.00     0.033 A 
HETATM    2  C2  UNL     1     -33.542  17.185  -2.663  1.00 20.00     0.117 A 
HETATM    3  C3  UNL     1     -35.608  16.914  -1.641  1.00 20.00     0.136 A 
HETATM    4  C4  UNL     1     -34.571  18.525   1.711  1.00 20.00     0.070 A 
HETATM    5  C5  UNL     1     -33.782  17.964  -0.421  1.00 20.00     0.002 A 
HETATM    6  C6  UNL     1     -35.104  17.516  -0.486  1.00 20.00     0.034 A 
HETATM    7  C7  UNL     1     -33.493  18.545   0.859  1.00 20.00     0.029 A 
HETATM    8  N8  UNL     1     -34.817  16.754  -2.724  1.00 20.00    -0.272 NA
HETATM    9  S9  UNL     1     -35.941  17.812   0.990  1.00 20.00    -0.098 SA
HETATM   10 BR10 UNL     1     -31.807  19.263   1.322  1.00 20.00    -0.050 Br
ENDROOT
TORSDOF 0
ENDMDL
MODEL 4
REMARK VINA RESULT:      -3.7      6.539      7.585
REMARK  0 active torsions:
REMARK  status: ('A' for Active; 'I' for Inactive)
ROOT
HETATM    1  C1  UNL     1     -37.263  15.412  -4.046  1.00 20.00     0.033 A 
HETATM    2  C2  UNL     1     -37.831  14.528  -4.949  1.00 20.00     0.117 A 
HETATM    3  C3  UNL     1     -35.788  13.689  -5.661  1.00 20.00     0.136 A 
HETATM    4  C4  UNL     1     -33.651  15.918  -3.343  1.00 20.00     0.070 A 
HETATM    5  C5  UNL     1     -35.857  15.423  -3.954  1.00 20.00     0.002 A 
HETATM    6  C6  UNL     1     -35.137  14.550  -4.775  1.00 20.00     0.034 A 
HETATM    7  C7  UNL     1     -34.979  16.207  -3.133  1.00 20.00     0.029 A 
HETATM    8  N8  UNL     1     -37.136  13.687  -5.739  1.00 20.00    -0.272 NA
HETATM    9  S9  UNL     1     -33.440  14.707  -4.524  1.00 20.00    -0.098 SA
HETATM   10 BR10 UNL     1     -35.584  17.497  -1.893  1.00 20.00    -0.050 Br
ENDROOT
TORSDOF 0
ENDMDL
MODEL 5
REMARK VINA RESULT:      -3.7      2.588      3.333
REMARK  0 active torsions:
REMARK  status: ('A' for Active; 'I' for Inactive)
ROOT
HETATM    1  C1  UNL     1     -32.150  18.414  -0.371  1.00 20.00     0.033 A 
HETATM    2  C2  UNL     1     -31.631  19.011   0.766  1.00 20.00     0.117 A 
HETATM    3  C3  UNL     1     -33.637  18.914   1.929  1.00 20.00     0.136 A 
HETATM    4  C4  UNL     1     -35.626  17.226  -0.917  1.00 20.00     0.070 A 
HETATM    5  C5  UNL     1     -33.509  18.046  -0.342  1.00 20.00     0.002 A 
HETATM    6  C6  UNL     1     -34.236  18.307   0.823  1.00 20.00     0.034 A 
HETATM    7  C7  UNL     1     -34.332  17.420  -1.338  1.00 20.00     0.029 A 
HETATM    8  N8  UNL     1     -32.333  19.262   1.888  1.00 20.00    -0.272 NA
HETATM    9  S9  UNL     1     -35.873  17.790   0.673  1.00 20.00    -0.098 SA
HETATM   10 BR10 UNL     1     -33.701  16.914  -3.045  1.00 20.00    -0.050 Br
ENDROOT
TORSDOF 0
ENDMDL
MODEL 6
REMARK VINA RESULT:      -3.7      2.035      2.656
REMARK  0 active torsions:
REMARK  status: ('A' for Active; 'I' for Inactive)
ROOT
HETATM    1  C1  UNL     1     -32.697  18.949   1.427  1.00 20.00     0.033 A 
HETATM    2  C2  UNL     1     -31.550  18.856   0.655  1.00 20.00     0.117 A 
HETATM    3  C3  UNL     1     -32.659  17.949  -1.171  1.00 20.00     0.136 A 
HETATM    4  C4  UNL     1     -36.149  17.959   0.480  1.00 20.00     0.070 A 
HETATM    5  C5  UNL     1     -33.901  18.507   0.846  1.00 20.00     0.002 A 
HETATM    6  C6  UNL     1     -33.858  18.008  -0.459  1.00 20.00     0.034 A 
HETATM    7  C7  UNL     1     -35.236  18.469   1.372  1.00 20.00     0.029 A 
HETATM    8  N8  UNL     1     -31.510  18.376  -0.604  1.00 20.00    -0.272 NA
HETATM    9  S9  UNL     1     -35.420  17.518  -0.997  1.00 20.00    -0.098 SA
HETATM   10 BR10 UNL     1     -35.690  19.062   3.108  1.00 20.00    -0.050 Br
ENDROOT
TORSDOF 0
ENDMDL
MODEL 7
REMARK VINA RESULT:      -3.7      5.809      6.767
REMARK  0 active torsions:
REMARK  status: ('A' for Active; 'I' for Inactive)
ROOT
HETATM    1  C1  UNL     1     -33.474  15.240  -3.690  1.00 20.00     0.033 A 
HETATM    2  C2  UNL     1     -33.303  14.321  -4.713  1.00 20.00     0.117 A 
HETATM    3  C3  UNL     1     -35.496  14.493  -5.451  1.00 20.00     0.136 A 
HETATM    4  C4  UNL     1     -36.568  17.094  -2.807  1.00 20.00     0.070 A 
HETATM    5  C5  UNL     1     -34.751  15.817  -3.550  1.00 20.00     0.002 A 
HETATM    6  C6  UNL     1     -35.751  15.427  -4.445  1.00 20.00     0.034 A 
HETATM    7  C7  UNL     1     -35.244  16.783  -2.609  1.00 20.00     0.029 A 
HETATM    8  N8  UNL     1     -34.268  13.946  -5.575  1.00 20.00    -0.272 NA
HETATM    9  S9  UNL     1     -37.237  16.235  -4.119  1.00 20.00    -0.098 SA
HETATM   10 BR10 UNL     1     -34.184  17.546  -1.245  1.00 20.00    -0.050 Br
ENDROOT
TORSDOF 0
ENDMDL
MODEL 8
REMARK VINA RESULT:      -3.7      2.306      2.935
REMARK  0 active torsions:
REMARK  status: ('A' for Active; 'I' for Inactive)
ROOT
HETATM    1  C1  UNL     1     -31.497  18.795   0.693  1.00 20.00     0.033 A 
HETATM    2  C2  UNL     1     -30.876  19.147   1.880  1.00 20.00     0.117 A 
HETATM    3  C3  UNL     1     -32.831  19.024   3.126  1.00 20.00     0.136 A 
HETATM    4  C4  UNL     1     -35.089  18.012   0.162  1.00 20.00     0.070 A 
HETATM    5  C5  UNL     1     -32.882  18.542   0.740  1.00 20.00     0.002 A 
HETATM    6  C6  UNL     1     -33.531  18.664   1.973  1.00 20.00     0.034 A 
HETATM    7  C7  UNL     1     -33.802  18.165  -0.295  1.00 20.00     0.029 A 
HETATM    8  N8  UNL     1     -31.503  19.263   3.067  1.00 20.00    -0.272 NA
HETATM    9  S9  UNL     1     -35.213  18.319   1.835  1.00 20.00    -0.098 SA
HETATM   10 BR10 UNL     1     -33.294  17.903  -2.096  1.00 20.00    -0.050 Br
ENDROOT
TORSDOF 0
ENDMDL
MODEL 9
REMARK VINA RESULT:      -3.6      6.005      6.881
REMARK  0 active torsions:
REMARK  status: ('A' for Active; 'I' for Inactive)
ROOT
HETATM    1  C1  UNL     1     -37.024  14.769  -4.848  1.00 20.00     0.033 A 
HETATM    2  C2  UNL     1     -36.335  13.641  -5.261  1.00 20.00     0.117 A 
HETATM    3  C3  UNL     1     -34.383  14.230  -4.152  1.00 20.00     0.136 A 
HETATM    4  C4  UNL     1     -35.770  17.529  -2.702  1.00 20.00     0.070 A 
HETATM    5  C5  UNL     1     -36.332  15.683  -4.030  1.00 20.00     0.002 A 
HETATM    6  C6  UNL     1     -35.007  15.392  -3.694  1.00 20.00     0.034 A 
HETATM    7  C7  UNL     1     -36.755  16.924  -3.446  1.00 20.00     0.029 A 
HETATM    8  N8  UNL     1     -35.057  13.362  -4.936  1.00 20.00    -0.272 NA
HETATM    9  S9  UNL     1     -34.328  16.619  -2.693  1.00 20.00    -0.098 SA
HETATM   10 BR10 UNL     1     -38.485  17.649  -3.676  1.00 20.00    -0.050 Br
ENDROOT
TORSDOF 0
ENDMDL
