MODEL 1
REMARK VINA RESULT:      -3.1      0.000      0.000
REMARK  2 active torsions:
REMARK  status: ('A' for Active; 'I' for Inactive)
REMARK    1  A    between atoms: C2_2  and  C4_4 
REMARK    2  A    between atoms: C4_4  and  S6_6 
ROOT
HETATM    1  C1  UNL     1     -32.027   8.368   2.024  1.00 20.00     0.201 A 
HETATM    2  C2  UNL     1     -32.912   7.697   3.038  1.00 20.00     0.154 A 
HETATM    3  O5  UNL     1     -31.547   8.013   3.332  1.00 20.00    -0.380 OA
ENDROOT
BRANCH   2   4
HETATM    4  C4  UNL     1     -33.206   6.243   2.960  1.00 20.00     0.107 C 
BRANCH   4   5
HETATM    5  S6  UNL     1     -34.529   5.765   4.121  1.00 20.00    -0.171 SA
HETATM    6  C3  UNL     1     -34.042   6.815   5.508  1.00 20.00     0.089 C 
ENDBRANCH   4   5
ENDBRANCH   2   4
TORSDOF 2
ENDMDL
MODEL 2
REMARK VINA RESULT:      -3.1      1.313      1.342
REMARK  2 active torsions:
REMARK  status: ('A' for Active; 'I' for Inactive)
REMARK    1  A    between atoms: C2_2  and  C4_4 
REMARK    2  A    between atoms: C4_4  and  S6_6 
ROOT
HETATM    1  C1  UNL     1     -31.678   8.328   2.902  1.00 20.00     0.201 A 
HETATM    2  C2  UNL     1     -32.573   7.142   3.131  1.00 20.00     0.154 A 
HETATM    3  O5  UNL     1     -32.803   8.054   2.051  1.00 20.00    -0.380 OA
ENDROOT
BRANCH   2   4
HETATM    4  C4  UNL     1     -33.618   7.161   4.187  1.00 20.00     0.107 C 
BRANCH   4   5
HETATM    5  S6  UNL     1     -34.822   5.808   3.960  1.00 20.00    -0.171 SA
HETATM    6  C3  UNL     1     -34.584   4.987   5.551  1.00 20.00     0.089 C 
ENDBRANCH   4   5
ENDBRANCH   2   4
TORSDOF 2
ENDMDL
MODEL 3
REMARK VINA RESULT:      -3.0      2.550      3.711
REMARK  2 active torsions:
REMARK  status: ('A' for Active; 'I' for Inactive)
REMARK    1  A    between atoms: C2_2  and  C4_4 
REMARK    2  A    between atoms: C4_4  and  S6_6 
ROOT
HETATM    1  C1  UNL     1     -34.591   4.929   4.485  1.00 20.00     0.201 A 
HETATM    2  C2  UNL     1     -34.135   6.308   4.097  1.00 20.00     0.154 A 
HETATM    3  O5  UNL     1     -35.455   5.844   3.791  1.00 20.00    -0.380 OA
ENDROOT
BRANCH   2   4
HETATM    4  C4  UNL     1     -33.268   6.526   2.911  1.00 20.00     0.107 C 
BRANCH   4   5
HETATM    5  S6  UNL     1     -32.058   7.860   3.204  1.00 20.00    -0.171 SA
HETATM    6  C3  UNL     1     -32.230   8.710   1.620  1.00 20.00     0.089 C 
ENDBRANCH   4   5
ENDBRANCH   2   4
TORSDOF 2
ENDMDL
MODEL 4
REMARK VINA RESULT:      -3.0      2.636      3.844
REMARK  2 active torsions:
REMARK  status: ('A' for Active; 'I' for Inactive)
REMARK    1  A    between atoms: C2_2  and  C4_4 
REMARK    2  A    between atoms: C4_4  and  S6_6 
ROOT
HETATM    1  C1  UNL     1     -34.508   4.923   5.509  1.00 20.00     0.201 A 
HETATM    2  C2  UNL     1     -34.770   5.407   4.110  1.00 20.00     0.154 A 
HETATM    3  O5  UNL     1     -34.738   4.011   4.423  1.00 20.00    -0.380 OA
ENDROOT
BRANCH   2   4
HETATM    4  C4  UNL     1     -33.661   5.869   3.237  1.00 20.00     0.107 C 
BRANCH   4   5
HETATM    5  S6  UNL     1     -33.028   7.497   3.763  1.00 20.00    -0.171 SA
HETATM    6  C3  UNL     1     -32.301   8.008   2.191  1.00 20.00     0.089 C 
ENDBRANCH   4   5
ENDBRANCH   2   4
TORSDOF 2
ENDMDL
MODEL 5
REMARK VINA RESULT:      -2.9      1.502      1.600
REMARK  2 active torsions:
REMARK  status: ('A' for Active; 'I' for Inactive)
REMARK    1  A    between atoms: C2_2  and  C4_4 
REMARK    2  A    between atoms: C4_4  and  S6_6 
ROOT
HETATM    1  C1  UNL     1     -32.462   9.392   1.453  1.00 20.00     0.201 A 
HETATM    2  C2  UNL     1     -32.071   8.354   2.468  1.00 20.00     0.154 A 
HETATM    3  O5  UNL     1     -31.413   8.443   1.200  1.00 20.00    -0.380 OA
ENDROOT
BRANCH   2   4
HETATM    4  C4  UNL     1     -32.879   7.122   2.659  1.00 20.00     0.107 C 
BRANCH   4   5
HETATM    5  S6  UNL     1     -33.662   7.085   4.306  1.00 20.00    -0.171 SA
HETATM    6  C3  UNL     1     -34.870   5.781   3.983  1.00 20.00     0.089 C 
ENDBRANCH   4   5
ENDBRANCH   2   4
TORSDOF 2
ENDMDL
MODEL 6
REMARK VINA RESULT:      -2.8     11.063     11.874
REMARK  2 active torsions:
REMARK  status: ('A' for Active; 'I' for Inactive)
REMARK    1  A    between atoms: C2_2  and  C4_4 
REMARK    2  A    between atoms: C4_4  and  S6_6 
ROOT
HETATM    1  C1  UNL     1     -36.708  13.907  -5.286  1.00 20.00     0.201 A 
HETATM    2  C2  UNL     1     -35.206  13.960  -5.340  1.00 20.00     0.154 A 
HETATM    3  O5  UNL     1     -35.906  12.716  -5.232  1.00 20.00    -0.380 OA
ENDROOT
BRANCH   2   4
HETATM    4  C4  UNL     1     -34.407  14.324  -4.142  1.00 20.00     0.107 C 
BRANCH   4   5
HETATM    5  S6  UNL     1     -33.537  15.911  -4.376  1.00 20.00    -0.171 SA
HETATM    6  C3  UNL     1     -33.281  15.799  -6.161  1.00 20.00     0.089 C 
ENDBRANCH   4   5
ENDBRANCH   2   4
TORSDOF 2
ENDMDL
MODEL 7
REMARK VINA RESULT:      -2.8      2.731      3.916
REMARK  2 active torsions:
REMARK  status: ('A' for Active; 'I' for Inactive)
REMARK    1  A    between atoms: C2_2  and  C4_4 
REMARK    2  A    between atoms: C4_4  and  S6_6 
ROOT
HETATM    1  C1  UNL     1     -33.222   7.257   3.806  1.00 20.00     0.201 A 
HETATM    2  C2  UNL     1     -33.055   7.672   2.370  1.00 20.00     0.154 A 
HETATM    3  O5  UNL     1     -32.621   6.388   2.832  1.00 20.00    -0.380 OA
ENDROOT
BRANCH   2   4
HETATM    4  C4  UNL     1     -31.957   8.583   1.957  1.00 20.00     0.107 C 
BRANCH   4   5
HETATM    5  S6  UNL     1     -32.602  10.080   1.138  1.00 20.00    -0.171 SA
HETATM    6  C3  UNL     1     -33.097   9.322  -0.425  1.00 20.00     0.089 C 
ENDBRANCH   4   5
ENDBRANCH   2   4
TORSDOF 2
ENDMDL
MODEL 8
REMARK VINA RESULT:      -2.8      1.377      1.524
REMARK  2 active torsions:
REMARK  status: ('A' for Active; 'I' for Inactive)
REMARK    1  A    between atoms: C2_2  and  C4_4 
REMARK    2  A    between atoms: C4_4  and  S6_6 
ROOT
HETATM    1  C1  UNL     1     -31.567   8.753   0.935  1.00 20.00     0.201 A 
HETATM    2  C2  UNL     1     -32.643   8.365   1.911  1.00 20.00     0.154 A 
HETATM    3  O5  UNL     1     -32.170   9.713   1.819  1.00 20.00    -0.380 OA
ENDROOT
BRANCH   2   4
HETATM    4  C4  UNL     1     -32.311   7.681   3.187  1.00 20.00     0.107 C 
BRANCH   4   5
HETATM    5  S6  UNL     1     -33.745   6.765   3.847  1.00 20.00    -0.171 SA
HETATM    6  C3  UNL     1     -33.627   7.313   5.565  1.00 20.00     0.089 C 
ENDBRANCH   4   5
ENDBRANCH   2   4
TORSDOF 2
ENDMDL
MODEL 9
REMARK VINA RESULT:      -2.7     11.088     11.526
REMARK  2 active torsions:
REMARK  status: ('A' for Active; 'I' for Inactive)
REMARK    1  A    between atoms: C2_2  and  C4_4 
REMARK    2  A    between atoms: C4_4  and  S6_6 
ROOT
HETATM    1  C1  UNL     1     -36.694  13.935  -5.267  1.00 20.00     0.201 A 
HETATM    2  C2  UNL     1     -35.195  13.949  -5.381  1.00 20.00     0.154 A 
HETATM    3  O5  UNL     1     -35.922  12.723  -5.246  1.00 20.00    -0.380 OA
ENDROOT
BRANCH   2   4
HETATM    4  C4  UNL     1     -34.339  14.291  -4.217  1.00 20.00     0.107 C 
BRANCH   4   5
HETATM    5  S6  UNL     1     -33.456  15.866  -4.475  1.00 20.00    -0.171 SA
HETATM    6  C3  UNL     1     -33.805  16.620  -2.871  1.00 20.00     0.089 C 
ENDBRANCH   4   5
ENDBRANCH   2   4
TORSDOF 2
ENDMDL
