MODEL 1
REMARK VINA RESULT:      -5.1      0.000      0.000
REMARK  0 active torsions:
REMARK  status: ('A' for Active; 'I' for Inactive)
ROOT
HETATM    1  C1  UNL     1     -32.225   7.631   2.633  1.00 20.00     0.094 C 
HETATM    2  C2  UNL     1     -34.780   6.048   6.049  1.00 20.00     0.003 C 
HETATM    3  C3  UNL     1     -34.414   4.618   5.663  1.00 20.00     0.003 C 
HETATM    4  C4  UNL     1     -33.923   6.904   5.114  1.00 20.00     0.042 C 
HETATM    5  C5  UNL     1     -34.301   4.671   4.137  1.00 20.00     0.042 C 
HETATM    6  C6  UNL     1     -32.999   6.430   2.658  1.00 20.00     0.263 A 
HETATM    7  C7  UNL     1     -33.831   6.071   3.869  1.00 20.00     0.101 A 
HETATM    8  N8  UNL     1     -31.596   8.606   2.612  1.00 20.00    -0.194 NA
HETATM    9  O9  UNL     1     -34.411   6.674   2.705  1.00 20.00    -0.354 OA
ENDROOT
TORSDOF 0
ENDMDL
MODEL 2
REMARK VINA RESULT:      -5.1      1.618      2.378
REMARK  0 active torsions:
REMARK  status: ('A' for Active; 'I' for Inactive)
ROOT
HETATM    1  C1  UNL     1     -32.307   8.858   1.489  1.00 20.00     0.094 C 
HETATM    2  C2  UNL     1     -33.936   5.132   3.531  1.00 20.00     0.003 C 
HETATM    3  C3  UNL     1     -34.642   6.005   4.564  1.00 20.00     0.003 C 
HETATM    4  C4  UNL     1     -33.355   6.144   2.541  1.00 20.00     0.042 C 
HETATM    5  C5  UNL     1     -33.691   7.190   4.750  1.00 20.00     0.042 C 
HETATM    6  C6  UNL     1     -32.528   8.656   2.886  1.00 20.00     0.263 A 
HETATM    7  C7  UNL     1     -33.040   7.331   3.405  1.00 20.00     0.101 A 
HETATM    8  N8  UNL     1     -32.128   9.022   0.354  1.00 20.00    -0.194 NA
HETATM    9  O9  UNL     1     -31.650   7.678   3.457  1.00 20.00    -0.354 OA
ENDROOT
TORSDOF 0
ENDMDL
MODEL 3
REMARK VINA RESULT:      -4.5      2.584      4.732
REMARK  0 active torsions:
REMARK  status: ('A' for Active; 'I' for Inactive)
ROOT
HETATM    1  C1  UNL     1     -33.268   7.183   4.070  1.00 20.00     0.094 C 
HETATM    2  C2  UNL     1     -32.730  10.501   1.002  1.00 20.00     0.003 C 
HETATM    3  C3  UNL     1     -32.305   9.471  -0.040  1.00 20.00     0.003 C 
HETATM    4  C4  UNL     1     -33.139   9.648   2.205  1.00 20.00     0.042 C 
HETATM    5  C5  UNL     1     -31.549   8.418   0.775  1.00 20.00     0.042 C 
HETATM    6  C6  UNL     1     -32.293   7.256   3.028  1.00 20.00     0.263 A 
HETATM    7  C7  UNL     1     -32.226   8.460   2.114  1.00 20.00     0.101 A 
HETATM    8  N8  UNL     1     -34.061   7.123   4.915  1.00 20.00    -0.194 NA
HETATM    9  O9  UNL     1     -31.337   8.306   3.228  1.00 20.00    -0.354 OA
ENDROOT
TORSDOF 0
ENDMDL
MODEL 4
REMARK VINA RESULT:      -4.5      2.211      3.901
REMARK  0 active torsions:
REMARK  status: ('A' for Active; 'I' for Inactive)
ROOT
HETATM    1  C1  UNL     1     -34.515   5.617   4.533  1.00 20.00     0.094 C 
HETATM    2  C2  UNL     1     -31.375   8.574   3.080  1.00 20.00     0.003 C 
HETATM    3  C3  UNL     1     -32.280   8.964   1.915  1.00 20.00     0.003 C 
HETATM    4  C4  UNL     1     -32.243   7.620   3.906  1.00 20.00     0.042 C 
HETATM    5  C5  UNL     1     -32.996   7.659   1.557  1.00 20.00     0.042 C 
HETATM    6  C6  UNL     1     -34.201   5.960   3.182  1.00 20.00     0.263 A 
HETATM    7  C7  UNL     1     -33.090   6.940   2.871  1.00 20.00     0.101 A 
HETATM    8  N8  UNL     1     -34.770   5.338   5.631  1.00 20.00    -0.194 NA
HETATM    9  O9  UNL     1     -32.896   5.522   2.781  1.00 20.00    -0.354 OA
ENDROOT
TORSDOF 0
ENDMDL
MODEL 5
REMARK VINA RESULT:      -4.4     12.142     12.470
REMARK  0 active torsions:
REMARK  status: ('A' for Active; 'I' for Inactive)
ROOT
HETATM    1  C1  UNL     1     -35.980  13.807  -5.090  1.00 20.00     0.094 C 
HETATM    2  C2  UNL     1     -33.670  16.763  -2.515  1.00 20.00     0.003 C 
HETATM    3  C3  UNL     1     -34.901  16.962  -1.636  1.00 20.00     0.003 C 
HETATM    4  C4  UNL     1     -34.090  15.648  -3.476  1.00 20.00     0.042 C 
HETATM    5  C5  UNL     1     -36.071  16.841  -2.616  1.00 20.00     0.042 C 
HETATM    6  C6  UNL     1     -36.484  14.976  -4.441  1.00 20.00     0.263 A 
HETATM    7  C7  UNL     1     -35.563  15.879  -3.650  1.00 20.00     0.101 A 
HETATM    8  N8  UNL     1     -35.572  12.858  -5.618  1.00 20.00    -0.194 NA
HETATM    9  O9  UNL     1     -35.962  16.192  -4.991  1.00 20.00    -0.354 OA
ENDROOT
TORSDOF 0
ENDMDL
MODEL 6
REMARK VINA RESULT:      -4.3     12.076     12.471
REMARK  0 active torsions:
REMARK  status: ('A' for Active; 'I' for Inactive)
ROOT
HETATM    1  C1  UNL     1     -36.839  14.096  -5.146  1.00 20.00     0.094 C 
HETATM    2  C2  UNL     1     -34.345  16.671  -2.343  1.00 20.00     0.003 C 
HETATM    3  C3  UNL     1     -33.466  17.099  -3.515  1.00 20.00     0.003 C 
HETATM    4  C4  UNL     1     -35.448  15.842  -3.004  1.00 20.00     0.042 C 
HETATM    5  C5  UNL     1     -33.420  15.856  -4.408  1.00 20.00     0.042 C 
HETATM    6  C6  UNL     1     -35.435  14.351  -5.216  1.00 20.00     0.263 A 
HETATM    7  C7  UNL     1     -34.751  15.204  -4.170  1.00 20.00     0.101 A 
HETATM    8  N8  UNL     1     -37.980  13.890  -5.090  1.00 20.00    -0.194 NA
HETATM    9  O9  UNL     1     -34.705  13.772  -4.127  1.00 20.00    -0.354 OA
ENDROOT
TORSDOF 0
ENDMDL
MODEL 7
REMARK VINA RESULT:      -4.3     12.140     12.792
REMARK  0 active torsions:
REMARK  status: ('A' for Active; 'I' for Inactive)
ROOT
HETATM    1  C1  UNL     1     -37.665  14.176  -5.319  1.00 20.00     0.094 C 
HETATM    2  C2  UNL     1     -33.433  15.266  -4.047  1.00 20.00     0.003 C 
HETATM    3  C3  UNL     1     -33.070  15.556  -5.501  1.00 20.00     0.003 C 
HETATM    4  C4  UNL     1     -34.935  14.977  -4.103  1.00 20.00     0.042 C 
HETATM    5  C5  UNL     1     -33.888  14.533  -6.292  1.00 20.00     0.042 C 
HETATM    6  C6  UNL     1     -36.453  13.949  -6.040  1.00 20.00     0.263 A 
HETATM    7  C7  UNL     1     -35.116  14.340  -5.450  1.00 20.00     0.101 A 
HETATM    8  N8  UNL     1     -38.650  14.360  -4.732  1.00 20.00    -0.194 NA
HETATM    9  O9  UNL     1     -35.595  12.989  -5.410  1.00 20.00    -0.354 OA
ENDROOT
TORSDOF 0
ENDMDL
MODEL 8
REMARK VINA RESULT:      -4.0     12.037     12.917
REMARK  0 active torsions:
REMARK  status: ('A' for Active; 'I' for Inactive)
ROOT
HETATM    1  C1  UNL     1     -35.268  13.818  -5.448  1.00 20.00     0.094 C 
HETATM    2  C2  UNL     1     -33.856  17.002  -2.519  1.00 20.00     0.003 C 
HETATM    3  C3  UNL     1     -33.891  18.044  -3.633  1.00 20.00     0.003 C 
HETATM    4  C4  UNL     1     -34.441  15.751  -3.179  1.00 20.00     0.042 C 
HETATM    5  C5  UNL     1     -33.483  17.257  -4.881  1.00 20.00     0.042 C 
HETATM    6  C6  UNL     1     -34.408  14.928  -5.715  1.00 20.00     0.263 A 
HETATM    7  C7  UNL     1     -34.002  15.875  -4.608  1.00 20.00     0.101 A 
HETATM    8  N8  UNL     1     -35.967  12.917  -5.232  1.00 20.00    -0.194 NA
HETATM    9  O9  UNL     1     -33.138  14.823  -5.059  1.00 20.00    -0.354 OA
ENDROOT
TORSDOF 0
ENDMDL
MODEL 9
REMARK VINA RESULT:      -3.9     12.115     12.411
REMARK  0 active torsions:
REMARK  status: ('A' for Active; 'I' for Inactive)
ROOT
HETATM    1  C1  UNL     1     -34.811  14.557  -4.629  1.00 20.00     0.094 C 
HETATM    2  C2  UNL     1     -33.433  17.667  -1.606  1.00 20.00     0.003 C 
HETATM    3  C3  UNL     1     -34.663  17.381  -0.749  1.00 20.00     0.003 C 
HETATM    4  C4  UNL     1     -33.522  16.622  -2.722  1.00 20.00     0.042 C 
HETATM    5  C5  UNL     1     -35.756  17.065  -1.774  1.00 20.00     0.042 C 
HETATM    6  C6  UNL     1     -35.626  15.430  -3.845  1.00 20.00     0.263 A 
HETATM    7  C7  UNL     1     -34.999  16.442  -2.911  1.00 20.00     0.101 A 
HETATM    8  N8  UNL     1     -34.150  13.847  -5.266  1.00 20.00    -0.194 NA
HETATM    9  O9  UNL     1     -35.483  16.809  -4.210  1.00 20.00    -0.354 OA
ENDROOT
TORSDOF 0
ENDMDL
