MODEL 1
REMARK VINA RESULT:      -3.6      0.000      0.000
REMARK  0 active torsions:
REMARK  status: ('A' for Active; 'I' for Inactive)
ROOT
HETATM    1  C1  UNL     1     -33.559   7.050   4.678  1.00 20.00     0.116 C 
HETATM    2  C2  UNL     1     -32.911   5.769   2.479  1.00 20.00     0.344 C 
HETATM    3  C3  UNL     1     -34.352   5.767   4.377  1.00 20.00     0.159 C 
HETATM    4  C4  UNL     1     -34.639   5.011   5.684  1.00 20.00     0.049 C 
HETATM    5  C5  UNL     1     -35.695   6.064   3.683  1.00 20.00     0.049 C 
HETATM    6  N6  UNL     1     -33.497   4.918   3.517  1.00 20.00     0.102 N 
HETATM    7  S7  UNL     1     -32.642   7.419   3.163  1.00 20.00    -0.137 SA
HETATM    8  H18 UNL     1     -34.087   4.228   3.059  1.00 20.00     0.317 HD
ENDROOT
TORSDOF 0
ENDMDL
MODEL 2
REMARK VINA RESULT:      -3.3     12.579     13.344
REMARK  0 active torsions:
REMARK  status: ('A' for Active; 'I' for Inactive)
ROOT
HETATM    1  C1  UNL     1     -35.361  15.567  -6.360  1.00 20.00     0.116 C 
HETATM    2  C2  UNL     1     -35.132  13.078  -7.169  1.00 20.00     0.344 C 
HETATM    3  C3  UNL     1     -34.292  14.716  -5.655  1.00 20.00     0.159 C 
HETATM    4  C4  UNL     1     -33.052  15.575  -5.359  1.00 20.00     0.049 C 
HETATM    5  C5  UNL     1     -34.802  14.126  -4.327  1.00 20.00     0.049 C 
HETATM    6  N6  UNL     1     -33.907  13.635  -6.591  1.00 20.00     0.102 N 
HETATM    7  S7  UNL     1     -36.358  14.397  -7.315  1.00 20.00    -0.137 SA
HETATM    8  H18 UNL     1     -33.449  12.899  -6.061  1.00 20.00     0.317 HD
ENDROOT
TORSDOF 0
ENDMDL
MODEL 3
REMARK VINA RESULT:      -3.2     12.561     13.205
REMARK  0 active torsions:
REMARK  status: ('A' for Active; 'I' for Inactive)
ROOT
HETATM    1  C1  UNL     1     -35.033  15.721  -6.009  1.00 20.00     0.116 C 
HETATM    2  C2  UNL     1     -34.349  13.889  -7.762  1.00 20.00     0.344 C 
HETATM    3  C3  UNL     1     -34.838  14.296  -5.465  1.00 20.00     0.159 C 
HETATM    4  C4  UNL     1     -34.183  14.352  -4.075  1.00 20.00     0.049 C 
HETATM    5  C5  UNL     1     -36.170  13.533  -5.344  1.00 20.00     0.049 C 
HETATM    6  N6  UNL     1     -33.919  13.597  -6.393  1.00 20.00     0.102 N 
HETATM    7  S7  UNL     1     -35.048  15.554  -7.811  1.00 20.00    -0.137 SA
HETATM    8  H18 UNL     1     -34.011  12.596  -6.242  1.00 20.00     0.317 HD
ENDROOT
TORSDOF 0
ENDMDL
MODEL 4
REMARK VINA RESULT:      -3.1      1.616      2.678
REMARK  0 active torsions:
REMARK  status: ('A' for Active; 'I' for Inactive)
ROOT
HETATM    1  C1  UNL     1     -33.675   7.301   3.889  1.00 20.00     0.116 C 
HETATM    2  C2  UNL     1     -34.672   5.565   5.590  1.00 20.00     0.344 C 
HETATM    3  C3  UNL     1     -34.156   5.965   3.297  1.00 20.00     0.159 C 
HETATM    4  C4  UNL     1     -34.813   6.206   1.929  1.00 20.00     0.049 C 
HETATM    5  C5  UNL     1     -33.002   4.963   3.113  1.00 20.00     0.049 C 
HETATM    6  N6  UNL     1     -35.176   5.421   4.222  1.00 20.00     0.102 N 
HETATM    7  S7  UNL     1     -33.660   7.058   5.682  1.00 20.00    -0.137 SA
HETATM    8  H18 UNL     1     -35.285   4.428   4.032  1.00 20.00     0.317 HD
ENDROOT
TORSDOF 0
ENDMDL
MODEL 5
REMARK VINA RESULT:      -3.1     12.103     12.577
REMARK  0 active torsions:
REMARK  status: ('A' for Active; 'I' for Inactive)
ROOT
HETATM    1  C1  UNL     1     -34.400  15.156  -6.042  1.00 20.00     0.116 C 
HETATM    2  C2  UNL     1     -36.376  13.603  -5.277  1.00 20.00     0.344 C 
HETATM    3  C3  UNL     1     -34.326  14.617  -4.603  1.00 20.00     0.159 C 
HETATM    4  C4  UNL     1     -32.869  14.287  -4.243  1.00 20.00     0.049 C 
HETATM    5  C5  UNL     1     -34.864  15.630  -3.576  1.00 20.00     0.049 C 
HETATM    6  N6  UNL     1     -35.118  13.366  -4.565  1.00 20.00     0.102 N 
HETATM    7  S7  UNL     1     -36.075  14.779  -6.614  1.00 20.00    -0.137 SA
HETATM    8  H18 UNL     1     -35.341  13.157  -3.596  1.00 20.00     0.317 HD
ENDROOT
TORSDOF 0
ENDMDL
MODEL 6
REMARK VINA RESULT:      -3.1     12.286     13.137
REMARK  0 active torsions:
REMARK  status: ('A' for Active; 'I' for Inactive)
ROOT
HETATM    1  C1  UNL     1     -35.610  14.851  -5.417  1.00 20.00     0.116 C 
HETATM    2  C2  UNL     1     -33.241  14.768  -4.285  1.00 20.00     0.344 C 
HETATM    3  C3  UNL     1     -34.445  14.383  -6.306  1.00 20.00     0.159 C 
HETATM    4  C4  UNL     1     -34.920  13.260  -7.242  1.00 20.00     0.049 C 
HETATM    5  C5  UNL     1     -33.877  15.526  -7.168  1.00 20.00     0.049 C 
HETATM    6  N6  UNL     1     -33.401  13.840  -5.407  1.00 20.00     0.102 N 
HETATM    7  S7  UNL     1     -34.839  15.530  -3.927  1.00 20.00    -0.137 SA
HETATM    8  H18 UNL     1     -32.523  13.810  -5.916  1.00 20.00     0.317 HD
ENDROOT
TORSDOF 0
ENDMDL
MODEL 7
REMARK VINA RESULT:      -3.1     12.301     12.806
REMARK  0 active torsions:
REMARK  status: ('A' for Active; 'I' for Inactive)
ROOT
HETATM    1  C1  UNL     1     -35.090  15.779  -5.639  1.00 20.00     0.116 C 
HETATM    2  C2  UNL     1     -33.026  14.656  -4.463  1.00 20.00     0.344 C 
HETATM    3  C3  UNL     1     -35.080  14.241  -5.600  1.00 20.00     0.159 C 
HETATM    4  C4  UNL     1     -36.507  13.714  -5.378  1.00 20.00     0.049 C 
HETATM    5  C5  UNL     1     -34.535  13.631  -6.905  1.00 20.00     0.049 C 
HETATM    6  N6  UNL     1     -34.242  13.839  -4.447  1.00 20.00     0.102 N 
HETATM    7  S7  UNL     1     -33.430  16.286  -5.129  1.00 20.00    -0.137 SA
HETATM    8  H18 UNL     1     -33.969  12.869  -4.572  1.00 20.00     0.317 HD
ENDROOT
TORSDOF 0
ENDMDL
MODEL 8
REMARK VINA RESULT:      -2.8     12.326     12.878
REMARK  0 active torsions:
REMARK  status: ('A' for Active; 'I' for Inactive)
ROOT
HETATM    1  C1  UNL     1     -35.021  14.610  -4.248  1.00 20.00     0.116 C 
HETATM    2  C2  UNL     1     -37.561  14.592  -4.919  1.00 20.00     0.344 C 
HETATM    3  C3  UNL     1     -35.826  15.875  -3.906  1.00 20.00     0.159 C 
HETATM    4  C4  UNL     1     -35.364  16.439  -2.553  1.00 20.00     0.049 C 
HETATM    5  C5  UNL     1     -35.661  16.974  -4.973  1.00 20.00     0.049 C 
HETATM    6  N6  UNL     1     -37.246  15.471  -3.790  1.00 20.00     0.102 N 
HETATM    7  S7  UNL     1     -36.086  13.642  -5.346  1.00 20.00    -0.137 SA
HETATM    8  H18 UNL     1     -37.824  16.303  -3.871  1.00 20.00     0.317 HD
ENDROOT
TORSDOF 0
ENDMDL
MODEL 9
REMARK VINA RESULT:      -2.8      1.927      2.806
REMARK  0 active torsions:
REMARK  status: ('A' for Active; 'I' for Inactive)
ROOT
HETATM    1  C1  UNL     1     -34.299   4.532   4.463  1.00 20.00     0.116 C 
HETATM    2  C2  UNL     1     -33.959   6.889   5.571  1.00 20.00     0.344 C 
HETATM    3  C3  UNL     1     -33.946   5.688   3.512  1.00 20.00     0.159 C 
HETATM    4  C4  UNL     1     -33.006   5.186   2.405  1.00 20.00     0.049 C 
HETATM    5  C5  UNL     1     -35.196   6.296   2.849  1.00 20.00     0.049 C 
HETATM    6  N6  UNL     1     -33.232   6.708   4.312  1.00 20.00     0.102 N 
HETATM    7  S7  UNL     1     -34.702   5.312   6.045  1.00 20.00    -0.137 SA
HETATM    8  H18 UNL     1     -33.258   7.589   3.807  1.00 20.00     0.317 HD
ENDROOT
TORSDOF 0
ENDMDL
