MODEL 1
REMARK VINA RESULT:      -3.2      0.000      0.000
REMARK  2 active torsions:
REMARK  status: ('A' for Active; 'I' for Inactive)
REMARK    1  A    between atoms: C2_2  and  C4_4 
REMARK    2  A    between atoms: C4_4  and  S6_6 
ROOT
HETATM    1  C1  UNL     1     -32.221   8.398   2.155  1.00 20.00     0.201 A 
HETATM    2  C2  UNL     1     -32.521   7.238   3.063  1.00 20.00     0.154 A 
HETATM    3  O5  UNL     1     -31.473   8.167   3.360  1.00 20.00    -0.380 OA
ENDROOT
BRANCH   2   4
HETATM    4  C4  UNL     1     -33.667   7.276   4.007  1.00 20.00     0.107 C 
BRANCH   4   5
HETATM    5  S6  UNL     1     -34.686   5.768   3.882  1.00 20.00    -0.171 SA
HETATM    6  C3  UNL     1     -34.576   5.242   5.605  1.00 20.00     0.089 C 
ENDBRANCH   4   5
ENDBRANCH   2   4
TORSDOF 2
ENDMDL
MODEL 2
REMARK VINA RESULT:      -3.1      2.286      3.861
REMARK  2 active torsions:
REMARK  status: ('A' for Active; 'I' for Inactive)
REMARK    1  A    between atoms: C2_2  and  C4_4 
REMARK    2  A    between atoms: C4_4  and  S6_6 
ROOT
HETATM    1  C1  UNL     1     -34.621   4.604   4.701  1.00 20.00     0.201 A 
HETATM    2  C2  UNL     1     -34.667   5.788   3.775  1.00 20.00     0.154 A 
HETATM    3  O5  UNL     1     -34.379   5.941   5.169  1.00 20.00    -0.380 OA
ENDROOT
BRANCH   2   4
HETATM    4  C4  UNL     1     -33.532   6.102   2.871  1.00 20.00     0.107 C 
BRANCH   4   5
HETATM    5  S6  UNL     1     -32.581   7.541   3.468  1.00 20.00    -0.171 SA
HETATM    6  C3  UNL     1     -32.407   8.404   1.892  1.00 20.00     0.089 C 
ENDBRANCH   4   5
ENDBRANCH   2   4
TORSDOF 2
ENDMDL
MODEL 3
REMARK VINA RESULT:      -2.9      1.548      1.719
REMARK  2 active torsions:
REMARK  status: ('A' for Active; 'I' for Inactive)
REMARK    1  A    between atoms: C2_2  and  C4_4 
REMARK    2  A    between atoms: C4_4  and  S6_6 
ROOT
HETATM    1  C1  UNL     1     -32.411   9.555   1.508  1.00 20.00     0.201 A 
HETATM    2  C2  UNL     1     -32.583   8.116   1.909  1.00 20.00     0.154 A 
HETATM    3  O5  UNL     1     -31.398   8.570   1.246  1.00 20.00    -0.380 OA
ENDROOT
BRANCH   2   4
HETATM    4  C4  UNL     1     -32.377   7.678   3.313  1.00 20.00     0.107 C 
BRANCH   4   5
HETATM    5  S6  UNL     1     -33.844   6.808   3.963  1.00 20.00    -0.171 SA
HETATM    6  C3  UNL     1     -33.698   7.318   5.689  1.00 20.00     0.089 C 
ENDBRANCH   4   5
ENDBRANCH   2   4
TORSDOF 2
ENDMDL
MODEL 4
REMARK VINA RESULT:      -2.9      2.848      4.189
REMARK  2 active torsions:
REMARK  status: ('A' for Active; 'I' for Inactive)
REMARK    1  A    between atoms: C2_2  and  C4_4 
REMARK    2  A    between atoms: C4_4  and  S6_6 
ROOT
HETATM    1  C1  UNL     1     -32.868   6.429   2.914  1.00 20.00     0.201 A 
HETATM    2  C2  UNL     1     -33.009   7.887   2.575  1.00 20.00     0.154 A 
HETATM    3  O5  UNL     1     -32.632   7.459   3.888  1.00 20.00    -0.380 OA
ENDROOT
BRANCH   2   4
HETATM    4  C4  UNL     1     -31.945   8.611   1.832  1.00 20.00     0.107 C 
BRANCH   4   5
HETATM    5  S6  UNL     1     -32.596  10.118   1.035  1.00 20.00    -0.171 SA
HETATM    6  C3  UNL     1     -33.146   9.370  -0.514  1.00 20.00     0.089 C 
ENDBRANCH   4   5
ENDBRANCH   2   4
TORSDOF 2
ENDMDL
MODEL 5
REMARK VINA RESULT:      -2.8     11.705     12.053
REMARK  2 active torsions:
REMARK  status: ('A' for Active; 'I' for Inactive)
REMARK    1  A    between atoms: C2_2  and  C4_4 
REMARK    2  A    between atoms: C4_4  and  S6_6 
ROOT
HETATM    1  C1  UNL     1     -36.687  13.942  -5.273  1.00 20.00     0.201 A 
HETATM    2  C2  UNL     1     -35.228  13.958  -4.910  1.00 20.00     0.154 A 
HETATM    3  O5  UNL     1     -35.910  12.734  -5.207  1.00 20.00    -0.380 OA
ENDROOT
BRANCH   2   4
HETATM    4  C4  UNL     1     -34.192  14.344  -5.903  1.00 20.00     0.107 C 
BRANCH   4   5
HETATM    5  S6  UNL     1     -33.271  15.824  -5.365  1.00 20.00    -0.171 SA
HETATM    6  C3  UNL     1     -33.821  15.855  -3.645  1.00 20.00     0.089 C 
ENDBRANCH   4   5
ENDBRANCH   2   4
TORSDOF 2
ENDMDL
MODEL 6
REMARK VINA RESULT:      -2.8     11.145     12.001
REMARK  2 active torsions:
REMARK  status: ('A' for Active; 'I' for Inactive)
REMARK    1  A    between atoms: C2_2  and  C4_4 
REMARK    2  A    between atoms: C4_4  and  S6_6 
ROOT
HETATM    1  C1  UNL     1     -35.552  13.530  -6.333  1.00 20.00     0.201 A 
HETATM    2  C2  UNL     1     -35.591  14.028  -4.915  1.00 20.00     0.154 A 
HETATM    3  O5  UNL     1     -35.910  12.670  -5.239  1.00 20.00    -0.380 OA
ENDROOT
BRANCH   2   4
HETATM    4  C4  UNL     1     -34.345  14.198  -4.124  1.00 20.00     0.107 C 
BRANCH   4   5
HETATM    5  S6  UNL     1     -34.076  15.944  -3.669  1.00 20.00    -0.171 SA
HETATM    6  C3  UNL     1     -33.396  16.515  -5.241  1.00 20.00     0.089 C 
ENDBRANCH   4   5
ENDBRANCH   2   4
TORSDOF 2
ENDMDL
MODEL 7
REMARK VINA RESULT:      -2.6     11.094     11.708
REMARK  2 active torsions:
REMARK  status: ('A' for Active; 'I' for Inactive)
REMARK    1  A    between atoms: C2_2  and  C4_4 
REMARK    2  A    between atoms: C4_4  and  S6_6 
ROOT
HETATM    1  C1  UNL     1     -35.342  13.486  -6.277  1.00 20.00     0.201 A 
HETATM    2  C2  UNL     1     -35.634  14.055  -4.917  1.00 20.00     0.154 A 
HETATM    3  O5  UNL     1     -35.844  12.669  -5.206  1.00 20.00    -0.380 OA
ENDROOT
BRANCH   2   4
HETATM    4  C4  UNL     1     -34.542  14.324  -3.945  1.00 20.00     0.107 C 
BRANCH   4   5
HETATM    5  S6  UNL     1     -34.617  16.035  -3.315  1.00 20.00    -0.171 SA
HETATM    6  C3  UNL     1     -36.364  16.352  -3.645  1.00 20.00     0.089 C 
ENDBRANCH   4   5
ENDBRANCH   2   4
TORSDOF 2
ENDMDL
MODEL 8
REMARK VINA RESULT:      -2.5     11.692     12.244
REMARK  2 active torsions:
REMARK  status: ('A' for Active; 'I' for Inactive)
REMARK    1  A    between atoms: C2_2  and  C4_4 
REMARK    2  A    between atoms: C4_4  and  S6_6 
ROOT
HETATM    1  C1  UNL     1     -34.456  13.555  -7.167  1.00 20.00     0.201 A 
HETATM    2  C2  UNL     1     -35.777  13.451  -6.456  1.00 20.00     0.154 A 
HETATM    3  O5  UNL     1     -35.044  12.284  -6.842  1.00 20.00    -0.380 OA
ENDROOT
BRANCH   2   4
HETATM    4  C4  UNL     1     -35.880  13.659  -4.989  1.00 20.00     0.107 C 
BRANCH   4   5
HETATM    5  S6  UNL     1     -36.707  15.237  -4.594  1.00 20.00    -0.171 SA
HETATM    6  C3  UNL     1     -38.407  14.721  -4.916  1.00 20.00     0.089 C 
ENDBRANCH   4   5
ENDBRANCH   2   4
TORSDOF 2
ENDMDL
MODEL 9
REMARK VINA RESULT:      -2.4      2.791      3.834
REMARK  2 active torsions:
REMARK  status: ('A' for Active; 'I' for Inactive)
REMARK    1  A    between atoms: C2_2  and  C4_4 
REMARK    2  A    between atoms: C4_4  and  S6_6 
ROOT
HETATM    1  C1  UNL     1     -33.935   4.272   3.848  1.00 20.00     0.201 A 
HETATM    2  C2  UNL     1     -34.687   5.418   4.464  1.00 20.00     0.154 A 
HETATM    3  O5  UNL     1     -35.208   4.084   4.489  1.00 20.00    -0.380 OA
ENDROOT
BRANCH   2   4
HETATM    4  C4  UNL     1     -34.311   5.959   5.796  1.00 20.00     0.107 C 
BRANCH   4   5
HETATM    5  S6  UNL     1     -33.500   7.587   5.650  1.00 20.00    -0.171 SA
HETATM    6  C3  UNL     1     -32.921   7.431   3.947  1.00 20.00     0.089 C 
ENDBRANCH   4   5
ENDBRANCH   2   4
TORSDOF 2
ENDMDL
