MODEL 1
REMARK VINA RESULT:      -5.4      0.000      0.000
REMARK  2 active torsions:
REMARK  status: ('A' for Active; 'I' for Inactive)
REMARK    1  A    between atoms: C3_3  and  C8_8 
REMARK       I    between atoms: C3_3  and  N10_10 
REMARK    2  A    between atoms: C9_9  and  N10_10 
ROOT
HETATM    1  C1  UNL     1     -33.382   7.536   5.735  1.00 20.00     0.015 C 
HETATM    2  C2  UNL     1     -33.538   7.127   4.617  1.00 20.00    -0.086 C 
HETATM    3  C6  UNL     1     -32.782   5.447   2.988  1.00 20.00     0.052 C 
HETATM    4  C7  UNL     1     -35.182   6.176   3.051  1.00 20.00     0.052 C 
HETATM    5  C9  UNL     1     -33.730   6.625   3.241  1.00 20.00     0.088 C 
ENDROOT
BRANCH   5   6
HETATM    6  N10 UNL     1     -33.436   7.687   2.306  1.00 20.00    -0.341 N 
HETATM    7  C3  UNL     1     -32.228   8.371   2.303  1.00 20.00     0.222 C 
HETATM    8  O11 UNL     1     -31.298   8.155   3.077  1.00 20.00    -0.273 OA
HETATM    9  H26 UNL     1     -34.142   7.943   1.623  1.00 20.00     0.164 HD
BRANCH   7  10
HETATM   10  C8  UNL     1     -32.171   9.447   1.220  1.00 20.00     0.070 C 
HETATM   11  C4  UNL     1     -32.830   8.938  -0.061  1.00 20.00     0.019 C 
HETATM   12  C5  UNL     1     -32.841  10.735   1.689  1.00 20.00     0.019 C 
ENDBRANCH   7  10
ENDBRANCH   5   6
TORSDOF 2
ENDMDL
MODEL 2
REMARK VINA RESULT:      -4.9      0.822      4.165
REMARK  2 active torsions:
REMARK  status: ('A' for Active; 'I' for Inactive)
REMARK    1  A    between atoms: C3_3  and  C8_8 
REMARK       I    between atoms: C3_3  and  N10_10 
REMARK    2  A    between atoms: C9_9  and  N10_10 
ROOT
HETATM    1  C1  UNL     1     -32.536  11.430   2.063  1.00 20.00     0.015 C 
HETATM    2  C2  UNL     1     -32.495  10.358   1.524  1.00 20.00    -0.086 C 
HETATM    3  C6  UNL     1     -33.291   9.074  -0.416  1.00 20.00     0.052 C 
HETATM    4  C7  UNL     1     -30.994   8.689   0.514  1.00 20.00     0.052 C 
HETATM    5  C9  UNL     1     -32.444   9.039   0.861  1.00 20.00     0.088 C 
ENDROOT
BRANCH   5   6
HETATM    6  N10 UNL     1     -32.972   8.039   1.760  1.00 20.00    -0.341 N 
HETATM    7  C3  UNL     1     -32.404   7.766   2.996  1.00 20.00     0.222 C 
HETATM    8  O11 UNL     1     -31.412   8.331   3.451  1.00 20.00    -0.273 OA
HETATM    9  H26 UNL     1     -33.793   7.514   1.475  1.00 20.00     0.164 HD
BRANCH   7  10
HETATM   10  C8  UNL     1     -33.149   6.666   3.750  1.00 20.00     0.070 C 
HETATM   11  C4  UNL     1     -33.712   7.215   5.059  1.00 20.00     0.019 C 
HETATM   12  C5  UNL     1     -34.266   6.074   2.894  1.00 20.00     0.019 C 
ENDBRANCH   7  10
ENDBRANCH   5   6
TORSDOF 2
ENDMDL
MODEL 3
REMARK VINA RESULT:      -4.6      0.411      1.937
REMARK  2 active torsions:
REMARK  status: ('A' for Active; 'I' for Inactive)
REMARK    1  A    between atoms: C3_3  and  C8_8 
REMARK       I    between atoms: C3_3  and  N10_10 
REMARK    2  A    between atoms: C9_9  and  N10_10 
ROOT
HETATM    1  C1  UNL     1     -32.699   4.423   2.568  1.00 20.00     0.015 C 
HETATM    2  C2  UNL     1     -33.207   5.457   2.906  1.00 20.00    -0.086 C 
HETATM    3  C6  UNL     1     -35.353   6.554   3.393  1.00 20.00     0.052 C 
HETATM    4  C7  UNL     1     -33.291   7.151   4.690  1.00 20.00     0.052 C 
HETATM    5  C9  UNL     1     -33.832   6.729   3.320  1.00 20.00     0.088 C 
ENDROOT
BRANCH   5   6
HETATM    6  N10 UNL     1     -33.512   7.750   2.349  1.00 20.00    -0.341 N 
HETATM    7  C3  UNL     1     -32.267   8.359   2.283  1.00 20.00     0.222 C 
HETATM    8  O11 UNL     1     -31.322   8.104   3.026  1.00 20.00    -0.273 OA
HETATM    9  H26 UNL     1     -34.228   8.033   1.687  1.00 20.00     0.164 HD
BRANCH   7  10
HETATM   10  C8  UNL     1     -32.188   9.405   1.172  1.00 20.00     0.070 C 
HETATM   11  C4  UNL     1     -32.856   8.876  -0.096  1.00 20.00     0.019 C 
HETATM   12  C5  UNL     1     -32.833  10.718   1.607  1.00 20.00     0.019 C 
ENDBRANCH   7  10
ENDBRANCH   5   6
TORSDOF 2
ENDMDL
MODEL 4
REMARK VINA RESULT:      -4.3      1.793      2.762
REMARK  2 active torsions:
REMARK  status: ('A' for Active; 'I' for Inactive)
REMARK    1  A    between atoms: C3_3  and  C8_8 
REMARK       I    between atoms: C3_3  and  N10_10 
REMARK    2  A    between atoms: C9_9  and  N10_10 
ROOT
HETATM    1  C1  UNL     1     -33.698   3.394   4.090  1.00 20.00     0.015 C 
HETATM    2  C2  UNL     1     -34.028   4.534   4.276  1.00 20.00    -0.086 C 
HETATM    3  C6  UNL     1     -35.752   6.213   3.772  1.00 20.00     0.052 C 
HETATM    4  C7  UNL     1     -34.611   6.185   6.006  1.00 20.00     0.052 C 
HETATM    5  C9  UNL     1     -34.434   5.935   4.505  1.00 20.00     0.088 C 
ENDROOT
BRANCH   5   6
HETATM    6  N10 UNL     1     -33.406   6.813   3.995  1.00 20.00    -0.341 N 
HETATM    7  C3  UNL     1     -33.090   6.894   2.647  1.00 20.00     0.222 C 
HETATM    8  O11 UNL     1     -33.635   6.243   1.759  1.00 20.00    -0.273 OA
HETATM    9  H26 UNL     1     -32.895   7.396   4.652  1.00 20.00     0.164 HD
BRANCH   7  10
HETATM   10  C8  UNL     1     -31.968   7.893   2.371  1.00 20.00     0.070 C 
HETATM   11  C4  UNL     1     -32.486   9.040   1.505  1.00 20.00     0.019 C 
HETATM   12  C5  UNL     1     -31.379   8.431   3.673  1.00 20.00     0.019 C 
ENDBRANCH   7  10
ENDBRANCH   5   6
TORSDOF 2
ENDMDL
MODEL 5
REMARK VINA RESULT:      -4.2      0.987      4.359
REMARK  2 active torsions:
REMARK  status: ('A' for Active; 'I' for Inactive)
REMARK    1  A    between atoms: C3_3  and  C8_8 
REMARK       I    between atoms: C3_3  and  N10_10 
REMARK    2  A    between atoms: C9_9  and  N10_10 
ROOT
HETATM    1  C1  UNL     1     -33.393   9.472  -1.088  1.00 20.00     0.015 C 
HETATM    2  C2  UNL     1     -32.950   9.341   0.021  1.00 20.00    -0.086 C 
HETATM    3  C6  UNL     1     -30.995   8.582   1.304  1.00 20.00     0.052 C 
HETATM    4  C7  UNL     1     -32.354  10.540   2.086  1.00 20.00     0.052 C 
HETATM    5  C9  UNL     1     -32.404   9.180   1.384  1.00 20.00     0.088 C 
ENDROOT
BRANCH   5   6
HETATM    6  N10 UNL     1     -33.262   8.290   2.132  1.00 20.00    -0.341 N 
HETATM    7  C3  UNL     1     -32.903   7.761   3.364  1.00 20.00     0.222 C 
HETATM    8  O11 UNL     1     -31.840   7.985   3.939  1.00 20.00    -0.273 OA
HETATM    9  H26 UNL     1     -34.166   8.043   1.741  1.00 20.00     0.164 HD
BRANCH   7  10
HETATM   10  C8  UNL     1     -33.982   6.849   3.944  1.00 20.00     0.070 C 
HETATM   11  C4  UNL     1     -33.819   5.431   3.401  1.00 20.00     0.019 C 
HETATM   12  C5  UNL     1     -33.936   6.845   5.470  1.00 20.00     0.019 C 
ENDBRANCH   7  10
ENDBRANCH   5   6
TORSDOF 2
ENDMDL
MODEL 6
REMARK VINA RESULT:      -4.2      1.354      4.169
REMARK  2 active torsions:
REMARK  status: ('A' for Active; 'I' for Inactive)
REMARK    1  A    between atoms: C3_3  and  C8_8 
REMARK       I    between atoms: C3_3  and  N10_10 
REMARK    2  A    between atoms: C9_9  and  N10_10 
ROOT
HETATM    1  C1  UNL     1     -33.394  10.693   1.504  1.00 20.00     0.015 C 
HETATM    2  C2  UNL     1     -32.750   9.696   1.689  1.00 20.00    -0.086 C 
HETATM    3  C6  UNL     1     -31.113   8.168   0.675  1.00 20.00     0.052 C 
HETATM    4  C7  UNL     1     -31.048   8.660   3.134  1.00 20.00     0.052 C 
HETATM    5  C9  UNL     1     -31.959   8.471   1.917  1.00 20.00     0.088 C 
ENDROOT
BRANCH   5   6
HETATM    6  N10 UNL     1     -32.859   7.368   2.165  1.00 20.00    -0.341 N 
HETATM    7  C3  UNL     1     -33.304   7.033   3.436  1.00 20.00     0.222 C 
HETATM    8  O11 UNL     1     -32.988   7.623   4.467  1.00 20.00    -0.273 OA
HETATM    9  H26 UNL     1     -33.179   6.815   1.376  1.00 20.00     0.164 HD
BRANCH   7  10
HETATM   10  C8  UNL     1     -34.243   5.829   3.426  1.00 20.00     0.070 C 
HETATM   11  C4  UNL     1     -33.520   4.603   2.871  1.00 20.00     0.019 C 
HETATM   12  C5  UNL     1     -34.782   5.541   4.826  1.00 20.00     0.019 C 
ENDBRANCH   7  10
ENDBRANCH   5   6
TORSDOF 2
ENDMDL
MODEL 7
REMARK VINA RESULT:      -4.1     10.048     10.892
REMARK  2 active torsions:
REMARK  status: ('A' for Active; 'I' for Inactive)
REMARK    1  A    between atoms: C3_3  and  C8_8 
REMARK       I    between atoms: C3_3  and  N10_10 
REMARK    2  A    between atoms: C9_9  and  N10_10 
ROOT
HETATM    1  C1  UNL     1     -32.145  18.507  -0.473  1.00 20.00     0.015 C 
HETATM    2  C2  UNL     1     -33.131  18.118  -1.039  1.00 20.00    -0.086 C 
HETATM    3  C6  UNL     1     -35.410  17.260  -0.702  1.00 20.00     0.052 C 
HETATM    4  C7  UNL     1     -34.879  18.739  -2.656  1.00 20.00     0.052 C 
HETATM    5  C9  UNL     1     -34.342  17.640  -1.734  1.00 20.00     0.088 C 
ENDROOT
BRANCH   5   6
HETATM    6  N10 UNL     1     -34.004  16.479  -2.526  1.00 20.00    -0.341 N 
HETATM    7  C3  UNL     1     -34.946  15.769  -3.257  1.00 20.00     0.222 C 
HETATM    8  O11 UNL     1     -36.143  16.043  -3.310  1.00 20.00    -0.273 OA
HETATM    9  H26 UNL     1     -33.037  16.170  -2.547  1.00 20.00     0.164 HD
BRANCH   7  10
HETATM   10  C8  UNL     1     -34.333  14.585  -4.002  1.00 20.00     0.070 C 
HETATM   11  C4  UNL     1     -35.372  13.950  -4.924  1.00 20.00     0.019 C 
HETATM   12  C5  UNL     1     -33.104  15.015  -4.800  1.00 20.00     0.019 C 
ENDBRANCH   7  10
ENDBRANCH   5   6
TORSDOF 2
ENDMDL
MODEL 8
REMARK VINA RESULT:      -4.1      0.491      1.694
REMARK  2 active torsions:
REMARK  status: ('A' for Active; 'I' for Inactive)
REMARK    1  A    between atoms: C3_3  and  C8_8 
REMARK       I    between atoms: C3_3  and  N10_10 
REMARK    2  A    between atoms: C9_9  and  N10_10 
ROOT
HETATM    1  C1  UNL     1     -35.976   6.075   3.528  1.00 20.00     0.015 C 
HETATM    2  C2  UNL     1     -34.820   6.391   3.452  1.00 20.00    -0.086 C 
HETATM    3  C6  UNL     1     -32.924   7.319   4.712  1.00 20.00     0.052 C 
HETATM    4  C7  UNL     1     -32.554   5.566   2.957  1.00 20.00     0.052 C 
HETATM    5  C9  UNL     1     -33.398   6.779   3.358  1.00 20.00     0.088 C 
ENDROOT
BRANCH   5   6
HETATM    6  N10 UNL     1     -33.256   7.809   2.354  1.00 20.00    -0.341 N 
HETATM    7  C3  UNL     1     -32.077   8.515   2.165  1.00 20.00     0.222 C 
HETATM    8  O11 UNL     1     -31.048   8.348   2.816  1.00 20.00    -0.273 OA
HETATM    9  H26 UNL     1     -34.053   8.023   1.762  1.00 20.00     0.164 HD
BRANCH   7  10
HETATM   10  C8  UNL     1     -32.190   9.548   1.045  1.00 20.00     0.070 C 
HETATM   11  C4  UNL     1     -32.944   8.953  -0.143  1.00 20.00     0.019 C 
HETATM   12  C5  UNL     1     -32.882  10.817   1.535  1.00 20.00     0.019 C 
ENDBRANCH   7  10
ENDBRANCH   5   6
TORSDOF 2
ENDMDL
MODEL 9
REMARK VINA RESULT:      -4.1      9.981     10.859
REMARK  2 active torsions:
REMARK  status: ('A' for Active; 'I' for Inactive)
REMARK    1  A    between atoms: C3_3  and  C8_8 
REMARK       I    between atoms: C3_3  and  N10_10 
REMARK    2  A    between atoms: C9_9  and  N10_10 
ROOT
HETATM    1  C1  UNL     1     -35.697  17.388   0.156  1.00 20.00     0.015 C 
HETATM    2  C2  UNL     1     -34.888  17.550  -0.717  1.00 20.00    -0.086 C 
HETATM    3  C6  UNL     1     -34.373  18.854  -2.736  1.00 20.00     0.052 C 
HETATM    4  C7  UNL     1     -32.542  18.138  -1.179  1.00 20.00     0.052 C 
HETATM    5  C9  UNL     1     -33.892  17.749  -1.789  1.00 20.00     0.088 C 
ENDROOT
BRANCH   5   6
HETATM    6  N10 UNL     1     -33.742  16.516  -2.527  1.00 20.00    -0.341 N 
HETATM    7  C3  UNL     1     -34.801  15.894  -3.173  1.00 20.00     0.222 C 
HETATM    8  O11 UNL     1     -35.956  16.313  -3.188  1.00 20.00    -0.273 OA
HETATM    9  H26 UNL     1     -32.822  16.087  -2.576  1.00 20.00     0.164 HD
BRANCH   7  10
HETATM   10  C8  UNL     1     -34.378  14.606  -3.877  1.00 20.00     0.070 C 
HETATM   11  C4  UNL     1     -35.431  14.201  -4.907  1.00 20.00     0.019 C 
HETATM   12  C5  UNL     1     -33.014  14.766  -4.543  1.00 20.00     0.019 C 
ENDBRANCH   7  10
ENDBRANCH   5   6
TORSDOF 2
ENDMDL
