MODEL 1
REMARK VINA RESULT:      -5.2      0.000      0.000
REMARK  2 active torsions:
REMARK  status: ('A' for Active; 'I' for Inactive)
REMARK    1  A    between atoms: C1_1  and  C3_3 
REMARK    2  A    between atoms: C2_2  and  C9_9 
ROOT
HETATM    1  C1  UNL     1     -32.591   7.968   2.664  1.00 20.00    -0.071 C 
HETATM    2  C2  UNL     1     -33.278   7.140   3.197  1.00 20.00    -0.095 C 
ENDROOT
BRANCH   1   3
HETATM    3  C3  UNL     1     -31.755   8.977   2.015  1.00 20.00     0.229 A 
HETATM    4  C4  UNL     1     -32.154   9.555   0.698  1.00 20.00     0.160 A 
HETATM    5  C5  UNL     1     -33.395   9.197  -0.038  1.00 20.00     0.043 C 
HETATM    6  O10 UNL     1     -31.193   8.499   0.797  1.00 20.00    -0.363 OA
ENDBRANCH   1   3
BRANCH   2   7
HETATM    7  C9  UNL     1     -34.123   6.118   3.855  1.00 20.00     0.013 C 
HETATM    8  C6  UNL     1     -35.566   6.246   3.350  1.00 20.00     0.028 C 
HETATM    9  C7  UNL     1     -34.089   6.330   5.375  1.00 20.00     0.028 C 
HETATM   10  C8  UNL     1     -33.584   4.719   3.520  1.00 20.00     0.028 C 
ENDBRANCH   2   7
TORSDOF 2
ENDMDL
MODEL 2
REMARK VINA RESULT:      -5.2      0.002      1.374
REMARK  2 active torsions:
REMARK  status: ('A' for Active; 'I' for Inactive)
REMARK    1  A    between atoms: C1_1  and  C3_3 
REMARK    2  A    between atoms: C2_2  and  C9_9 
ROOT
HETATM    1  C1  UNL     1     -32.591   7.966   2.664  1.00 20.00    -0.071 C 
HETATM    2  C2  UNL     1     -33.277   7.137   3.196  1.00 20.00    -0.095 C 
ENDROOT
BRANCH   1   3
HETATM    3  C3  UNL     1     -31.754   8.975   2.015  1.00 20.00     0.229 A 
HETATM    4  C4  UNL     1     -32.153   9.555   0.700  1.00 20.00     0.160 A 
HETATM    5  C5  UNL     1     -33.395   9.198  -0.036  1.00 20.00     0.043 C 
HETATM    6  O10 UNL     1     -31.194   8.497   0.796  1.00 20.00    -0.363 OA
ENDBRANCH   1   3
BRANCH   2   7
HETATM    7  C9  UNL     1     -34.123   6.116   3.855  1.00 20.00     0.013 C 
HETATM    8  C6  UNL     1     -33.586   4.717   3.523  1.00 20.00     0.028 C 
HETATM    9  C7  UNL     1     -35.567   6.246   3.349  1.00 20.00     0.028 C 
HETATM   10  C8  UNL     1     -34.090   6.331   5.375  1.00 20.00     0.028 C 
ENDBRANCH   2   7
TORSDOF 2
ENDMDL
MODEL 3
REMARK VINA RESULT:      -4.8      1.949      4.817
REMARK  2 active torsions:
REMARK  status: ('A' for Active; 'I' for Inactive)
REMARK    1  A    between atoms: C1_1  and  C3_3 
REMARK    2  A    between atoms: C2_2  and  C9_9 
ROOT
HETATM    1  C1  UNL     1     -33.377   7.670   2.858  1.00 20.00    -0.071 C 
HETATM    2  C2  UNL     1     -32.953   8.374   1.983  1.00 20.00    -0.095 C 
ENDROOT
BRANCH   1   3
HETATM    3  C3  UNL     1     -33.893   6.813   3.925  1.00 20.00     0.229 A 
HETATM    4  C4  UNL     1     -33.818   5.328   3.803  1.00 20.00     0.160 A 
HETATM    5  C5  UNL     1     -33.216   4.607   2.650  1.00 20.00     0.043 C 
HETATM    6  O10 UNL     1     -35.016   6.048   3.495  1.00 20.00    -0.363 OA
ENDBRANCH   1   3
BRANCH   2   7
HETATM    7  C9  UNL     1     -32.432   9.241   0.902  1.00 20.00     0.013 C 
HETATM    8  C6  UNL     1     -33.331   9.112  -0.335  1.00 20.00     0.028 C 
HETATM    9  C7  UNL     1     -31.003   8.808   0.546  1.00 20.00     0.028 C 
HETATM   10  C8  UNL     1     -32.422  10.701   1.380  1.00 20.00     0.028 C 
ENDBRANCH   2   7
TORSDOF 2
ENDMDL
MODEL 4
REMARK VINA RESULT:      -4.4      1.838      4.834
REMARK  2 active torsions:
REMARK  status: ('A' for Active; 'I' for Inactive)
REMARK    1  A    between atoms: C1_1  and  C3_3 
REMARK    2  A    between atoms: C2_2  and  C9_9 
ROOT
HETATM    1  C1  UNL     1     -33.682   7.224   2.445  1.00 20.00    -0.071 C 
HETATM    2  C2  UNL     1     -33.150   8.069   1.778  1.00 20.00    -0.095 C 
ENDROOT
BRANCH   1   3
HETATM    3  C3  UNL     1     -34.331   6.195   3.257  1.00 20.00     0.229 A 
HETATM    4  C4  UNL     1     -34.281   6.265   4.746  1.00 20.00     0.160 A 
HETATM    5  C5  UNL     1     -33.618   7.352   5.517  1.00 20.00     0.043 C 
HETATM    6  O10 UNL     1     -33.386   5.432   4.002  1.00 20.00    -0.363 OA
ENDBRANCH   1   3
BRANCH   2   7
HETATM    7  C9  UNL     1     -32.496   9.110   0.955  1.00 20.00     0.013 C 
HETATM    8  C6  UNL     1     -33.170   9.171  -0.423  1.00 20.00     0.028 C 
HETATM    9  C7  UNL     1     -31.009   8.767   0.785  1.00 20.00     0.028 C 
HETATM   10  C8  UNL     1     -32.632  10.472   1.653  1.00 20.00     0.028 C 
ENDBRANCH   2   7
TORSDOF 2
ENDMDL
MODEL 5
REMARK VINA RESULT:      -4.2      2.120      4.863
REMARK  2 active torsions:
REMARK  status: ('A' for Active; 'I' for Inactive)
REMARK    1  A    between atoms: C1_1  and  C3_3 
REMARK    2  A    between atoms: C2_2  and  C9_9 
ROOT
HETATM    1  C1  UNL     1     -33.771   6.669   2.821  1.00 20.00    -0.071 C 
HETATM    2  C2  UNL     1     -33.027   7.542   2.465  1.00 20.00    -0.095 C 
ENDROOT
BRANCH   1   3
HETATM    3  C3  UNL     1     -34.676   5.607   3.256  1.00 20.00     0.229 A 
HETATM    4  C4  UNL     1     -34.911   5.362   4.709  1.00 20.00     0.160 A 
HETATM    5  C5  UNL     1     -34.295   6.154   5.807  1.00 20.00     0.043 C 
HETATM    6  O10 UNL     1     -33.987   4.573   3.953  1.00 20.00    -0.363 OA
ENDBRANCH   1   3
BRANCH   2   7
HETATM    7  C9  UNL     1     -32.110   8.618   2.026  1.00 20.00     0.013 C 
HETATM    8  C6  UNL     1     -32.909   9.910   1.805  1.00 20.00     0.028 C 
HETATM    9  C7  UNL     1     -31.427   8.205   0.715  1.00 20.00     0.028 C 
HETATM   10  C8  UNL     1     -31.045   8.853   3.108  1.00 20.00     0.028 C 
ENDBRANCH   2   7
TORSDOF 2
ENDMDL
MODEL 6
REMARK VINA RESULT:      -4.2     10.288     10.969
REMARK  2 active torsions:
REMARK  status: ('A' for Active; 'I' for Inactive)
REMARK    1  A    between atoms: C1_1  and  C3_3 
REMARK    2  A    between atoms: C2_2  and  C9_9 
ROOT
HETATM    1  C1  UNL     1     -34.256  15.570  -3.685  1.00 20.00    -0.071 C 
HETATM    2  C2  UNL     1     -34.312  16.452  -2.873  1.00 20.00    -0.095 C 
ENDROOT
BRANCH   1   3
HETATM    3  C3  UNL     1     -34.189  14.494  -4.674  1.00 20.00     0.229 A 
HETATM    4  C4  UNL     1     -35.438  13.919  -5.251  1.00 20.00     0.160 A 
HETATM    5  C5  UNL     1     -36.812  14.376  -4.911  1.00 20.00     0.043 C 
HETATM    6  O10 UNL     1     -34.741  13.279  -4.177  1.00 20.00    -0.363 OA
ENDBRANCH   1   3
BRANCH   2   7
HETATM    7  C9  UNL     1     -34.383  17.540  -1.873  1.00 20.00     0.013 C 
HETATM    8  C6  UNL     1     -34.949  18.806  -2.532  1.00 20.00     0.028 C 
HETATM    9  C7  UNL     1     -32.976  17.828  -1.331  1.00 20.00     0.028 C 
HETATM   10  C8  UNL     1     -35.300  17.111  -0.717  1.00 20.00     0.028 C 
ENDBRANCH   2   7
TORSDOF 2
ENDMDL
MODEL 7
REMARK VINA RESULT:      -4.2     10.285     11.015
REMARK  2 active torsions:
REMARK  status: ('A' for Active; 'I' for Inactive)
REMARK    1  A    between atoms: C1_1  and  C3_3 
REMARK    2  A    between atoms: C2_2  and  C9_9 
ROOT
HETATM    1  C1  UNL     1     -34.232  15.594  -3.657  1.00 20.00    -0.071 C 
HETATM    2  C2  UNL     1     -34.294  16.477  -2.845  1.00 20.00    -0.095 C 
ENDROOT
BRANCH   1   3
HETATM    3  C3  UNL     1     -34.156  14.519  -4.645  1.00 20.00     0.229 A 
HETATM    4  C4  UNL     1     -35.400  13.956  -5.246  1.00 20.00     0.160 A 
HETATM    5  C5  UNL     1     -36.775  14.427  -4.931  1.00 20.00     0.043 C 
HETATM    6  O10 UNL     1     -34.729  13.309  -4.160  1.00 20.00    -0.363 OA
ENDBRANCH   1   3
BRANCH   2   7
HETATM    7  C9  UNL     1     -34.372  17.563  -1.843  1.00 20.00     0.013 C 
HETATM    8  C6  UNL     1     -32.966  17.871  -1.311  1.00 20.00     0.028 C 
HETATM    9  C7  UNL     1     -35.276  17.124  -0.683  1.00 20.00     0.028 C 
HETATM   10  C8  UNL     1     -34.958  18.822  -2.501  1.00 20.00     0.028 C 
ENDBRANCH   2   7
TORSDOF 2
ENDMDL
MODEL 8
REMARK VINA RESULT:      -4.0     10.250     11.196
REMARK  2 active torsions:
REMARK  status: ('A' for Active; 'I' for Inactive)
REMARK    1  A    between atoms: C1_1  and  C3_3 
REMARK    2  A    between atoms: C2_2  and  C9_9 
ROOT
HETATM    1  C1  UNL     1     -34.513  15.480  -3.457  1.00 20.00    -0.071 C 
HETATM    2  C2  UNL     1     -34.476  16.416  -2.706  1.00 20.00    -0.095 C 
ENDROOT
BRANCH   1   3
HETATM    3  C3  UNL     1     -34.558  14.340  -4.372  1.00 20.00     0.229 A 
HETATM    4  C4  UNL     1     -34.030  14.465  -5.761  1.00 20.00     0.160 A 
HETATM    5  C5  UNL     1     -33.412  15.698  -6.319  1.00 20.00     0.043 C 
HETATM    6  O10 UNL     1     -35.427  14.578  -5.475  1.00 20.00    -0.363 OA
ENDBRANCH   1   3
BRANCH   2   7
HETATM    7  C9  UNL     1     -34.429  17.571  -1.781  1.00 20.00     0.013 C 
HETATM    8  C6  UNL     1     -34.990  18.814  -2.486  1.00 20.00     0.028 C 
HETATM    9  C7  UNL     1     -32.975  17.830  -1.362  1.00 20.00     0.028 C 
HETATM   10  C8  UNL     1     -35.275  17.262  -0.537  1.00 20.00     0.028 C 
ENDBRANCH   2   7
TORSDOF 2
ENDMDL
MODEL 9
REMARK VINA RESULT:      -3.8     10.307     11.288
REMARK  2 active torsions:
REMARK  status: ('A' for Active; 'I' for Inactive)
REMARK    1  A    between atoms: C1_1  and  C3_3 
REMARK    2  A    between atoms: C2_2  and  C9_9 
ROOT
HETATM    1  C1  UNL     1     -33.478  17.155  -2.172  1.00 20.00    -0.071 C 
HETATM    2  C2  UNL     1     -33.676  16.453  -3.126  1.00 20.00    -0.095 C 
ENDROOT
BRANCH   1   3
HETATM    3  C3  UNL     1     -33.236  18.011  -1.011  1.00 20.00     0.229 A 
HETATM    4  C4  UNL     1     -34.279  18.165   0.043  1.00 20.00     0.160 A 
HETATM    5  C5  UNL     1     -35.598  17.477   0.031  1.00 20.00     0.043 C 
HETATM    6  O10 UNL     1     -34.106  19.138  -0.992  1.00 20.00    -0.363 OA
ENDBRANCH   1   3
BRANCH   2   7
HETATM    7  C9  UNL     1     -33.921  15.588  -4.302  1.00 20.00     0.013 C 
HETATM    8  C6  UNL     1     -33.680  16.393  -5.587  1.00 20.00     0.028 C 
HETATM    9  C7  UNL     1     -35.372  15.087  -4.274  1.00 20.00     0.028 C 
HETATM   10  C8  UNL     1     -32.963  14.389  -4.261  1.00 20.00     0.028 C 
ENDBRANCH   2   7
TORSDOF 2
ENDMDL
