MODEL 1
REMARK VINA RESULT:      -4.8      0.000      0.000
REMARK  3 active torsions:
REMARK  status: ('A' for Active; 'I' for Inactive)
REMARK    1  A    between atoms: C2_2  and  C6_6 
REMARK    2  A    between atoms: C2_2  and  O9_9 
REMARK    3  A    between atoms: C5_5  and  C6_6 
ROOT
HETATM    1  C1  UNL     1     -33.269   5.730   2.998  1.00 20.00     0.074 C 
HETATM    2  C6  UNL     1     -33.436   7.128   3.437  1.00 20.00     0.192 C 
HETATM    3  N7  UNL     1     -33.140   4.631   2.647  1.00 20.00    -0.196 NA
ENDROOT
BRANCH   2   4
HETATM    4  C2  UNL     1     -32.294   8.003   2.949  1.00 20.00     0.276 C 
HETATM    5  O8  UNL     1     -31.353   8.378   3.637  1.00 20.00    -0.264 OA
BRANCH   4   6
HETATM    6  O9  UNL     1     -32.489   8.314   1.632  1.00 20.00    -0.325 OA
HETATM    7  C4  UNL     1     -32.462   9.710   1.317  1.00 20.00     0.213 C 
ENDBRANCH   4   6
ENDBRANCH   2   4
BRANCH   2   8
HETATM    8  C5  UNL     1     -33.607   7.220   4.962  1.00 20.00     0.025 C 
HETATM    9  C3  UNL     1     -34.412   6.078   5.578  1.00 20.00     0.007 C 
ENDBRANCH   2   8
TORSDOF 3
ENDMDL
MODEL 2
REMARK VINA RESULT:      -4.6      2.511      4.029
REMARK  3 active torsions:
REMARK  status: ('A' for Active; 'I' for Inactive)
REMARK    1  A    between atoms: C2_2  and  C6_6 
REMARK    2  A    between atoms: C2_2  and  O9_9 
REMARK    3  A    between atoms: C5_5  and  C6_6 
ROOT
HETATM    1  C1  UNL     1     -33.508   7.421   4.999  1.00 20.00     0.074 C 
HETATM    2  C6  UNL     1     -33.383   7.232   3.541  1.00 20.00     0.192 C 
HETATM    3  N7  UNL     1     -33.612   7.570   6.145  1.00 20.00    -0.196 NA
ENDROOT
BRANCH   2   4
HETATM    4  C2  UNL     1     -33.572   5.775   3.153  1.00 20.00     0.276 C 
HETATM    5  O8  UNL     1     -32.847   5.151   2.390  1.00 20.00    -0.264 OA
BRANCH   4   6
HETATM    6  O9  UNL     1     -34.683   5.278   3.777  1.00 20.00    -0.325 OA
HETATM    7  C4  UNL     1     -34.465   4.135   4.610  1.00 20.00     0.213 C 
ENDBRANCH   4   6
ENDBRANCH   2   4
BRANCH   2   8
HETATM    8  C5  UNL     1     -32.050   7.788   3.016  1.00 20.00     0.025 C 
HETATM    9  C3  UNL     1     -32.184   8.731   1.823  1.00 20.00     0.007 C 
ENDBRANCH   2   8
TORSDOF 3
ENDMDL
MODEL 3
REMARK VINA RESULT:      -4.5      2.532      3.854
REMARK  3 active torsions:
REMARK  status: ('A' for Active; 'I' for Inactive)
REMARK    1  A    between atoms: C2_2  and  C6_6 
REMARK    2  A    between atoms: C2_2  and  O9_9 
REMARK    3  A    between atoms: C5_5  and  C6_6 
ROOT
HETATM    1  C1  UNL     1     -32.404   7.784   3.343  1.00 20.00     0.074 C 
HETATM    2  C6  UNL     1     -33.753   7.227   3.561  1.00 20.00     0.192 C 
HETATM    3  N7  UNL     1     -31.346   8.227   3.173  1.00 20.00    -0.196 NA
ENDROOT
BRANCH   2   4
HETATM    4  C2  UNL     1     -33.977   6.875   5.022  1.00 20.00     0.276 C 
HETATM    5  O8  UNL     1     -33.375   7.371   5.965  1.00 20.00    -0.264 OA
BRANCH   4   6
HETATM    6  O9  UNL     1     -34.943   5.911   5.115  1.00 20.00    -0.325 OA
HETATM    7  C4  UNL     1     -34.603   4.771   5.910  1.00 20.00     0.213 C 
ENDBRANCH   4   6
ENDBRANCH   2   4
BRANCH   2   8
HETATM    8  C5  UNL     1     -34.018   6.024   2.642  1.00 20.00     0.025 C 
HETATM    9  C3  UNL     1     -32.908   4.976   2.635  1.00 20.00     0.007 C 
ENDBRANCH   2   8
TORSDOF 3
ENDMDL
MODEL 4
REMARK VINA RESULT:      -4.4      1.237      1.512
REMARK  3 active torsions:
REMARK  status: ('A' for Active; 'I' for Inactive)
REMARK    1  A    between atoms: C2_2  and  C6_6 
REMARK    2  A    between atoms: C2_2  and  O9_9 
REMARK    3  A    between atoms: C5_5  and  C6_6 
ROOT
HETATM    1  C1  UNL     1     -33.296   5.181   2.825  1.00 20.00     0.074 C 
HETATM    2  C6  UNL     1     -33.972   6.335   3.449  1.00 20.00     0.192 C 
HETATM    3  N7  UNL     1     -32.764   4.277   2.330  1.00 20.00    -0.196 NA
ENDROOT
BRANCH   2   4
HETATM    4  C2  UNL     1     -32.971   7.295   4.068  1.00 20.00     0.276 C 
HETATM    5  O8  UNL     1     -33.026   7.728   5.212  1.00 20.00    -0.264 OA
BRANCH   4   6
HETATM    6  O9  UNL     1     -32.011   7.610   3.146  1.00 20.00    -0.325 OA
HETATM    7  C4  UNL     1     -32.406   8.544   2.137  1.00 20.00     0.213 C 
ENDBRANCH   4   6
ENDBRANCH   2   4
BRANCH   2   8
HETATM    8  C5  UNL     1     -35.027   5.881   4.471  1.00 20.00     0.025 C 
HETATM    9  C3  UNL     1     -34.591   4.716   5.356  1.00 20.00     0.007 C 
ENDBRANCH   2   8
TORSDOF 3
ENDMDL
MODEL 5
REMARK VINA RESULT:      -4.3      1.748      2.066
REMARK  3 active torsions:
REMARK  status: ('A' for Active; 'I' for Inactive)
REMARK    1  A    between atoms: C2_2  and  C6_6 
REMARK    2  A    between atoms: C2_2  and  O9_9 
REMARK    3  A    between atoms: C5_5  and  C6_6 
ROOT
HETATM    1  C1  UNL     1     -33.396   7.170   5.068  1.00 20.00     0.074 C 
HETATM    2  C6  UNL     1     -32.947   6.743   3.728  1.00 20.00     0.192 C 
HETATM    3  N7  UNL     1     -33.744   7.504   6.123  1.00 20.00    -0.196 NA
ENDROOT
BRANCH   2   4
HETATM    4  C2  UNL     1     -32.204   7.858   3.012  1.00 20.00     0.276 C 
HETATM    5  O8  UNL     1     -31.203   8.421   3.435  1.00 20.00    -0.264 OA
BRANCH   4   6
HETATM    6  O9  UNL     1     -32.836   8.142   1.832  1.00 20.00    -0.325 OA
HETATM    7  C4  UNL     1     -32.185   9.107   1.000  1.00 20.00     0.213 C 
ENDBRANCH   4   6
ENDBRANCH   2   4
BRANCH   2   8
HETATM    8  C5  UNL     1     -34.118   6.212   2.887  1.00 20.00     0.025 C 
HETATM    9  C3  UNL     1     -35.330   5.765   3.700  1.00 20.00     0.007 C 
ENDBRANCH   2   8
TORSDOF 3
ENDMDL
MODEL 6
REMARK VINA RESULT:      -4.2      2.455      3.536
REMARK  3 active torsions:
REMARK  status: ('A' for Active; 'I' for Inactive)
REMARK    1  A    between atoms: C2_2  and  C6_6 
REMARK    2  A    between atoms: C2_2  and  O9_9 
REMARK    3  A    between atoms: C5_5  and  C6_6 
ROOT
HETATM    1  C1  UNL     1     -32.531   7.834   2.428  1.00 20.00     0.074 C 
HETATM    2  C6  UNL     1     -32.876   6.943   3.551  1.00 20.00     0.192 C 
HETATM    3  N7  UNL     1     -32.255   8.533   1.544  1.00 20.00    -0.196 NA
ENDROOT
BRANCH   2   4
HETATM    4  C2  UNL     1     -33.386   5.599   3.056  1.00 20.00     0.276 C 
HETATM    5  O8  UNL     1     -32.837   4.909   2.207  1.00 20.00    -0.264 OA
BRANCH   4   6
HETATM    6  O9  UNL     1     -34.555   5.292   3.695  1.00 20.00    -0.325 OA
HETATM    7  C4  UNL     1     -34.502   4.161   4.570  1.00 20.00     0.213 C 
ENDBRANCH   4   6
ENDBRANCH   2   4
BRANCH   2   8
HETATM    8  C5  UNL     1     -33.876   7.608   4.510  1.00 20.00     0.025 C 
HETATM    9  C3  UNL     1     -33.543   7.439   5.990  1.00 20.00     0.007 C 
ENDBRANCH   2   8
TORSDOF 3
ENDMDL
MODEL 7
REMARK VINA RESULT:      -4.2      1.701      1.983
REMARK  3 active torsions:
REMARK  status: ('A' for Active; 'I' for Inactive)
REMARK    1  A    between atoms: C2_2  and  C6_6 
REMARK    2  A    between atoms: C2_2  and  O9_9 
REMARK    3  A    between atoms: C5_5  and  C6_6 
ROOT
HETATM    1  C1  UNL     1     -34.586   5.204   4.347  1.00 20.00     0.074 C 
HETATM    2  C6  UNL     1     -34.215   6.500   3.747  1.00 20.00     0.192 C 
HETATM    3  N7  UNL     1     -34.880   4.183   4.814  1.00 20.00    -0.196 NA
ENDROOT
BRANCH   2   4
HETATM    4  C2  UNL     1     -32.944   6.385   2.923  1.00 20.00     0.276 C 
HETATM    5  O8  UNL     1     -32.610   5.400   2.278  1.00 20.00    -0.264 OA
BRANCH   4   6
HETATM    6  O9  UNL     1     -32.227   7.546   3.027  1.00 20.00    -0.325 OA
HETATM    7  C4  UNL     1     -32.118   8.314   1.824  1.00 20.00     0.213 C 
ENDBRANCH   4   6
ENDBRANCH   2   4
BRANCH   2   8
HETATM    8  C5  UNL     1     -34.100   7.599   4.814  1.00 20.00     0.025 C 
HETATM    9  C3  UNL     1     -33.755   7.092   6.212  1.00 20.00     0.007 C 
ENDBRANCH   2   8
TORSDOF 3
ENDMDL
MODEL 8
REMARK VINA RESULT:      -3.9     10.986     11.903
REMARK  3 active torsions:
REMARK  status: ('A' for Active; 'I' for Inactive)
REMARK    1  A    between atoms: C2_2  and  C6_6 
REMARK    2  A    between atoms: C2_2  and  O9_9 
REMARK    3  A    between atoms: C5_5  and  C6_6 
ROOT
HETATM    1  C1  UNL     1     -36.812  14.114  -5.237  1.00 20.00     0.074 C 
HETATM    2  C6  UNL     1     -35.387  14.373  -5.516  1.00 20.00     0.192 C 
HETATM    3  N7  UNL     1     -37.935  13.914  -5.022  1.00 20.00    -0.196 NA
ENDROOT
BRANCH   2   4
HETATM    4  C2  UNL     1     -34.868  13.476  -6.628  1.00 20.00     0.276 C 
HETATM    5  O8  UNL     1     -35.143  12.291  -6.760  1.00 20.00    -0.264 OA
BRANCH   4   6
HETATM    6  O9  UNL     1     -34.040  14.196  -7.445  1.00 20.00    -0.325 OA
HETATM    7  C4  UNL     1     -34.491  15.512  -7.777  1.00 20.00     0.213 C 
ENDBRANCH   4   6
ENDBRANCH   2   4
BRANCH   2   8
HETATM    8  C5  UNL     1     -34.534  14.247  -4.244  1.00 20.00     0.025 C 
HETATM    9  C3  UNL     1     -33.694  15.480  -3.920  1.00 20.00     0.007 C 
ENDBRANCH   2   8
TORSDOF 3
ENDMDL
MODEL 9
REMARK VINA RESULT:      -3.9      1.885      3.568
REMARK  3 active torsions:
REMARK  status: ('A' for Active; 'I' for Inactive)
REMARK    1  A    between atoms: C2_2  and  C6_6 
REMARK    2  A    between atoms: C2_2  and  O9_9 
REMARK    3  A    between atoms: C5_5  and  C6_6 
ROOT
HETATM    1  C1  UNL     1     -32.922   5.614   2.842  1.00 20.00     0.074 C 
HETATM    2  C6  UNL     1     -32.793   6.918   3.521  1.00 20.00     0.192 C 
HETATM    3  N7  UNL     1     -33.019   4.587   2.311  1.00 20.00    -0.196 NA
ENDROOT
BRANCH   2   4
HETATM    4  C2  UNL     1     -33.657   6.980   4.769  1.00 20.00     0.276 C 
HETATM    5  O8  UNL     1     -33.451   7.709   5.730  1.00 20.00    -0.264 OA
BRANCH   4   6
HETATM    6  O9  UNL     1     -34.687   6.088   4.655  1.00 20.00    -0.325 OA
HETATM    7  C4  UNL     1     -34.715   5.049   5.639  1.00 20.00     0.213 C 
ENDBRANCH   4   6
ENDBRANCH   2   4
BRANCH   2   8
HETATM    8  C5  UNL     1     -33.097   8.081   2.564  1.00 20.00     0.025 C 
HETATM    9  C3  UNL     1     -31.910   8.532   1.717  1.00 20.00     0.007 C 
ENDBRANCH   2   8
TORSDOF 3
ENDMDL
