MODEL 1
REMARK VINA RESULT:      -6.0      0.000      0.000
REMARK  1 active torsions:
REMARK  status: ('A' for Active; 'I' for Inactive)
REMARK    1  A    between atoms: C2_2  and  C4_4 
ROOT
HETATM    1  C1  UNL     1     -32.366   7.446   2.809  1.00 20.00     0.236 A 
HETATM    2  C2  UNL     1     -33.766   6.391   4.073  1.00 20.00     0.199 A 
HETATM    3  C3  UNL     1     -33.135   7.358   4.827  1.00 20.00     0.245 A 
HETATM    4  N5  UNL     1     -33.279   6.452   2.815  1.00 20.00    -0.233 NA
HETATM    5  N6  UNL     1     -32.263   8.012   4.030  1.00 20.00    -0.212 NA
HETATM    6  F7  UNL     1     -33.343   7.610   6.119  1.00 20.00    -0.182 F 
ENDROOT
BRANCH   2   7
HETATM    7  C4  UNL     1     -34.793   5.411   4.446  1.00 20.00     0.439 C 
HETATM    8  F8  UNL     1     -34.510   4.117   4.074  1.00 20.00    -0.164 F 
HETATM    9  F9  UNL     1     -35.035   5.324   5.798  1.00 20.00    -0.164 F 
HETATM   10  F10 UNL     1     -36.024   5.667   3.891  1.00 20.00    -0.164 F 
ENDBRANCH   2   7
TORSDOF 1
ENDMDL
MODEL 2
REMARK VINA RESULT:      -5.9      0.067      1.192
REMARK  1 active torsions:
REMARK  status: ('A' for Active; 'I' for Inactive)
REMARK    1  A    between atoms: C2_2  and  C4_4 
ROOT
HETATM    1  C1  UNL     1     -32.336   7.519   2.830  1.00 20.00     0.236 A 
HETATM    2  C2  UNL     1     -33.749   6.445   4.064  1.00 20.00     0.199 A 
HETATM    3  C3  UNL     1     -33.108   7.385   4.844  1.00 20.00     0.245 A 
HETATM    4  N5  UNL     1     -33.260   6.536   2.808  1.00 20.00    -0.233 NA
HETATM    5  N6  UNL     1     -32.229   8.051   4.066  1.00 20.00    -0.212 NA
HETATM    6  F7  UNL     1     -33.316   7.605   6.142  1.00 20.00    -0.182 F 
ENDROOT
BRANCH   2   7
HETATM    7  C4  UNL     1     -34.787   5.466   4.409  1.00 20.00     0.439 C 
HETATM    8  F8  UNL     1     -35.049   5.362   5.756  1.00 20.00    -0.164 F 
HETATM    9  F9  UNL     1     -36.018   5.719   3.848  1.00 20.00    -0.164 F 
HETATM   10  F10 UNL     1     -34.485   4.184   4.016  1.00 20.00    -0.164 F 
ENDBRANCH   2   7
TORSDOF 1
ENDMDL
MODEL 3
REMARK VINA RESULT:      -5.6      2.306      3.278
REMARK  1 active torsions:
REMARK  status: ('A' for Active; 'I' for Inactive)
REMARK    1  A    between atoms: C2_2  and  C4_4 
ROOT
HETATM    1  C1  UNL     1     -34.698   4.725   4.611  1.00 20.00     0.236 A 
HETATM    2  C2  UNL     1     -33.583   6.517   4.143  1.00 20.00     0.199 A 
HETATM    3  C3  UNL     1     -34.034   6.605   5.444  1.00 20.00     0.245 A 
HETATM    4  N5  UNL     1     -34.003   5.340   3.630  1.00 20.00    -0.233 NA
HETATM    5  N6  UNL     1     -34.728   5.483   5.727  1.00 20.00    -0.212 NA
HETATM    6  F7  UNL     1     -33.824   7.620   6.282  1.00 20.00    -0.182 F 
ENDROOT
BRANCH   2   7
HETATM    7  C4  UNL     1     -32.787   7.456   3.343  1.00 20.00     0.439 C 
HETATM    8  F8  UNL     1     -33.521   8.437   2.717  1.00 20.00    -0.164 F 
HETATM    9  F9  UNL     1     -31.839   8.152   4.057  1.00 20.00    -0.164 F 
HETATM   10  F10 UNL     1     -32.082   6.853   2.329  1.00 20.00    -0.164 F 
ENDBRANCH   2   7
TORSDOF 1
ENDMDL
MODEL 4
REMARK VINA RESULT:      -5.6      2.246      3.186
REMARK  1 active torsions:
REMARK  status: ('A' for Active; 'I' for Inactive)
REMARK    1  A    between atoms: C2_2  and  C4_4 
ROOT
HETATM    1  C1  UNL     1     -34.025   7.119   6.012  1.00 20.00     0.236 A 
HETATM    2  C2  UNL     1     -33.770   6.166   4.089  1.00 20.00     0.199 A 
HETATM    3  C3  UNL     1     -34.481   5.315   4.911  1.00 20.00     0.245 A 
HETATM    4  N5  UNL     1     -33.490   7.289   4.785  1.00 20.00    -0.233 NA
HETATM    5  N6  UNL     1     -34.635   5.918   6.109  1.00 20.00    -0.212 NA
HETATM    6  F7  UNL     1     -34.938   4.107   4.587  1.00 20.00    -0.182 F 
ENDROOT
BRANCH   2   7
HETATM    7  C4  UNL     1     -33.334   6.003   2.697  1.00 20.00     0.439 C 
HETATM    8  F8  UNL     1     -32.677   4.822   2.438  1.00 20.00    -0.164 F 
HETATM    9  F9  UNL     1     -34.354   6.026   1.773  1.00 20.00    -0.164 F 
HETATM   10  F10 UNL     1     -32.464   6.980   2.276  1.00 20.00    -0.164 F 
ENDBRANCH   2   7
TORSDOF 1
ENDMDL
MODEL 5
REMARK VINA RESULT:      -5.5      1.165      1.960
REMARK  1 active torsions:
REMARK  status: ('A' for Active; 'I' for Inactive)
REMARK    1  A    between atoms: C2_2  and  C4_4 
ROOT
HETATM    1  C1  UNL     1     -32.416   7.809   3.541  1.00 20.00     0.236 A 
HETATM    2  C2  UNL     1     -33.744   6.142   3.905  1.00 20.00     0.199 A 
HETATM    3  C3  UNL     1     -32.928   5.830   2.837  1.00 20.00     0.245 A 
HETATM    4  N5  UNL     1     -33.418   7.380   4.338  1.00 20.00    -0.233 NA
HETATM    5  N6  UNL     1     -32.102   6.876   2.618  1.00 20.00    -0.212 NA
HETATM    6  F7  UNL     1     -32.945   4.696   2.139  1.00 20.00    -0.182 F 
ENDROOT
BRANCH   2   7
HETATM    7  C4  UNL     1     -34.810   5.365   4.550  1.00 20.00     0.439 C 
HETATM    8  F8  UNL     1     -34.670   4.001   4.437  1.00 20.00    -0.164 F 
HETATM    9  F9  UNL     1     -34.931   5.578   5.903  1.00 20.00    -0.164 F 
HETATM   10  F10 UNL     1     -36.061   5.625   4.046  1.00 20.00    -0.164 F 
ENDBRANCH   2   7
TORSDOF 1
ENDMDL
MODEL 6
REMARK VINA RESULT:      -5.5      1.168      2.298
REMARK  1 active torsions:
REMARK  status: ('A' for Active; 'I' for Inactive)
REMARK    1  A    between atoms: C2_2  and  C4_4 
ROOT
HETATM    1  C1  UNL     1     -32.403   7.825   3.563  1.00 20.00     0.236 A 
HETATM    2  C2  UNL     1     -33.739   6.161   3.911  1.00 20.00     0.199 A 
HETATM    3  C3  UNL     1     -32.925   5.856   2.839  1.00 20.00     0.245 A 
HETATM    4  N5  UNL     1     -33.406   7.392   4.356  1.00 20.00    -0.233 NA
HETATM    5  N6  UNL     1     -32.094   6.899   2.630  1.00 20.00    -0.212 NA
HETATM    6  F7  UNL     1     -32.948   4.729   2.129  1.00 20.00    -0.182 F 
ENDROOT
BRANCH   2   7
HETATM    7  C4  UNL     1     -34.807   5.383   4.549  1.00 20.00     0.439 C 
HETATM    8  F8  UNL     1     -34.942   5.599   5.901  1.00 20.00    -0.164 F 
HETATM    9  F9  UNL     1     -36.065   5.621   4.045  1.00 20.00    -0.164 F 
HETATM   10  F10 UNL     1     -34.641   4.023   4.432  1.00 20.00    -0.164 F 
ENDBRANCH   2   7
TORSDOF 1
ENDMDL
MODEL 7
REMARK VINA RESULT:      -5.3      2.378      3.770
REMARK  1 active torsions:
REMARK  status: ('A' for Active; 'I' for Inactive)
REMARK    1  A    between atoms: C2_2  and  C4_4 
ROOT
HETATM    1  C1  UNL     1     -34.784   4.991   5.385  1.00 20.00     0.236 A 
HETATM    2  C2  UNL     1     -33.618   6.167   3.995  1.00 20.00     0.199 A 
HETATM    3  C3  UNL     1     -33.708   4.877   3.514  1.00 20.00     0.245 A 
HETATM    4  N5  UNL     1     -34.292   6.228   5.164  1.00 20.00    -0.233 NA
HETATM    5  N6  UNL     1     -34.437   4.151   4.387  1.00 20.00    -0.212 NA
HETATM    6  F7  UNL     1     -33.171   4.420   2.383  1.00 20.00    -0.182 F 
ENDROOT
BRANCH   2   7
HETATM    7  C4  UNL     1     -32.946   7.348   3.440  1.00 20.00     0.439 C 
HETATM    8  F8  UNL     1     -32.160   7.093   2.340  1.00 20.00    -0.164 F 
HETATM    9  F9  UNL     1     -33.796   8.344   3.020  1.00 20.00    -0.164 F 
HETATM   10  F10 UNL     1     -32.102   7.968   4.330  1.00 20.00    -0.164 F 
ENDBRANCH   2   7
TORSDOF 1
ENDMDL
MODEL 8
REMARK VINA RESULT:      -5.2      2.538      3.868
REMARK  1 active torsions:
REMARK  status: ('A' for Active; 'I' for Inactive)
REMARK    1  A    between atoms: C2_2  and  C4_4 
ROOT
HETATM    1  C1  UNL     1     -34.264   6.481   5.713  1.00 20.00     0.236 A 
HETATM    2  C2  UNL     1     -33.313   7.148   3.889  1.00 20.00     0.199 A 
HETATM    3  C3  UNL     1     -34.252   6.188   3.571  1.00 20.00     0.245 A 
HETATM    4  N5  UNL     1     -33.328   7.324   5.229  1.00 20.00    -0.233 NA
HETATM    5  N6  UNL     1     -34.840   5.778   4.715  1.00 20.00    -0.212 NA
HETATM    6  F7  UNL     1     -34.534   5.738   2.349  1.00 20.00    -0.182 F 
ENDROOT
BRANCH   2   7
HETATM    7  C4  UNL     1     -32.402   7.913   3.030  1.00 20.00     0.439 C 
HETATM    8  F8  UNL     1     -31.737   7.160   2.089  1.00 20.00    -0.164 F 
HETATM    9  F9  UNL     1     -33.010   8.905   2.295  1.00 20.00    -0.164 F 
HETATM   10  F10 UNL     1     -31.405   8.558   3.722  1.00 20.00    -0.164 F 
ENDBRANCH   2   7
TORSDOF 1
ENDMDL
MODEL 9
REMARK VINA RESULT:      -5.1      2.378      3.050
REMARK  1 active torsions:
REMARK  status: ('A' for Active; 'I' for Inactive)
REMARK    1  A    between atoms: C2_2  and  C4_4 
ROOT
HETATM    1  C1  UNL     1     -34.774   4.737   5.791  1.00 20.00     0.236 A 
HETATM    2  C2  UNL     1     -33.928   5.617   4.007  1.00 20.00     0.199 A 
HETATM    3  C3  UNL     1     -34.055   6.601   4.965  1.00 20.00     0.245 A 
HETATM    4  N5  UNL     1     -34.380   4.456   4.531  1.00 20.00    -0.233 NA
HETATM    5  N6  UNL     1     -34.583   6.043   6.075  1.00 20.00    -0.212 NA
HETATM    6  F7  UNL     1     -33.717   7.882   4.827  1.00 20.00    -0.182 F 
ENDROOT
BRANCH   2   7
HETATM    7  C4  UNL     1     -33.414   5.683   2.634  1.00 20.00     0.439 C 
HETATM    8  F8  UNL     1     -32.848   4.514   2.178  1.00 20.00    -0.164 F 
HETATM    9  F9  UNL     1     -34.361   5.988   1.684  1.00 20.00    -0.164 F 
HETATM   10  F10 UNL     1     -32.433   6.631   2.460  1.00 20.00    -0.164 F 
ENDBRANCH   2   7
TORSDOF 1
ENDMDL
