MODEL 1
REMARK VINA RESULT:      -4.8      0.000      0.000
REMARK  0 active torsions:
REMARK  status: ('A' for Active; 'I' for Inactive)
ROOT
HETATM    1  C1  UNL     1     -35.973  16.548  -2.322  1.00 20.00     0.014 A 
HETATM    2  C2  UNL     1     -35.258  16.149  -3.453  1.00 20.00     0.024 A 
HETATM    3  C3  UNL     1     -36.012  17.614  -0.115  1.00 20.00     0.031 A 
HETATM    4  C4  UNL     1     -33.230  17.045  -2.496  1.00 20.00     0.039 A 
HETATM    5  C5  UNL     1     -35.301  18.253   0.889  1.00 20.00     0.119 A 
HETATM    6  C6  UNL     1     -35.324  17.201  -1.261  1.00 20.00    -0.021 A 
HETATM    7  C7  UNL     1     -33.939  17.451  -1.354  1.00 20.00     0.016 A 
HETATM    8  C8  UNL     1     -33.890  16.397  -3.540  1.00 20.00     0.035 A 
HETATM    9  C9  UNL     1     -33.329  18.103  -0.279  1.00 20.00     0.136 A 
HETATM   10  N10 UNL     1     -33.976  18.508   0.836  1.00 20.00    -0.248 NA
HETATM   11 CL11 UNL     1     -33.015  15.903  -4.938  1.00 20.00    -0.084 Cl
HETATM   12 CL12 UNL     1     -31.648  18.489  -0.219  1.00 20.00    -0.061 Cl
ENDROOT
TORSDOF 0
ENDMDL
MODEL 2
REMARK VINA RESULT:      -4.8      2.168      2.966
REMARK  0 active torsions:
REMARK  status: ('A' for Active; 'I' for Inactive)
ROOT
HETATM    1  C1  UNL     1     -32.870  17.732  -1.552  1.00 20.00     0.014 A 
HETATM    2  C2  UNL     1     -33.668  17.036  -2.463  1.00 20.00     0.024 A 
HETATM    3  C3  UNL     1     -32.625  18.867   0.606  1.00 20.00     0.031 A 
HETATM    4  C4  UNL     1     -35.542  17.192  -0.948  1.00 20.00     0.039 A 
HETATM    5  C5  UNL     1     -33.220  19.263   1.795  1.00 20.00     0.119 A 
HETATM    6  C6  UNL     1     -33.399  18.168  -0.327  1.00 20.00    -0.021 A 
HETATM    7  C7  UNL     1     -34.748  17.892  -0.025  1.00 20.00     0.016 A 
HETATM    8  C8  UNL     1     -35.001  16.767  -2.162  1.00 20.00     0.035 A 
HETATM    9  C9  UNL     1     -35.239  18.341   1.204  1.00 20.00     0.136 A 
HETATM   10  N10 UNL     1     -34.508  19.017   2.117  1.00 20.00    -0.248 NA
HETATM   11 CL11 UNL     1     -35.979  15.908  -3.288  1.00 20.00    -0.084 Cl
HETATM   12 CL12 UNL     1     -36.862  18.095   1.738  1.00 20.00    -0.061 Cl
ENDROOT
TORSDOF 0
ENDMDL
MODEL 3
REMARK VINA RESULT:      -4.8      2.756      4.629
REMARK  0 active torsions:
REMARK  status: ('A' for Active; 'I' for Inactive)
ROOT
HETATM    1  C1  UNL     1     -36.453  16.843  -2.971  1.00 20.00     0.014 A 
HETATM    2  C2  UNL     1     -35.644  17.656  -2.174  1.00 20.00     0.024 A 
HETATM    3  C3  UNL     1     -36.687  14.922  -4.475  1.00 20.00     0.031 A 
HETATM    4  C4  UNL     1     -33.719  16.317  -2.750  1.00 20.00     0.039 A 
HETATM    5  C5  UNL     1     -36.071  13.868  -5.133  1.00 20.00     0.119 A 
HETATM    6  C6  UNL     1     -35.903  15.755  -3.669  1.00 20.00    -0.021 A 
HETATM    7  C7  UNL     1     -34.523  15.493  -3.554  1.00 20.00     0.016 A 
HETATM    8  C8  UNL     1     -34.280  17.394  -2.063  1.00 20.00     0.035 A 
HETATM    9  C9  UNL     1     -34.013  14.402  -4.263  1.00 20.00     0.136 A 
HETATM   10  N10 UNL     1     -34.753  13.587  -5.047  1.00 20.00    -0.248 NA
HETATM   11 CL11 UNL     1     -33.290  18.399  -1.079  1.00 20.00    -0.084 Cl
HETATM   12 CL12 UNL     1     -32.351  13.934  -4.241  1.00 20.00    -0.061 Cl
ENDROOT
TORSDOF 0
ENDMDL
MODEL 4
REMARK VINA RESULT:      -4.8      1.941      2.707
REMARK  0 active torsions:
REMARK  status: ('A' for Active; 'I' for Inactive)
ROOT
HETATM    1  C1  UNL     1     -33.198  17.261  -2.834  1.00 20.00     0.014 A 
HETATM    2  C2  UNL     1     -34.228  16.611  -3.516  1.00 20.00     0.024 A 
HETATM    3  C3  UNL     1     -32.376  18.371  -0.809  1.00 20.00     0.031 A 
HETATM    4  C4  UNL     1     -35.665  16.853  -1.591  1.00 20.00     0.039 A 
HETATM    5  C5  UNL     1     -32.642  18.791   0.485  1.00 20.00     0.119 A 
HETATM    6  C6  UNL     1     -33.389  17.717  -1.520  1.00 20.00    -0.021 A 
HETATM    7  C7  UNL     1     -34.636  17.508  -0.895  1.00 20.00     0.016 A 
HETATM    8  C8  UNL     1     -35.459  16.407  -2.897  1.00 20.00     0.035 A 
HETATM    9  C9  UNL     1     -34.788  17.975   0.413  1.00 20.00     0.136 A 
HETATM   10  N10 UNL     1     -33.823  18.609   1.115  1.00 20.00    -0.248 NA
HETATM   11 CL11 UNL     1     -36.725  15.605  -3.743  1.00 20.00    -0.084 Cl
HETATM   12 CL12 UNL     1     -36.241  17.808   1.330  1.00 20.00    -0.061 Cl
ENDROOT
TORSDOF 0
ENDMDL
MODEL 5
REMARK VINA RESULT:      -4.7      2.817      4.008
REMARK  0 active torsions:
REMARK  status: ('A' for Active; 'I' for Inactive)
ROOT
HETATM    1  C1  UNL     1     -32.161  18.195  -0.750  1.00 20.00     0.014 A 
HETATM    2  C2  UNL     1     -33.330  17.818  -1.414  1.00 20.00     0.024 A 
HETATM    3  C3  UNL     1     -31.040  18.929   1.303  1.00 20.00     0.031 A 
HETATM    4  C4  UNL     1     -34.595  18.134   0.619  1.00 20.00     0.039 A 
HETATM    5  C5  UNL     1     -31.154  19.262   2.644  1.00 20.00     0.119 A 
HETATM    6  C6  UNL     1     -32.194  18.547   0.609  1.00 20.00    -0.021 A 
HETATM    7  C7  UNL     1     -33.424  18.514   1.297  1.00 20.00     0.016 A 
HETATM    8  C8  UNL     1     -34.544  17.787  -0.731  1.00 20.00     0.035 A 
HETATM    9  C9  UNL     1     -33.418  18.870   2.648  1.00 20.00     0.136 A 
HETATM   10  N10 UNL     1     -32.315  19.242   3.335  1.00 20.00    -0.248 NA
HETATM   11 CL11 UNL     1     -35.981  17.321  -1.556  1.00 20.00    -0.084 Cl
HETATM   12 CL12 UNL     1     -34.827  18.888   3.644  1.00 20.00    -0.061 Cl
ENDROOT
TORSDOF 0
ENDMDL
MODEL 6
REMARK VINA RESULT:      -4.7     12.352     12.600
REMARK  0 active torsions:
REMARK  status: ('A' for Active; 'I' for Inactive)
ROOT
HETATM    1  C1  UNL     1     -33.170   8.048   4.774  1.00 20.00     0.014 A 
HETATM    2  C2  UNL     1     -32.488   8.666   3.723  1.00 20.00     0.024 A 
HETATM    3  C3  UNL     1     -34.274   6.065   5.699  1.00 20.00     0.031 A 
HETATM    4  C4  UNL     1     -32.624   6.632   2.429  1.00 20.00     0.039 A 
HETATM    5  C5  UNL     1     -34.654   4.745   5.515  1.00 20.00     0.119 A 
HETATM    6  C6  UNL     1     -33.589   6.712   4.664  1.00 20.00    -0.021 A 
HETATM    7  C7  UNL     1     -33.311   6.001   3.480  1.00 20.00     0.016 A 
HETATM    8  C8  UNL     1     -32.215   7.960   2.554  1.00 20.00     0.035 A 
HETATM    9  C9  UNL     1     -33.743   4.674   3.408  1.00 20.00     0.136 A 
HETATM   10  N10 UNL     1     -34.406   4.032   4.395  1.00 20.00    -0.248 NA
HETATM   11 CL11 UNL     1     -31.373   8.727   1.264  1.00 20.00    -0.084 Cl
HETATM   12 CL12 UNL     1     -33.492   3.654   2.038  1.00 20.00    -0.061 Cl
ENDROOT
TORSDOF 0
ENDMDL
MODEL 7
REMARK VINA RESULT:      -4.7     12.163     12.280
REMARK  0 active torsions:
REMARK  status: ('A' for Active; 'I' for Inactive)
ROOT
HETATM    1  C1  UNL     1     -33.332   5.696   2.057  1.00 20.00     0.014 A 
HETATM    2  C2  UNL     1     -32.821   6.889   1.540  1.00 20.00     0.024 A 
HETATM    3  C3  UNL     1     -34.252   4.437   3.948  1.00 20.00     0.031 A 
HETATM    4  C4  UNL     1     -33.108   7.952   3.688  1.00 20.00     0.039 A 
HETATM    5  C5  UNL     1     -34.631   4.438   5.282  1.00 20.00     0.119 A 
HETATM    6  C6  UNL     1     -33.737   5.617   3.400  1.00 20.00    -0.021 A 
HETATM    7  C7  UNL     1     -33.623   6.758   4.219  1.00 20.00     0.016 A 
HETATM    8  C8  UNL     1     -32.710   8.014   2.353  1.00 20.00     0.035 A 
HETATM    9  C9  UNL     1     -34.036   6.640   5.549  1.00 20.00     0.136 A 
HETATM   10  N10 UNL     1     -34.536   5.510   6.097  1.00 20.00    -0.248 NA
HETATM   11 CL11 UNL     1     -32.081   9.480   1.708  1.00 20.00    -0.084 Cl
HETATM   12 CL12 UNL     1     -33.969   7.930   6.694  1.00 20.00    -0.061 Cl
ENDROOT
TORSDOF 0
ENDMDL
MODEL 8
REMARK VINA RESULT:      -4.7      1.425      2.152
REMARK  0 active torsions:
REMARK  status: ('A' for Active; 'I' for Inactive)
ROOT
HETATM    1  C1  UNL     1     -35.917  17.620  -0.057  1.00 20.00     0.014 A 
HETATM    2  C2  UNL     1     -35.507  17.149  -1.306  1.00 20.00     0.024 A 
HETATM    3  C3  UNL     1     -35.364  18.650   2.097  1.00 20.00     0.031 A 
HETATM    4  C4  UNL     1     -33.228  17.764  -0.799  1.00 20.00     0.039 A 
HETATM    5  C5  UNL     1     -34.385  19.179   2.925  1.00 20.00     0.119 A 
HETATM    6  C6  UNL     1     -34.985  18.170   0.839  1.00 20.00    -0.021 A 
HETATM    7  C7  UNL     1     -33.629  18.241   0.460  1.00 20.00     0.016 A 
HETATM    8  C8  UNL     1     -34.166  17.221  -1.676  1.00 20.00     0.035 A 
HETATM    9  C9  UNL     1     -32.732  18.794   1.377  1.00 20.00     0.136 A 
HETATM   10  N10 UNL     1     -33.078  19.263   2.597  1.00 20.00    -0.248 NA
HETATM   11 CL11 UNL     1     -33.669  16.638  -3.218  1.00 20.00    -0.084 Cl
HETATM   12 CL12 UNL     1     -31.038  18.960   1.085  1.00 20.00    -0.061 Cl
ENDROOT
TORSDOF 0
ENDMDL
MODEL 9
REMARK VINA RESULT:      -4.7      3.841      6.027
REMARK  0 active torsions:
REMARK  status: ('A' for Active; 'I' for Inactive)
ROOT
HETATM    1  C1  UNL     1     -33.376  15.634  -4.306  1.00 20.00     0.014 A 
HETATM    2  C2  UNL     1     -33.661  16.257  -3.089  1.00 20.00     0.024 A 
HETATM    3  C3  UNL     1     -34.153  14.434  -6.297  1.00 20.00     0.031 A 
HETATM    4  C4  UNL     1     -36.007  15.764  -3.377  1.00 20.00     0.039 A 
HETATM    5  C5  UNL     1     -35.223  13.898  -6.998  1.00 20.00     0.119 A 
HETATM    6  C6  UNL     1     -34.406  15.066  -5.074  1.00 20.00    -0.021 A 
HETATM    7  C7  UNL     1     -35.732  15.134  -4.602  1.00 20.00     0.016 A 
HETATM    8  C8  UNL     1     -34.973  16.322  -2.626  1.00 20.00     0.035 A 
HETATM    9  C9  UNL     1     -36.729  14.559  -5.394  1.00 20.00     0.136 A 
HETATM   10  N10 UNL     1     -36.505  13.944  -6.577  1.00 20.00    -0.248 NA
HETATM   11 CL11 UNL     1     -35.316  17.093  -1.125  1.00 20.00    -0.084 Cl
HETATM   12 CL12 UNL     1     -38.403  14.547  -4.974  1.00 20.00    -0.061 Cl
ENDROOT
TORSDOF 0
ENDMDL
