MODEL 1
REMARK VINA RESULT:      -5.0      0.000      0.000
REMARK  0 active torsions:
REMARK  status: ('A' for Active; 'I' for Inactive)
ROOT
HETATM    1  C1  UNL     1     -34.974   5.355   4.400  1.00 20.00     0.003 C 
HETATM    2  C2  UNL     1     -34.399   5.898   5.707  1.00 20.00     0.003 C 
HETATM    3  C3  UNL     1     -33.904   5.703   3.363  1.00 20.00     0.040 C 
HETATM    4  C4  UNL     1     -33.757   7.226   5.298  1.00 20.00     0.040 C 
HETATM    5  C5  UNL     1     -32.117   7.642   3.268  1.00 20.00     0.207 A 
HETATM    6  C6  UNL     1     -33.319   6.976   3.887  1.00 20.00     0.082 A 
HETATM    7  O7  UNL     1     -33.450   8.106   3.014  1.00 20.00    -0.375 OA
ENDROOT
TORSDOF 0
ENDMDL
MODEL 2
REMARK VINA RESULT:      -5.0      0.798      1.740
REMARK  0 active torsions:
REMARK  status: ('A' for Active; 'I' for Inactive)
ROOT
HETATM    1  C1  UNL     1     -34.256   5.988   5.673  1.00 20.00     0.003 C 
HETATM    2  C2  UNL     1     -34.988   5.366   4.484  1.00 20.00     0.003 C 
HETATM    3  C3  UNL     1     -33.698   7.297   5.108  1.00 20.00     0.040 C 
HETATM    4  C4  UNL     1     -34.071   5.665   3.295  1.00 20.00     0.040 C 
HETATM    5  C5  UNL     1     -32.994   7.993   2.663  1.00 20.00     0.207 A 
HETATM    6  C6  UNL     1     -33.429   6.965   3.674  1.00 20.00     0.082 A 
HETATM    7  O7  UNL     1     -32.059   7.093   3.271  1.00 20.00    -0.375 OA
ENDROOT
TORSDOF 0
ENDMDL
MODEL 3
REMARK VINA RESULT:      -4.6      1.269      1.861
REMARK  0 active torsions:
REMARK  status: ('A' for Active; 'I' for Inactive)
ROOT
HETATM    1  C1  UNL     1     -34.772   6.113   5.997  1.00 20.00     0.003 C 
HETATM    2  C2  UNL     1     -33.671   7.161   5.847  1.00 20.00     0.003 C 
HETATM    3  C3  UNL     1     -34.431   5.075   4.925  1.00 20.00     0.040 C 
HETATM    4  C4  UNL     1     -33.479   7.273   4.333  1.00 20.00     0.040 C 
HETATM    5  C5  UNL     1     -33.170   5.288   2.617  1.00 20.00     0.207 A 
HETATM    6  C6  UNL     1     -33.803   5.895   3.842  1.00 20.00     0.082 A 
HETATM    7  O7  UNL     1     -34.486   5.856   2.582  1.00 20.00    -0.375 OA
ENDROOT
TORSDOF 0
ENDMDL
MODEL 4
REMARK VINA RESULT:      -4.5      1.350      2.155
REMARK  0 active torsions:
REMARK  status: ('A' for Active; 'I' for Inactive)
ROOT
HETATM    1  C1  UNL     1     -33.799   6.890   5.869  1.00 20.00     0.003 C 
HETATM    2  C2  UNL     1     -34.787   5.724   5.898  1.00 20.00     0.003 C 
HETATM    3  C3  UNL     1     -33.740   7.276   4.389  1.00 20.00     0.040 C 
HETATM    4  C4  UNL     1     -34.442   4.924   4.639  1.00 20.00     0.040 C 
HETATM    5  C5  UNL     1     -34.123   5.866   2.192  1.00 20.00     0.207 A 
HETATM    6  C6  UNL     1     -33.959   5.973   3.686  1.00 20.00     0.082 A 
HETATM    7  O7  UNL     1     -32.881   5.556   2.837  1.00 20.00    -0.375 OA
ENDROOT
TORSDOF 0
ENDMDL
MODEL 5
REMARK VINA RESULT:      -4.4      1.539      3.062
REMARK  0 active torsions:
REMARK  status: ('A' for Active; 'I' for Inactive)
ROOT
HETATM    1  C1  UNL     1     -33.065   8.008   4.483  1.00 20.00     0.003 C 
HETATM    2  C2  UNL     1     -32.446   7.326   3.264  1.00 20.00     0.003 C 
HETATM    3  C3  UNL     1     -33.681   6.851   5.272  1.00 20.00     0.040 C 
HETATM    4  C4  UNL     1     -33.474   6.256   2.886  1.00 20.00     0.040 C 
HETATM    5  C5  UNL     1     -34.619   4.508   4.502  1.00 20.00     0.207 A 
HETATM    6  C6  UNL     1     -34.084   5.883   4.203  1.00 20.00     0.082 A 
HETATM    7  O7  UNL     1     -35.487   5.592   4.149  1.00 20.00    -0.375 OA
ENDROOT
TORSDOF 0
ENDMDL
MODEL 6
REMARK VINA RESULT:      -3.9      1.551      2.774
REMARK  0 active torsions:
REMARK  status: ('A' for Active; 'I' for Inactive)
ROOT
HETATM    1  C1  UNL     1     -32.076   7.484   3.224  1.00 20.00     0.003 C 
HETATM    2  C2  UNL     1     -32.584   8.168   4.492  1.00 20.00     0.003 C 
HETATM    3  C3  UNL     1     -33.300   6.724   2.708  1.00 20.00     0.040 C 
HETATM    4  C4  UNL     1     -33.486   7.113   5.138  1.00 20.00     0.040 C 
HETATM    5  C5  UNL     1     -35.391   5.712   3.960  1.00 20.00     0.207 A 
HETATM    6  C6  UNL     1     -34.031   6.361   3.963  1.00 20.00     0.082 A 
HETATM    7  O7  UNL     1     -34.195   4.953   4.181  1.00 20.00    -0.375 OA
ENDROOT
TORSDOF 0
ENDMDL
MODEL 7
REMARK VINA RESULT:      -3.9      1.254      2.071
REMARK  0 active torsions:
REMARK  status: ('A' for Active; 'I' for Inactive)
ROOT
HETATM    1  C1  UNL     1     -33.645   4.952   2.841  1.00 20.00     0.003 C 
HETATM    2  C2  UNL     1     -34.104   4.142   4.053  1.00 20.00     0.003 C 
HETATM    3  C3  UNL     1     -33.020   6.205   3.460  1.00 20.00     0.040 C 
HETATM    4  C4  UNL     1     -34.656   5.201   5.010  1.00 20.00     0.040 C 
HETATM    5  C5  UNL     1     -33.487   7.456   5.735  1.00 20.00     0.207 A 
HETATM    6  C6  UNL     1     -33.823   6.408   4.707  1.00 20.00     0.082 A 
HETATM    7  O7  UNL     1     -34.530   7.653   4.773  1.00 20.00    -0.375 OA
ENDROOT
TORSDOF 0
ENDMDL
MODEL 8
REMARK VINA RESULT:      -3.5      1.595      2.615
REMARK  0 active torsions:
REMARK  status: ('A' for Active; 'I' for Inactive)
ROOT
HETATM    1  C1  UNL     1     -33.817   5.947   2.545  1.00 20.00     0.003 C 
HETATM    2  C2  UNL     1     -32.992   7.227   2.421  1.00 20.00     0.003 C 
HETATM    3  C3  UNL     1     -34.595   6.143   3.848  1.00 20.00     0.040 C 
HETATM    4  C4  UNL     1     -32.540   7.509   3.856  1.00 20.00     0.040 C 
HETATM    5  C5  UNL     1     -34.049   7.531   6.025  1.00 20.00     0.207 A 
HETATM    6  C6  UNL     1     -33.662   6.963   4.684  1.00 20.00     0.082 A 
HETATM    7  O7  UNL     1     -33.252   6.346   5.912  1.00 20.00    -0.375 OA
ENDROOT
TORSDOF 0
ENDMDL
MODEL 9
REMARK VINA RESULT:      -3.5     11.552     12.344
REMARK  0 active torsions:
REMARK  status: ('A' for Active; 'I' for Inactive)
ROOT
HETATM    1  C1  UNL     1     -32.977  15.277  -5.221  1.00 20.00     0.003 C 
HETATM    2  C2  UNL     1     -33.723  15.933  -4.061  1.00 20.00     0.003 C 
HETATM    3  C3  UNL     1     -34.096  14.679  -6.077  1.00 20.00     0.040 C 
HETATM    4  C4  UNL     1     -34.844  14.942  -3.741  1.00 20.00     0.040 C 
HETATM    5  C5  UNL     1     -36.511  13.817  -5.455  1.00 20.00     0.207 A 
HETATM    6  C6  UNL     1     -35.144  14.320  -5.071  1.00 20.00     0.082 A 
HETATM    7  O7  UNL     1     -35.477  12.926  -5.016  1.00 20.00    -0.375 OA
ENDROOT
TORSDOF 0
ENDMDL
