MODEL 1
REMARK VINA RESULT:      -3.5      0.000      0.000
REMARK  1 active torsions:
REMARK  status: ('A' for Active; 'I' for Inactive)
REMARK    1  A    between atoms: C3_3  and  C6_6 
ROOT
HETATM    1  C1  UNL     1     -33.206  14.989  -4.340  1.00 20.00     0.282 C 
HETATM    2  C2  UNL     1     -33.466  16.286  -5.089  1.00 20.00     0.106 C 
HETATM    3  C3  UNL     1     -34.696  14.124  -5.981  1.00 20.00     0.201 C 
HETATM    4  C4  UNL     1     -34.584  13.561  -7.398  1.00 20.00     0.061 C 
HETATM    5  N7  UNL     1     -33.428  13.886  -5.277  1.00 20.00     0.103 N 
HETATM    6  S8  UNL     1     -34.945  15.935  -6.062  1.00 20.00    -0.127 SA
HETATM    7  H21 UNL     1     -32.665  13.897  -5.956  1.00 20.00     0.318 HD
ENDROOT
BRANCH   3   8
HETATM    8  C6  UNL     1     -35.874  13.483  -5.239  1.00 20.00     0.048 C 
HETATM    9  C5  UNL     1     -36.961  14.472  -4.979  1.00 20.00     0.009 C 
ENDBRANCH   3   8
TORSDOF 1
ENDMDL
MODEL 2
REMARK VINA RESULT:      -3.4      1.161      3.148
REMARK  1 active torsions:
REMARK  status: ('A' for Active; 'I' for Inactive)
REMARK    1  A    between atoms: C3_3  and  C6_6 
ROOT
HETATM    1  C1  UNL     1     -35.324  13.461  -6.741  1.00 20.00     0.282 C 
HETATM    2  C2  UNL     1     -36.223  13.566  -5.519  1.00 20.00     0.106 C 
HETATM    3  C3  UNL     1     -33.828  14.668  -5.339  1.00 20.00     0.201 C 
HETATM    4  C4  UNL     1     -32.773  14.328  -4.286  1.00 20.00     0.061 C 
HETATM    5  N7  UNL     1     -33.938  13.542  -6.277  1.00 20.00     0.103 N 
HETATM    6  S8  UNL     1     -35.457  14.866  -4.528  1.00 20.00    -0.127 SA
HETATM    7  H21 UNL     1     -33.725  12.675  -5.780  1.00 20.00     0.318 HD
ENDROOT
BRANCH   3   8
HETATM    8  C6  UNL     1     -33.463  15.966  -6.067  1.00 20.00     0.048 C 
HETATM    9  C5  UNL     1     -33.571  17.149  -5.164  1.00 20.00     0.009 C 
ENDBRANCH   3   8
TORSDOF 1
ENDMDL
MODEL 3
REMARK VINA RESULT:      -3.3     12.285     12.947
REMARK  1 active torsions:
REMARK  status: ('A' for Active; 'I' for Inactive)
REMARK    1  A    between atoms: C3_3  and  C6_6 
ROOT
HETATM    1  C1  UNL     1     -34.031   6.667   5.759  1.00 20.00     0.282 C 
HETATM    2  C2  UNL     1     -34.578   5.249   5.816  1.00 20.00     0.106 C 
HETATM    3  C3  UNL     1     -33.970   6.201   3.427  1.00 20.00     0.201 C 
HETATM    4  C4  UNL     1     -34.935   6.312   2.246  1.00 20.00     0.061 C 
HETATM    5  N7  UNL     1     -34.340   7.206   4.434  1.00 20.00     0.103 N 
HETATM    6  S8  UNL     1     -34.149   4.555   4.206  1.00 20.00    -0.127 SA
HETATM    7  H21 UNL     1     -35.348   7.365   4.389  1.00 20.00     0.318 HD
ENDROOT
BRANCH   3   8
HETATM    8  C6  UNL     1     -32.523   6.386   2.959  1.00 20.00     0.048 C 
HETATM    9  C5  UNL     1     -32.216   7.819   2.681  1.00 20.00     0.009 C 
ENDBRANCH   3   8
TORSDOF 1
ENDMDL
MODEL 4
REMARK VINA RESULT:      -3.2      1.380      3.227
REMARK  1 active torsions:
REMARK  status: ('A' for Active; 'I' for Inactive)
REMARK    1  A    between atoms: C3_3  and  C6_6 
ROOT
HETATM    1  C1  UNL     1     -35.743  13.379  -5.267  1.00 20.00     0.282 C 
HETATM    2  C2  UNL     1     -36.858  14.412  -5.302  1.00 20.00     0.106 C 
HETATM    3  C3  UNL     1     -34.473  15.253  -4.536  1.00 20.00     0.201 C 
HETATM    4  C4  UNL     1     -34.158  15.930  -3.202  1.00 20.00     0.061 C 
HETATM    5  N7  UNL     1     -34.753  13.831  -4.288  1.00 20.00     0.103 N 
HETATM    6  S8  UNL     1     -35.986  15.992  -5.253  1.00 20.00    -0.127 SA
HETATM    7  H21 UNL     1     -35.165  13.732  -3.359  1.00 20.00     0.318 HD
ENDROOT
BRANCH   3   8
HETATM    8  C6  UNL     1     -33.308  15.430  -5.516  1.00 20.00     0.048 C 
HETATM    9  C5  UNL     1     -33.716  16.222  -6.714  1.00 20.00     0.009 C 
ENDBRANCH   3   8
TORSDOF 1
ENDMDL
MODEL 5
REMARK VINA RESULT:      -3.2      1.653      2.188
REMARK  1 active torsions:
REMARK  status: ('A' for Active; 'I' for Inactive)
REMARK    1  A    between atoms: C3_3  and  C6_6 
ROOT
HETATM    1  C1  UNL     1     -33.166  14.479  -4.471  1.00 20.00     0.282 C 
HETATM    2  C2  UNL     1     -34.495  15.019  -3.966  1.00 20.00     0.106 C 
HETATM    3  C3  UNL     1     -34.000  15.284  -6.549  1.00 20.00     0.201 C 
HETATM    4  C4  UNL     1     -33.982  16.606  -7.316  1.00 20.00     0.061 C 
HETATM    5  N7  UNL     1     -32.816  15.228  -5.679  1.00 20.00     0.103 N 
HETATM    6  S8  UNL     1     -35.475  15.227  -5.468  1.00 20.00    -0.127 SA
HETATM    7  H21 UNL     1     -32.567  16.177  -5.396  1.00 20.00     0.318 HD
ENDROOT
BRANCH   3   8
HETATM    8  C6  UNL     1     -34.036  14.099  -7.520  1.00 20.00     0.048 C 
HETATM    9  C5  UNL     1     -35.206  13.211  -7.256  1.00 20.00     0.009 C 
ENDBRANCH   3   8
TORSDOF 1
ENDMDL
MODEL 6
REMARK VINA RESULT:      -3.2      1.147      2.770
REMARK  1 active torsions:
REMARK  status: ('A' for Active; 'I' for Inactive)
REMARK    1  A    between atoms: C3_3  and  C6_6 
ROOT
HETATM    1  C1  UNL     1     -34.495  13.384  -7.230  1.00 20.00     0.282 C 
HETATM    2  C2  UNL     1     -34.744  14.777  -7.788  1.00 20.00     0.106 C 
HETATM    3  C3  UNL     1     -35.437  14.355  -5.273  1.00 20.00     0.201 C 
HETATM    4  C4  UNL     1     -36.838  14.553  -4.695  1.00 20.00     0.061 C 
HETATM    5  N7  UNL     1     -35.448  13.169  -6.140  1.00 20.00     0.103 N 
HETATM    6  S8  UNL     1     -35.000  15.792  -6.318  1.00 20.00    -0.127 SA
HETATM    7  H21 UNL     1     -36.377  13.069  -6.554  1.00 20.00     0.318 HD
ENDROOT
BRANCH   3   8
HETATM    8  C6  UNL     1     -34.406  14.214  -4.147  1.00 20.00     0.048 C 
HETATM    9  C5  UNL     1     -33.453  15.362  -4.131  1.00 20.00     0.009 C 
ENDBRANCH   3   8
TORSDOF 1
ENDMDL
MODEL 7
REMARK VINA RESULT:      -3.2      2.297      3.283
REMARK  1 active torsions:
REMARK  status: ('A' for Active; 'I' for Inactive)
REMARK    1  A    between atoms: C3_3  and  C6_6 
ROOT
HETATM    1  C1  UNL     1     -32.994  15.034  -4.738  1.00 20.00     0.282 C 
HETATM    2  C2  UNL     1     -33.276  16.060  -5.824  1.00 20.00     0.106 C 
HETATM    3  C3  UNL     1     -34.743  16.205  -3.630  1.00 20.00     0.201 C 
HETATM    4  C4  UNL     1     -36.269  16.135  -3.579  1.00 20.00     0.061 C 
HETATM    5  N7  UNL     1     -34.220  14.871  -3.955  1.00 20.00     0.103 N 
HETATM    6  S8  UNL     1     -34.231  17.336  -4.975  1.00 20.00    -0.127 SA
HETATM    7  H21 UNL     1     -34.900  14.381  -4.539  1.00 20.00     0.318 HD
ENDROOT
BRANCH   3   8
HETATM    8  C6  UNL     1     -34.183  16.716  -2.298  1.00 20.00     0.048 C 
HETATM    9  C5  UNL     1     -35.267  16.936  -1.297  1.00 20.00     0.009 C 
ENDBRANCH   3   8
TORSDOF 1
ENDMDL
MODEL 8
REMARK VINA RESULT:      -3.1      2.465      3.217
REMARK  1 active torsions:
REMARK  status: ('A' for Active; 'I' for Inactive)
REMARK    1  A    between atoms: C3_3  and  C6_6 
ROOT
HETATM    1  C1  UNL     1     -34.286  17.681  -5.878  1.00 20.00     0.282 C 
HETATM    2  C2  UNL     1     -35.512  16.820  -6.133  1.00 20.00     0.106 C 
HETATM    3  C3  UNL     1     -33.795  15.950  -4.322  1.00 20.00     0.201 C 
HETATM    4  C4  UNL     1     -33.085  14.597  -4.353  1.00 20.00     0.061 C 
HETATM    5  N7  UNL     1     -33.227  16.804  -5.375  1.00 20.00     0.103 N 
HETATM    6  S8  UNL     1     -35.569  15.715  -4.706  1.00 20.00    -0.127 SA
HETATM    7  H21 UNL     1     -32.917  16.215  -6.149  1.00 20.00     0.318 HD
ENDROOT
BRANCH   3   8
HETATM    8  C6  UNL     1     -33.657  16.599  -2.941  1.00 20.00     0.048 C 
HETATM    9  C5  UNL     1     -34.946  16.568  -2.190  1.00 20.00     0.009 C 
ENDBRANCH   3   8
TORSDOF 1
ENDMDL
MODEL 9
REMARK VINA RESULT:      -3.1      1.267      2.915
REMARK  1 active torsions:
REMARK  status: ('A' for Active; 'I' for Inactive)
REMARK    1  A    between atoms: C3_3  and  C6_6 
ROOT
HETATM    1  C1  UNL     1     -36.900  13.826  -5.165  1.00 20.00     0.282 C 
HETATM    2  C2  UNL     1     -36.971  15.300  -4.798  1.00 20.00     0.106 C 
HETATM    3  C3  UNL     1     -34.585  14.329  -5.390  1.00 20.00     0.201 C 
HETATM    4  C4  UNL     1     -33.362  14.366  -4.474  1.00 20.00     0.061 C 
HETATM    5  N7  UNL     1     -35.549  13.358  -4.851  1.00 20.00     0.103 N 
HETATM    6  S8  UNL     1     -35.399  15.968  -5.384  1.00 20.00    -0.127 SA
HETATM    7  H21 UNL     1     -35.457  13.330  -3.834  1.00 20.00     0.318 HD
ENDROOT
BRANCH   3   8
HETATM    8  C6  UNL     1     -34.175  13.972  -6.823  1.00 20.00     0.048 C 
HETATM    9  C5  UNL     1     -33.975  15.194  -7.656  1.00 20.00     0.009 C 
ENDBRANCH   3   8
TORSDOF 1
ENDMDL
