MODEL 1
REMARK VINA RESULT:      -5.1      0.000      0.000
REMARK  1 active torsions:
REMARK  status: ('A' for Active; 'I' for Inactive)
REMARK    1  A    between atoms: C6_6  and  N7_7 
ROOT
HETATM    1  C1  UNL     1     -32.417   7.724   4.070  1.00 20.00     0.000 C 
HETATM    2  C2  UNL     1     -33.521   7.762   5.122  1.00 20.00     0.003 C 
HETATM    3  C3  UNL     1     -32.845   6.957   2.823  1.00 20.00     0.003 C 
HETATM    4  C4  UNL     1     -34.016   6.357   5.472  1.00 20.00     0.046 C 
HETATM    5  C5  UNL     1     -33.338   5.550   3.167  1.00 20.00     0.046 C 
HETATM    6  C6  UNL     1     -34.440   5.550   4.237  1.00 20.00     0.136 C 
HETATM    7 CL9  UNL     1     -35.963   6.211   3.557  1.00 20.00    -0.098 Cl
ENDROOT
BRANCH   6   8
HETATM    8  N7  UNL     1     -34.718   4.138   4.650  1.00 20.00    -0.037 NA
HETATM    9  O8  UNL     1     -33.974   3.345   4.074  1.00 20.00    -0.099 OA
ENDBRANCH   6   8
TORSDOF 1
ENDMDL
MODEL 2
REMARK VINA RESULT:      -4.6      2.401      3.341
REMARK  1 active torsions:
REMARK  status: ('A' for Active; 'I' for Inactive)
REMARK    1  A    between atoms: C6_6  and  N7_7 
ROOT
HETATM    1  C1  UNL     1     -34.287   4.651   5.741  1.00 20.00     0.000 C 
HETATM    2  C2  UNL     1     -34.261   4.057   4.336  1.00 20.00     0.003 C 
HETATM    3  C3  UNL     1     -34.659   6.130   5.728  1.00 20.00     0.003 C 
HETATM    4  C4  UNL     1     -33.347   4.855   3.404  1.00 20.00     0.046 C 
HETATM    5  C5  UNL     1     -33.747   6.933   4.800  1.00 20.00     0.046 C 
HETATM    6  C6  UNL     1     -33.683   6.353   3.379  1.00 20.00     0.136 C 
HETATM    7 CL9  UNL     1     -35.239   6.626   2.529  1.00 20.00    -0.098 Cl
ENDROOT
BRANCH   6   8
HETATM    8  N7  UNL     1     -32.626   7.076   2.603  1.00 20.00    -0.037 NA
HETATM    9  O8  UNL     1     -31.990   7.848   3.321  1.00 20.00    -0.099 OA
ENDBRANCH   6   8
TORSDOF 1
ENDMDL
MODEL 3
REMARK VINA RESULT:      -4.5     12.133     12.583
REMARK  1 active torsions:
REMARK  status: ('A' for Active; 'I' for Inactive)
REMARK    1  A    between atoms: C6_6  and  N7_7 
ROOT
HETATM    1  C1  UNL     1     -34.913  16.302  -2.836  1.00 20.00     0.000 C 
HETATM    2  C2  UNL     1     -36.160  16.406  -3.708  1.00 20.00     0.003 C 
HETATM    3  C3  UNL     1     -33.763  15.615  -3.566  1.00 20.00     0.003 C 
HETATM    4  C4  UNL     1     -36.582  15.041  -4.255  1.00 20.00     0.046 C 
HETATM    5  C5  UNL     1     -34.178  14.248  -4.112  1.00 20.00     0.046 C 
HETATM    6  C6  UNL     1     -35.443  14.313  -4.982  1.00 20.00     0.136 C 
HETATM    7 CL9  UNL     1     -35.081  15.127  -6.540  1.00 20.00    -0.098 Cl
ENDROOT
BRANCH   6   8
HETATM    8  N7  UNL     1     -35.884  12.920  -5.307  1.00 20.00    -0.037 NA
HETATM    9  O8  UNL     1     -35.292  12.478  -6.291  1.00 20.00    -0.099 OA
ENDBRANCH   6   8
TORSDOF 1
ENDMDL
MODEL 4
REMARK VINA RESULT:      -4.5     12.155     12.823
REMARK  1 active torsions:
REMARK  status: ('A' for Active; 'I' for Inactive)
REMARK    1  A    between atoms: C6_6  and  N7_7 
ROOT
HETATM    1  C1  UNL     1     -33.294  16.301  -5.126  1.00 20.00     0.000 C 
HETATM    2  C2  UNL     1     -33.697  15.645  -3.809  1.00 20.00     0.003 C 
HETATM    3  C3  UNL     1     -34.450  16.339  -6.120  1.00 20.00     0.003 C 
HETATM    4  C4  UNL     1     -34.290  14.252  -4.030  1.00 20.00     0.046 C 
HETATM    5  C5  UNL     1     -35.045  14.949  -6.348  1.00 20.00     0.046 C 
HETATM    6  C6  UNL     1     -35.447  14.251  -5.040  1.00 20.00     0.136 C 
HETATM    7 CL9  UNL     1     -36.889  15.048  -4.331  1.00 20.00    -0.098 Cl
ENDROOT
BRANCH   6   8
HETATM    8  N7  UNL     1     -35.830  12.835  -5.340  1.00 20.00    -0.037 NA
HETATM    9  O8  UNL     1     -35.291  12.432  -6.370  1.00 20.00    -0.099 OA
ENDBRANCH   6   8
TORSDOF 1
ENDMDL
MODEL 5
REMARK VINA RESULT:      -4.4      2.688      3.565
REMARK  1 active torsions:
REMARK  status: ('A' for Active; 'I' for Inactive)
REMARK    1  A    between atoms: C6_6  and  N7_7 
ROOT
HETATM    1  C1  UNL     1     -34.491   5.061   5.496  1.00 20.00     0.000 C 
HETATM    2  C2  UNL     1     -34.449   4.924   3.977  1.00 20.00     0.003 C 
HETATM    3  C3  UNL     1     -34.442   6.520   5.939  1.00 20.00     0.003 C 
HETATM    4  C4  UNL     1     -33.243   5.650   3.378  1.00 20.00     0.046 C 
HETATM    5  C5  UNL     1     -33.235   7.249   5.345  1.00 20.00     0.046 C 
HETATM    6  C6  UNL     1     -33.152   7.118   3.817  1.00 20.00     0.136 C 
HETATM    7 CL9  UNL     1     -34.455   8.078   3.042  1.00 20.00    -0.098 Cl
ENDROOT
BRANCH   6   8
HETATM    8  N7  UNL     1     -31.849   7.687   3.348  1.00 20.00    -0.037 NA
HETATM    9  O8  UNL     1     -31.998   8.393   2.351  1.00 20.00    -0.099 OA
ENDBRANCH   6   8
TORSDOF 1
ENDMDL
MODEL 6
REMARK VINA RESULT:      -4.1      1.187      1.572
REMARK  1 active torsions:
REMARK  status: ('A' for Active; 'I' for Inactive)
REMARK    1  A    between atoms: C6_6  and  N7_7 
ROOT
HETATM    1  C1  UNL     1     -33.339   7.576   5.890  1.00 20.00     0.000 C 
HETATM    2  C2  UNL     1     -34.390   6.529   6.244  1.00 20.00     0.003 C 
HETATM    3  C3  UNL     1     -33.328   7.891   4.397  1.00 20.00     0.003 C 
HETATM    4  C4  UNL     1     -34.226   5.259   5.407  1.00 20.00     0.046 C 
HETATM    5  C5  UNL     1     -33.161   6.625   3.555  1.00 20.00     0.046 C 
HETATM    6  C6  UNL     1     -34.194   5.541   3.898  1.00 20.00     0.136 C 
HETATM    7 CL9  UNL     1     -35.822   6.034   3.324  1.00 20.00    -0.098 Cl
ENDROOT
BRANCH   6   8
HETATM    8  N7  UNL     1     -33.837   4.279   3.174  1.00 20.00    -0.037 NA
HETATM    9  O8  UNL     1     -32.858   4.441   2.446  1.00 20.00    -0.099 OA
ENDBRANCH   6   8
TORSDOF 1
ENDMDL
MODEL 7
REMARK VINA RESULT:      -4.0     12.303     12.982
REMARK  1 active torsions:
REMARK  status: ('A' for Active; 'I' for Inactive)
REMARK    1  A    between atoms: C6_6  and  N7_7 
ROOT
HETATM    1  C1  UNL     1     -33.041  15.595  -5.423  1.00 20.00     0.000 C 
HETATM    2  C2  UNL     1     -33.475  15.031  -4.074  1.00 20.00     0.003 C 
HETATM    3  C3  UNL     1     -34.213  16.199  -6.191  1.00 20.00     0.003 C 
HETATM    4  C4  UNL     1     -34.622  14.030  -4.223  1.00 20.00     0.046 C 
HETATM    5  C5  UNL     1     -35.361  15.202  -6.346  1.00 20.00     0.046 C 
HETATM    6  C6  UNL     1     -35.813  14.600  -5.006  1.00 20.00     0.136 C 
HETATM    7 CL9  UNL     1     -36.663  15.840  -4.027  1.00 20.00    -0.098 Cl
ENDROOT
BRANCH   6   8
HETATM    8  N7  UNL     1     -36.794  13.501  -5.271  1.00 20.00    -0.037 NA
HETATM    9  O8  UNL     1     -37.936  13.829  -4.949  1.00 20.00    -0.099 OA
ENDBRANCH   6   8
TORSDOF 1
ENDMDL
MODEL 8
REMARK VINA RESULT:      -4.0     12.398     13.070
REMARK  1 active torsions:
REMARK  status: ('A' for Active; 'I' for Inactive)
REMARK    1  A    between atoms: C6_6  and  N7_7 
ROOT
HETATM    1  C1  UNL     1     -35.533  16.664  -3.394  1.00 20.00     0.000 C 
HETATM    2  C2  UNL     1     -35.994  16.855  -4.835  1.00 20.00     0.003 C 
HETATM    3  C3  UNL     1     -34.256  15.834  -3.309  1.00 20.00     0.003 C 
HETATM    4  C4  UNL     1     -36.149  15.517  -5.560  1.00 20.00     0.046 C 
HETATM    5  C5  UNL     1     -34.406  14.493  -4.030  1.00 20.00     0.046 C 
HETATM    6  C6  UNL     1     -34.886  14.647  -5.481  1.00 20.00     0.136 C 
HETATM    7 CL9  UNL     1     -33.583  15.352  -6.492  1.00 20.00    -0.098 Cl
ENDROOT
BRANCH   6   8
HETATM    8  N7  UNL     1     -35.192  13.292  -6.040  1.00 20.00    -0.037 NA
HETATM    9  O8  UNL     1     -35.870  12.626  -5.258  1.00 20.00    -0.099 OA
ENDBRANCH   6   8
TORSDOF 1
ENDMDL
MODEL 9
REMARK VINA RESULT:      -4.0      3.326      3.715
REMARK  1 active torsions:
REMARK  status: ('A' for Active; 'I' for Inactive)
REMARK    1  A    between atoms: C6_6  and  N7_7 
ROOT
HETATM    1  C1  UNL     1     -34.377   5.211   4.313  1.00 20.00     0.000 C 
HETATM    2  C2  UNL     1     -34.160   6.525   5.057  1.00 20.00     0.003 C 
HETATM    3  C3  UNL     1     -33.328   4.991   3.227  1.00 20.00     0.003 C 
HETATM    4  C4  UNL     1     -34.092   7.714   4.097  1.00 20.00     0.046 C 
HETATM    5  C5  UNL     1     -33.259   6.176   2.262  1.00 20.00     0.046 C 
HETATM    6  C6  UNL     1     -33.057   7.519   2.980  1.00 20.00     0.136 C 
HETATM    7 CL9  UNL     1     -31.395   7.618   3.650  1.00 20.00    -0.098 Cl
ENDROOT
BRANCH   6   8
HETATM    8  N7  UNL     1     -33.198   8.630   1.986  1.00 20.00    -0.037 NA
HETATM    9  O8  UNL     1     -32.135   9.230   1.829  1.00 20.00    -0.099 OA
ENDBRANCH   6   8
TORSDOF 1
ENDMDL
