MODEL 1
REMARK VINA RESULT:      -4.9      0.000      0.000
REMARK  0 active torsions:
REMARK  status: ('A' for Active; 'I' for Inactive)
ROOT
HETATM    1  C1  UNL     1     -33.681   6.967   4.630  1.00 20.00     0.139 C 
HETATM    2  C2  UNL     1     -32.548   6.793   3.598  1.00 20.00     0.057 C 
HETATM    3  C3  UNL     1     -33.510   5.848   2.810  1.00 20.00     0.007 C 
HETATM    4  C4  UNL     1     -34.476   5.754   4.057  1.00 20.00     0.018 C 
HETATM    5  C5  UNL     1     -32.114   8.054   2.876  1.00 20.00     0.018 C 
HETATM    6  C6  UNL     1     -32.880   4.577   2.264  1.00 20.00     0.012 C 
HETATM    7  C7  UNL     1     -34.376   4.513   4.940  1.00 20.00     0.023 C 
HETATM    8  C8  UNL     1     -35.929   6.080   3.715  1.00 20.00     0.023 C 
HETATM    9  O9  UNL     1     -33.870   7.743   5.544  1.00 20.00    -0.297 OA
ENDROOT
TORSDOF 0
ENDMDL
MODEL 2
REMARK VINA RESULT:      -4.3      1.421      2.484
REMARK  0 active torsions:
REMARK  status: ('A' for Active; 'I' for Inactive)
ROOT
HETATM    1  C1  UNL     1     -34.236   5.714   4.857  1.00 20.00     0.139 C 
HETATM    2  C2  UNL     1     -33.302   6.854   5.314  1.00 20.00     0.057 C 
HETATM    3  C3  UNL     1     -33.343   7.378   3.843  1.00 20.00     0.007 C 
HETATM    4  C4  UNL     1     -33.970   6.014   3.350  1.00 20.00     0.018 C 
HETATM    5  C5  UNL     1     -33.865   7.786   6.368  1.00 20.00     0.018 C 
HETATM    6  C6  UNL     1     -32.009   7.830   3.270  1.00 20.00     0.012 C 
HETATM    7  C7  UNL     1     -33.034   4.996   2.702  1.00 20.00     0.023 C 
HETATM    8  C8  UNL     1     -35.243   6.203   2.528  1.00 20.00     0.023 C 
HETATM    9  O9  UNL     1     -34.907   4.895   5.448  1.00 20.00    -0.297 OA
ENDROOT
TORSDOF 0
ENDMDL
MODEL 3
REMARK VINA RESULT:      -4.1      1.706      2.683
REMARK  0 active torsions:
REMARK  status: ('A' for Active; 'I' for Inactive)
ROOT
HETATM    1  C1  UNL     1     -33.513   6.502   2.715  1.00 20.00     0.139 C 
HETATM    2  C2  UNL     1     -33.000   7.635   3.630  1.00 20.00     0.057 C 
HETATM    3  C3  UNL     1     -33.303   6.694   4.840  1.00 20.00     0.007 C 
HETATM    4  C4  UNL     1     -34.154   5.738   3.914  1.00 20.00     0.018 C 
HETATM    5  C5  UNL     1     -31.549   8.029   3.440  1.00 20.00     0.018 C 
HETATM    6  C6  UNL     1     -33.971   7.357   6.034  1.00 20.00     0.012 C 
HETATM    7  C7  UNL     1     -35.675   5.878   3.957  1.00 20.00     0.023 C 
HETATM    8  C8  UNL     1     -33.726   4.275   4.009  1.00 20.00     0.023 C 
HETATM    9  O9  UNL     1     -33.450   6.297   1.522  1.00 20.00    -0.297 OA
ENDROOT
TORSDOF 0
ENDMDL
MODEL 4
REMARK VINA RESULT:      -4.1      1.794      3.576
REMARK  0 active torsions:
REMARK  status: ('A' for Active; 'I' for Inactive)
ROOT
HETATM    1  C1  UNL     1     -33.126   5.726   3.100  1.00 20.00     0.139 C 
HETATM    2  C2  UNL     1     -33.692   5.495   4.517  1.00 20.00     0.057 C 
HETATM    3  C3  UNL     1     -33.937   7.036   4.591  1.00 20.00     0.007 C 
HETATM    4  C4  UNL     1     -33.021   7.266   3.325  1.00 20.00     0.018 C 
HETATM    5  C5  UNL     1     -34.927   4.620   4.600  1.00 20.00     0.018 C 
HETATM    6  C6  UNL     1     -33.562   7.698   5.907  1.00 20.00     0.012 C 
HETATM    7  C7  UNL     1     -31.585   7.730   3.563  1.00 20.00     0.023 C 
HETATM    8  C8  UNL     1     -33.701   8.093   2.235  1.00 20.00     0.023 C 
HETATM    9  O9  UNL     1     -32.857   4.989   2.176  1.00 20.00    -0.297 OA
ENDROOT
TORSDOF 0
ENDMDL
MODEL 5
REMARK VINA RESULT:      -3.9     11.857     12.959
REMARK  0 active torsions:
REMARK  status: ('A' for Active; 'I' for Inactive)
ROOT
HETATM    1  C1  UNL     1     -35.744  13.785  -5.092  1.00 20.00     0.139 C 
HETATM    2  C2  UNL     1     -36.678  14.864  -4.506  1.00 20.00     0.057 C 
HETATM    3  C3  UNL     1     -35.723  15.928  -5.135  1.00 20.00     0.007 C 
HETATM    4  C4  UNL     1     -34.618  14.826  -5.381  1.00 20.00     0.018 C 
HETATM    5  C5  UNL     1     -38.102  14.857  -5.026  1.00 20.00     0.018 C 
HETATM    6  C6  UNL     1     -35.396  17.121  -4.251  1.00 20.00     0.012 C 
HETATM    7  C7  UNL     1     -33.467  14.740  -4.381  1.00 20.00     0.023 C 
HETATM    8  C8  UNL     1     -34.111  14.796  -6.821  1.00 20.00     0.023 C 
HETATM    9  O9  UNL     1     -35.846  12.587  -5.253  1.00 20.00    -0.297 OA
ENDROOT
TORSDOF 0
ENDMDL
MODEL 6
REMARK VINA RESULT:      -3.9     12.019     13.339
REMARK  0 active torsions:
REMARK  status: ('A' for Active; 'I' for Inactive)
ROOT
HETATM    1  C1  UNL     1     -35.418  13.785  -5.550  1.00 20.00     0.139 C 
HETATM    2  C2  UNL     1     -34.624  14.918  -4.867  1.00 20.00     0.057 C 
HETATM    3  C3  UNL     1     -34.888  15.774  -6.147  1.00 20.00     0.007 C 
HETATM    4  C4  UNL     1     -35.349  14.489  -6.941  1.00 20.00     0.018 C 
HETATM    5  C5  UNL     1     -35.215  15.451  -3.576  1.00 20.00     0.018 C 
HETATM    6  C6  UNL     1     -33.699  16.574  -6.657  1.00 20.00     0.012 C 
HETATM    7  C7  UNL     1     -34.340  13.836  -7.882  1.00 20.00     0.023 C 
HETATM    8  C8  UNL     1     -36.711  14.656  -7.611  1.00 20.00     0.023 C 
HETATM    9  O9  UNL     1     -35.898  12.743  -5.156  1.00 20.00    -0.297 OA
ENDROOT
TORSDOF 0
ENDMDL
MODEL 7
REMARK VINA RESULT:      -3.9     11.399     12.971
REMARK  0 active torsions:
REMARK  status: ('A' for Active; 'I' for Inactive)
ROOT
HETATM    1  C1  UNL     1     -35.145  13.895  -5.339  1.00 20.00     0.139 C 
HETATM    2  C2  UNL     1     -35.219  14.833  -6.562  1.00 20.00     0.057 C 
HETATM    3  C3  UNL     1     -33.942  15.540  -6.005  1.00 20.00     0.007 C 
HETATM    4  C4  UNL     1     -34.126  14.824  -4.609  1.00 20.00     0.018 C 
HETATM    5  C5  UNL     1     -35.073  14.165  -7.915  1.00 20.00     0.018 C 
HETATM    6  C6  UNL     1     -33.954  17.059  -6.066  1.00 20.00     0.012 C 
HETATM    7  C7  UNL     1     -34.767  15.627  -3.478  1.00 20.00     0.023 C 
HETATM    8  C8  UNL     1     -32.867  14.101  -4.136  1.00 20.00     0.023 C 
HETATM    9  O9  UNL     1     -35.684  12.846  -5.055  1.00 20.00    -0.297 OA
ENDROOT
TORSDOF 0
ENDMDL
MODEL 8
REMARK VINA RESULT:      -3.9     11.663     12.645
REMARK  0 active torsions:
REMARK  status: ('A' for Active; 'I' for Inactive)
ROOT
HETATM    1  C1  UNL     1     -33.972  14.509  -4.315  1.00 20.00     0.139 C 
HETATM    2  C2  UNL     1     -35.479  14.211  -4.455  1.00 20.00     0.057 C 
HETATM    3  C3  UNL     1     -35.692  15.749  -4.624  1.00 20.00     0.007 C 
HETATM    4  C4  UNL     1     -34.227  16.033  -4.105  1.00 20.00     0.018 C 
HETATM    5  C5  UNL     1     -35.874  13.350  -5.639  1.00 20.00     0.018 C 
HETATM    6  C6  UNL     1     -36.873  16.335  -3.867  1.00 20.00     0.012 C 
HETATM    7  C7  UNL     1     -34.061  16.463  -2.649  1.00 20.00     0.023 C 
HETATM    8  C8  UNL     1     -33.421  16.925  -5.046  1.00 20.00     0.023 C 
HETATM    9  O9  UNL     1     -32.975  13.817  -4.345  1.00 20.00    -0.297 OA
ENDROOT
TORSDOF 0
ENDMDL
MODEL 9
REMARK VINA RESULT:      -3.8     11.733     12.782
REMARK  0 active torsions:
REMARK  status: ('A' for Active; 'I' for Inactive)
ROOT
HETATM    1  C1  UNL     1     -33.601  14.452  -4.625  1.00 20.00     0.139 C 
HETATM    2  C2  UNL     1     -33.716  15.979  -4.433  1.00 20.00     0.057 C 
HETATM    3  C3  UNL     1     -35.110  15.888  -5.131  1.00 20.00     0.007 C 
HETATM    4  C4  UNL     1     -34.788  14.426  -5.637  1.00 20.00     0.018 C 
HETATM    5  C5  UNL     1     -33.722  16.464  -2.996  1.00 20.00     0.018 C 
HETATM    6  C6  UNL     1     -35.406  16.976  -6.151  1.00 20.00     0.012 C 
HETATM    7  C7  UNL     1     -34.325  14.262  -7.083  1.00 20.00     0.023 C 
HETATM    8  C8  UNL     1     -35.876  13.415  -5.280  1.00 20.00     0.023 C 
HETATM    9  O9  UNL     1     -32.862  13.605  -4.170  1.00 20.00    -0.297 OA
ENDROOT
TORSDOF 0
ENDMDL
