MODEL 1
REMARK VINA RESULT:      -4.2      0.000      0.000
REMARK  1 active torsions:
REMARK  status: ('A' for Active; 'I' for Inactive)
REMARK    1  A    between atoms: C5_5  and  O12_12 
ROOT
HETATM    1  C1  UNL     1     -35.123  14.028  -4.519  1.00 20.00     0.006 C 
HETATM    2  C2  UNL     1     -35.234  14.732  -5.877  1.00 20.00     0.012 C 
HETATM    3  C3  UNL     1     -33.057  15.074  -4.963  1.00 20.00     0.017 C 
HETATM    4  C4  UNL     1     -34.029  14.834  -3.798  1.00 20.00    -0.003 C 
HETATM    5  C5  UNL     1     -34.565  16.941  -4.870  1.00 20.00     0.137 C 
HETATM    6  C6  UNL     1     -34.109  15.793  -5.816  1.00 20.00    -0.017 C 
HETATM    7  C7  UNL     1     -34.502  16.284  -3.453  1.00 20.00    -0.017 C 
HETATM    8  C8  UNL     1     -33.624  16.235  -7.183  1.00 20.00     0.018 C 
HETATM    9  C9  UNL     1     -35.876  16.332  -2.765  1.00 20.00     0.018 C 
HETATM   10  C10 UNL     1     -33.488  16.951  -2.501  1.00 20.00     0.018 C 
ENDROOT
BRANCH   5  11
HETATM   11  O12 UNL     1     -33.695  18.058  -4.988  1.00 20.00    -0.389 OA
HETATM   12  C11 UNL     1     -34.418  19.262  -5.213  1.00 20.00     0.202 C 
ENDBRANCH   5  11
TORSDOF 1
ENDMDL
MODEL 2
REMARK VINA RESULT:      -4.2     11.954     13.545
REMARK  1 active torsions:
REMARK  status: ('A' for Active; 'I' for Inactive)
REMARK    1  A    between atoms: C5_5  and  O12_12 
ROOT
HETATM    1  C1  UNL     1     -34.603   4.268   4.811  1.00 20.00     0.006 C 
HETATM    2  C2  UNL     1     -33.822   5.171   5.773  1.00 20.00     0.012 C 
HETATM    3  C3  UNL     1     -35.299   6.490   4.442  1.00 20.00     0.017 C 
HETATM    4  C4  UNL     1     -34.957   5.217   3.654  1.00 20.00    -0.003 C 
HETATM    5  C5  UNL     1     -32.967   6.584   3.872  1.00 20.00     0.137 C 
HETATM    6  C6  UNL     1     -33.918   6.564   5.104  1.00 20.00    -0.017 C 
HETATM    7  C7  UNL     1     -33.691   5.654   2.845  1.00 20.00    -0.017 C 
HETATM    8  C8  UNL     1     -33.740   7.713   6.078  1.00 20.00     0.018 C 
HETATM    9  C9  UNL     1     -32.788   4.478   2.441  1.00 20.00     0.018 C 
HETATM   10  C10 UNL     1     -34.122   6.371   1.549  1.00 20.00     0.018 C 
ENDROOT
BRANCH   5  11
HETATM   11  O12 UNL     1     -32.812   7.910   3.386  1.00 20.00    -0.389 OA
HETATM   12  C11 UNL     1     -31.441   8.259   3.247  1.00 20.00     0.202 C 
ENDBRANCH   5  11
TORSDOF 1
ENDMDL
MODEL 3
REMARK VINA RESULT:      -4.1      1.819      3.657
REMARK  1 active torsions:
REMARK  status: ('A' for Active; 'I' for Inactive)
REMARK    1  A    between atoms: C5_5  and  O12_12 
ROOT
HETATM    1  C1  UNL     1     -33.020  15.795  -5.509  1.00 20.00     0.006 C 
HETATM    2  C2  UNL     1     -33.597  16.778  -4.483  1.00 20.00     0.012 C 
HETATM    3  C3  UNL     1     -34.084  14.539  -3.821  1.00 20.00     0.017 C 
HETATM    4  C4  UNL     1     -33.920  14.558  -5.348  1.00 20.00    -0.003 C 
HETATM    5  C5  UNL     1     -35.906  15.807  -4.739  1.00 20.00     0.137 C 
HETATM    6  C6  UNL     1     -34.693  15.945  -3.775  1.00 20.00    -0.017 C 
HETATM    7  C7  UNL     1     -35.381  14.828  -5.839  1.00 20.00    -0.017 C 
HETATM    8  C8  UNL     1     -35.025  16.448  -2.384  1.00 20.00     0.018 C 
HETATM    9  C9  UNL     1     -35.448  15.478  -7.229  1.00 20.00     0.018 C 
HETATM   10  C10 UNL     1     -36.159  13.498  -5.914  1.00 20.00     0.018 C 
ENDROOT
BRANCH   5  11
HETATM   11  O12 UNL     1     -37.034  15.289  -4.047  1.00 20.00    -0.389 OA
HETATM   12  C11 UNL     1     -38.207  16.044  -4.321  1.00 20.00     0.202 C 
ENDBRANCH   5  11
TORSDOF 1
ENDMDL
MODEL 4
REMARK VINA RESULT:      -4.0      1.647      3.016
REMARK  1 active torsions:
REMARK  status: ('A' for Active; 'I' for Inactive)
REMARK    1  A    between atoms: C5_5  and  O12_12 
ROOT
HETATM    1  C1  UNL     1     -33.310  14.237  -4.504  1.00 20.00     0.006 C 
HETATM    2  C2  UNL     1     -32.970  15.614  -5.087  1.00 20.00     0.012 C 
HETATM    3  C3  UNL     1     -34.787  15.809  -3.553  1.00 20.00     0.017 C 
HETATM    4  C4  UNL     1     -34.791  14.380  -4.115  1.00 20.00    -0.003 C 
HETATM    5  C5  UNL     1     -35.335  15.941  -5.888  1.00 20.00     0.137 C 
HETATM    6  C6  UNL     1     -34.271  16.422  -4.860  1.00 20.00    -0.017 C 
HETATM    7  C7  UNL     1     -35.715  14.516  -5.369  1.00 20.00    -0.017 C 
HETATM    8  C8  UNL     1     -34.047  17.921  -4.814  1.00 20.00     0.018 C 
HETATM    9  C9  UNL     1     -35.447  13.452  -6.445  1.00 20.00     0.018 C 
HETATM   10  C10 UNL     1     -37.192  14.379  -4.945  1.00 20.00     0.018 C 
ENDROOT
BRANCH   5  11
HETATM   11  O12 UNL     1     -36.447  16.825  -5.904  1.00 20.00    -0.389 OA
HETATM   12  C11 UNL     1     -36.778  17.225  -7.228  1.00 20.00     0.202 C 
ENDBRANCH   5  11
TORSDOF 1
ENDMDL
MODEL 5
REMARK VINA RESULT:      -4.0      1.772      3.148
REMARK  1 active torsions:
REMARK  status: ('A' for Active; 'I' for Inactive)
REMARK    1  A    between atoms: C5_5  and  O12_12 
ROOT
HETATM    1  C1  UNL     1     -34.454  16.326  -2.610  1.00 20.00     0.006 C 
HETATM    2  C2  UNL     1     -35.963  16.399  -2.880  1.00 20.00     0.012 C 
HETATM    3  C3  UNL     1     -35.015  14.559  -4.065  1.00 20.00     0.017 C 
HETATM    4  C4  UNL     1     -33.912  15.607  -3.856  1.00 20.00    -0.003 C 
HETATM    5  C5  UNL     1     -35.587  16.493  -5.368  1.00 20.00     0.137 C 
HETATM    6  C6  UNL     1     -36.121  15.611  -4.203  1.00 20.00    -0.017 C 
HETATM    7  C7  UNL     1     -34.040  16.488  -5.143  1.00 20.00    -0.017 C 
HETATM    8  C8  UNL     1     -37.514  15.047  -4.403  1.00 20.00     0.018 C 
HETATM    9  C9  UNL     1     -33.508  17.918  -4.960  1.00 20.00     0.018 C 
HETATM   10  C10 UNL     1     -33.244  15.844  -6.296  1.00 20.00     0.018 C 
ENDROOT
BRANCH   5  11
HETATM   11  O12 UNL     1     -35.954  15.935  -6.623  1.00 20.00    -0.389 OA
HETATM   12  C11 UNL     1     -36.568  16.901  -7.465  1.00 20.00     0.202 C 
ENDBRANCH   5  11
TORSDOF 1
ENDMDL
MODEL 6
REMARK VINA RESULT:      -4.0      1.596      3.038
REMARK  1 active torsions:
REMARK  status: ('A' for Active; 'I' for Inactive)
REMARK    1  A    between atoms: C5_5  and  O12_12 
ROOT
HETATM    1  C1  UNL     1     -34.928  13.674  -6.344  1.00 20.00     0.006 C 
HETATM    2  C2  UNL     1     -36.095  13.504  -5.363  1.00 20.00     0.012 C 
HETATM    3  C3  UNL     1     -36.075  15.730  -6.221  1.00 20.00     0.017 C 
HETATM    4  C4  UNL     1     -34.641  15.184  -6.284  1.00 20.00    -0.003 C 
HETATM    5  C5  UNL     1     -35.301  15.442  -3.966  1.00 20.00     0.137 C 
HETATM    6  C6  UNL     1     -36.413  14.959  -4.940  1.00 20.00    -0.017 C 
HETATM    7  C7  UNL     1     -34.057  15.614  -4.898  1.00 20.00    -0.017 C 
HETATM    8  C8  UNL     1     -37.834  15.143  -4.443  1.00 20.00     0.018 C 
HETATM    9  C9  UNL     1     -32.891  14.733  -4.425  1.00 20.00     0.018 C 
HETATM   10  C10 UNL     1     -33.535  17.064  -4.980  1.00 20.00     0.018 C 
ENDROOT
BRANCH   5  11
HETATM   11  O12 UNL     1     -35.682  16.660  -3.341  1.00 20.00    -0.389 OA
HETATM   12  C11 UNL     1     -35.381  16.650  -1.951  1.00 20.00     0.202 C 
ENDBRANCH   5  11
TORSDOF 1
ENDMDL
MODEL 7
REMARK VINA RESULT:      -4.0      1.214      3.218
REMARK  1 active torsions:
REMARK  status: ('A' for Active; 'I' for Inactive)
REMARK    1  A    between atoms: C5_5  and  O12_12 
ROOT
HETATM    1  C1  UNL     1     -33.654  16.816  -2.585  1.00 20.00     0.006 C 
HETATM    2  C2  UNL     1     -33.628  17.907  -3.662  1.00 20.00     0.012 C 
HETATM    3  C3  UNL     1     -35.787  16.896  -3.585  1.00 20.00     0.017 C 
HETATM    4  C4  UNL     1     -34.764  15.871  -3.074  1.00 20.00    -0.003 C 
HETATM    5  C5  UNL     1     -34.381  16.282  -5.432  1.00 20.00     0.137 C 
HETATM    6  C6  UNL     1     -34.807  17.516  -4.587  1.00 20.00    -0.017 C 
HETATM    7  C7  UNL     1     -34.359  15.121  -4.385  1.00 20.00    -0.017 C 
HETATM    8  C8  UNL     1     -35.362  18.684  -5.379  1.00 20.00     0.018 C 
HETATM    9  C9  UNL     1     -32.967  14.473  -4.315  1.00 20.00     0.018 C 
HETATM   10  C10 UNL     1     -35.375  13.997  -4.679  1.00 20.00     0.018 C 
ENDROOT
BRANCH   5  11
HETATM   11  O12 UNL     1     -35.314  16.050  -6.479  1.00 20.00    -0.389 OA
HETATM   12  C11 UNL     1     -34.663  15.899  -7.734  1.00 20.00     0.202 C 
ENDBRANCH   5  11
TORSDOF 1
ENDMDL
MODEL 8
REMARK VINA RESULT:      -3.9      1.932      3.316
REMARK  1 active torsions:
REMARK  status: ('A' for Active; 'I' for Inactive)
REMARK    1  A    between atoms: C5_5  and  O12_12 
ROOT
HETATM    1  C1  UNL     1     -34.691  13.739  -6.841  1.00 20.00     0.006 C 
HETATM    2  C2  UNL     1     -33.889  14.896  -6.232  1.00 20.00     0.012 C 
HETATM    3  C3  UNL     1     -35.133  13.786  -4.526  1.00 20.00     0.017 C 
HETATM    4  C4  UNL     1     -35.864  13.575  -5.860  1.00 20.00    -0.003 C 
HETATM    5  C5  UNL     1     -35.969  15.919  -5.248  1.00 20.00     0.137 C 
HETATM    6  C6  UNL     1     -34.639  15.185  -4.909  1.00 20.00    -0.017 C 
HETATM    7  C7  UNL     1     -36.839  14.797  -5.903  1.00 20.00    -0.017 C 
HETATM    8  C8  UNL     1     -33.774  15.863  -3.864  1.00 20.00     0.018 C 
HETATM    9  C9  UNL     1     -37.261  15.193  -7.327  1.00 20.00     0.018 C 
HETATM   10  C10 UNL     1     -38.125  14.467  -5.118  1.00 20.00     0.018 C 
ENDROOT
BRANCH   5  11
HETATM   11  O12 UNL     1     -36.562  16.444  -4.068  1.00 20.00    -0.389 OA
HETATM   12  C11 UNL     1     -36.900  17.817  -4.220  1.00 20.00     0.202 C 
ENDBRANCH   5  11
TORSDOF 1
ENDMDL
MODEL 9
REMARK VINA RESULT:      -3.9      1.993      3.917
REMARK  1 active torsions:
REMARK  status: ('A' for Active; 'I' for Inactive)
REMARK    1  A    between atoms: C5_5  and  O12_12 
ROOT
HETATM    1  C1  UNL     1     -33.265  15.710  -4.570  1.00 20.00     0.006 C 
HETATM    2  C2  UNL     1     -34.546  16.479  -4.226  1.00 20.00     0.012 C 
HETATM    3  C3  UNL     1     -35.002  14.139  -4.306  1.00 20.00     0.017 C 
HETATM    4  C4  UNL     1     -33.797  14.419  -5.215  1.00 20.00    -0.003 C 
HETATM    5  C5  UNL     1     -35.776  15.447  -6.165  1.00 20.00     0.137 C 
HETATM    6  C6  UNL     1     -35.668  15.485  -4.614  1.00 20.00    -0.017 C 
HETATM    7  C7  UNL     1     -34.477  14.692  -6.597  1.00 20.00    -0.017 C 
HETATM    8  C8  UNL     1     -36.971  15.732  -3.879  1.00 20.00     0.018 C 
HETATM    9  C9  UNL     1     -33.626  15.560  -7.537  1.00 20.00     0.018 C 
HETATM   10  C10 UNL     1     -34.743  13.356  -7.320  1.00 20.00     0.018 C 
ENDROOT
BRANCH   5  11
HETATM   11  O12 UNL     1     -36.957  14.764  -6.565  1.00 20.00    -0.389 OA
HETATM   12  C11 UNL     1     -37.711  15.527  -7.498  1.00 20.00     0.202 C 
ENDBRANCH   5  11
TORSDOF 1
ENDMDL
