MODEL 1
REMARK VINA RESULT:      -5.0      0.000      0.000
REMARK  2 active torsions:
REMARK  status: ('A' for Active; 'I' for Inactive)
REMARK    1  A    between atoms: C1_1  and  C6_6 
REMARK    2  A    between atoms: C1_1  and  O9_9 
ROOT
HETATM    1  C2  UNL     1     -35.317   6.110   3.622  1.00 20.00     0.024 C 
HETATM    2  C3  UNL     1     -33.693   4.757   3.803  1.00 20.00     0.024 C 
HETATM    3  C4  UNL     1     -34.280   5.938   5.464  1.00 20.00     0.024 C 
HETATM    4  C5  UNL     1     -35.049   4.897   4.579  1.00 20.00    -0.011 C 
HETATM    5  C6  UNL     1     -33.820   6.297   4.017  1.00 20.00     0.049 C 
ENDROOT
BRANCH   5   6
HETATM    6  C1  UNL     1     -32.883   7.365   3.586  1.00 20.00     0.267 C 
HETATM    7  O8  UNL     1     -32.151   7.984   4.347  1.00 20.00    -0.264 OA
BRANCH   6   8
HETATM    8  O9  UNL     1     -32.975   7.534   2.236  1.00 20.00    -0.326 OA
HETATM    9  C7  UNL     1     -32.234   8.636   1.703  1.00 20.00     0.213 C 
ENDBRANCH   6   8
ENDBRANCH   5   6
TORSDOF 2
ENDMDL
MODEL 2
REMARK VINA RESULT:      -5.0      0.021      1.218
REMARK  2 active torsions:
REMARK  status: ('A' for Active; 'I' for Inactive)
REMARK    1  A    between atoms: C1_1  and  C6_6 
REMARK    2  A    between atoms: C1_1  and  O9_9 
ROOT
HETATM    1  C2  UNL     1     -33.706   4.748   3.782  1.00 20.00     0.024 C 
HETATM    2  C3  UNL     1     -34.267   5.912   5.464  1.00 20.00     0.024 C 
HETATM    3  C4  UNL     1     -35.333   6.101   3.641  1.00 20.00     0.024 C 
HETATM    4  C5  UNL     1     -35.050   4.879   4.581  1.00 20.00    -0.011 C 
HETATM    5  C6  UNL     1     -33.830   6.285   4.015  1.00 20.00     0.049 C 
ENDROOT
BRANCH   5   6
HETATM    6  C1  UNL     1     -32.896   7.357   3.583  1.00 20.00     0.267 C 
HETATM    7  O8  UNL     1     -32.159   7.970   4.343  1.00 20.00    -0.264 OA
BRANCH   6   8
HETATM    8  O9  UNL     1     -32.998   7.533   2.235  1.00 20.00    -0.326 OA
HETATM    9  C7  UNL     1     -32.241   8.624   1.700  1.00 20.00     0.213 C 
ENDBRANCH   6   8
ENDBRANCH   5   6
TORSDOF 2
ENDMDL
MODEL 3
REMARK VINA RESULT:      -4.6      0.774      1.799
REMARK  2 active torsions:
REMARK  status: ('A' for Active; 'I' for Inactive)
REMARK    1  A    between atoms: C1_1  and  C6_6 
REMARK    2  A    between atoms: C1_1  and  O9_9 
ROOT
HETATM    1  C2  UNL     1     -34.205   6.026   5.530  1.00 20.00     0.024 C 
HETATM    2  C3  UNL     1     -35.505   5.819   3.867  1.00 20.00     0.024 C 
HETATM    3  C4  UNL     1     -33.838   4.525   4.077  1.00 20.00     0.024 C 
HETATM    4  C5  UNL     1     -35.068   4.828   5.001  1.00 20.00    -0.011 C 
HETATM    5  C6  UNL     1     -33.971   6.077   3.989  1.00 20.00     0.049 C 
ENDROOT
BRANCH   5   6
HETATM    6  C1  UNL     1     -33.135   7.032   3.218  1.00 20.00     0.267 C 
HETATM    7  O8  UNL     1     -33.170   7.145   2.000  1.00 20.00    -0.264 OA
BRANCH   6   8
HETATM    8  O9  UNL     1     -32.346   7.740   4.075  1.00 20.00    -0.326 OA
HETATM    9  C7  UNL     1     -31.270   8.460   3.465  1.00 20.00     0.213 C 
ENDBRANCH   6   8
ENDBRANCH   5   6
TORSDOF 2
ENDMDL
MODEL 4
REMARK VINA RESULT:      -4.3      1.797      3.578
REMARK  2 active torsions:
REMARK  status: ('A' for Active; 'I' for Inactive)
REMARK    1  A    between atoms: C1_1  and  C6_6 
REMARK    2  A    between atoms: C1_1  and  O9_9 
ROOT
HETATM    1  C2  UNL     1     -32.557   6.442   2.670  1.00 20.00     0.024 C 
HETATM    2  C3  UNL     1     -33.529   8.327   2.661  1.00 20.00     0.024 C 
HETATM    3  C4  UNL     1     -31.735   8.064   3.762  1.00 20.00     0.024 C 
HETATM    4  C5  UNL     1     -32.085   7.876   2.245  1.00 20.00    -0.011 C 
HETATM    5  C6  UNL     1     -33.121   7.350   3.806  1.00 20.00     0.049 C 
ENDROOT
BRANCH   5   6
HETATM    6  C1  UNL     1     -33.914   6.945   4.995  1.00 20.00     0.267 C 
HETATM    7  O8  UNL     1     -33.746   7.402   6.118  1.00 20.00    -0.264 OA
BRANCH   6   8
HETATM    8  O9  UNL     1     -34.833   6.006   4.632  1.00 20.00    -0.326 OA
HETATM    9  C7  UNL     1     -34.606   4.692   5.153  1.00 20.00     0.213 C 
ENDBRANCH   6   8
ENDBRANCH   5   6
TORSDOF 2
ENDMDL
MODEL 5
REMARK VINA RESULT:      -4.2      1.425      4.467
REMARK  2 active torsions:
REMARK  status: ('A' for Active; 'I' for Inactive)
REMARK    1  A    between atoms: C1_1  and  C6_6 
REMARK    2  A    between atoms: C1_1  and  O9_9 
ROOT
HETATM    1  C2  UNL     1     -31.348   8.992   0.405  1.00 20.00     0.024 C 
HETATM    2  C3  UNL     1     -33.441   8.657   0.459  1.00 20.00     0.024 C 
HETATM    3  C4  UNL     1     -32.611  10.337   1.452  1.00 20.00     0.024 C 
HETATM    4  C5  UNL     1     -32.573   9.863  -0.042  1.00 20.00    -0.011 C 
HETATM    5  C6  UNL     1     -32.362   8.802   1.575  1.00 20.00     0.049 C 
ENDROOT
BRANCH   5   6
HETATM    6  C1  UNL     1     -32.199   7.990   2.808  1.00 20.00     0.267 C 
HETATM    7  O8  UNL     1     -31.474   8.302   3.743  1.00 20.00    -0.264 OA
BRANCH   6   8
HETATM    8  O9  UNL     1     -32.972   6.871   2.721  1.00 20.00    -0.326 OA
HETATM    9  C7  UNL     1     -33.934   6.706   3.769  1.00 20.00     0.213 C 
ENDBRANCH   6   8
ENDBRANCH   5   6
TORSDOF 2
ENDMDL
MODEL 6
REMARK VINA RESULT:      -4.1     11.468     12.178
REMARK  2 active torsions:
REMARK  status: ('A' for Active; 'I' for Inactive)
REMARK    1  A    between atoms: C1_1  and  C6_6 
REMARK    2  A    between atoms: C1_1  and  O9_9 
ROOT
HETATM    1  C2  UNL     1     -34.491  15.924  -5.385  1.00 20.00     0.024 C 
HETATM    2  C3  UNL     1     -35.047  15.522  -3.378  1.00 20.00     0.024 C 
HETATM    3  C4  UNL     1     -33.505  14.393  -4.298  1.00 20.00     0.024 C 
HETATM    4  C5  UNL     1     -33.684  15.929  -4.040  1.00 20.00    -0.011 C 
HETATM    5  C6  UNL     1     -35.001  14.639  -4.663  1.00 20.00     0.049 C 
ENDROOT
BRANCH   5   6
HETATM    6  C1  UNL     1     -36.008  13.657  -5.140  1.00 20.00     0.267 C 
HETATM    7  O8  UNL     1     -37.207  13.735  -4.905  1.00 20.00    -0.264 OA
BRANCH   6   8
HETATM    8  O9  UNL     1     -35.387  12.682  -5.863  1.00 20.00    -0.326 OA
HETATM    9  C7  UNL     1     -35.263  12.943  -7.265  1.00 20.00     0.213 C 
ENDBRANCH   6   8
ENDBRANCH   5   6
TORSDOF 2
ENDMDL
MODEL 7
REMARK VINA RESULT:      -4.0      1.241      1.450
REMARK  2 active torsions:
REMARK  status: ('A' for Active; 'I' for Inactive)
REMARK    1  A    between atoms: C1_1  and  C6_6 
REMARK    2  A    between atoms: C1_1  and  O9_9 
ROOT
HETATM    1  C2  UNL     1     -34.456   6.528   2.447  1.00 20.00     0.024 C 
HETATM    2  C3  UNL     1     -32.742   5.400   2.985  1.00 20.00     0.024 C 
HETATM    3  C4  UNL     1     -33.689   6.640   4.422  1.00 20.00     0.024 C 
HETATM    4  C5  UNL     1     -34.204   5.442   3.551  1.00 20.00    -0.011 C 
HETATM    5  C6  UNL     1     -33.062   6.926   3.022  1.00 20.00     0.049 C 
ENDROOT
BRANCH   5   6
HETATM    6  C1  UNL     1     -32.191   8.058   2.616  1.00 20.00     0.267 C 
HETATM    7  O8  UNL     1     -31.089   8.283   3.099  1.00 20.00    -0.264 OA
BRANCH   6   8
HETATM    8  O9  UNL     1     -32.810   8.782   1.641  1.00 20.00    -0.326 OA
HETATM    9  C7  UNL     1     -32.165  10.009   1.284  1.00 20.00     0.213 C 
ENDBRANCH   6   8
ENDBRANCH   5   6
TORSDOF 2
ENDMDL
MODEL 8
REMARK VINA RESULT:      -4.0     11.510     12.251
REMARK  2 active torsions:
REMARK  status: ('A' for Active; 'I' for Inactive)
REMARK    1  A    between atoms: C1_1  and  C6_6 
REMARK    2  A    between atoms: C1_1  and  O9_9 
ROOT
HETATM    1  C2  UNL     1     -34.441  15.909  -5.459  1.00 20.00     0.024 C 
HETATM    2  C3  UNL     1     -34.932  15.503  -3.436  1.00 20.00     0.024 C 
HETATM    3  C4  UNL     1     -33.354  14.444  -4.376  1.00 20.00     0.024 C 
HETATM    4  C5  UNL     1     -33.607  15.972  -4.132  1.00 20.00    -0.011 C 
HETATM    5  C6  UNL     1     -34.868  14.608  -4.712  1.00 20.00     0.049 C 
ENDROOT
BRANCH   5   6
HETATM    6  C1  UNL     1     -35.832  13.569  -5.155  1.00 20.00     0.267 C 
HETATM    7  O8  UNL     1     -35.535  12.616  -5.864  1.00 20.00    -0.264 OA
BRANCH   6   8
HETATM    8  O9  UNL     1     -37.068  13.851  -4.653  1.00 20.00    -0.326 OA
HETATM    9  C7  UNL     1     -37.952  14.535  -5.546  1.00 20.00     0.213 C 
ENDBRANCH   6   8
ENDBRANCH   5   6
TORSDOF 2
ENDMDL
MODEL 9
REMARK VINA RESULT:      -3.6     11.138     12.079
REMARK  2 active torsions:
REMARK  status: ('A' for Active; 'I' for Inactive)
REMARK    1  A    between atoms: C1_1  and  C6_6 
REMARK    2  A    between atoms: C1_1  and  O9_9 
ROOT
HETATM    1  C2  UNL     1     -34.503  16.898  -4.690  1.00 20.00     0.024 C 
HETATM    2  C3  UNL     1     -35.845  16.101  -3.253  1.00 20.00     0.024 C 
HETATM    3  C4  UNL     1     -33.829  16.487  -2.721  1.00 20.00     0.024 C 
HETATM    4  C5  UNL     1     -34.972  17.404  -3.281  1.00 20.00    -0.011 C 
HETATM    5  C6  UNL     1     -34.483  15.601  -3.825  1.00 20.00     0.049 C 
ENDROOT
BRANCH   5   6
HETATM    6  C1  UNL     1     -34.112  14.224  -4.243  1.00 20.00     0.267 C 
HETATM    7  O8  UNL     1     -32.959  13.825  -4.338  1.00 20.00    -0.264 OA
BRANCH   6   8
HETATM    8  O9  UNL     1     -35.242  13.505  -4.494  1.00 20.00    -0.326 OA
HETATM    9  C7  UNL     1     -35.671  13.493  -5.860  1.00 20.00     0.213 C 
ENDBRANCH   6   8
ENDBRANCH   5   6
TORSDOF 2
ENDMDL
