MODEL 1
REMARK VINA RESULT:      -4.4      0.000      0.000
REMARK  0 active torsions:
REMARK  status: ('A' for Active; 'I' for Inactive)
ROOT
HETATM    1  C1  UNL     1     -35.136  14.717  -6.429  1.00 20.00     0.045 C 
HETATM    2  C2  UNL     1     -34.524  15.917  -6.475  1.00 20.00     0.011 C 
HETATM    3  C3  UNL     1     -35.263  13.949  -5.164  1.00 20.00     0.028 C 
HETATM    4  C4  UNL     1     -33.965  16.545  -5.203  1.00 20.00     0.059 C 
HETATM    5  C5  UNL     1     -34.623  14.493  -3.908  1.00 20.00     0.067 C 
HETATM    6  C6  UNL     1     -34.602  16.028  -3.891  1.00 20.00    -0.038 C 
HETATM    7  C7  UNL     1     -33.755  16.506  -2.696  1.00 20.00     0.015 C 
HETATM    8  C8  UNL     1     -36.029  16.587  -3.718  1.00 20.00     0.015 C 
HETATM    9  N9  UNL     1     -35.874  12.811  -5.102  1.00 20.00    -0.305 NA
HETATM   10  S10 UNL     1     -34.288  16.883  -7.918  1.00 20.00    -0.085 SA
HETATM   11  H22 UNL     1     -35.840  12.467  -4.140  1.00 20.00     0.186 HD
ENDROOT
TORSDOF 0
ENDMDL
MODEL 2
REMARK VINA RESULT:      -4.3      2.261      2.607
REMARK  0 active torsions:
REMARK  status: ('A' for Active; 'I' for Inactive)
ROOT
HETATM    1  C1  UNL     1     -35.077  14.087  -4.672  1.00 20.00     0.045 C 
HETATM    2  C2  UNL     1     -36.084  14.981  -4.739  1.00 20.00     0.011 C 
HETATM    3  C3  UNL     1     -33.667  14.509  -4.479  1.00 20.00     0.028 C 
HETATM    4  C4  UNL     1     -35.802  16.472  -4.585  1.00 20.00     0.059 C 
HETATM    5  C5  UNL     1     -33.340  15.983  -4.434  1.00 20.00     0.067 C 
HETATM    6  C6  UNL     1     -34.489  16.809  -3.838  1.00 20.00    -0.038 C 
HETATM    7  C7  UNL     1     -34.178  18.307  -4.016  1.00 20.00     0.015 C 
HETATM    8  C8  UNL     1     -34.632  16.528  -2.328  1.00 20.00     0.015 C 
HETATM    9  N9  UNL     1     -32.696  13.659  -4.383  1.00 20.00    -0.305 NA
HETATM   10  S10 UNL     1     -37.773  14.592  -5.001  1.00 20.00    -0.085 SA
HETATM   11  H22 UNL     1     -31.819  14.169  -4.256  1.00 20.00     0.186 HD
ENDROOT
TORSDOF 0
ENDMDL
MODEL 3
REMARK VINA RESULT:      -4.2      1.920      2.775
REMARK  0 active torsions:
REMARK  status: ('A' for Active; 'I' for Inactive)
ROOT
HETATM    1  C1  UNL     1     -33.185  15.733  -5.652  1.00 20.00     0.045 C 
HETATM    2  C2  UNL     1     -34.212  16.437  -6.168  1.00 20.00     0.011 C 
HETATM    3  C3  UNL     1     -33.404  14.533  -4.805  1.00 20.00     0.028 C 
HETATM    4  C4  UNL     1     -35.651  15.996  -5.919  1.00 20.00     0.059 C 
HETATM    5  C5  UNL     1     -34.818  14.134  -4.448  1.00 20.00     0.067 C 
HETATM    6  C6  UNL     1     -35.816  14.500  -5.555  1.00 20.00    -0.038 C 
HETATM    7  C7  UNL     1     -37.249  14.261  -5.041  1.00 20.00     0.015 C 
HETATM    8  C8  UNL     1     -35.600  13.609  -6.796  1.00 20.00     0.015 C 
HETATM    9  N9  UNL     1     -32.427  13.833  -4.329  1.00 20.00    -0.305 NA
HETATM   10  S10 UNL     1     -34.064  17.884  -7.145  1.00 20.00    -0.085 SA
HETATM   11  H22 UNL     1     -32.809  13.059  -3.778  1.00 20.00     0.186 HD
ENDROOT
TORSDOF 0
ENDMDL
MODEL 4
REMARK VINA RESULT:      -4.1      1.870      3.184
REMARK  0 active torsions:
REMARK  status: ('A' for Active; 'I' for Inactive)
ROOT
HETATM    1  C1  UNL     1     -34.884  14.672  -3.957  1.00 20.00     0.045 C 
HETATM    2  C2  UNL     1     -34.548  15.977  -3.987  1.00 20.00     0.011 C 
HETATM    3  C3  UNL     1     -35.581  14.015  -5.091  1.00 20.00     0.028 C 
HETATM    4  C4  UNL     1     -34.851  16.822  -5.220  1.00 20.00     0.059 C 
HETATM    5  C5  UNL     1     -35.995  14.850  -6.282  1.00 20.00     0.067 C 
HETATM    6  C6  UNL     1     -35.028  16.016  -6.530  1.00 20.00    -0.038 C 
HETATM    7  C7  UNL     1     -35.619  16.939  -7.613  1.00 20.00     0.015 C 
HETATM    8  C8  UNL     1     -33.668  15.494  -7.038  1.00 20.00     0.015 C 
HETATM    9  N9  UNL     1     -35.882  12.757  -5.086  1.00 20.00    -0.305 NA
HETATM   10  S10 UNL     1     -33.760  16.854  -2.691  1.00 20.00    -0.085 SA
HETATM   11  H22 UNL     1     -36.355  12.524  -5.963  1.00 20.00     0.186 HD
ENDROOT
TORSDOF 0
ENDMDL
MODEL 5
REMARK VINA RESULT:      -4.1      2.421      3.408
REMARK  0 active torsions:
REMARK  status: ('A' for Active; 'I' for Inactive)
ROOT
HETATM    1  C1  UNL     1     -33.756  15.814  -3.456  1.00 20.00     0.045 C 
HETATM    2  C2  UNL     1     -34.863  16.515  -3.140  1.00 20.00     0.011 C 
HETATM    3  C3  UNL     1     -33.825  14.542  -4.220  1.00 20.00     0.028 C 
HETATM    4  C4  UNL     1     -36.237  16.031  -3.594  1.00 20.00     0.059 C 
HETATM    5  C5  UNL     1     -35.178  13.979  -4.589  1.00 20.00     0.067 C 
HETATM    6  C6  UNL     1     -36.218  15.084  -4.818  1.00 20.00    -0.038 C 
HETATM    7  C7  UNL     1     -37.609  14.441  -4.979  1.00 20.00     0.015 C 
HETATM    8  C8  UNL     1     -35.902  15.866  -6.110  1.00 20.00     0.015 C 
HETATM    9  N9  UNL     1     -32.767  13.876  -4.554  1.00 20.00    -0.305 NA
HETATM   10  S10 UNL     1     -34.895  18.001  -2.213  1.00 20.00    -0.085 SA
HETATM   11  H22 UNL     1     -33.051  13.040  -5.071  1.00 20.00     0.186 HD
ENDROOT
TORSDOF 0
ENDMDL
MODEL 6
REMARK VINA RESULT:      -4.1      2.119      2.618
REMARK  0 active torsions:
REMARK  status: ('A' for Active; 'I' for Inactive)
ROOT
HETATM    1  C1  UNL     1     -37.225  14.768  -4.686  1.00 20.00     0.045 C 
HETATM    2  C2  UNL     1     -37.282  16.113  -4.616  1.00 20.00     0.011 C 
HETATM    3  C3  UNL     1     -35.963  14.052  -5.001  1.00 20.00     0.028 C 
HETATM    4  C4  UNL     1     -36.025  16.949  -4.829  1.00 20.00     0.059 C 
HETATM    5  C5  UNL     1     -34.725  14.855  -5.327  1.00 20.00     0.067 C 
HETATM    6  C6  UNL     1     -34.696  16.196  -4.580  1.00 20.00    -0.038 C 
HETATM    7  C7  UNL     1     -33.527  17.045  -5.115  1.00 20.00     0.015 C 
HETATM    8  C8  UNL     1     -34.470  15.971  -3.071  1.00 20.00     0.015 C 
HETATM    9  N9  UNL     1     -35.889  12.761  -5.042  1.00 20.00    -0.305 NA
HETATM   10  S10 UNL     1     -38.724  17.054  -4.290  1.00 20.00    -0.085 SA
HETATM   11  H22 UNL     1     -34.931  12.490  -5.276  1.00 20.00     0.186 HD
ENDROOT
TORSDOF 0
ENDMDL
MODEL 7
REMARK VINA RESULT:      -4.0      4.548      5.945
REMARK  0 active torsions:
REMARK  status: ('A' for Active; 'I' for Inactive)
ROOT
HETATM    1  C1  UNL     1     -33.928  18.376   0.192  1.00 20.00     0.045 C 
HETATM    2  C2  UNL     1     -35.193  17.913   0.170  1.00 20.00     0.011 C 
HETATM    3  C3  UNL     1     -32.957  18.055  -0.884  1.00 20.00     0.028 C 
HETATM    4  C4  UNL     1     -35.681  17.058  -0.996  1.00 20.00     0.059 C 
HETATM    5  C5  UNL     1     -33.374  17.121  -1.996  1.00 20.00     0.067 C 
HETATM    6  C6  UNL     1     -34.874  17.230  -2.306  1.00 20.00    -0.038 C 
HETATM    7  C7  UNL     1     -35.268  16.112  -3.290  1.00 20.00     0.015 C 
HETATM    8  C8  UNL     1     -35.193  18.585  -2.971  1.00 20.00     0.015 C 
HETATM    9  N9  UNL     1     -31.749  18.518  -0.889  1.00 20.00    -0.305 NA
HETATM   10  S10 UNL     1     -36.403  18.200   1.405  1.00 20.00    -0.085 SA
HETATM   11  H22 UNL     1     -31.262  18.170  -1.718  1.00 20.00     0.186 HD
ENDROOT
TORSDOF 0
ENDMDL
MODEL 8
REMARK VINA RESULT:      -4.0      1.458      1.751
REMARK  0 active torsions:
REMARK  status: ('A' for Active; 'I' for Inactive)
ROOT
HETATM    1  C1  UNL     1     -36.763  15.810  -5.989  1.00 20.00     0.045 C 
HETATM    2  C2  UNL     1     -35.626  16.484  -6.252  1.00 20.00     0.011 C 
HETATM    3  C3  UNL     1     -36.761  14.539  -5.222  1.00 20.00     0.028 C 
HETATM    4  C4  UNL     1     -34.287  15.968  -5.734  1.00 20.00     0.059 C 
HETATM    5  C5  UNL     1     -35.442  13.943  -4.789  1.00 20.00     0.067 C 
HETATM    6  C6  UNL     1     -34.387  15.024  -4.511  1.00 20.00    -0.038 C 
HETATM    7  C7  UNL     1     -33.021  14.348  -4.284  1.00 20.00     0.015 C 
HETATM    8  C8  UNL     1     -34.745  15.815  -3.236  1.00 20.00     0.015 C 
HETATM    9  N9  UNL     1     -37.849  13.899  -4.938  1.00 20.00    -0.305 NA
HETATM   10  S10 UNL     1     -35.514  17.968  -7.178  1.00 20.00    -0.085 SA
HETATM   11  H22 UNL     1     -37.611  13.057  -4.408  1.00 20.00     0.186 HD
ENDROOT
TORSDOF 0
ENDMDL
MODEL 9
REMARK VINA RESULT:      -4.0      2.639      3.592
REMARK  0 active torsions:
REMARK  status: ('A' for Active; 'I' for Inactive)
ROOT
HETATM    1  C1  UNL     1     -35.748  16.473  -2.573  1.00 20.00     0.045 C 
HETATM    2  C2  UNL     1     -34.480  16.930  -2.580  1.00 20.00     0.011 C 
HETATM    3  C3  UNL     1     -36.367  15.858  -3.774  1.00 20.00     0.028 C 
HETATM    4  C4  UNL     1     -33.621  16.798  -3.834  1.00 20.00     0.059 C 
HETATM    5  C5  UNL     1     -35.580  15.812  -5.064  1.00 20.00     0.067 C 
HETATM    6  C6  UNL     1     -34.071  15.686  -4.813  1.00 20.00    -0.038 C 
HETATM    7  C7  UNL     1     -33.322  15.857  -6.148  1.00 20.00     0.015 C 
HETATM    8  C8  UNL     1     -33.730  14.291  -4.250  1.00 20.00     0.015 C 
HETATM    9  N9  UNL     1     -37.573  15.389  -3.770  1.00 20.00    -0.305 NA
HETATM   10  S10 UNL     1     -33.670  17.705  -1.233  1.00 20.00    -0.085 SA
HETATM   11  H22 UNL     1     -37.787  15.016  -4.698  1.00 20.00     0.186 HD
ENDROOT
TORSDOF 0
ENDMDL
