MODEL 1
REMARK VINA RESULT:      -5.8      0.000      0.000
REMARK  4 active torsions:
REMARK  status: ('A' for Active; 'I' for Inactive)
REMARK    1  A    between atoms: C1_1  and  C6_6 
REMARK    2  A    between atoms: C1_1  and  C9_9 
REMARK    3  A    between atoms: C7_7  and  C8_8 
REMARK    4  A    between atoms: C8_8  and  N10_10 
ROOT
HETATM    1  C1  UNL     1     -33.653   6.836   3.642  1.00 20.00     0.009 C 
HETATM    2  N10 UNL     1     -32.816   7.805   3.482  1.00 20.00    -0.298 NA
ENDROOT
BRANCH   1   3
HETATM    3  C6  UNL     1     -33.996   5.793   2.589  1.00 20.00     0.050 C 
HETATM    4  C2  UNL     1     -32.943   4.701   2.558  1.00 20.00     0.011 C 
ENDBRANCH   1   3
BRANCH   1   5
HETATM    5  C9  UNL     1     -34.354   6.705   4.996  1.00 20.00     0.025 C 
HETATM    6  C4  UNL     1     -33.537   7.409   6.075  1.00 20.00     0.016 C 
HETATM    7  C5  UNL     1     -34.594   5.239   5.344  1.00 20.00     0.016 C 
ENDBRANCH   1   5
BRANCH   2   8
HETATM    8  C8  UNL     1     -32.120   7.953   2.215  1.00 20.00     0.148 C 
BRANCH   8   9
HETATM    9  C7  UNL     1     -32.336   9.359   1.668  1.00 20.00     0.017 C 
HETATM   10  C3  UNL     1     -32.670   9.363   0.183  1.00 20.00     0.007 C 
ENDBRANCH   8   9
ENDBRANCH   2   8
TORSDOF 4
ENDMDL
MODEL 2
REMARK VINA RESULT:      -5.6      1.009      2.438
REMARK  4 active torsions:
REMARK  status: ('A' for Active; 'I' for Inactive)
REMARK    1  A    between atoms: C1_1  and  C6_6 
REMARK    2  A    between atoms: C1_1  and  C9_9 
REMARK    3  A    between atoms: C7_7  and  C8_8 
REMARK    4  A    between atoms: C8_8  and  N10_10 
ROOT
HETATM    1  C1  UNL     1     -33.096   7.129   3.542  1.00 20.00     0.009 C 
HETATM    2  N10 UNL     1     -32.753   7.505   2.356  1.00 20.00    -0.298 NA
ENDROOT
BRANCH   1   3
HETATM    3  C6  UNL     1     -32.864   7.928   4.814  1.00 20.00     0.050 C 
HETATM    4  C2  UNL     1     -33.631   7.318   5.974  1.00 20.00     0.011 C 
ENDBRANCH   1   3
BRANCH   1   5
HETATM    5  C9  UNL     1     -33.804   5.780   3.694  1.00 20.00     0.025 C 
HETATM    6  C4  UNL     1     -33.226   4.775   2.702  1.00 20.00     0.016 C 
HETATM    7  C5  UNL     1     -35.311   5.935   3.517  1.00 20.00     0.016 C 
ENDBRANCH   1   5
BRANCH   2   8
HETATM    8  C8  UNL     1     -32.092   8.786   2.170  1.00 20.00     0.148 C 
BRANCH   8   9
HETATM    9  C7  UNL     1     -31.785   8.999   0.693  1.00 20.00     0.017 C 
HETATM   10  C3  UNL     1     -32.966   9.578  -0.072  1.00 20.00     0.007 C 
ENDBRANCH   8   9
ENDBRANCH   2   8
TORSDOF 4
ENDMDL
MODEL 3
REMARK VINA RESULT:      -5.5      0.433      1.206
REMARK  4 active torsions:
REMARK  status: ('A' for Active; 'I' for Inactive)
REMARK    1  A    between atoms: C1_1  and  C6_6 
REMARK    2  A    between atoms: C1_1  and  C9_9 
REMARK    3  A    between atoms: C7_7  and  C8_8 
REMARK    4  A    between atoms: C8_8  and  N10_10 
ROOT
HETATM    1  C1  UNL     1     -33.229   6.750   3.657  1.00 20.00     0.009 C 
HETATM    2  N10 UNL     1     -32.465   7.767   3.440  1.00 20.00    -0.298 NA
ENDROOT
BRANCH   1   3
HETATM    3  C6  UNL     1     -33.814   5.850   2.580  1.00 20.00     0.050 C 
HETATM    4  C2  UNL     1     -32.993   4.580   2.444  1.00 20.00     0.011 C 
ENDBRANCH   1   3
BRANCH   1   5
HETATM    5  C9  UNL     1     -33.574   6.403   5.107  1.00 20.00     0.025 C 
HETATM    6  C4  UNL     1     -34.879   5.614   5.157  1.00 20.00     0.016 C 
HETATM    7  C5  UNL     1     -33.649   7.662   5.964  1.00 20.00     0.016 C 
ENDBRANCH   1   5
BRANCH   2   8
HETATM    8  C8  UNL     1     -32.103   8.119   2.078  1.00 20.00     0.148 C 
BRANCH   8   9
HETATM    9  C7  UNL     1     -32.410   9.590   1.825  1.00 20.00     0.017 C 
HETATM   10  C3  UNL     1     -32.746   9.875   0.368  1.00 20.00     0.007 C 
ENDBRANCH   8   9
ENDBRANCH   2   8
TORSDOF 4
ENDMDL
MODEL 4
REMARK VINA RESULT:      -5.4      0.838      2.348
REMARK  4 active torsions:
REMARK  status: ('A' for Active; 'I' for Inactive)
REMARK    1  A    between atoms: C1_1  and  C6_6 
REMARK    2  A    between atoms: C1_1  and  C9_9 
REMARK    3  A    between atoms: C7_7  and  C8_8 
REMARK    4  A    between atoms: C8_8  and  N10_10 
ROOT
HETATM    1  C1  UNL     1     -33.535   6.617   3.384  1.00 20.00     0.009 C 
HETATM    2  N10 UNL     1     -32.596   7.007   2.590  1.00 20.00    -0.298 NA
ENDROOT
BRANCH   1   3
HETATM    3  C6  UNL     1     -34.194   7.481   4.448  1.00 20.00     0.050 C 
HETATM    4  C2  UNL     1     -33.431   7.390   5.757  1.00 20.00     0.011 C 
ENDBRANCH   1   3
BRANCH   1   5
HETATM    5  C9  UNL     1     -34.046   5.181   3.249  1.00 20.00     0.025 C 
HETATM    6  C4  UNL     1     -34.499   4.660   4.609  1.00 20.00     0.016 C 
HETATM    7  C5  UNL     1     -32.980   4.281   2.633  1.00 20.00     0.016 C 
ENDBRANCH   1   5
BRANCH   2   8
HETATM    8  C8  UNL     1     -32.095   8.368   2.678  1.00 20.00     0.148 C 
BRANCH   8   9
HETATM    9  C7  UNL     1     -31.956   8.959   1.281  1.00 20.00     0.017 C 
HETATM   10  C3  UNL     1     -32.749  10.247   1.109  1.00 20.00     0.007 C 
ENDBRANCH   8   9
ENDBRANCH   2   8
TORSDOF 4
ENDMDL
MODEL 5
REMARK VINA RESULT:      -4.7      0.920      4.086
REMARK  4 active torsions:
REMARK  status: ('A' for Active; 'I' for Inactive)
REMARK    1  A    between atoms: C1_1  and  C6_6 
REMARK    2  A    between atoms: C1_1  and  C9_9 
REMARK    3  A    between atoms: C7_7  and  C8_8 
REMARK    4  A    between atoms: C8_8  and  N10_10 
ROOT
HETATM    1  C1  UNL     1     -33.172   7.084   2.988  1.00 20.00     0.009 C 
HETATM    2  N10 UNL     1     -33.657   7.480   4.117  1.00 20.00    -0.298 NA
ENDROOT
BRANCH   1   3
HETATM    3  C6  UNL     1     -33.709   5.925   2.164  1.00 20.00     0.050 C 
HETATM    4  C2  UNL     1     -32.897   4.668   2.419  1.00 20.00     0.011 C 
ENDBRANCH   1   3
BRANCH   1   5
HETATM    5  C9  UNL     1     -31.969   7.838   2.415  1.00 20.00     0.025 C 
HETATM    6  C4  UNL     1     -31.166   8.472   3.547  1.00 20.00     0.016 C 
HETATM    7  C5  UNL     1     -32.417   8.881   1.396  1.00 20.00     0.016 C 
ENDBRANCH   1   5
BRANCH   2   8
HETATM    8  C8  UNL     1     -34.807   6.799   4.685  1.00 20.00     0.148 C 
BRANCH   8   9
HETATM    9  C7  UNL     1     -34.360   5.890   5.823  1.00 20.00     0.017 C 
HETATM   10  C3  UNL     1     -34.549   4.414   5.502  1.00 20.00     0.007 C 
ENDBRANCH   8   9
ENDBRANCH   2   8
TORSDOF 4
ENDMDL
MODEL 6
REMARK VINA RESULT:      -4.5      1.238      4.593
REMARK  4 active torsions:
REMARK  status: ('A' for Active; 'I' for Inactive)
REMARK    1  A    between atoms: C1_1  and  C6_6 
REMARK    2  A    between atoms: C1_1  and  C9_9 
REMARK    3  A    between atoms: C7_7  and  C8_8 
REMARK    4  A    between atoms: C8_8  and  N10_10 
ROOT
HETATM    1  C1  UNL     1     -32.330   8.223   2.118  1.00 20.00     0.009 C 
HETATM    2  N10 UNL     1     -33.202   7.293   1.918  1.00 20.00    -0.298 NA
ENDROOT
BRANCH   1   3
HETATM    3  C6  UNL     1     -31.355   8.271   3.284  1.00 20.00     0.050 C 
HETATM    4  C2  UNL     1     -32.094   8.507   4.588  1.00 20.00     0.011 C 
ENDBRANCH   1   3
BRANCH   1   5
HETATM    5  C9  UNL     1     -32.252   9.368   1.106  1.00 20.00     0.025 C 
HETATM    6  C4  UNL     1     -32.916  10.616   1.679  1.00 20.00     0.016 C 
HETATM    7  C5  UNL     1     -32.880   8.962  -0.223  1.00 20.00     0.016 C 
ENDBRANCH   1   5
BRANCH   2   8
HETATM    8  C8  UNL     1     -33.296   6.182   2.849  1.00 20.00     0.148 C 
BRANCH   8   9
HETATM    9  C7  UNL     1     -34.688   6.142   3.467  1.00 20.00     0.017 C 
HETATM   10  C3  UNL     1     -34.692   5.529   4.860  1.00 20.00     0.007 C 
ENDBRANCH   8   9
ENDBRANCH   2   8
TORSDOF 4
ENDMDL
MODEL 7
REMARK VINA RESULT:      -4.3      1.381      4.376
REMARK  4 active torsions:
REMARK  status: ('A' for Active; 'I' for Inactive)
REMARK    1  A    between atoms: C1_1  and  C6_6 
REMARK    2  A    between atoms: C1_1  and  C9_9 
REMARK    3  A    between atoms: C7_7  and  C8_8 
REMARK    4  A    between atoms: C8_8  and  N10_10 
ROOT
HETATM    1  C1  UNL     1     -33.445   7.235   3.516  1.00 20.00     0.009 C 
HETATM    2  N10 UNL     1     -34.088   6.192   3.110  1.00 20.00    -0.298 NA
ENDROOT
BRANCH   1   3
HETATM    3  C6  UNL     1     -33.822   8.080   4.723  1.00 20.00     0.050 C 
HETATM    4  C2  UNL     1     -33.469   7.357   6.010  1.00 20.00     0.011 C 
ENDBRANCH   1   3
BRANCH   1   5
HETATM    5  C9  UNL     1     -32.196   7.660   2.739  1.00 20.00     0.025 C 
HETATM    6  C4  UNL     1     -31.200   8.327   3.683  1.00 20.00     0.016 C 
HETATM    7  C5  UNL     1     -32.565   8.576   1.577  1.00 20.00     0.016 C 
ENDBRANCH   1   5
BRANCH   2   8
HETATM    8  C8  UNL     1     -35.269   5.749   3.830  1.00 20.00     0.148 C 
BRANCH   8   9
HETATM    9  C7  UNL     1     -34.901   4.616   4.779  1.00 20.00     0.017 C 
HETATM   10  C3  UNL     1     -33.829   3.699   4.207  1.00 20.00     0.007 C 
ENDBRANCH   8   9
ENDBRANCH   2   8
TORSDOF 4
ENDMDL
MODEL 8
REMARK VINA RESULT:      -4.0     11.043     11.733
REMARK  4 active torsions:
REMARK  status: ('A' for Active; 'I' for Inactive)
REMARK    1  A    between atoms: C1_1  and  C6_6 
REMARK    2  A    between atoms: C1_1  and  C9_9 
REMARK    3  A    between atoms: C7_7  and  C8_8 
REMARK    4  A    between atoms: C8_8  and  N10_10 
ROOT
HETATM    1  C1  UNL     1     -34.689  16.385  -3.344  1.00 20.00     0.009 C 
HETATM    2  N10 UNL     1     -35.963  16.257  -3.510  1.00 20.00    -0.298 NA
ENDROOT
BRANCH   1   3
HETATM    3  C6  UNL     1     -33.644  16.229  -4.438  1.00 20.00     0.050 C 
HETATM    4  C2  UNL     1     -32.972  14.872  -4.344  1.00 20.00     0.011 C 
ENDBRANCH   1   3
BRANCH   1   5
HETATM    5  C9  UNL     1     -34.176  16.732  -1.944  1.00 20.00     0.025 C 
HETATM    6  C4  UNL     1     -35.348  17.073  -1.030  1.00 20.00     0.016 C 
HETATM    7  C5  UNL     1     -33.164  17.871  -2.004  1.00 20.00     0.016 C 
ENDBRANCH   1   5
BRANCH   2   8
HETATM    8  C8  UNL     1     -36.489  15.944  -4.827  1.00 20.00     0.148 C 
BRANCH   8   9
HETATM    9  C7  UNL     1     -37.107  14.551  -4.819  1.00 20.00     0.017 C 
HETATM   10  C3  UNL     1     -36.165  13.490  -5.371  1.00 20.00     0.007 C 
ENDBRANCH   8   9
ENDBRANCH   2   8
TORSDOF 4
ENDMDL
MODEL 9
REMARK VINA RESULT:      -3.9     10.633     11.627
REMARK  4 active torsions:
REMARK  status: ('A' for Active; 'I' for Inactive)
REMARK    1  A    between atoms: C1_1  and  C6_6 
REMARK    2  A    between atoms: C1_1  and  C9_9 
REMARK    3  A    between atoms: C7_7  and  C8_8 
REMARK    4  A    between atoms: C8_8  and  N10_10 
ROOT
HETATM    1  C1  UNL     1     -34.804  15.330  -4.056  1.00 20.00     0.009 C 
HETATM    2  N10 UNL     1     -34.394  16.025  -3.049  1.00 20.00    -0.298 NA
ENDROOT
BRANCH   1   3
HETATM    3  C6  UNL     1     -36.261  15.043  -4.385  1.00 20.00     0.050 C 
HETATM    4  C2  UNL     1     -36.383  13.768  -5.199  1.00 20.00     0.011 C 
ENDBRANCH   1   3
BRANCH   1   5
HETATM    5  C9  UNL     1     -33.756  14.752  -5.010  1.00 20.00     0.025 C 
HETATM    6  C4  UNL     1     -32.603  14.151  -4.212  1.00 20.00     0.016 C 
HETATM    7  C5  UNL     1     -33.265  15.817  -5.986  1.00 20.00     0.016 C 
ENDBRANCH   1   5
BRANCH   2   8
HETATM    8  C8  UNL     1     -35.360  16.602  -2.130  1.00 20.00     0.148 C 
BRANCH   8   9
HETATM    9  C7  UNL     1     -34.634  17.351  -1.020  1.00 20.00     0.017 C 
HETATM   10  C3  UNL     1     -33.213  17.735  -1.406  1.00 20.00     0.007 C 
ENDBRANCH   8   9
ENDBRANCH   2   8
TORSDOF 4
ENDMDL
