MODEL 1
REMARK VINA RESULT:      -4.1      0.000      0.000
REMARK  2 active torsions:
REMARK  status: ('A' for Active; 'I' for Inactive)
REMARK    1  A    between atoms: C2_2  and  C4_4 
REMARK    2  A    between atoms: C4_4  and  S5_5 
ROOT
HETATM    1  C1  UNL     1     -32.854   5.685   3.123  1.00 20.00     0.051 A 
HETATM    2  C2  UNL     1     -33.216   7.049   2.601  1.00 20.00     0.036 A 
HETATM    3  C3  UNL     1     -33.894   6.510   3.841  1.00 20.00     0.118 A 
HETATM    4 CL6  UNL     1     -35.580   6.010   3.697  1.00 20.00    -0.101 Cl
HETATM    5 CL7  UNL     1     -33.492   7.148   5.429  1.00 20.00    -0.101 Cl
ENDROOT
BRANCH   2   6
HETATM    6  C4  UNL     1     -32.214   8.152   2.645  1.00 20.00     0.078 C 
BRANCH   6   7
HETATM    7  S5  UNL     1     -32.280   9.167   1.132  1.00 20.00    -0.182 SA
HETATM    8  H13 UNL     1     -32.005   8.166   0.286  1.00 20.00     0.101 HD
ENDBRANCH   6   7
ENDBRANCH   2   6
TORSDOF 2
ENDMDL
MODEL 2
REMARK VINA RESULT:      -3.9      1.738      2.336
REMARK  2 active torsions:
REMARK  status: ('A' for Active; 'I' for Inactive)
REMARK    1  A    between atoms: C2_2  and  C4_4 
REMARK    2  A    between atoms: C4_4  and  S5_5 
ROOT
HETATM    1  C1  UNL     1     -35.350   6.122   3.564  1.00 20.00     0.051 A 
HETATM    2  C2  UNL     1     -33.945   6.593   3.824  1.00 20.00     0.036 A 
HETATM    3  C3  UNL     1     -34.464   5.350   4.511  1.00 20.00     0.118 A 
HETATM    4 CL6  UNL     1     -34.816   5.456   6.236  1.00 20.00    -0.101 Cl
HETATM    5 CL7  UNL     1     -33.913   3.756   4.012  1.00 20.00    -0.101 Cl
ENDROOT
BRANCH   2   6
HETATM    6  C4  UNL     1     -32.931   6.547   2.731  1.00 20.00     0.078 C 
BRANCH   6   7
HETATM    7  S5  UNL     1     -32.074   8.147   2.556  1.00 20.00    -0.182 SA
HETATM    8  H13 UNL     1     -33.129   8.902   2.890  1.00 20.00     0.101 HD
ENDBRANCH   6   7
ENDBRANCH   2   6
TORSDOF 2
ENDMDL
MODEL 3
REMARK VINA RESULT:      -3.6      1.436      2.159
REMARK  2 active torsions:
REMARK  status: ('A' for Active; 'I' for Inactive)
REMARK    1  A    between atoms: C2_2  and  C4_4 
REMARK    2  A    between atoms: C4_4  and  S5_5 
ROOT
HETATM    1  C1  UNL     1     -33.843   7.275   5.047  1.00 20.00     0.051 A 
HETATM    2  C2  UNL     1     -33.124   6.480   3.992  1.00 20.00     0.036 A 
HETATM    3  C3  UNL     1     -34.449   5.992   4.533  1.00 20.00     0.118 A 
HETATM    4 CL6  UNL     1     -34.428   4.589   5.601  1.00 20.00    -0.101 Cl
HETATM    5 CL7  UNL     1     -35.907   6.099   3.557  1.00 20.00    -0.101 Cl
ENDROOT
BRANCH   2   6
HETATM    6  C4  UNL     1     -32.970   7.037   2.617  1.00 20.00     0.078 C 
BRANCH   6   7
HETATM    7  S5  UNL     1     -31.813   8.446   2.599  1.00 20.00    -0.182 SA
HETATM    8  H13 UNL     1     -32.415   9.102   1.598  1.00 20.00     0.101 HD
ENDBRANCH   6   7
ENDBRANCH   2   6
TORSDOF 2
ENDMDL
MODEL 4
REMARK VINA RESULT:      -3.5      3.487      4.010
REMARK  2 active torsions:
REMARK  status: ('A' for Active; 'I' for Inactive)
REMARK    1  A    between atoms: C2_2  and  C4_4 
REMARK    2  A    between atoms: C4_4  and  S5_5 
ROOT
HETATM    1  C1  UNL     1     -31.548   8.634   3.196  1.00 20.00     0.051 A 
HETATM    2  C2  UNL     1     -32.857   8.007   2.799  1.00 20.00     0.036 A 
HETATM    3  C3  UNL     1     -32.129   8.912   1.831  1.00 20.00     0.118 A 
HETATM    4 CL6  UNL     1     -32.810  10.512   1.538  1.00 20.00    -0.101 Cl
HETATM    5 CL7  UNL     1     -31.304   8.242   0.430  1.00 20.00    -0.101 Cl
ENDROOT
BRANCH   2   6
HETATM    6  C4  UNL     1     -32.948   6.531   2.612  1.00 20.00     0.078 C 
BRANCH   6   7
HETATM    7  S5  UNL     1     -34.301   5.820   3.606  1.00 20.00    -0.182 SA
HETATM    8  H13 UNL     1     -33.529   4.969   4.295  1.00 20.00     0.101 HD
ENDBRANCH   6   7
ENDBRANCH   2   6
TORSDOF 2
ENDMDL
MODEL 5
REMARK VINA RESULT:      -3.3      1.674      2.049
REMARK  2 active torsions:
REMARK  status: ('A' for Active; 'I' for Inactive)
REMARK    1  A    between atoms: C2_2  and  C4_4 
REMARK    2  A    between atoms: C4_4  and  S5_5 
ROOT
HETATM    1  C1  UNL     1     -31.493   7.889   3.332  1.00 20.00     0.051 A 
HETATM    2  C2  UNL     1     -32.149   8.077   1.992  1.00 20.00     0.036 A 
HETATM    3  C3  UNL     1     -32.792   7.185   3.030  1.00 20.00     0.118 A 
HETATM    4 CL6  UNL     1     -32.738   5.444   2.757  1.00 20.00    -0.101 Cl
HETATM    5 CL7  UNL     1     -34.235   7.709   3.887  1.00 20.00    -0.101 Cl
ENDROOT
BRANCH   2   6
HETATM    6  C4  UNL     1     -32.705   9.408   1.615  1.00 20.00     0.078 C 
BRANCH   6   7
HETATM    7  S5  UNL     1     -32.961   9.534  -0.185  1.00 20.00    -0.182 SA
HETATM    8  H13 UNL     1     -32.660   8.257  -0.454  1.00 20.00     0.101 HD
ENDBRANCH   6   7
ENDBRANCH   2   6
TORSDOF 2
ENDMDL
MODEL 6
REMARK VINA RESULT:      -3.3      3.232      3.733
REMARK  2 active torsions:
REMARK  status: ('A' for Active; 'I' for Inactive)
REMARK    1  A    between atoms: C2_2  and  C4_4 
REMARK    2  A    between atoms: C4_4  and  S5_5 
ROOT
HETATM    1  C1  UNL     1     -33.056   7.187   4.511  1.00 20.00     0.051 A 
HETATM    2  C2  UNL     1     -34.373   7.028   3.802  1.00 20.00     0.036 A 
HETATM    3  C3  UNL     1     -33.079   6.876   3.035  1.00 20.00     0.118 A 
HETATM    4 CL6  UNL     1     -32.635   8.168   1.918  1.00 20.00    -0.101 Cl
HETATM    5 CL7  UNL     1     -32.528   5.290   2.515  1.00 20.00    -0.101 Cl
ENDROOT
BRANCH   2   6
HETATM    6  C4  UNL     1     -35.259   5.873   4.126  1.00 20.00     0.078 C 
BRANCH   6   7
HETATM    7  S5  UNL     1     -34.643   4.953   5.574  1.00 20.00    -0.182 SA
HETATM    8  H13 UNL     1     -34.820   3.735   5.046  1.00 20.00     0.101 HD
ENDBRANCH   6   7
ENDBRANCH   2   6
TORSDOF 2
ENDMDL
MODEL 7
REMARK VINA RESULT:      -3.0      3.126      3.489
REMARK  2 active torsions:
REMARK  status: ('A' for Active; 'I' for Inactive)
REMARK    1  A    between atoms: C2_2  and  C4_4 
REMARK    2  A    between atoms: C4_4  and  S5_5 
ROOT
HETATM    1  C1  UNL     1     -34.003   7.566   3.427  1.00 20.00     0.051 A 
HETATM    2  C2  UNL     1     -33.443   6.514   2.508  1.00 20.00     0.036 A 
HETATM    3  C3  UNL     1     -32.712   7.826   2.690  1.00 20.00     0.118 A 
HETATM    4 CL6  UNL     1     -32.748   8.973   1.351  1.00 20.00    -0.101 Cl
HETATM    5 CL7  UNL     1     -31.225   7.898   3.626  1.00 20.00    -0.101 Cl
ENDROOT
BRANCH   2   6
HETATM    6  C4  UNL     1     -32.942   5.227   3.069  1.00 20.00     0.078 C 
BRANCH   6   7
HETATM    7  S5  UNL     1     -34.161   4.478   4.198  1.00 20.00    -0.182 SA
HETATM    8  H13 UNL     1     -33.724   3.220   4.053  1.00 20.00     0.101 HD
ENDBRANCH   6   7
ENDBRANCH   2   6
TORSDOF 2
ENDMDL
MODEL 8
REMARK VINA RESULT:      -2.9     10.985     11.645
REMARK  2 active torsions:
REMARK  status: ('A' for Active; 'I' for Inactive)
REMARK    1  A    between atoms: C2_2  and  C4_4 
REMARK    2  A    between atoms: C4_4  and  S5_5 
ROOT
HETATM    1  C1  UNL     1     -33.004  14.356  -4.232  1.00 20.00     0.051 A 
HETATM    2  C2  UNL     1     -34.506  14.434  -4.210  1.00 20.00     0.036 A 
HETATM    3  C3  UNL     1     -33.683  15.703  -4.186  1.00 20.00     0.118 A 
HETATM    4 CL6  UNL     1     -33.617  16.604  -2.672  1.00 20.00    -0.101 Cl
HETATM    5 CL7  UNL     1     -33.581  16.729  -5.610  1.00 20.00    -0.101 Cl
ENDROOT
BRANCH   2   6
HETATM    6  C4  UNL     1     -35.290  14.004  -5.402  1.00 20.00     0.078 C 
BRANCH   6   7
HETATM    7  S5  UNL     1     -37.068  14.343  -5.183  1.00 20.00    -0.182 SA
HETATM    8  H13 UNL     1     -36.913  15.607  -4.768  1.00 20.00     0.101 HD
ENDBRANCH   6   7
ENDBRANCH   2   6
TORSDOF 2
ENDMDL
MODEL 9
REMARK VINA RESULT:      -2.8     10.810     11.532
REMARK  2 active torsions:
REMARK  status: ('A' for Active; 'I' for Inactive)
REMARK    1  A    between atoms: C2_2  and  C4_4 
REMARK    2  A    between atoms: C4_4  and  S5_5 
ROOT
HETATM    1  C1  UNL     1     -33.139  14.419  -4.397  1.00 20.00     0.051 A 
HETATM    2  C2  UNL     1     -33.982  15.665  -4.392  1.00 20.00     0.036 A 
HETATM    3  C3  UNL     1     -34.328  14.522  -5.320  1.00 20.00     0.118 A 
HETATM    4 CL6  UNL     1     -34.015  14.744  -7.042  1.00 20.00    -0.101 Cl
HETATM    5 CL7  UNL     1     -35.719  13.497  -4.994  1.00 20.00    -0.101 Cl
ENDROOT
BRANCH   2   6
HETATM    6  C4  UNL     1     -34.798  16.006  -3.192  1.00 20.00     0.078 C 
BRANCH   6   7
HETATM    7  S5  UNL     1     -33.880  17.095  -2.054  1.00 20.00    -0.182 SA
HETATM    8  H13 UNL     1     -34.578  16.766  -0.960  1.00 20.00     0.101 HD
ENDBRANCH   6   7
ENDBRANCH   2   6
TORSDOF 2
ENDMDL
