MODEL 1
REMARK VINA RESULT:      -4.8      0.000      0.000
REMARK  1 active torsions:
REMARK  status: ('A' for Active; 'I' for Inactive)
REMARK    1  A    between atoms: C4_4  and  C5_5 
ROOT
HETATM    1  C1  UNL     1     -34.471   5.759   5.195  1.00 20.00     0.127 C 
HETATM    2  C2  UNL     1     -33.778   7.124   5.348  1.00 20.00     0.084 C 
HETATM    3  C3  UNL     1     -34.790   6.020   3.713  1.00 20.00     0.084 C 
HETATM    4  C4  UNL     1     -33.843   7.251   3.799  1.00 20.00     0.013 C 
HETATM    5  O6  UNL     1     -34.676   4.832   5.948  1.00 20.00    -0.298 OA
ENDROOT
BRANCH   4   6
HETATM    6  C5  UNL     1     -32.511   7.088   3.085  1.00 20.00     0.120 C 
HETATM    7 CL7  UNL     1     -32.066   8.591   2.251  1.00 20.00    -0.130 Cl
ENDBRANCH   4   6
TORSDOF 1
ENDMDL
MODEL 2
REMARK VINA RESULT:      -4.7      1.309      1.571
REMARK  1 active torsions:
REMARK  status: ('A' for Active; 'I' for Inactive)
REMARK    1  A    between atoms: C4_4  and  C5_5 
ROOT
HETATM    1  C1  UNL     1     -34.135   4.714   3.896  1.00 20.00     0.127 C 
HETATM    2  C2  UNL     1     -34.770   6.104   3.716  1.00 20.00     0.084 C 
HETATM    3  C3  UNL     1     -33.131   4.960   2.757  1.00 20.00     0.084 C 
HETATM    4  C4  UNL     1     -33.576   6.449   2.781  1.00 20.00     0.013 C 
HETATM    5  O6  UNL     1     -34.341   3.788   4.650  1.00 20.00    -0.298 OA
ENDROOT
BRANCH   4   6
HETATM    6  C5  UNL     1     -32.559   7.415   3.367  1.00 20.00     0.120 C 
HETATM    7 CL7  UNL     1     -31.877   8.447   2.093  1.00 20.00    -0.130 Cl
ENDBRANCH   4   6
TORSDOF 1
ENDMDL
MODEL 3
REMARK VINA RESULT:      -4.4      1.290      1.903
REMARK  1 active torsions:
REMARK  status: ('A' for Active; 'I' for Inactive)
REMARK    1  A    between atoms: C4_4  and  C5_5 
ROOT
HETATM    1  C1  UNL     1     -34.265   6.141   3.863  1.00 20.00     0.127 C 
HETATM    2  C2  UNL     1     -33.267   5.866   2.725  1.00 20.00     0.084 C 
HETATM    3  C3  UNL     1     -33.415   7.301   4.408  1.00 20.00     0.084 C 
HETATM    4  C4  UNL     1     -32.577   7.207   3.102  1.00 20.00     0.013 C 
HETATM    5  O6  UNL     1     -35.319   5.642   4.194  1.00 20.00    -0.298 OA
ENDROOT
BRANCH   4   6
HETATM    6  C5  UNL     1     -32.797   8.343   2.114  1.00 20.00     0.120 C 
HETATM    7 CL7  UNL     1     -31.357   8.570   1.100  1.00 20.00    -0.130 Cl
ENDBRANCH   4   6
TORSDOF 1
ENDMDL
MODEL 4
REMARK VINA RESULT:      -4.2      2.261      3.056
REMARK  1 active torsions:
REMARK  status: ('A' for Active; 'I' for Inactive)
REMARK    1  A    between atoms: C4_4  and  C5_5 
ROOT
HETATM    1  C1  UNL     1     -32.736   7.555   3.937  1.00 20.00     0.127 C 
HETATM    2  C2  UNL     1     -33.146   7.184   2.502  1.00 20.00     0.084 C 
HETATM    3  C3  UNL     1     -31.491   8.314   3.448  1.00 20.00     0.084 C 
HETATM    4  C4  UNL     1     -32.066   8.187   2.009  1.00 20.00     0.013 C 
HETATM    5  O6  UNL     1     -33.214   7.341   5.030  1.00 20.00    -0.298 OA
ENDROOT
BRANCH   4   6
HETATM    6  C5  UNL     1     -32.611   9.479   1.418  1.00 20.00     0.120 C 
HETATM    7 CL7  UNL     1     -32.922   9.283  -0.319  1.00 20.00    -0.130 Cl
ENDBRANCH   4   6
TORSDOF 1
ENDMDL
MODEL 5
REMARK VINA RESULT:      -4.1      3.079      3.642
REMARK  1 active torsions:
REMARK  status: ('A' for Active; 'I' for Inactive)
REMARK    1  A    between atoms: C4_4  and  C5_5 
ROOT
HETATM    1  C1  UNL     1     -32.474   7.643   3.612  1.00 20.00     0.127 C 
HETATM    2  C2  UNL     1     -33.277   6.925   2.514  1.00 20.00     0.084 C 
HETATM    3  C3  UNL     1     -33.554   7.362   4.670  1.00 20.00     0.084 C 
HETATM    4  C4  UNL     1     -34.210   6.398   3.641  1.00 20.00     0.013 C 
HETATM    5  O6  UNL     1     -31.400   8.205   3.636  1.00 20.00    -0.298 OA
ENDROOT
BRANCH   4   6
HETATM    6  C5  UNL     1     -34.060   4.918   3.960  1.00 20.00     0.120 C 
HETATM    7 CL7  UNL     1     -34.649   4.574   5.599  1.00 20.00    -0.130 Cl
ENDBRANCH   4   6
TORSDOF 1
ENDMDL
MODEL 6
REMARK VINA RESULT:      -4.1      2.175      2.725
REMARK  1 active torsions:
REMARK  status: ('A' for Active; 'I' for Inactive)
REMARK    1  A    between atoms: C4_4  and  C5_5 
ROOT
HETATM    1  C1  UNL     1     -33.934   6.869   5.516  1.00 20.00     0.127 C 
HETATM    2  C2  UNL     1     -34.292   6.707   4.029  1.00 20.00     0.084 C 
HETATM    3  C3  UNL     1     -34.713   5.600   5.903  1.00 20.00     0.084 C 
HETATM    4  C4  UNL     1     -34.820   5.288   4.384  1.00 20.00     0.013 C 
HETATM    5  O6  UNL     1     -33.281   7.678   6.140  1.00 20.00    -0.298 OA
ENDROOT
BRANCH   4   6
HETATM    6  C5  UNL     1     -33.948   4.139   3.901  1.00 20.00     0.120 C 
HETATM    7 CL7  UNL     1     -32.984   4.639   2.497  1.00 20.00    -0.130 Cl
ENDBRANCH   4   6
TORSDOF 1
ENDMDL
MODEL 7
REMARK VINA RESULT:      -4.1      2.371      3.029
REMARK  1 active torsions:
REMARK  status: ('A' for Active; 'I' for Inactive)
REMARK    1  A    between atoms: C4_4  and  C5_5 
ROOT
HETATM    1  C1  UNL     1     -33.624   4.913   3.211  1.00 20.00     0.127 C 
HETATM    2  C2  UNL     1     -34.313   4.163   4.364  1.00 20.00     0.084 C 
HETATM    3  C3  UNL     1     -34.479   6.171   3.441  1.00 20.00     0.084 C 
HETATM    4  C4  UNL     1     -34.953   5.520   4.771  1.00 20.00     0.013 C 
HETATM    5  O6  UNL     1     -32.742   4.627   2.431  1.00 20.00    -0.298 OA
ENDROOT
BRANCH   4   6
HETATM    6  C5  UNL     1     -34.383   6.147   6.033  1.00 20.00     0.120 C 
HETATM    7 CL7  UNL     1     -33.387   7.560   5.628  1.00 20.00    -0.130 Cl
ENDBRANCH   4   6
TORSDOF 1
ENDMDL
MODEL 8
REMARK VINA RESULT:      -4.0      3.353      3.911
REMARK  1 active torsions:
REMARK  status: ('A' for Active; 'I' for Inactive)
REMARK    1  A    between atoms: C4_4  and  C5_5 
ROOT
HETATM    1  C1  UNL     1     -32.554   8.203   2.181  1.00 20.00     0.127 C 
HETATM    2  C2  UNL     1     -31.774   8.096   3.502  1.00 20.00     0.084 C 
HETATM    3  C3  UNL     1     -33.331   6.906   2.466  1.00 20.00     0.084 C 
HETATM    4  C4  UNL     1     -32.761   6.966   3.911  1.00 20.00     0.013 C 
HETATM    5  O6  UNL     1     -32.561   9.004   1.272  1.00 20.00    -0.298 OA
ENDROOT
BRANCH   4   6
HETATM    6  C5  UNL     1     -33.768   7.349   4.984  1.00 20.00     0.120 C 
HETATM    7 CL7  UNL     1     -34.382   5.899   5.805  1.00 20.00    -0.130 Cl
ENDBRANCH   4   6
TORSDOF 1
ENDMDL
MODEL 9
REMARK VINA RESULT:      -3.6      4.027      4.996
REMARK  1 active torsions:
REMARK  status: ('A' for Active; 'I' for Inactive)
REMARK    1  A    between atoms: C4_4  and  C5_5 
ROOT
HETATM    1  C1  UNL     1     -32.643   9.440   0.297  1.00 20.00     0.127 C 
HETATM    2  C2  UNL     1     -32.931   9.818   1.760  1.00 20.00     0.084 C 
HETATM    3  C3  UNL     1     -31.468   8.533   0.700  1.00 20.00     0.084 C 
HETATM    4  C4  UNL     1     -31.946   8.687   2.172  1.00 20.00     0.013 C 
HETATM    5  O6  UNL     1     -33.153   9.734  -0.763  1.00 20.00    -0.298 OA
ENDROOT
BRANCH   4   6
HETATM    6  C5  UNL     1     -32.601   7.451   2.767  1.00 20.00     0.120 C 
HETATM    7 CL7  UNL     1     -32.798   7.637   4.522  1.00 20.00    -0.130 Cl
ENDBRANCH   4   6
TORSDOF 1
ENDMDL
