MODEL 1
REMARK VINA RESULT:      -4.7      0.000      0.000
REMARK  2 active torsions:
REMARK  status: ('A' for Active; 'I' for Inactive)
REMARK    1  A    between atoms: C1_1  and  C7_7 
REMARK    2  A    between atoms: C6_6  and  N8_8 
ROOT
HETATM    1  C1  UNL     1     -33.222   6.523   3.778  1.00 20.00     0.108 C 
HETATM    2  N8  UNL     1     -33.377   7.176   2.677  1.00 20.00    -0.299 NA
ENDROOT
BRANCH   1   3
HETATM    3  C7  UNL     1     -34.336   5.697   4.393  1.00 20.00     0.063 C 
HETATM    4  C4  UNL     1     -34.491   6.085   5.861  1.00 20.00     0.038 C 
HETATM    5  C5  UNL     1     -34.122   4.191   4.248  1.00 20.00     0.038 C 
HETATM    6 CL9  UNL     1     -35.819   6.162   3.501  1.00 20.00    -0.114 Cl
ENDBRANCH   1   3
BRANCH   2   7
HETATM    7  C6  UNL     1     -32.179   7.905   2.273  1.00 20.00     0.099 C 
HETATM    8  C2  UNL     1     -32.591   9.107   1.436  1.00 20.00     0.034 C 
HETATM    9  C3  UNL     1     -31.409   8.320   3.518  1.00 20.00     0.034 C 
ENDBRANCH   2   7
TORSDOF 2
ENDMDL
MODEL 2
REMARK VINA RESULT:      -4.7      1.100      1.507
REMARK  2 active torsions:
REMARK  status: ('A' for Active; 'I' for Inactive)
REMARK    1  A    between atoms: C1_1  and  C7_7 
REMARK    2  A    between atoms: C6_6  and  N8_8 
ROOT
HETATM    1  C1  UNL     1     -33.214   6.606   3.742  1.00 20.00     0.108 C 
HETATM    2  N8  UNL     1     -33.320   7.205   2.605  1.00 20.00    -0.299 NA
ENDROOT
BRANCH   1   3
HETATM    3  C7  UNL     1     -34.339   5.772   4.325  1.00 20.00     0.063 C 
HETATM    4  C4  UNL     1     -35.639   6.119   3.604  1.00 20.00     0.038 C 
HETATM    5  C5  UNL     1     -34.494   5.939   5.836  1.00 20.00     0.038 C 
HETATM    6 CL9  UNL     1     -33.904   4.071   3.969  1.00 20.00    -0.114 Cl
ENDBRANCH   1   3
BRANCH   2   7
HETATM    7  C6  UNL     1     -32.121   7.953   2.241  1.00 20.00     0.099 C 
HETATM    8  C2  UNL     1     -32.527   9.166   1.416  1.00 20.00     0.034 C 
HETATM    9  C3  UNL     1     -31.384   8.355   3.509  1.00 20.00     0.034 C 
ENDBRANCH   2   7
TORSDOF 2
ENDMDL
MODEL 3
REMARK VINA RESULT:      -4.7      1.117      1.547
REMARK  2 active torsions:
REMARK  status: ('A' for Active; 'I' for Inactive)
REMARK    1  A    between atoms: C1_1  and  C7_7 
REMARK    2  A    between atoms: C6_6  and  N8_8 
ROOT
HETATM    1  C1  UNL     1     -33.192   6.624   3.662  1.00 20.00     0.108 C 
HETATM    2  N8  UNL     1     -33.303   7.263   2.547  1.00 20.00    -0.299 NA
ENDROOT
BRANCH   1   3
HETATM    3  C7  UNL     1     -34.318   5.778   4.225  1.00 20.00     0.063 C 
HETATM    4  C4  UNL     1     -33.966   4.302   4.050  1.00 20.00     0.038 C 
HETATM    5  C5  UNL     1     -35.678   6.090   3.604  1.00 20.00     0.038 C 
HETATM    6 CL9  UNL     1     -34.374   6.165   5.974  1.00 20.00    -0.114 Cl
ENDBRANCH   1   3
BRANCH   2   7
HETATM    7  C6  UNL     1     -32.102   8.016   2.199  1.00 20.00     0.099 C 
HETATM    8  C2  UNL     1     -32.507   9.256   1.416  1.00 20.00     0.034 C 
HETATM    9  C3  UNL     1     -31.356   8.373   3.476  1.00 20.00     0.034 C 
ENDBRANCH   2   7
TORSDOF 2
ENDMDL
MODEL 4
REMARK VINA RESULT:      -4.4      2.369      4.676
REMARK  2 active torsions:
REMARK  status: ('A' for Active; 'I' for Inactive)
REMARK    1  A    between atoms: C1_1  and  C7_7 
REMARK    2  A    between atoms: C6_6  and  N8_8 
ROOT
HETATM    1  C1  UNL     1     -33.326   8.367   1.845  1.00 20.00     0.108 C 
HETATM    2  N8  UNL     1     -32.831   7.811   2.897  1.00 20.00    -0.299 NA
ENDROOT
BRANCH   1   3
HETATM    3  C7  UNL     1     -32.511   9.291   0.959  1.00 20.00     0.063 C 
HETATM    4  C4  UNL     1     -31.094   8.738   0.836  1.00 20.00     0.038 C 
HETATM    5  C5  UNL     1     -32.491  10.737   1.451  1.00 20.00     0.038 C 
HETATM    6 CL9  UNL     1     -33.306   9.233  -0.646  1.00 20.00    -0.114 Cl
ENDBRANCH   1   3
BRANCH   2   7
HETATM    7  C6  UNL     1     -33.792   6.967   3.601  1.00 20.00     0.099 C 
HETATM    8  C2  UNL     1     -33.588   5.521   3.172  1.00 20.00     0.034 C 
HETATM    9  C3  UNL     1     -33.599   7.143   5.100  1.00 20.00     0.034 C 
ENDBRANCH   2   7
TORSDOF 2
ENDMDL
MODEL 5
REMARK VINA RESULT:      -4.3      1.259      2.013
REMARK  2 active torsions:
REMARK  status: ('A' for Active; 'I' for Inactive)
REMARK    1  A    between atoms: C1_1  and  C7_7 
REMARK    2  A    between atoms: C6_6  and  N8_8 
ROOT
HETATM    1  C1  UNL     1     -33.349   6.999   3.738  1.00 20.00     0.108 C 
HETATM    2  N8  UNL     1     -33.216   7.426   2.529  1.00 20.00    -0.299 NA
ENDROOT
BRANCH   1   3
HETATM    3  C7  UNL     1     -34.284   5.859   4.094  1.00 20.00     0.063 C 
HETATM    4  C4  UNL     1     -33.682   4.548   3.594  1.00 20.00     0.038 C 
HETATM    5  C5  UNL     1     -35.700   6.048   3.556  1.00 20.00     0.038 C 
HETATM    6 CL9  UNL     1     -34.341   5.834   5.886  1.00 20.00    -0.114 Cl
ENDBRANCH   1   3
BRANCH   2   7
HETATM    7  C6  UNL     1     -32.269   8.532   2.416  1.00 20.00     0.099 C 
HETATM    8  C2  UNL     1     -31.206   8.384   3.495  1.00 20.00     0.034 C 
HETATM    9  C3  UNL     1     -31.662   8.522   1.021  1.00 20.00     0.034 C 
ENDBRANCH   2   7
TORSDOF 2
ENDMDL
MODEL 6
REMARK VINA RESULT:      -4.3      2.475      4.705
REMARK  2 active torsions:
REMARK  status: ('A' for Active; 'I' for Inactive)
REMARK    1  A    between atoms: C1_1  and  C7_7 
REMARK    2  A    between atoms: C6_6  and  N8_8 
ROOT
HETATM    1  C1  UNL     1     -33.331   8.467   1.870  1.00 20.00     0.108 C 
HETATM    2  N8  UNL     1     -32.794   7.607   2.667  1.00 20.00    -0.299 NA
ENDROOT
BRANCH   1   3
HETATM    3  C7  UNL     1     -32.511   9.280   0.886  1.00 20.00     0.063 C 
HETATM    4  C4  UNL     1     -33.226   9.297  -0.462  1.00 20.00     0.038 C 
HETATM    5  C5  UNL     1     -31.076   8.778   0.735  1.00 20.00     0.038 C 
HETATM    6 CL9  UNL     1     -32.478  10.942   1.556  1.00 20.00    -0.114 Cl
ENDBRANCH   1   3
BRANCH   2   7
HETATM    7  C6  UNL     1     -33.767   6.943   3.529  1.00 20.00     0.099 C 
HETATM    8  C2  UNL     1     -33.714   5.444   3.271  1.00 20.00     0.034 C 
HETATM    9  C3  UNL     1     -33.452   7.277   4.979  1.00 20.00     0.034 C 
ENDBRANCH   2   7
TORSDOF 2
ENDMDL
MODEL 7
REMARK VINA RESULT:      -4.3      2.596      4.712
REMARK  2 active torsions:
REMARK  status: ('A' for Active; 'I' for Inactive)
REMARK    1  A    between atoms: C1_1  and  C7_7 
REMARK    2  A    between atoms: C6_6  and  N8_8 
ROOT
HETATM    1  C1  UNL     1     -32.985   8.134   1.824  1.00 20.00     0.108 C 
HETATM    2  N8  UNL     1     -32.359   7.877   2.921  1.00 20.00    -0.299 NA
ENDROOT
BRANCH   1   3
HETATM    3  C7  UNL     1     -32.522   9.212   0.862  1.00 20.00     0.063 C 
HETATM    4  C4  UNL     1     -32.562  10.562   1.573  1.00 20.00     0.038 C 
HETATM    5  C5  UNL     1     -33.331   9.254  -0.433  1.00 20.00     0.038 C 
HETATM    6 CL9  UNL     1     -30.821   8.802   0.473  1.00 20.00    -0.114 Cl
ENDBRANCH   1   3
BRANCH   2   7
HETATM    7  C6  UNL     1     -32.982   6.807   3.695  1.00 20.00     0.099 C 
HETATM    8  C2  UNL     1     -33.634   7.407   4.932  1.00 20.00     0.034 C 
HETATM    9  C3  UNL     1     -33.993   6.086   2.817  1.00 20.00     0.034 C 
ENDBRANCH   2   7
TORSDOF 2
ENDMDL
MODEL 8
REMARK VINA RESULT:      -4.0      2.040      2.578
REMARK  2 active torsions:
REMARK  status: ('A' for Active; 'I' for Inactive)
REMARK    1  A    between atoms: C1_1  and  C7_7 
REMARK    2  A    between atoms: C6_6  and  N8_8 
ROOT
HETATM    1  C1  UNL     1     -33.307   7.962   2.267  1.00 20.00     0.108 C 
HETATM    2  N8  UNL     1     -32.135   8.275   1.831  1.00 20.00    -0.299 NA
ENDROOT
BRANCH   1   3
HETATM    3  C7  UNL     1     -33.529   6.823   3.244  1.00 20.00     0.063 C 
HETATM    4  C4  UNL     1     -32.635   5.650   2.851  1.00 20.00     0.038 C 
HETATM    5  C5  UNL     1     -34.989   6.386   3.340  1.00 20.00     0.038 C 
HETATM    6 CL9  UNL     1     -33.005   7.455   4.837  1.00 20.00    -0.114 Cl
ENDBRANCH   1   3
BRANCH   2   7
HETATM    7  C6  UNL     1     -32.154   9.397   0.898  1.00 20.00     0.099 C 
HETATM    8  C2  UNL     1     -32.919   8.987  -0.352  1.00 20.00     0.034 C 
HETATM    9  C3  UNL     1     -32.793  10.597   1.581  1.00 20.00     0.034 C 
ENDBRANCH   2   7
TORSDOF 2
ENDMDL
MODEL 9
REMARK VINA RESULT:      -3.8      2.107      4.418
REMARK  2 active torsions:
REMARK  status: ('A' for Active; 'I' for Inactive)
REMARK    1  A    between atoms: C1_1  and  C7_7 
REMARK    2  A    between atoms: C6_6  and  N8_8 
ROOT
HETATM    1  C1  UNL     1     -33.055   7.465   2.195  1.00 20.00     0.108 C 
HETATM    2  N8  UNL     1     -33.470   7.171   3.380  1.00 20.00    -0.299 NA
ENDROOT
BRANCH   1   3
HETATM    3  C7  UNL     1     -32.204   8.690   1.917  1.00 20.00     0.063 C 
HETATM    4  C4  UNL     1     -33.117   9.901   1.744  1.00 20.00     0.038 C 
HETATM    5  C5  UNL     1     -31.284   8.525   0.709  1.00 20.00     0.038 C 
HETATM    6 CL9  UNL     1     -31.201   8.914   3.385  1.00 20.00    -0.114 Cl
ENDBRANCH   1   3
BRANCH   2   7
HETATM    7  C6  UNL     1     -34.276   5.955   3.416  1.00 20.00     0.099 C 
HETATM    8  C2  UNL     1     -33.455   4.801   2.859  1.00 20.00     0.034 C 
HETATM    9  C3  UNL     1     -34.714   5.695   4.850  1.00 20.00     0.034 C 
ENDBRANCH   2   7
TORSDOF 2
ENDMDL
