MODEL 1
REMARK VINA RESULT:      -4.5      0.000      0.000
REMARK  1 active torsions:
REMARK  status: ('A' for Active; 'I' for Inactive)
REMARK    1  A    between atoms: C2_2  and  C5_5 
ROOT
HETATM    1  C1  UNL     1     -33.968  18.823   1.911  1.00 20.00     0.065 A 
HETATM    2  C2  UNL     1     -33.015  18.756   0.917  1.00 20.00     0.015 A 
HETATM    3  C3  UNL     1     -33.516  18.140  -0.269  1.00 20.00    -0.031 A 
HETATM    4  C4  UNL     1     -34.836  17.758  -0.118  1.00 20.00    -0.010 A 
HETATM    5  C6  UNL     1     -32.753  17.887  -1.532  1.00 20.00     0.040 C 
HETATM    6  C7  UNL     1     -35.669  17.109  -1.178  1.00 20.00     0.046 C 
HETATM    7  C8  UNL     1     -33.688  17.566  -2.708  1.00 20.00     0.005 C 
HETATM    8  C9  UNL     1     -34.779  16.562  -2.305  1.00 20.00     0.005 C 
HETATM    9  S11 UNL     1     -35.460  18.144   1.418  1.00 20.00    -0.105 SA
ENDROOT
BRANCH   2  10
HETATM   10  C5  UNL     1     -31.680  19.263   1.108  1.00 20.00     0.271 C 
HETATM   11  O10 UNL     1     -30.668  18.544   1.132  1.00 20.00    -0.301 OA
ENDBRANCH   2  10
TORSDOF 1
ENDMDL
MODEL 2
REMARK VINA RESULT:      -4.4     11.297     11.787
REMARK  1 active torsions:
REMARK  status: ('A' for Active; 'I' for Inactive)
REMARK    1  A    between atoms: C2_2  and  C5_5 
ROOT
HETATM    1  C1  UNL     1     -31.659   8.815   3.492  1.00 20.00     0.065 A 
HETATM    2  C2  UNL     1     -32.355   7.954   2.671  1.00 20.00     0.015 A 
HETATM    3  C3  UNL     1     -33.252   7.120   3.404  1.00 20.00    -0.031 A 
HETATM    4  C4  UNL     1     -33.192   7.385   4.759  1.00 20.00    -0.010 A 
HETATM    5  C6  UNL     1     -34.147   6.061   2.838  1.00 20.00     0.040 C 
HETATM    6  C7  UNL     1     -34.020   6.707   5.805  1.00 20.00     0.046 C 
HETATM    7  C8  UNL     1     -35.232   5.637   3.840  1.00 20.00     0.005 C 
HETATM    8  C9  UNL     1     -34.651   5.421   5.245  1.00 20.00     0.005 C 
HETATM    9  S11 UNL     1     -32.083   8.619   5.139  1.00 20.00    -0.105 SA
ENDROOT
BRANCH   2  10
HETATM   10  C5  UNL     1     -32.159   7.937   1.245  1.00 20.00     0.271 C 
HETATM   11  O10 UNL     1     -31.417   8.730   0.642  1.00 20.00    -0.301 OA
ENDBRANCH   2  10
TORSDOF 1
ENDMDL
MODEL 3
REMARK VINA RESULT:      -4.3      4.523      6.503
REMARK  1 active torsions:
REMARK  status: ('A' for Active; 'I' for Inactive)
REMARK    1  A    between atoms: C2_2  and  C5_5 
ROOT
HETATM    1  C1  UNL     1     -34.635  14.214  -5.399  1.00 20.00     0.065 A 
HETATM    2  C2  UNL     1     -35.806  14.791  -4.956  1.00 20.00     0.015 A 
HETATM    3  C3  UNL     1     -35.583  15.707  -3.884  1.00 20.00    -0.031 A 
HETATM    4  C4  UNL     1     -34.242  15.779  -3.555  1.00 20.00    -0.010 A 
HETATM    5  C6  UNL     1     -36.626  16.494  -3.153  1.00 20.00     0.040 C 
HETATM    6  C7  UNL     1     -33.665  16.662  -2.493  1.00 20.00     0.046 C 
HETATM    7  C8  UNL     1     -36.008  17.640  -2.338  1.00 20.00     0.005 C 
HETATM    8  C9  UNL     1     -34.770  17.175  -1.557  1.00 20.00     0.005 C 
HETATM    9  S11 UNL     1     -33.273  14.771  -4.525  1.00 20.00    -0.105 SA
ENDROOT
BRANCH   2  10
HETATM   10  C5  UNL     1     -37.082  14.470  -5.542  1.00 20.00     0.271 C 
HETATM   11  O10 UNL     1     -37.952  13.794  -4.969  1.00 20.00    -0.301 OA
ENDBRANCH   2  10
TORSDOF 1
ENDMDL
MODEL 4
REMARK VINA RESULT:      -4.3      3.420      5.038
REMARK  1 active torsions:
REMARK  status: ('A' for Active; 'I' for Inactive)
REMARK    1  A    between atoms: C2_2  and  C5_5 
ROOT
HETATM    1  C1  UNL     1     -35.588  15.003  -4.657  1.00 20.00     0.065 A 
HETATM    2  C2  UNL     1     -34.400  15.353  -4.051  1.00 20.00     0.015 A 
HETATM    3  C3  UNL     1     -34.589  16.316  -3.014  1.00 20.00    -0.031 A 
HETATM    4  C4  UNL     1     -35.922  16.659  -2.883  1.00 20.00    -0.010 A 
HETATM    5  C6  UNL     1     -33.521  16.930  -2.163  1.00 20.00     0.040 C 
HETATM    6  C7  UNL     1     -36.466  17.622  -1.874  1.00 20.00     0.046 C 
HETATM    7  C8  UNL     1     -34.107  17.618  -0.921  1.00 20.00     0.005 C 
HETATM    8  C9  UNL     1     -35.335  18.471  -1.273  1.00 20.00     0.005 C 
HETATM    9  S11 UNL     1     -36.924  15.831  -3.982  1.00 20.00    -0.105 SA
ENDROOT
BRANCH   2  10
HETATM   10  C5  UNL     1     -33.141  14.784  -4.457  1.00 20.00     0.271 C 
HETATM   11  O10 UNL     1     -32.794  13.621  -4.194  1.00 20.00    -0.301 OA
ENDBRANCH   2  10
TORSDOF 1
ENDMDL
MODEL 5
REMARK VINA RESULT:      -4.2      4.658      6.604
REMARK  1 active torsions:
REMARK  status: ('A' for Active; 'I' for Inactive)
REMARK    1  A    between atoms: C2_2  and  C5_5 
ROOT
HETATM    1  C1  UNL     1     -34.832  15.271  -6.553  1.00 20.00     0.065 A 
HETATM    2  C2  UNL     1     -35.290  14.978  -5.286  1.00 20.00     0.015 A 
HETATM    3  C3  UNL     1     -34.811  15.907  -4.313  1.00 20.00    -0.031 A 
HETATM    4  C4  UNL     1     -34.002  16.867  -4.891  1.00 20.00    -0.010 A 
HETATM    5  C6  UNL     1     -35.092  15.881  -2.843  1.00 20.00     0.040 C 
HETATM    6  C7  UNL     1     -33.359  18.003  -4.158  1.00 20.00     0.046 C 
HETATM    7  C8  UNL     1     -34.744  17.219  -2.173  1.00 20.00     0.005 C 
HETATM    8  C9  UNL     1     -33.381  17.749  -2.642  1.00 20.00     0.005 C 
HETATM    9  S11 UNL     1     -33.830  16.658  -6.571  1.00 20.00    -0.105 SA
ENDROOT
BRANCH   2  10
HETATM   10  C5  UNL     1     -36.147  13.850  -5.028  1.00 20.00     0.271 C 
HETATM   11  O10 UNL     1     -35.845  12.678  -5.305  1.00 20.00    -0.301 OA
ENDBRANCH   2  10
TORSDOF 1
ENDMDL
MODEL 6
REMARK VINA RESULT:      -4.2      1.606      2.128
REMARK  1 active torsions:
REMARK  status: ('A' for Active; 'I' for Inactive)
REMARK    1  A    between atoms: C2_2  and  C5_5 
ROOT
HETATM    1  C1  UNL     1     -32.965  19.043   3.603  1.00 20.00     0.065 A 
HETATM    2  C2  UNL     1     -31.983  18.986   2.637  1.00 20.00     0.015 A 
HETATM    3  C3  UNL     1     -32.514  18.677   1.348  1.00 20.00    -0.031 A 
HETATM    4  C4  UNL     1     -33.886  18.507   1.397  1.00 20.00    -0.010 A 
HETATM    5  C6  UNL     1     -31.737  18.518   0.079  1.00 20.00     0.040 C 
HETATM    6  C7  UNL     1     -34.756  18.201   0.218  1.00 20.00     0.046 C 
HETATM    7  C8  UNL     1     -32.647  18.568  -1.158  1.00 20.00     0.005 C 
HETATM    8  C9  UNL     1     -33.907  17.712  -0.967  1.00 20.00     0.005 C 
HETATM    9  S11 UNL     1     -34.519  18.725   2.961  1.00 20.00    -0.105 SA
ENDROOT
BRANCH   2  10
HETATM   10  C5  UNL     1     -30.596  19.217   2.946  1.00 20.00     0.271 C 
HETATM   11  O10 UNL     1     -30.148  19.263   4.104  1.00 20.00    -0.301 OA
ENDBRANCH   2  10
TORSDOF 1
ENDMDL
MODEL 7
REMARK VINA RESULT:      -4.2      4.289      5.940
REMARK  1 active torsions:
REMARK  status: ('A' for Active; 'I' for Inactive)
REMARK    1  A    between atoms: C2_2  and  C5_5 
ROOT
HETATM    1  C1  UNL     1     -37.379  15.215  -4.774  1.00 20.00     0.065 A 
HETATM    2  C2  UNL     1     -36.081  14.972  -4.377  1.00 20.00     0.015 A 
HETATM    3  C3  UNL     1     -35.580  15.997  -3.519  1.00 20.00    -0.031 A 
HETATM    4  C4  UNL     1     -36.526  16.983  -3.307  1.00 20.00    -0.010 A 
HETATM    5  C6  UNL     1     -34.210  16.065  -2.920  1.00 20.00     0.040 C 
HETATM    6  C7  UNL     1     -36.332  18.185  -2.437  1.00 20.00     0.046 C 
HETATM    7  C8  UNL     1     -34.142  17.078  -1.767  1.00 20.00     0.005 C 
HETATM    8  C9  UNL     1     -34.841  18.396  -2.130  1.00 20.00     0.005 C 
HETATM    9  S11 UNL     1     -37.990  16.673  -4.117  1.00 20.00    -0.105 SA
ENDROOT
BRANCH   2  10
HETATM   10  C5  UNL     1     -35.360  13.803  -4.810  1.00 20.00     0.271 C 
HETATM   11  O10 UNL     1     -35.909  12.764  -5.209  1.00 20.00    -0.301 OA
ENDBRANCH   2  10
TORSDOF 1
ENDMDL
MODEL 8
REMARK VINA RESULT:      -4.0     11.855     12.395
REMARK  1 active torsions:
REMARK  status: ('A' for Active; 'I' for Inactive)
REMARK    1  A    between atoms: C2_2  and  C5_5 
ROOT
HETATM    1  C1  UNL     1     -32.622   6.445   1.795  1.00 20.00     0.065 A 
HETATM    2  C2  UNL     1     -32.654   7.421   2.768  1.00 20.00     0.015 A 
HETATM    3  C3  UNL     1     -33.298   6.971   3.960  1.00 20.00    -0.031 A 
HETATM    4  C4  UNL     1     -33.734   5.665   3.834  1.00 20.00    -0.010 A 
HETATM    5  C6  UNL     1     -33.526   7.770   5.206  1.00 20.00     0.040 C 
HETATM    6  C7  UNL     1     -34.425   4.883   4.907  1.00 20.00     0.046 C 
HETATM    7  C8  UNL     1     -33.893   6.875   6.399  1.00 20.00     0.005 C 
HETATM    8  C9  UNL     1     -34.940   5.820   6.012  1.00 20.00     0.005 C 
HETATM    9  S11 UNL     1     -33.367   4.994   2.314  1.00 20.00    -0.105 SA
ENDROOT
BRANCH   2  10
HETATM   10  C5  UNL     1     -32.090   8.728   2.554  1.00 20.00     0.271 C 
HETATM   11  O10 UNL     1     -32.075   9.299   1.451  1.00 20.00    -0.301 OA
ENDBRANCH   2  10
TORSDOF 1
ENDMDL
MODEL 9
REMARK VINA RESULT:      -4.0      4.250      5.742
REMARK  1 active torsions:
REMARK  status: ('A' for Active; 'I' for Inactive)
REMARK    1  A    between atoms: C2_2  and  C5_5 
ROOT
HETATM    1  C1  UNL     1     -34.217  16.245  -2.956  1.00 20.00     0.065 A 
HETATM    2  C2  UNL     1     -34.179  15.305  -3.964  1.00 20.00     0.015 A 
HETATM    3  C3  UNL     1     -35.474  15.046  -4.506  1.00 20.00    -0.031 A 
HETATM    4  C4  UNL     1     -36.444  15.803  -3.876  1.00 20.00    -0.010 A 
HETATM    5  C6  UNL     1     -35.805  14.073  -5.596  1.00 20.00     0.040 C 
HETATM    6  C7  UNL     1     -37.901  15.791  -4.220  1.00 20.00     0.046 C 
HETATM    7  C8  UNL     1     -37.203  14.327  -6.180  1.00 20.00     0.005 C 
HETATM    8  C9  UNL     1     -38.244  14.561  -5.076  1.00 20.00     0.005 C 
HETATM    9  S11 UNL     1     -35.805  16.812  -2.663  1.00 20.00    -0.105 SA
ENDROOT
BRANCH   2  10
HETATM   10  C5  UNL     1     -32.948  14.685  -4.381  1.00 20.00     0.271 C 
HETATM   11  O10 UNL     1     -32.655  13.503  -4.136  1.00 20.00    -0.301 OA
ENDBRANCH   2  10
TORSDOF 1
ENDMDL
