MODEL 1
REMARK VINA RESULT:      -6.8      0.000      0.000
REMARK  3 active torsions:
REMARK  status: ('A' for Active; 'I' for Inactive)
REMARK    1  A    between atoms: C1_1  and  C3_3 
REMARK       I    between atoms: C1_1  and  N10_10 
REMARK    2  A    between atoms: C8_8  and  C9_9 
REMARK    3  A    between atoms: C8_8  and  N10_10 
ROOT
HETATM    1  C1  UNL     1     -33.253   6.909   3.101  1.00 20.00     0.222 C 
HETATM    2  N10 UNL     1     -32.893   8.149   2.664  1.00 20.00    -0.360 N 
HETATM    3  O11 UNL     1     -32.788   5.829   2.753  1.00 20.00    -0.273 OA
HETATM    4  H28 UNL     1     -33.363   8.949   3.037  1.00 20.00     0.162 HD
ENDROOT
BRANCH   1   5
HETATM    5  C3  UNL     1     -34.343   6.947   4.119  1.00 20.00     0.082 A 
HETATM    6  C2  UNL     1     -34.001   6.641   5.543  1.00 20.00     0.019 A 
HETATM    7  C4  UNL     1     -34.833   5.678   4.745  1.00 20.00    -0.005 A 
HETATM    8  C5  UNL     1     -34.287   4.336   4.393  1.00 20.00     0.011 C 
ENDBRANCH   1   5
BRANCH   2   9
HETATM    9  C8  UNL     1     -31.829   8.345   1.654  1.00 20.00     0.126 C 
BRANCH   9  10
HETATM   10  C9  UNL     1     -32.132   9.531   0.730  1.00 20.00    -0.005 C 
HETATM   11  C6  UNL     1     -33.021   9.135  -0.449  1.00 20.00     0.011 C 
HETATM   12  C7  UNL     1     -32.740  10.710   1.491  1.00 20.00     0.011 C 
ENDBRANCH   9  10
ENDBRANCH   2   9
TORSDOF 3
ENDMDL
MODEL 2
REMARK VINA RESULT:      -6.4      1.408      1.760
REMARK  3 active torsions:
REMARK  status: ('A' for Active; 'I' for Inactive)
REMARK    1  A    between atoms: C1_1  and  C3_3 
REMARK       I    between atoms: C1_1  and  N10_10 
REMARK    2  A    between atoms: C8_8  and  C9_9 
REMARK    3  A    between atoms: C8_8  and  N10_10 
ROOT
HETATM    1  C1  UNL     1     -33.563   7.189   4.478  1.00 20.00     0.222 C 
HETATM    2  N10 UNL     1     -33.324   7.453   3.162  1.00 20.00    -0.360 N 
HETATM    3  O11 UNL     1     -32.945   7.608   5.449  1.00 20.00    -0.273 OA
HETATM    4  H28 UNL     1     -33.914   7.038   2.469  1.00 20.00     0.162 HD
ENDROOT
BRANCH   1   5
HETATM    5  C3  UNL     1     -34.728   6.279   4.683  1.00 20.00     0.082 A 
HETATM    6  C2  UNL     1     -34.595   5.159   5.666  1.00 20.00     0.019 A 
HETATM    7  C4  UNL     1     -34.671   4.864   4.195  1.00 20.00    -0.005 A 
HETATM    8  C5  UNL     1     -33.489   4.296   3.487  1.00 20.00     0.011 C 
ENDBRANCH   1   5
BRANCH   2   9
HETATM    9  C8  UNL     1     -32.218   8.335   2.729  1.00 20.00     0.126 C 
BRANCH   9  10
HETATM   10  C9  UNL     1     -32.460   8.907   1.327  1.00 20.00    -0.005 C 
HETATM   11  C6  UNL     1     -32.800  10.397   1.358  1.00 20.00     0.011 C 
HETATM   12  C7  UNL     1     -31.282   8.642   0.389  1.00 20.00     0.011 C 
ENDBRANCH   9  10
ENDBRANCH   2   9
TORSDOF 3
ENDMDL
MODEL 3
REMARK VINA RESULT:      -6.4      1.210      5.179
REMARK  3 active torsions:
REMARK  status: ('A' for Active; 'I' for Inactive)
REMARK    1  A    between atoms: C1_1  and  C3_3 
REMARK       I    between atoms: C1_1  and  N10_10 
REMARK    2  A    between atoms: C8_8  and  C9_9 
REMARK    3  A    between atoms: C8_8  and  N10_10 
ROOT
HETATM    1  C1  UNL     1     -32.402   7.936   2.659  1.00 20.00     0.222 C 
HETATM    2  N10 UNL     1     -33.556   7.332   3.059  1.00 20.00    -0.360 N 
HETATM    3  O11 UNL     1     -31.453   8.273   3.357  1.00 20.00    -0.273 OA
HETATM    4  H28 UNL     1     -34.252   7.113   2.374  1.00 20.00     0.162 HD
ENDROOT
BRANCH   1   5
HETATM    5  C3  UNL     1     -32.358   8.185   1.188  1.00 20.00     0.082 A 
HETATM    6  C2  UNL     1     -31.191   8.931   0.624  1.00 20.00     0.019 A 
HETATM    7  C4  UNL     1     -32.550   9.570   0.654  1.00 20.00    -0.005 A 
HETATM    8  C5  UNL     1     -32.800  10.751   1.529  1.00 20.00     0.011 C 
ENDBRANCH   1   5
BRANCH   2   9
HETATM    9  C8  UNL     1     -33.811   6.990   4.476  1.00 20.00     0.126 C 
BRANCH   9  10
HETATM   10  C9  UNL     1     -34.581   5.672   4.615  1.00 20.00    -0.005 C 
HETATM   11  C6  UNL     1     -34.036   4.581   3.692  1.00 20.00     0.011 C 
HETATM   12  C7  UNL     1     -34.623   5.181   6.063  1.00 20.00     0.011 C 
ENDBRANCH   9  10
ENDBRANCH   2   9
TORSDOF 3
ENDMDL
MODEL 4
REMARK VINA RESULT:      -6.2      1.060      1.798
REMARK  3 active torsions:
REMARK  status: ('A' for Active; 'I' for Inactive)
REMARK    1  A    between atoms: C1_1  and  C3_3 
REMARK       I    between atoms: C1_1  and  N10_10 
REMARK    2  A    between atoms: C8_8  and  C9_9 
REMARK    3  A    between atoms: C8_8  and  N10_10 
ROOT
HETATM    1  C1  UNL     1     -33.000   7.009   3.409  1.00 20.00     0.222 C 
HETATM    2  N10 UNL     1     -32.798   7.330   2.100  1.00 20.00    -0.360 N 
HETATM    3  O11 UNL     1     -32.590   7.605   4.398  1.00 20.00    -0.273 OA
HETATM    4  H28 UNL     1     -33.196   6.747   1.390  1.00 20.00     0.162 HD
ENDROOT
BRANCH   1   5
HETATM    5  C3  UNL     1     -33.827   5.778   3.582  1.00 20.00     0.082 A 
HETATM    6  C2  UNL     1     -35.311   5.925   3.695  1.00 20.00     0.019 A 
HETATM    7  C4  UNL     1     -34.504   5.505   4.890  1.00 20.00    -0.005 A 
HETATM    8  C5  UNL     1     -34.390   6.411   6.068  1.00 20.00     0.011 C 
ENDBRANCH   1   5
BRANCH   2   9
HETATM    9  C8  UNL     1     -32.008   8.514   1.697  1.00 20.00     0.126 C 
BRANCH   9  10
HETATM   10  C9  UNL     1     -32.892   9.609   1.089  1.00 20.00    -0.005 C 
HETATM   11  C6  UNL     1     -32.420  11.014   1.466  1.00 20.00     0.011 C 
HETATM   12  C7  UNL     1     -33.012   9.471  -0.429  1.00 20.00     0.011 C 
ENDBRANCH   9  10
ENDBRANCH   2   9
TORSDOF 3
ENDMDL
MODEL 5
REMARK VINA RESULT:      -6.1      1.105      4.888
REMARK  3 active torsions:
REMARK  status: ('A' for Active; 'I' for Inactive)
REMARK    1  A    between atoms: C1_1  and  C3_3 
REMARK       I    between atoms: C1_1  and  N10_10 
REMARK    2  A    between atoms: C8_8  and  C9_9 
REMARK    3  A    between atoms: C8_8  and  N10_10 
ROOT
HETATM    1  C1  UNL     1     -32.099   8.492   2.513  1.00 20.00     0.222 C 
HETATM    2  N10 UNL     1     -33.299   7.851   2.596  1.00 20.00    -0.360 N 
HETATM    3  O11 UNL     1     -31.004   8.080   2.876  1.00 20.00    -0.273 OA
HETATM    4  H28 UNL     1     -34.120   8.312   2.258  1.00 20.00     0.162 HD
ENDROOT
BRANCH   1   5
HETATM    5  C3  UNL     1     -32.209   9.848   1.899  1.00 20.00     0.082 A 
HETATM    6  C2  UNL     1     -33.556  10.326   1.459  1.00 20.00     0.019 A 
HETATM    7  C4  UNL     1     -32.507   9.989   0.438  1.00 20.00    -0.005 A 
HETATM    8  C5  UNL     1     -32.697   8.822  -0.469  1.00 20.00     0.011 C 
ENDBRANCH   1   5
BRANCH   2   9
HETATM    9  C8  UNL     1     -33.423   6.493   3.170  1.00 20.00     0.126 C 
BRANCH   9  10
HETATM   10  C9  UNL     1     -34.307   6.481   4.422  1.00 20.00    -0.005 C 
HETATM   11  C6  UNL     1     -34.665   5.063   4.868  1.00 20.00     0.011 C 
HETATM   12  C7  UNL     1     -33.678   7.265   5.575  1.00 20.00     0.011 C 
ENDBRANCH   9  10
ENDBRANCH   2   9
TORSDOF 3
ENDMDL
MODEL 6
REMARK VINA RESULT:      -5.8      1.022      1.716
REMARK  3 active torsions:
REMARK  status: ('A' for Active; 'I' for Inactive)
REMARK    1  A    between atoms: C1_1  and  C3_3 
REMARK       I    between atoms: C1_1  and  N10_10 
REMARK    2  A    between atoms: C8_8  and  C9_9 
REMARK    3  A    between atoms: C8_8  and  N10_10 
ROOT
HETATM    1  C1  UNL     1     -33.134   6.086   3.033  1.00 20.00     0.222 C 
HETATM    2  N10 UNL     1     -33.242   7.440   3.150  1.00 20.00    -0.360 N 
HETATM    3  O11 UNL     1     -32.202   5.448   2.558  1.00 20.00    -0.273 OA
HETATM    4  H28 UNL     1     -34.068   7.827   3.562  1.00 20.00     0.162 HD
ENDROOT
BRANCH   1   5
HETATM    5  C3  UNL     1     -34.325   5.362   3.567  1.00 20.00     0.082 A 
HETATM    6  C2  UNL     1     -35.581   6.137   3.813  1.00 20.00     0.019 A 
HETATM    7  C4  UNL     1     -34.785   5.605   4.971  1.00 20.00    -0.005 A 
HETATM    8  C5  UNL     1     -34.099   6.548   5.899  1.00 20.00     0.011 C 
ENDBRANCH   1   5
BRANCH   2   9
HETATM    9  C8  UNL     1     -32.174   8.354   2.687  1.00 20.00     0.126 C 
BRANCH   9  10
HETATM   10  C9  UNL     1     -32.464   8.905   1.286  1.00 20.00    -0.005 C 
HETATM   11  C6  UNL     1     -32.797  10.397   1.307  1.00 20.00     0.011 C 
HETATM   12  C7  UNL     1     -31.321   8.622   0.311  1.00 20.00     0.011 C 
ENDBRANCH   9  10
ENDBRANCH   2   9
TORSDOF 3
ENDMDL
MODEL 7
REMARK VINA RESULT:      -4.9      1.500      4.793
REMARK  3 active torsions:
REMARK  status: ('A' for Active; 'I' for Inactive)
REMARK    1  A    between atoms: C1_1  and  C3_3 
REMARK       I    between atoms: C1_1  and  N10_10 
REMARK    2  A    between atoms: C8_8  and  C9_9 
REMARK    3  A    between atoms: C8_8  and  N10_10 
ROOT
HETATM    1  C1  UNL     1     -33.411   6.783   2.628  1.00 20.00     0.222 C 
HETATM    2  N10 UNL     1     -34.587   6.913   3.305  1.00 20.00    -0.360 N 
HETATM    3  O11 UNL     1     -32.736   5.771   2.489  1.00 20.00    -0.273 OA
HETATM    4  H28 UNL     1     -35.032   7.808   3.337  1.00 20.00     0.162 HD
ENDROOT
BRANCH   1   5
HETATM    5  C3  UNL     1     -32.956   8.063   2.010  1.00 20.00     0.082 A 
HETATM    6  C2  UNL     1     -31.597   8.112   1.386  1.00 20.00     0.019 A 
HETATM    7  C4  UNL     1     -31.869   8.866   2.656  1.00 20.00    -0.005 A 
HETATM    8  C5  UNL     1     -31.202   8.456   3.924  1.00 20.00     0.011 C 
ENDBRANCH   1   5
BRANCH   2   9
HETATM    9  C8  UNL     1     -35.224   5.768   3.994  1.00 20.00     0.126 C 
BRANCH   9  10
HETATM   10  C9  UNL     1     -34.761   5.650   5.451  1.00 20.00    -0.005 C 
HETATM   11  C6  UNL     1     -33.922   4.395   5.694  1.00 20.00     0.011 C 
HETATM   12  C7  UNL     1     -34.011   6.898   5.917  1.00 20.00     0.011 C 
ENDBRANCH   9  10
ENDBRANCH   2   9
TORSDOF 3
ENDMDL
MODEL 8
REMARK VINA RESULT:      -4.9     10.161     11.834
REMARK  3 active torsions:
REMARK  status: ('A' for Active; 'I' for Inactive)
REMARK    1  A    between atoms: C1_1  and  C3_3 
REMARK       I    between atoms: C1_1  and  N10_10 
REMARK    2  A    between atoms: C8_8  and  C9_9 
REMARK    3  A    between atoms: C8_8  and  N10_10 
ROOT
HETATM    1  C1  UNL     1     -35.548  13.804  -4.862  1.00 20.00     0.222 C 
HETATM    2  N10 UNL     1     -36.570  14.698  -4.746  1.00 20.00    -0.360 N 
HETATM    3  O11 UNL     1     -35.523  12.779  -5.533  1.00 20.00    -0.273 OA
HETATM    4  H28 UNL     1     -36.451  15.498  -4.157  1.00 20.00     0.162 HD
ENDROOT
BRANCH   1   5
HETATM    5  C3  UNL     1     -34.352  14.184  -4.053  1.00 20.00     0.082 A 
HETATM    6  C2  UNL     1     -34.232  15.596  -3.575  1.00 20.00     0.019 A 
HETATM    7  C4  UNL     1     -33.303  15.078  -4.636  1.00 20.00    -0.005 A 
HETATM    8  C5  UNL     1     -33.378  15.622  -6.022  1.00 20.00     0.011 C 
ENDBRANCH   1   5
BRANCH   2   9
HETATM    9  C8  UNL     1     -37.851  14.520  -5.465  1.00 20.00     0.126 C 
BRANCH   9  10
HETATM   10  C9  UNL     1     -37.986  15.497  -6.639  1.00 20.00    -0.005 C 
HETATM   11  C6  UNL     1     -37.578  16.921  -6.259  1.00 20.00     0.011 C 
HETATM   12  C7  UNL     1     -37.212  15.025  -7.870  1.00 20.00     0.011 C 
ENDBRANCH   9  10
ENDBRANCH   2   9
TORSDOF 3
ENDMDL
MODEL 9
REMARK VINA RESULT:      -4.8     10.599     11.373
REMARK  3 active torsions:
REMARK  status: ('A' for Active; 'I' for Inactive)
REMARK    1  A    between atoms: C1_1  and  C3_3 
REMARK       I    between atoms: C1_1  and  N10_10 
REMARK    2  A    between atoms: C8_8  and  C9_9 
REMARK    3  A    between atoms: C8_8  and  N10_10 
ROOT
HETATM    1  C1  UNL     1     -33.544  14.844  -4.859  1.00 20.00     0.222 C 
HETATM    2  N10 UNL     1     -33.922  16.067  -4.392  1.00 20.00    -0.360 N 
HETATM    3  O11 UNL     1     -32.897  13.985  -4.270  1.00 20.00    -0.273 OA
HETATM    4  H28 UNL     1     -34.452  16.671  -4.987  1.00 20.00     0.162 HD
ENDROOT
BRANCH   1   5
HETATM    5  C3  UNL     1     -34.008  14.588  -6.254  1.00 20.00     0.082 A 
HETATM    6  C2  UNL     1     -35.168  15.375  -6.777  1.00 20.00     0.019 A 
HETATM    7  C4  UNL     1     -35.319  13.907  -6.498  1.00 20.00    -0.005 A 
HETATM    8  C5  UNL     1     -36.211  13.445  -5.396  1.00 20.00     0.011 C 
ENDBRANCH   1   5
BRANCH   2   9
HETATM    9  C8  UNL     1     -33.572  16.528  -3.030  1.00 20.00     0.126 C 
BRANCH   9  10
HETATM   10  C9  UNL     1     -34.784  16.506  -2.091  1.00 20.00    -0.005 C 
HETATM   11  C6  UNL     1     -34.616  17.455  -0.904  1.00 20.00     0.011 C 
HETATM   12  C7  UNL     1     -36.089  16.796  -2.833  1.00 20.00     0.011 C 
ENDBRANCH   9  10
ENDBRANCH   2   9
TORSDOF 3
ENDMDL
